data_PCOD8202810
_publ_section_title
;
Structure prediction by ZEFSAII (Michael W. Deem and Ramdas Pophale) SiO2 
 PCOD8202810
Probable space group: P C C M
;
_chemical_formula_sum "Si O2"
_cell_formula_units_Z 64
_cell_length_a 12.679413
_cell_length_b 14.765104
_cell_length_c 17.355274
_cell_angle_alpha 90.000000
_cell_angle_beta 90.000000
_cell_angle_gamma 90.000000
_cell_volume 3249.130336
_symmetry_space_group_name_H-M "P C C M"
_symmetry_group_IT_number 49
_symmetry_cell_setting 'orthorhombic'
loop_
_space_group_symop_operation_xyz
x,y,z
-x,-y,z
x,-y,1/2-z
-x,y,1/2-z
-x,-y,-z
x,y,-z
-x,y,1/2+z
x,-y,1/2+z
loop_
_atom_site_type_symbol
_atom_site_label
_atom_site_fract_x
_atom_site_fract_y
_atom_site_fract_z
Si Si1 0.319233 0.005673 0.089619
Si Si2 0.792713 0.334007 0.335301
Si Si3 0.877212 0.495881 0.089997
Si Si4 0.011987 0.773014 0.338463
Si Si5 0.095851 0.061969 0.917563
Si Si6 0.199131 0.309333 0.347186
Si Si7 0.621788 0.796169 0.090095
Si Si8 0.382425 0.189124 0.410119
O O1 0.194928 0.002069 0.109005
O O2 0.360574 0.101640 0.123464
O O3 0.369818 0.913566 0.124966
O O4 0.347500 0.005598 0.000000
O O5 0.797589 0.436860 0.364629
O O6 0.900106 0.294101 0.372664
O O7 0.795433 0.330867 0.243159
O O8 0.691704 0.277636 0.365032
O O9 0.823188 0.399722 0.105284
O O10 0.000000 0.500000 0.119498
O O11 0.873679 0.518913 0.000000
O O12 0.059455 0.871896 0.350601
O O13 0.000000 0.752790 0.250000
O O14 0.896313 0.757632 0.373843
O O15 0.124573 0.111410 0.000000
O O16 0.000000 0.000000 0.936874
O O17 0.307341 0.261241 0.369510
O O18 0.499603 0.773582 0.104507
O O19 0.650988 0.791387 0.000000
O O20 0.353811 0.185766 0.500000
#
# Coordination Sequence:
#
# PCOD8202810 Si02
#       8
#     8   8   8   8   8   8   8   8
#     4   9  17  32  56  85 115 152 198 245 295 343
#     4  11  22  39  61  87 119 153 196 238 288 351
#     4  11  23  39  64  94 120 150 190 237 291 353
#     4  10  21  35  53  80 115 157 190 230 288 350
#     4  10  19  30  49  79 114 151 194 244 289 339
#     4  11  23  39  59  86 123 159 191 236 295 358
#     4  10  20  37  62  88 117 156 203 251 293 342
#     4  10  21  38  59  86 120 157 201 251 298 343
#
# _framework density 19.697578
#
# number of rings (size 3 to 8) (size 9 to 14) (size 15 to 20)
#    0.000    1.750    2.500    2.250    0.000    5.250 
#    0.000    1.250    0.000    5.250    0.000    0.000 
#    0.000    0.000    0.000    0.000    0.000    0.000 
#
# Total GULP energy -793035.728354 kJ/mol
# GULP energy per Si atom -12391.183256 kJ/mol
# Density = 1.965274 g / cm^3
# Si number density = 19.697578 Si / 1000 Ang^3
#
#
#
# Elastic Constant Matrix: (Units=GPa)
#
#
# Indices 1 2 3 4 5 6 
#
# 1 121.2949 40.6668 31.0980 0.0000 0.0000 0.0000
# 2 40.6668 100.8159 23.7912 0.0000 0.0000 0.0000
# 3 31.0980 23.7912 47.3381 0.0000 0.0000 0.0000
# 4 0.0000 0.0000 0.0000 23.7530 0.0000 0.0000
# 5 0.0000 0.0000 0.0000 0.0000 26.2468 0.0000
# 6 0.0000 0.0000 0.0000 0.0000 0.0000 25.9792
#
#
#
# Elastic Compliance Matrix: (Units=1/GPa)
#
#
# Indices 1 2 3 4 5 6 
#
# 1 0.010660 -0.003004 -0.005493 0.000000 0.000000 0.000000
# 2 -0.003004 0.012100 -0.004108 0.000000 0.000000 0.000000
# 3 -0.005493 -0.004108 0.026798 0.000000 0.000000 0.000000
# 4 0.000000 0.000000 0.000000 0.042100 0.000000 0.000000
# 5 0.000000 0.000000 0.000000 0.000000 0.038100 0.000000
# 6 0.000000 0.000000 0.000000 0.000000 0.000000 0.038492
#
#
# Mechanical properties :
#
#
# Convention : Reuss Voigt Hill
#
# Bulk Modulus (GPa) = 41.07112 51.17342 46.12227
# Shear Modulus (GPa) = 24.80458 26.78868 25.79663
#
# Velocity S-wave (km/s) = 3.55247 3.69182 3.62281
# Velocity P-wave (km/s) = 6.14189 6.64896 6.40045
#
# Compressibility (1/GPa) = 0.02434801
#
# Stress axis : x y z
#
# Youngs Moduli (GPa) = 93.81087 82.64396 37.31624
#
# Poissons Ratio (x) = 0.24823 0.20499
# Poissons Ratio (y) = 0.28177 0.15330
# Poissons Ratio (z) = 0.51532 0.33951
#
# Static dielectric constant tensor:
#      x y z
#    x 3.695610 0.000000 0.000000 
#    y 0.000000 2.424980 0.000000 
#    z 0.000000 0.000000 3.370510 
# 
# 
# High freq. dielectric constant tensor:
#      x y z
#    x 1.773770 0.000000 0.000000 
#    y 0.000000 1.764100 0.000000 
#    z 0.000000 0.000000 1.744100 
# 
# From -- ./inp_files/17346.got.cif
#   From: 2010.03.12/outbox.cif.g09.slc.cpg/sg49_9_cif.got.tgz:17346.got - 2010.04.14 03:58:27.
