data_PCOD8202163
_publ_section_title
;
Structure prediction by ZEFSAII (Michael W. Deem and Ramdas Pophale) SiO2 
 PCOD8202163
Probable space group: P N N N
;
_chemical_formula_sum "Si O2"
_cell_formula_units_Z 34
_cell_length_a 14.698129
_cell_length_b 8.754949
_cell_length_c 11.538329
_cell_angle_alpha 90.000000
_cell_angle_beta 90.000000
_cell_angle_gamma 90.000000
_cell_volume 1484.767981
_symmetry_space_group_name_H-M "P N N N"
_symmetry_group_IT_number 48
_space_group.IT_coordinate_system_code '2'
_symmetry_cell_setting 'orthorhombic'
loop_
_space_group_symop_operation_xyz
x,y,z
1/2-x,1/2-y,z
x,1/2-y,1/2-z
1/2-x,y,1/2-z
-x,-y,-z
1/2+x,1/2+y,-z
-x,1/2+y,1/2+z
1/2+x,-y,1/2+z
loop_
_atom_site_type_symbol
_atom_site_label
_atom_site_fract_x
_atom_site_fract_y
_atom_site_fract_z
Si Si1 0.886264 0.601640 0.070700
Si Si2 0.044172 0.578819 0.228922
Si Si3 0.250000 0.250000 0.750000
Si Si4 0.878318 0.655257 0.632622
Si Si5 0.218552 0.921177 0.404429
O O1 0.816950 0.649757 0.171369
O O2 0.980959 0.533017 0.121387
O O3 0.903211 0.734841 0.974536
O O4 0.845412 0.451011 0.013663
O O5 0.010329 0.750000 0.250000
O O6 0.036424 0.461485 0.338172
O O7 0.153904 0.571669 0.209085
O O8 0.857663 0.750000 0.750000
O O9 0.791409 0.556550 0.594769
O O10 0.250000 0.750000 0.418890
#
# Coordination Sequence:
#
# PCOD8202163 Si02
#       5
#     8   8   2   8   8
#     4  12  27  50  71 105 150 198 244 297 370 448
#     4  12  26  44  72 109 150 183 239 314 368 424
#     4  12  24  48  76  96 146 204 238 290 364 452
#     4  12  26  44  79 106 140 194 247 296 371 438
#     4  12  25  44  74 108 141 183 245 309 359 424
#
# _framework density 22.8992
#
# number of rings (size 3 to 8) (size 9 to 14) (size 15 to 20)
#    0.000    0.000    8.235    1.412    3.294    0.941 
#    4.235    0.588    0.000    0.000    0.000    0.000 
#    0.000    0.000    0.000    0.000    0.000    0.000 
#
# Total GULP energy -421274.669572 kJ/mol
# GULP energy per Si atom -12390.431458 kJ/mol
# Density = 2.284708 g / cm^3
# Si number density = 22.899200 Si / 1000 Ang^3
#
#
#
# Elastic Constant Matrix: (Units=GPa)
#
#
# Indices 1 2 3 4 5 6 
#
# 1 87.9836 39.5532 26.1554 0.0000 0.0000 0.0000
# 2 39.5532 128.4140 41.3476 0.0000 0.0000 0.0000
# 3 26.1554 41.3476 103.2709 0.0000 0.0000 0.0000
# 4 0.0000 0.0000 0.0000 26.3434 0.0000 0.0000
# 5 0.0000 0.0000 0.0000 0.0000 6.4507 0.0000
# 6 0.0000 0.0000 0.0000 0.0000 0.0000 21.9621
#
#
#
# Elastic Compliance Matrix: (Units=1/GPa)
#
#
# Indices 1 2 3 4 5 6 
#
# 1 0.013550 -0.003523 -0.002021 0.000000 0.000000 0.000000
# 2 -0.003523 0.009856 -0.003054 0.000000 0.000000 0.000000
# 3 -0.002021 -0.003054 0.011418 0.000000 0.000000 0.000000
# 4 0.000000 0.000000 0.000000 0.037960 0.000000 0.000000
# 5 0.000000 0.000000 0.000000 0.000000 0.155022 0.000000
# 6 0.000000 0.000000 0.000000 0.000000 0.000000 0.045533
#
#
# Mechanical properties :
#
#
# Convention : Reuss Voigt Hill
#
# Bulk Modulus (GPa) = 56.72835 59.30899 58.01867
# Shear Modulus (GPa) = 16.86849 25.12541 20.99695
#
# Velocity S-wave (km/s) = 2.71706 3.31602 3.03137
# Velocity P-wave (km/s) = 5.88813 6.37319 6.13546
#
# Compressibility (1/GPa) = 0.01762787
#
# Stress axis : x y z
#
# Youngs Moduli (GPa) = 73.79876 101.46447 87.58165
#
# Poissons Ratio (x) = 0.35744 0.17704
# Poissons Ratio (y) = 0.25998 0.26746
# Poissons Ratio (z) = 0.14918 0.30985
#
# Static dielectric constant tensor:
#      x y z
#    x 4.160950 0.000000 0.000000 
#    y 0.000000 4.408240 0.000000 
#    z 0.000000 0.000000 4.407130 
# 
# 
# High freq. dielectric constant tensor:
#      x y z
#    x 1.903460 0.000000 0.000000 
#    y 0.000000 1.917890 0.000000 
#    z 0.000000 0.000000 1.907940 
# 
# From -- ./inp_files/11988.got.cif
#   From: 2010.06.25/outbox.cif.g09.slc.cpg/sg48_6_cif.got.tgz:11988.got - 2010.06.26 18:06:46.
