data_PCOD8202668
_publ_section_title
;
Structure prediction by ZEFSAII (Michael W. Deem and Ramdas Pophale) SiO2 
 PCOD8202668
Probable space group: P C C M
;
_chemical_formula_sum "Si O2"
_cell_formula_units_Z 56
_cell_length_a 15.324195
_cell_length_b 20.296940
_cell_length_c 8.778979
_cell_angle_alpha 90.000000
_cell_angle_beta 90.000000
_cell_angle_gamma 90.000000
_cell_volume 2730.563294
_symmetry_space_group_name_H-M "P C C M"
_symmetry_group_IT_number 49
_symmetry_cell_setting 'orthorhombic'
loop_
_space_group_symop_operation_xyz
x,y,z
-x,-y,z
x,-y,1/2-z
-x,y,1/2-z
-x,-y,-z
x,y,-z
-x,y,1/2+z
x,-y,1/2+z
loop_
_atom_site_type_symbol
_atom_site_label
_atom_site_fract_x
_atom_site_fract_y
_atom_site_fract_z
Si Si1 0.409187 0.327724 0.819847
Si Si2 0.275255 0.933588 0.822092
Si Si3 0.910164 0.621849 0.680297
Si Si4 0.735149 0.568426 0.818625
Si Si5 0.873317 0.758633 0.175057
Si Si6 0.322229 0.802546 0.673104
Si Si7 0.915599 0.893109 0.319736
O O1 0.500000 0.351899 0.750000
O O2 0.332144 0.375506 0.762516
O O3 0.390853 0.252111 0.767746
O O4 0.415148 0.331276 0.000000
O O5 0.329020 0.869236 0.770920
O O6 0.174018 0.928455 0.770212
O O7 0.315050 0.000000 0.750000
O O8 0.284638 0.939567 0.000000
O O9 0.909255 0.612142 0.500000
O O10 0.830765 0.582241 0.753794
O O11 0.903328 0.698552 0.721360
O O12 0.000000 0.593192 0.750000
O O13 0.700503 0.500000 0.750000
O O14 0.740216 0.565184 0.000000
O O15 0.770086 0.766787 0.188325
O O16 0.920391 0.822232 0.241011
O O17 0.901206 0.746434 0.000000
O O18 0.340660 0.823356 0.500000
O O19 0.922069 0.887008 0.500000
O O20 0.000000 0.931824 0.250000
#
# Coordination Sequence:
#
# PCOD8202668 Si02
#       7
#     8   8   8   8   8   8   8
#     4  10  22  41  67  98 130 161 200 247 303 367
#     4  10  21  35  53  79 110 150 198 245 297 364
#     4  12  24  38  59  87 120 163 210 258 308 361
#     4  11  24  45  66  92 128 166 208 253 306 361
#     4  10  18  33  55  79 112 152 197 250 305 357
#     4   9  18  36  60  85 117 156 194 244 300 353
#     4  10  20  32  46  71 105 145 196 248 302 358
#
# _framework density 20.508589000000001
#
# number of rings (size 3 to 8) (size 9 to 14) (size 15 to 20)
#    0.000    1.714    1.429    3.429    0.000    4.857 
#    0.000    4.286    0.000    0.429    0.000    3.000 
#    0.000    0.000    0.000    0.000    0.000    0.000 
#
# Total GULP energy -694443.186447 kJ/mol
# GULP energy per Si atom -12400.771187 kJ/mol
# Density = 2.046191 g / cm^3
# Si number density = 20.508589 Si / 1000 Ang^3
#
#
#
# Elastic Constant Matrix: (Units=GPa)
#
#
# Indices 1 2 3 4 5 6 
#
# 1 91.2262 44.9525 34.4013 0.0000 0.0000 0.0000
# 2 44.9525 123.7797 46.8125 0.0000 0.0000 0.0000
# 3 34.4013 46.8125 90.9088 0.0000 0.0000 0.0000
# 4 0.0000 0.0000 0.0000 33.1914 0.0000 0.0000
# 5 0.0000 0.0000 0.0000 0.0000 29.3313 0.0000
# 6 0.0000 0.0000 0.0000 0.0000 0.0000 4.4963
#
#
#
# Elastic Compliance Matrix: (Units=1/GPa)
#
#
# Indices 1 2 3 4 5 6 
#
# 1 0.014131 -0.003862 -0.003359 0.000000 0.000000 0.000000
# 2 -0.003862 0.011088 -0.004248 0.000000 0.000000 0.000000
# 3 -0.003359 -0.004248 0.014459 0.000000 0.000000 0.000000
# 4 0.000000 0.000000 0.000000 0.030128 0.000000 0.000000
# 5 0.000000 0.000000 0.000000 0.000000 0.034093 0.000000
# 6 0.000000 0.000000 0.000000 0.000000 0.000000 0.222405
#
#
# Mechanical properties :
#
#
# Convention : Reuss Voigt Hill
#
# Bulk Modulus (GPa) = 59.73679 62.02747 60.88213
# Shear Modulus (GPa) = 14.09155 25.38703 19.73929
#
# Velocity S-wave (km/s) = 2.62411 3.52216 3.10577
# Velocity P-wave (km/s) = 6.19453 6.84479 6.52776
#
# Compressibility (1/GPa) = 0.01674010
#
# Stress axis : x y z
#
# Youngs Moduli (GPa) = 70.76499 90.18788 69.16225
#
# Poissons Ratio (x) = 0.34827 0.23231
# Poissons Ratio (y) = 0.27327 0.29382
# Poissons Ratio (z) = 0.23770 0.38315
#
# Static dielectric constant tensor:
#      x y z
#    x 3.759110 0.000000 0.000000 
#    y 0.000000 3.775040 0.000000 
#    z 0.000000 0.000000 3.666840 
# 
# 
# High freq. dielectric constant tensor:
#      x y z
#    x 1.787230 0.000000 0.000000 
#    y 0.000000 1.802500 0.000000 
#    z 0.000000 0.000000 1.803610 
# 
# From -- ./inp_files/3998.got.cif
#   From: 2010.03.12/outbox.cif.g09.slc.cpg/sg49_2_cif.got.tgz:3998.got - 2010.04.14 03:58:27.
