data_PCOD8202802
_publ_section_title
;
Structure prediction by ZEFSAII (Michael W. Deem and Ramdas Pophale) SiO2 
 PCOD8202802
Probable space group: P C C M
;
_chemical_formula_sum "Si O2"
_cell_formula_units_Z 64
_cell_length_a 14.650643
_cell_length_b 23.960132
_cell_length_c 8.971067
_cell_angle_alpha 90.000000
_cell_angle_beta 90.000000
_cell_angle_gamma 90.000000
_cell_volume 3149.125672
_symmetry_space_group_name_H-M "P C C M"
_symmetry_group_IT_number 49
_symmetry_cell_setting 'orthorhombic'
loop_
_space_group_symop_operation_xyz
x,y,z
-x,-y,z
x,-y,1/2-z
-x,y,1/2-z
-x,-y,-z
x,y,-z
-x,y,1/2+z
x,-y,1/2+z
loop_
_atom_site_type_symbol
_atom_site_label
_atom_site_fract_x
_atom_site_fract_y
_atom_site_fract_z
Si Si1 0.834420 0.675128 0.822668
Si Si2 0.851855 0.553890 0.165404
Si Si3 0.412499 0.777178 0.832374
Si Si4 0.278097 0.849615 0.675615
Si Si5 0.633551 0.553411 0.166429
Si Si6 0.908399 0.793468 0.174188
Si Si7 0.352791 0.658612 0.165867
Si Si8 0.403789 0.940357 0.820133
O O1 0.882175 0.615673 0.773550
O O2 0.889860 0.729803 0.769480
O O3 0.736859 0.679796 0.747714
O O4 0.819309 0.674665 0.000000
O O5 0.893090 0.500000 0.250000
O O6 0.742735 0.552991 0.171617
O O7 0.889183 0.546681 0.000000
O O8 0.500000 0.802864 0.750000
O O9 0.326539 0.793317 0.731049
O O10 0.421509 0.710581 0.841142
O O11 0.405542 0.802786 0.000000
O O12 0.293598 0.859613 0.500000
O O13 0.171555 0.838031 0.711868
O O14 0.320540 0.900312 0.771038
O O15 0.592746 0.500000 0.250000
O O16 0.597045 0.608555 0.248312
O O17 0.595366 0.553485 0.000000
O O18 0.000000 0.816224 0.250000
O O19 0.924708 0.791305 0.000000
O O20 0.326957 0.637905 0.000000
O O21 0.500000 0.919107 0.750000
O O22 0.380194 0.000000 0.750000
O O23 0.410524 0.943674 0.000000
#
# Coordination Sequence:
#
# PCOD8202802 Si02
#       8
#     8   8   8   8   8   8   8   8
#     4   9  17  32  50  71 100 141 182 229 291 354
#     4   8  14  23  39  63  93 124 166 215 272 342
#     4  11  23  36  53  80 113 151 191 235 285 345
#     4  11  22  39  62  88 121 161 202 245 294 347
#     4   9  16  26  42  64  92 127 169 218 273 336
#     4  10  22  38  59  84 114 152 198 249 304 358
#     4  10  19  30  47  72 101 134 176 226 280 340
#     4  11  22  39  64  97 136 174 211 248 288 338
#
# _framework density 20.3231
#
# number of rings (size 3 to 8) (size 9 to 14) (size 15 to 20)
#    0.000    2.125    1.250    4.125    0.000    6.000 
#    0.000    0.000    0.000    1.125    0.000    7.875 
#    0.000    0.000    0.000    0.000    0.000    0.000 
#
# Total GULP energy -793145.664727 kJ/mol
# GULP energy per Si atom -12392.901011 kJ/mol
# Density = 2.027684 g / cm^3
# Si number density = 20.323100 Si / 1000 Ang^3
#
#
#
# Elastic Constant Matrix: (Units=GPa)
#
#
# Indices 1 2 3 4 5 6 
#
# 1 86.0696 36.1444 43.5361 0.0000 0.0000 0.0000
# 2 36.1444 128.5075 49.9223 0.0000 0.0000 0.0000
# 3 43.5361 49.9223 107.9076 0.0000 0.0000 0.0000
# 4 0.0000 0.0000 0.0000 32.6507 0.0000 0.0000
# 5 0.0000 0.0000 0.0000 0.0000 22.5386 0.0000
# 6 0.0000 0.0000 0.0000 0.0000 0.0000 -23.1451
#
#
#
# Elastic Compliance Matrix: (Units=1/GPa)
#
#
# Indices 1 2 3 4 5 6 
#
# 1 0.015134 -0.002298 -0.005043 0.000000 0.000000 0.000000
# 2 -0.002298 0.009835 -0.003623 0.000000 0.000000 0.000000
# 3 -0.005043 -0.003623 0.012978 0.000000 0.000000 0.000000
# 4 0.000000 0.000000 0.000000 0.030627 0.000000 0.000000
# 5 0.000000 0.000000 0.000000 0.000000 0.044368 0.000000
# 6 0.000000 0.000000 0.000000 0.000000 0.000000 -0.043206
#
#
# Mechanical properties :
#
#
# Convention : Reuss Voigt Hill
#
# Bulk Modulus (GPa) = 62.42217 64.63224 63.52721
# Shear Modulus (GPa) = 51.54339 19.26762 35.40551
#
# Velocity S-wave (km/s) = 5.04153 3.08241 4.17841
# Velocity P-wave (km/s) = 8.04182 6.67381 7.38954
#
# Compressibility (1/GPa) = 0.01601995
#
# Stress axis : x y z
#
# Youngs Moduli (GPa) = 66.07516 101.67318 77.05274
#
# Poissons Ratio (x) = 0.23360 0.38858
# Poissons Ratio (y) = 0.15181 0.27918
# Poissons Ratio (z) = 0.33322 0.36839
#
# Static dielectric constant tensor:
#      x y z
#    x 3.300460 0.000000 0.000000 
#    y 0.000000 3.817530 0.000000 
#    z 0.000000 0.000000 3.824410 
# 
# 
# High freq. dielectric constant tensor:
#      x y z
#    x 1.760170 0.000000 0.000000 
#    y 0.000000 1.793690 0.000000 
#    z 0.000000 0.000000 1.800420 
# 
# From -- ./inp_files/4356.got.cif
#   From: 2010.03.12/outbox.cif.g09.slc.cpg/sg49_3_cif.got.tgz:4356.got - 2010.04.14 03:58:27.
