data_PCOD8202665
_publ_section_title
;
Structure prediction by ZEFSAII (Michael W. Deem and Ramdas Pophale) SiO2 
 PCOD8202665
Probable space group: P C C M
;
_chemical_formula_sum "Si O2"
_cell_formula_units_Z 56
_cell_length_a 18.958613
_cell_length_b 18.704856
_cell_length_c 8.762101
_cell_angle_alpha 90.000000
_cell_angle_beta 90.000000
_cell_angle_gamma 90.000000
_cell_volume 3107.199838
_symmetry_space_group_name_H-M "P C C M"
_symmetry_group_IT_number 49
_symmetry_cell_setting 'orthorhombic'
loop_
_space_group_symop_operation_xyz
x,y,z
-x,-y,z
x,-y,1/2-z
-x,y,1/2-z
-x,-y,-z
x,y,-z
-x,y,1/2+z
x,-y,1/2+z
loop_
_atom_site_type_symbol
_atom_site_label
_atom_site_fract_x
_atom_site_fract_y
_atom_site_fract_z
Si Si1 0.789286 0.651529 0.321740
Si Si2 0.698375 0.789943 0.322348
Si Si3 0.336474 0.573921 0.680771
Si Si4 0.784623 0.925146 0.320314
Si Si5 0.928059 0.854014 0.681318
Si Si6 0.927262 0.698321 0.181439
Si Si7 0.575841 0.289234 0.678862
O O1 0.799982 0.637141 0.500000
O O2 0.755618 0.728810 0.289270
O O3 0.739951 0.590115 0.251934
O O4 0.864147 0.647187 0.236453
O O5 0.679865 0.793278 0.500000
O O6 0.730964 0.864207 0.261676
O O7 0.626411 0.775028 0.232131
O O8 0.365252 0.500000 0.750000
O O9 0.329863 0.568901 0.500000
O O10 0.391580 0.635006 0.731883
O O11 0.779621 0.930522 0.500000
O O12 0.864440 0.906133 0.271221
O O13 0.761184 0.000000 0.250000
O O14 0.934047 0.844691 0.500000
O O15 0.913589 0.777168 0.753817
O O16 0.000000 0.887285 0.750000
O O17 0.000000 0.667323 0.250000
O O18 0.931494 0.700598 0.000000
O O19 0.500000 0.278334 0.750000
O O20 0.568012 0.285836 0.500000
#
# Coordination Sequence:
#
# PCOD8202665 Si02
#       7
#     8   8   8   8   8   8   8
#     4  10  18  33  55  76 103 138 177 222 268 311
#     4   9  18  35  55  75 104 137 173 217 263 312
#     4  10  21  36  54  82 114 146 181 211 251 305
#     4  10  21  35  51  73 103 139 179 221 270 323
#     4  10  19  33  48  69 100 136 178 221 272 323
#     4  11  20  30  48  74 102 134 176 225 273 319
#     4  10  21  36  57  85 112 140 176 211 253 307
#
# _framework density 18.022656999999999
#
# number of rings (size 3 to 8) (size 9 to 14) (size 15 to 20)
#    0.000    2.000    1.429    3.857    0.000    4.571 
#    0.000    2.857    0.000    0.857    0.000    6.000 
#    0.000    0.000    0.000    0.000    0.000    0.000 
#
# Total GULP energy -694530.564480 kJ/mol
# GULP energy per Si atom -12402.331509 kJ/mol
# Density = 1.798164 g / cm^3
# Si number density = 18.022657 Si / 1000 Ang^3
#
#
#
# Elastic Constant Matrix: (Units=GPa)
#
#
# Indices 1 2 3 4 5 6 
#
# 1 137.2520 50.4014 49.4094 0.0000 0.0000 0.0000
# 2 50.4014 81.9045 26.1072 0.0000 0.0000 0.0000
# 3 49.4094 26.1072 83.2535 0.0000 0.0000 0.0000
# 4 0.0000 0.0000 0.0000 28.6365 0.0000 0.0000
# 5 0.0000 0.0000 0.0000 0.0000 30.8210 0.0000
# 6 0.0000 0.0000 0.0000 0.0000 0.0000 -43.1832
#
#
#
# Elastic Compliance Matrix: (Units=1/GPa)
#
#
# Indices 1 2 3 4 5 6 
#
# 1 0.010941 -0.005181 -0.004869 0.000000 0.000000 0.000000
# 2 -0.005181 0.016019 -0.001948 0.000000 0.000000 0.000000
# 3 -0.004869 -0.001948 0.015512 0.000000 0.000000 0.000000
# 4 0.000000 0.000000 0.000000 0.034920 0.000000 0.000000
# 5 0.000000 0.000000 0.000000 0.000000 0.032445 0.000000
# 6 0.000000 0.000000 0.000000 0.000000 0.000000 -0.023157
#
#
# Mechanical properties :
#
#
# Convention : Reuss Voigt Hill
#
# Bulk Modulus (GPa) = 54.12540 61.58290 57.85415
# Shear Modulus (GPa) = 42.79546 15.02099 28.90823
#
# Velocity S-wave (km/s) = 4.87821 2.89009 4.00933
# Velocity P-wave (km/s) = 7.86297 6.73652 7.32144
#
# Compressibility (1/GPa) = 0.01847561
#
# Stress axis : x y z
#
# Youngs Moduli (GPa) = 91.39888 62.42756 64.46633
#
# Poissons Ratio (x) = 0.32343 0.31386
# Poissons Ratio (y) = 0.47353 0.12561
# Poissons Ratio (z) = 0.44499 0.12164
#
# Static dielectric constant tensor:
#      x y z
#    x 3.492560 0.000000 0.000000 
#    y 0.000000 3.270800 0.000000 
#    z 0.000000 0.000000 3.343630 
# 
# 
# High freq. dielectric constant tensor:
#      x y z
#    x 1.697610 0.000000 0.000000 
#    y 0.000000 1.671440 0.000000 
#    z 0.000000 0.000000 1.707870 
# 
# From -- ./inp_files/5172.got.cif
#   From: 2010.03.12/outbox.cif.g09.slc.cpg/sg49_3_cif.got.tgz:5172.got - 2010.04.14 03:58:27.
