data_PCOD8202252
_publ_section_title
;
Structure prediction by ZEFSAII (Michael W. Deem and Ramdas Pophale) SiO2 
 PCOD8202252
Probable space group: P C C M
;
_chemical_formula_sum "Si O2"
_cell_formula_units_Z 64
_cell_length_a 26.624099
_cell_length_b 18.276278
_cell_length_c 8.817658
_cell_angle_alpha 90.000000
_cell_angle_beta 90.000000
_cell_angle_gamma 90.000000
_cell_volume 4290.579223
_symmetry_space_group_name_H-M "P C C M"
_symmetry_group_IT_number 49
_symmetry_cell_setting 'orthorhombic'
loop_
_space_group_symop_operation_xyz
x,y,z
-x,-y,z
x,-y,1/2-z
-x,y,1/2-z
-x,-y,-z
x,y,-z
-x,y,1/2+z
x,-y,1/2+z
loop_
_atom_site_type_symbol
_atom_site_label
_atom_site_fract_x
_atom_site_fract_y
_atom_site_fract_z
Si Si1 0.551069 0.336377 0.820966
Si Si2 0.049664 0.918984 0.681346
Si Si3 0.399199 0.206192 0.171310
Si Si4 0.349706 0.421499 0.678384
Si Si5 0.249166 0.166481 0.323235
Si Si6 0.703266 0.704840 0.169992
Si Si7 0.652977 0.078901 0.178999
Si Si8 0.150006 0.079189 0.679511
O O1 0.500000 0.368866 0.750000
O O2 0.559323 0.254658 0.756907
O O3 0.596283 0.389668 0.770524
O O4 0.546270 0.332082 0.000000
O O5 0.047751 0.919528 0.500000
O O6 0.101054 0.882584 0.743132
O O7 0.000000 0.878795 0.750000
O O8 0.050662 0.000000 0.750000
O O9 0.347255 0.248998 0.174577
O O10 0.391952 0.129636 0.258138
O O11 0.417285 0.191359 0.000000
O O12 0.341817 0.500000 0.750000
O O13 0.346134 0.428046 0.500000
O O14 0.304724 0.369152 0.734720
O O15 0.254337 0.182075 0.500000
O O16 0.252926 0.244927 0.240742
O O17 0.293072 0.111238 0.270646
O O18 0.196223 0.131251 0.279740
O O19 0.718609 0.683116 0.000000
O O20 0.646603 0.000000 0.250000
O O21 0.648145 0.073424 0.000000
O O22 0.141884 0.070722 0.500000
O O23 0.161082 0.000000 0.750000
#
# Coordination Sequence:
#
# PCOD8202252 Si02
#       8
#     8   8   8   8   8   8   8   8
#     4  10  20  33  49  68  88 111 135 163 196 234
#     4  10  17  26  38  51  69  97 135 178 221 263
#     4   9  17  30  46  63  82 106 135 166 198 238
#     4  10  20  33  49  68  91 114 138 165 195 230
#     4   9  18  29  41  58  83 111 138 170 209 250
#     4   9  17  29  46  64  83 108 138 167 198 238
#     4  10  18  28  42  61  83 107 135 168 206 246
#     4  10  18  27  38  55  79 107 140 180 222 259
#
# _framework density 14.916401
#
# number of rings (size 3 to 8) (size 9 to 14) (size 15 to 20)
#    0.000    2.375    0.000    4.875    0.000    6.250 
#    0.000    1.250    0.000    0.375    0.000    2.625 
#    0.000    0.000    0.000    0.000    0.000    0.625 
#
# Total GULP energy -793489.919025 kJ/mol
# GULP energy per Si atom -12398.279985 kJ/mol
# Density = 1.488245 g / cm^3
# Si number density = 14.916401 Si / 1000 Ang^3
#
#
#
# Elastic Constant Matrix: (Units=GPa)
#
#
# Indices 1 2 3 4 5 6 
#
# 1 60.0017 35.5138 29.9480 0.0000 0.0000 0.0000
# 2 35.5138 96.3339 41.6846 0.0000 0.0000 0.0000
# 3 29.9480 41.6846 86.5188 0.0000 0.0000 0.0000
# 4 0.0000 0.0000 0.0000 25.5538 0.0000 0.0000
# 5 0.0000 0.0000 0.0000 0.0000 21.5588 0.0000
# 6 0.0000 0.0000 0.0000 0.0000 0.0000 10.8432
#
#
#
# Elastic Compliance Matrix: (Units=1/GPa)
#
#
# Indices 1 2 3 4 5 6 
#
# 1 0.022828 -0.006313 -0.004861 0.000000 0.000000 0.000000
# 2 -0.006313 0.014860 -0.004975 0.000000 0.000000 0.000000
# 3 -0.004861 -0.004975 0.015637 0.000000 0.000000 0.000000
# 4 0.000000 0.000000 0.000000 0.039133 0.000000 0.000000
# 5 0.000000 0.000000 0.000000 0.000000 0.046385 0.000000
# 6 0.000000 0.000000 0.000000 0.000000 0.000000 0.092224
#
#
# Mechanical properties :
#
#
# Convention : Reuss Voigt Hill
#
# Bulk Modulus (GPa) = 47.54961 50.79415 49.17188
# Shear Modulus (GPa) = 18.49293 20.63835 19.56564
#
# Velocity S-wave (km/s) = 3.52486 3.72371 3.62565
# Velocity P-wave (km/s) = 6.96511 7.25359 7.11081
#
# Compressibility (1/GPa) = 0.02103067
#
# Stress axis : x y z
#
# Youngs Moduli (GPa) = 43.80493 67.29352 63.94933
#
# Poissons Ratio (x) = 0.42480 0.31083
# Poissons Ratio (y) = 0.27652 0.31812
# Poissons Ratio (z) = 0.21292 0.33476
#
# Static dielectric constant tensor:
#      x y z
#    x 3.130430 0.000000 0.000000 
#    y 0.000000 2.717190 0.000000 
#    z 0.000000 0.000000 3.032740 
# 
# 
# High freq. dielectric constant tensor:
#      x y z
#    x 1.548140 0.000000 0.000000 
#    y 0.000000 1.538480 0.000000 
#    z 0.000000 0.000000 1.591360 
# 
# From -- ./inp_files/6790.got.cif
#   From: 2010.03.12/outbox.cif.g09.slc.cpg/sg49_4_cif.got.tgz:6790.got - 2010.04.14 03:58:27.
