data_PCOD8202507
_publ_section_title
;
Structure prediction by ZEFSAII (Michael W. Deem and Ramdas Pophale) SiO2 
 PCOD8202507
Probable space group: P C C M
;
_chemical_formula_sum "Si O2"
_cell_formula_units_Z 64
_cell_length_a 19.644334
_cell_length_b 21.024758
_cell_length_c 8.661808
_cell_angle_alpha 90.000000
_cell_angle_beta 90.000000
_cell_angle_gamma 90.000000
_cell_volume 3577.477146
_symmetry_space_group_name_H-M "P C C M"
_symmetry_group_IT_number 49
_symmetry_cell_setting 'orthorhombic'
loop_
_space_group_symop_operation_xyz
x,y,z
-x,-y,z
x,-y,1/2-z
-x,y,1/2-z
-x,-y,-z
x,y,-z
-x,y,1/2+z
x,-y,1/2+z
loop_
_atom_site_type_symbol
_atom_site_label
_atom_site_fract_x
_atom_site_fract_y
_atom_site_fract_z
Si Si1 0.355420 0.187616 0.681625
Si Si2 0.925399 0.435981 0.317561
Si Si3 0.924928 0.804316 0.815915
Si Si4 0.566294 0.709346 0.822045
Si Si5 0.302826 0.066046 0.182387
Si Si6 0.714122 0.703041 0.177356
Si Si7 0.850656 0.683266 0.680773
Si Si8 0.852722 0.933399 0.818418
O O1 0.345253 0.192224 0.500000
O O2 0.425518 0.222670 0.733415
O O3 0.353887 0.115842 0.739430
O O4 0.292948 0.223415 0.769506
O O5 0.889909 0.500000 0.250000
O O6 0.927990 0.440898 0.500000
O O7 0.886790 0.373375 0.268205
O O8 0.000000 0.430551 0.250000
O O9 0.875267 0.750538 0.748105
O O10 0.897929 0.873621 0.761604
O O11 0.000000 0.793461 0.750000
O O12 0.925784 0.798347 0.000000
O O13 0.500000 0.673703 0.750000
O O14 0.638275 0.670581 0.800455
O O15 0.552603 0.722405 0.000000
O O16 0.224906 0.078306 0.235355
O O17 0.328648 0.000000 0.250000
O O18 0.310661 0.068011 0.000000
O O19 0.770597 0.671528 0.285967
O O20 0.738060 0.699722 0.000000
O O21 0.865874 0.680001 0.500000
O O22 0.881039 0.000000 0.750000
O O23 0.856951 0.940086 0.000000
#
# Coordination Sequence:
#
# PCOD8202507 Si02
#       8
#     8   8   8   8   8   8   8   8
#     4  10  18  29  46  69  96 128 164 203 251 306
#     4  11  22  39  60  83 113 149 190 231 272 323
#     4  11  23  38  53  73 101 135 173 219 273 326
#     4   9  18  31  50  73 103 136 170 206 251 307
#     4  10  18  30  46  66  89 117 156 203 256 309
#     4   9  19  33  50  75 104 136 168 209 257 302
#     4  12  23  36  56  82 110 142 181 225 272 323
#     4   9  20  35  52  69  92 125 165 215 268 323
#
# _framework density 17.889702
#
# number of rings (size 3 to 8) (size 9 to 14) (size 15 to 20)
#    0.750    1.125    0.000    6.000    0.000    2.750 
#    0.000    1.250    0.000    0.375    0.000    2.625 
#    0.000    0.500    0.000    5.250    0.000    2.875 
#
# Total GULP energy -793106.220191 kJ/mol
# GULP energy per Si atom -12392.284690 kJ/mol
# Density = 1.784898 g / cm^3
# Si number density = 17.889702 Si / 1000 Ang^3
#
#
#
# Elastic Constant Matrix: (Units=GPa)
#
#
# Indices 1 2 3 4 5 6 
#
# 1 74.7942 25.1664 28.8929 0.0000 0.0000 0.0000
# 2 25.1664 77.3790 27.1422 0.0000 0.0000 0.0000
# 3 28.8929 27.1422 102.7123 0.0000 0.0000 0.0000
# 4 0.0000 0.0000 0.0000 26.5832 0.0000 0.0000
# 5 0.0000 0.0000 0.0000 0.0000 25.9664 0.0000
# 6 0.0000 0.0000 0.0000 0.0000 0.0000 -52.3534
#
#
#
# Elastic Compliance Matrix: (Units=1/GPa)
#
#
# Indices 1 2 3 4 5 6 
#
# 1 0.016054 -0.004009 -0.003457 0.000000 0.000000 0.000000
# 2 -0.004009 0.015245 -0.002901 0.000000 0.000000 0.000000
# 3 -0.003457 -0.002901 0.011475 0.000000 0.000000 0.000000
# 4 0.000000 0.000000 0.000000 0.037618 0.000000 0.000000
# 5 0.000000 0.000000 0.000000 0.000000 0.038511 0.000000
# 6 0.000000 0.000000 0.000000 0.000000 0.000000 -0.019101
#
#
# Mechanical properties :
#
#
# Convention : Reuss Voigt Hill
#
# Bulk Modulus (GPa) = 45.36985 46.36540 45.86763
# Shear Modulus (GPa) = 39.09864 11.61817 25.35841
#
# Velocity S-wave (km/s) = 4.68005 2.55116 3.76904
# Velocity P-wave (km/s) = 7.39052 5.88656 6.68099
#
# Compressibility (1/GPa) = 0.02204107
#
# Stress axis : x y z
#
# Youngs Moduli (GPa) = 62.28891 65.59631 87.14713
#
# Poissons Ratio (x) = 0.26297 0.30124
# Poissons Ratio (y) = 0.24971 0.25280
# Poissons Ratio (z) = 0.21531 0.19028
#
# Static dielectric constant tensor:
#      x y z
#    x 3.321520 0.000000 0.000000 
#    y 0.000000 3.535590 0.000000 
#    z 0.000000 0.000000 3.401950 
# 
# 
# High freq. dielectric constant tensor:
#      x y z
#    x 1.680630 0.000000 0.000000 
#    y 0.000000 1.661960 0.000000 
#    z 0.000000 0.000000 1.709930 
# 
# From -- ./inp_files/6084.got.cif
#   From: 2010.03.12/outbox.cif.g09.slc.cpg/sg49_4_cif.got.tgz:6084.got - 2010.04.14 03:58:27.
