data_PCOD8202793
_publ_section_title
;
Structure prediction by ZEFSAII (Michael W. Deem and Ramdas Pophale) SiO2 
 PCOD8202793
Probable space group: P C C M
;
_chemical_formula_sum "Si O2"
_cell_formula_units_Z 64
_cell_length_a 14.801151
_cell_length_b 27.808633
_cell_length_c 9.265569
_cell_angle_alpha 90.000000
_cell_angle_beta 90.000000
_cell_angle_gamma 90.000000
_cell_volume 3813.706126
_symmetry_space_group_name_H-M "P C C M"
_symmetry_group_IT_number 49
_symmetry_cell_setting 'orthorhombic'
loop_
_space_group_symop_operation_xyz
x,y,z
-x,-y,z
x,-y,1/2-z
-x,y,1/2-z
-x,-y,-z
x,y,-z
-x,y,1/2+z
x,-y,1/2+z
loop_
_atom_site_type_symbol
_atom_site_label
_atom_site_fract_x
_atom_site_fract_y
_atom_site_fract_z
Si Si1 0.087069 0.414451 0.668894
Si Si2 0.588360 0.370892 0.831170
Si Si3 0.914861 0.694637 0.665567
Si Si4 0.276944 0.453290 0.668899
Si Si5 0.905616 0.957082 0.832506
Si Si6 0.410734 0.261329 0.668822
Si Si7 0.904996 0.849765 0.167903
Si Si8 0.219860 0.777481 0.832931
O O1 0.068726 0.417474 0.500000
O O2 0.105441 0.359476 0.717715
O O3 0.173101 0.445732 0.714309
O O4 0.000000 0.435766 0.750000
O O5 0.500000 0.389522 0.750000
O O6 0.669690 0.405534 0.783736
O O7 0.611598 0.316233 0.785708
O O8 0.569631 0.374397 0.000000
O O9 0.943078 0.695433 0.500000
O O10 0.826195 0.725937 0.694421
O O11 0.000000 0.717127 0.750000
O O12 0.315480 0.500000 0.750000
O O13 0.287509 0.462307 0.500000
O O14 0.864305 0.903805 0.816184
O O15 0.000000 0.954758 0.750000
O O16 0.849158 0.000000 0.750000
O O17 0.917329 0.970840 0.000000
O O18 0.500000 0.242154 0.750000
O O19 0.430520 0.258153 0.500000
O O20 0.325049 0.228157 0.710544
O O21 0.826723 0.816831 0.232778
O O22 0.000000 0.842275 0.250000
O O23 0.921793 0.837239 0.000000
O O24 0.209823 0.792905 0.000000
#
# Coordination Sequence:
#
# PCOD8202793 Si02
#       8
#     8   8   8   8   8   8   8   8
#     4   9  18  33  50  66  86 114 147 182 218 256
#     4   9  18  34  54  73  93 117 144 177 219 267
#     4   9  17  29  45  65  88 115 148 182 216 259
#     4  10  21  35  50  68  91 117 143 175 218 265
#     4   9  16  26  41  60  84 119 162 203 238 271
#     4   9  18  33  52  72  92 117 151 188 227 272
#     4  10  20  31  43  64  96 131 165 199 235 275
#     4  10  19  30  46  67  93 124 154 187 229 275
#
# _framework density 16.781576999999999
#
# number of rings (size 3 to 8) (size 9 to 14) (size 15 to 20)
#    0.000    2.625    0.000    2.250    0.000    8.000 
#    0.000    2.500    0.000    7.500    0.000    0.000 
#    0.000    0.500    0.000    5.500    0.000    4.000 
#
# Total GULP energy -793348.760254 kJ/mol
# GULP energy per Si atom -12396.074379 kJ/mol
# Density = 1.674338 g / cm^3
# Si number density = 16.781577 Si / 1000 Ang^3
#
#
#
# Elastic Constant Matrix: (Units=GPa)
#
#
# Indices 1 2 3 4 5 6 
#
# 1 99.3068 41.2404 46.2057 0.0000 0.0000 0.0000
# 2 41.2404 76.1236 42.4213 0.0000 0.0000 0.0000
# 3 46.2057 42.4213 69.9574 0.0000 0.0000 0.0000
# 4 0.0000 0.0000 0.0000 5.2456 0.0000 0.0000
# 5 0.0000 0.0000 0.0000 0.0000 27.3428 0.0000
# 6 0.0000 0.0000 0.0000 0.0000 0.0000 12.2061
#
#
#
# Elastic Compliance Matrix: (Units=1/GPa)
#
#
# Indices 1 2 3 4 5 6 
#
# 1 0.015309 -0.004016 -0.007676 0.000000 0.000000 0.000000
# 2 -0.004016 0.020895 -0.010018 0.000000 0.000000 0.000000
# 3 -0.007676 -0.010018 0.025439 0.000000 0.000000 0.000000
# 4 0.000000 0.000000 0.000000 0.190634 0.000000 0.000000
# 5 0.000000 0.000000 0.000000 0.000000 0.036573 0.000000
# 6 0.000000 0.000000 0.000000 0.000000 0.000000 0.081926
#
#
# Mechanical properties :
#
#
# Convention : Reuss Voigt Hill
#
# Bulk Modulus (GPa) = 54.87582 56.12473 55.50027
# Shear Modulus (GPa) = 11.89710 16.66028 14.27869
#
# Velocity S-wave (km/s) = 2.66548 3.15425 2.92011
# Velocity P-wave (km/s) = 6.49954 6.83978 6.67183
#
# Compressibility (1/GPa) = 0.01822296
#
# Stress axis : x y z
#
# Youngs Moduli (GPa) = 65.32018 47.85848 39.30968
#
# Poissons Ratio (x) = 0.19221 0.30174
# Poissons Ratio (y) = 0.26234 0.39380
# Poissons Ratio (z) = 0.50140 0.47944
#
# Static dielectric constant tensor:
#      x y z
#    x 3.072370 0.000000 0.000000 
#    y 0.000000 3.542170 0.000000 
#    z 0.000000 0.000000 3.183590 
# 
# 
# High freq. dielectric constant tensor:
#      x y z
#    x 1.621190 0.000000 0.000000 
#    y 0.000000 1.639360 0.000000 
#    z 0.000000 0.000000 1.648230 
# 
# From -- ./inp_files/4509.got.cif
#   From: 2010.03.12/outbox.cif.g09.slc.cpg/sg49_3_cif.got.tgz:4509.got - 2010.04.14 03:58:27.
