data_PCOD8202817
_publ_section_title
;
Structure prediction by ZEFSAII (Michael W. Deem and Ramdas Pophale) SiO2 
 PCOD8202817
Probable space group: P C C M
;
_chemical_formula_sum "Si O2"
_cell_formula_units_Z 64
_cell_length_a 19.684277
_cell_length_b 19.301586
_cell_length_c 8.875196
_cell_angle_alpha 90.000000
_cell_angle_beta 90.000000
_cell_angle_gamma 90.000000
_cell_volume 3372.022135
_symmetry_space_group_name_H-M "P C C M"
_symmetry_group_IT_number 49
_symmetry_cell_setting 'orthorhombic'
loop_
_space_group_symop_operation_xyz
x,y,z
-x,-y,z
x,-y,1/2-z
-x,y,1/2-z
-x,-y,-z
x,y,-z
-x,y,1/2+z
x,-y,1/2+z
loop_
_atom_site_type_symbol
_atom_site_label
_atom_site_fract_x
_atom_site_fract_y
_atom_site_fract_z
Si Si1 0.934921 0.306174 0.164467
Si Si2 0.664297 0.210006 0.172237
Si Si3 0.813449 0.932281 0.678804
Si Si4 0.668214 0.070779 0.677819
Si Si5 0.780978 0.687973 0.680092
Si Si6 0.427265 0.657441 0.824901
Si Si7 0.688089 0.426364 0.679572
Si Si8 0.061660 0.145404 0.662215
O O1 0.859552 0.311783 0.238263
O O2 0.951523 0.226057 0.148531
O O3 0.000000 0.340731 0.250000
O O4 0.932953 0.341469 0.000000
O O5 0.636708 0.143964 0.267688
O O6 0.738878 0.241193 0.219480
O O7 0.608556 0.268888 0.196630
O O8 0.668579 0.185314 0.000000
O O9 0.798126 0.937806 0.500000
O O10 0.745033 0.920979 0.769530
O O11 0.863308 0.869539 0.726103
O O12 0.848809 0.000000 0.750000
O O13 0.660869 0.063935 0.500000
O O14 0.636122 0.000000 0.750000
O O15 0.776689 0.676928 0.500000
O O16 0.747148 0.624684 0.766476
O O17 0.500000 0.661862 0.750000
O O18 0.384816 0.598141 0.740857
O O19 0.433098 0.637518 0.000000
O O20 0.705915 0.500000 0.750000
O O21 0.686451 0.430214 0.500000
O O22 0.060114 0.109020 0.500000
O O23 0.000000 0.109770 0.750000
#
# Coordination Sequence:
#
# PCOD8202817 Si02
#       8
#     8   8   8   8   8   8   8   8
#     4   9  17  30  48  70  97 129 167 213 266 320
#     4   9  18  34  55  78 107 141 177 219 268 319
#     4  10  19  31  44  59  83 115 154 200 255 314
#     4  11  21  32  49  72  98 129 169 217 268 318
#     4   9  18  34  55  78 107 143 180 222 273 324
#     4  10  21  38  60  87 119 152 184 218 258 305
#     4  11  22  37  58  85 117 150 186 222 260 309
#     4   9  18  30  43  59  82 115 153 197 249 307
#
# _framework density 18.979707999999999
#
# number of rings (size 3 to 8) (size 9 to 14) (size 15 to 20)
#    0.000    2.250    0.000    5.250    0.000    6.500 
#    0.000    5.000    0.000    0.750    0.000    5.250 
#    0.000    0.000    0.000    0.000    0.000    0.000 
#
# Total GULP energy -792887.346569 kJ/mol
# GULP energy per Si atom -12388.864790 kJ/mol
# Density = 1.893651 g / cm^3
# Si number density = 18.979708 Si / 1000 Ang^3
#
#
#
# Elastic Constant Matrix: (Units=GPa)
#
#
# Indices 1 2 3 4 5 6 
#
# 1 86.8879 3.4299 25.2509 0.0000 0.0000 0.0000
# 2 3.4299 73.5565 39.8621 0.0000 0.0000 0.0000
# 3 25.2509 39.8621 103.8807 0.0000 0.0000 0.0000
# 4 0.0000 0.0000 0.0000 22.3679 0.0000 0.0000
# 5 0.0000 0.0000 0.0000 0.0000 29.5320 0.0000
# 6 0.0000 0.0000 0.0000 0.0000 0.0000 15.9145
#
#
#
# Elastic Compliance Matrix: (Units=1/GPa)
#
#
# Indices 1 2 3 4 5 6 
#
# 1 0.012488 0.001342 -0.003550 0.000000 0.000000 0.000000
# 2 0.001342 0.017309 -0.006968 0.000000 0.000000 0.000000
# 3 -0.003550 -0.006968 0.013163 0.000000 0.000000 0.000000
# 4 0.000000 0.000000 0.000000 0.044707 0.000000 0.000000
# 5 0.000000 0.000000 0.000000 0.000000 0.033862 0.000000
# 6 0.000000 0.000000 0.000000 0.000000 0.000000 0.062836
#
#
# Mechanical properties :
#
#
# Convention : Reuss Voigt Hill
#
# Bulk Modulus (GPa) = 40.63964 44.60122 42.62043
# Shear Modulus (GPa) = 23.70574 26.61501 25.16038
#
# Velocity S-wave (km/s) = 3.53796 3.74878 3.64489
# Velocity P-wave (km/s) = 6.17642 6.50294 6.34178
#
# Compressibility (1/GPa) = 0.02460652
#
# Stress axis : x y z
#
# Youngs Moduli (GPa) = 80.07742 57.77498 75.96911
#
# Poissons Ratio (x) = -0.07752 0.26972
# Poissons Ratio (y) = -0.10744 0.52935
# Poissons Ratio (z) = 0.28431 0.40257
#
# Static dielectric constant tensor:
#      x y z
#    x 3.432640 0.000000 0.000000 
#    y 0.000000 3.738060 0.000000 
#    z 0.000000 0.000000 3.748150 
# 
# 
# High freq. dielectric constant tensor:
#      x y z
#    x 1.727700 0.000000 0.000000 
#    y 0.000000 1.722690 0.000000 
#    z 0.000000 0.000000 1.737120 
# 
# From -- ./inp_files/5952.got.cif
#   From: 2010.03.12/outbox.cif.g09.slc.cpg/sg49_3_cif.got.tgz:5952.got - 2010.04.14 03:58:27.
