data_PCOD8202549
_publ_section_title
;
Structure prediction by ZEFSAII (Michael W. Deem and Ramdas Pophale) SiO2 
 PCOD8202549
Probable space group: P C C M
;
_chemical_formula_sum "Si O2"
_cell_formula_units_Z 32
_cell_length_a 14.344809
_cell_length_b 15.446147
_cell_length_c 8.693856
_cell_angle_alpha 90.000000
_cell_angle_beta 90.000000
_cell_angle_gamma 90.000000
_cell_volume 1926.315309
_symmetry_space_group_name_H-M "P C C M"
_symmetry_group_IT_number 49
_symmetry_cell_setting 'orthorhombic'
loop_
_space_group_symop_operation_xyz
x,y,z
-x,-y,z
x,-y,1/2-z
-x,y,1/2-z
-x,-y,-z
x,y,-z
-x,y,1/2+z
x,-y,1/2+z
loop_
_atom_site_type_symbol
_atom_site_label
_atom_site_fract_x
_atom_site_fract_y
_atom_site_fract_z
Si Si1 0.401359 0.908134 0.681230
Si Si2 0.749529 0.409726 0.318420
Si Si3 0.715970 0.761478 0.325592
Si Si4 0.904144 0.686582 0.674157
O O1 0.500000 0.877836 0.750000
O O2 0.410788 0.917228 0.500000
O O3 0.323305 0.838421 0.722779
O O4 0.370387 0.000000 0.750000
O O5 0.713165 0.500000 0.250000
O O6 0.739710 0.410515 0.500000
O O7 0.686333 0.331809 0.247067
O O8 0.857718 0.393839 0.267412
O O9 0.678014 0.768279 0.500000
O O10 0.829630 0.766276 0.322246
O O11 0.922510 0.656112 0.500000
O O12 0.000000 0.717618 0.750000
#
# Coordination Sequence:
#
# PCOD8202549 Si02
#       4
#     8   8   8   8
#     4  11  21  35  57  82 106 130 160 203 252 302
#     4  10  18  30  47  70 100 135 174 211 253 295
#     4   9  19  34  50  73 103 134 167 208 253 298
#     4   9  18  30  47  70 100 134 172 212 251 294
#
# _framework density 16.612024999999999
#
# number of rings (size 3 to 8) (size 9 to 14) (size 15 to 20)
#    1.500    0.750    0.000    6.000    0.000    0.500 
#    0.000    2.500    0.000    1.500    0.000   10.500 
#    0.000    0.000    0.000    0.000    0.000    0.000 
#
# Total GULP energy -396494.399066 kJ/mol
# GULP energy per Si atom -12390.449971 kJ/mol
# Density = 1.657422 g / cm^3
# Si number density = 16.612025 Si / 1000 Ang^3
#
#
#
# Elastic Constant Matrix: (Units=GPa)
#
#
# Indices 1 2 3 4 5 6 
#
# 1 31.5682 42.7042 24.1606 0.0000 0.0000 0.0000
# 2 42.7042 105.4028 48.2326 0.0000 0.0000 0.0000
# 3 24.1606 48.2326 153.0946 0.0000 0.0000 0.0000
# 4 0.0000 0.0000 0.0000 30.9948 0.0000 0.0000
# 5 0.0000 0.0000 0.0000 0.0000 25.9370 0.0000
# 6 0.0000 0.0000 0.0000 0.0000 0.0000 21.5346
#
#
#
# Elastic Compliance Matrix: (Units=1/GPa)
#
#
# Indices 1 2 3 4 5 6 
#
# 1 0.070904 -0.027583 -0.002500 0.000000 0.000000 0.000000
# 2 -0.027583 0.021816 -0.002520 0.000000 0.000000 0.000000
# 3 -0.002500 -0.002520 0.007720 0.000000 0.000000 0.000000
# 4 0.000000 0.000000 0.000000 0.032263 0.000000 0.000000
# 5 0.000000 0.000000 0.000000 0.000000 0.038555 0.000000
# 6 0.000000 0.000000 0.000000 0.000000 0.000000 0.046437
#
#
# Mechanical properties :
#
#
# Convention : Reuss Voigt Hill
#
# Bulk Modulus (GPa) = 28.38127 57.80671 43.09399
# Shear Modulus (GPa) = 16.96955 27.35782 22.16368
#
# Velocity S-wave (km/s) = 3.19959 4.06256 3.65663
# Velocity P-wave (km/s) = 5.54723 7.54185 6.62009
#
# Compressibility (1/GPa) = 0.03523450
#
# Stress axis : x y z
#
# Youngs Moduli (GPa) = 14.10366 45.83812 129.52770
#
# Poissons Ratio (x) = 1.26435 0.32377
# Poissons Ratio (y) = 0.38902 0.32642
# Poissons Ratio (z) = 0.03525 0.11552
#
# Static dielectric constant tensor:
#      x y z
#    x 2.842940 0.000000 0.000000 
#    y 0.000000 2.953780 0.000000 
#    z 0.000000 0.000000 3.250460 
# 
# 
# High freq. dielectric constant tensor:
#      x y z
#    x 1.606570 0.000000 0.000000 
#    y 0.000000 1.620760 0.000000 
#    z 0.000000 0.000000 1.665710 
# 
# From -- ./inp_files/2628.got.cif
#   From: 2010.03.12/outbox.cif.g09.slc.cpg/sg49_2_cif.got.tgz:2628.got - 2010.04.14 03:58:27.
