data_PCOD8202636
_publ_section_title
;
Structure prediction by ZEFSAII (Michael W. Deem and Ramdas Pophale) SiO2 
 PCOD8202636
Probable space group: P C C M
;
_chemical_formula_sum "Si O2"
_cell_formula_units_Z 56
_cell_length_a 16.643610
_cell_length_b 10.038469
_cell_length_c 17.428997
_cell_angle_alpha 90.000000
_cell_angle_beta 90.000000
_cell_angle_gamma 90.000000
_cell_volume 2911.973430
_symmetry_space_group_name_H-M "P C C M"
_symmetry_group_IT_number 49
_symmetry_cell_setting 'orthorhombic'
loop_
_space_group_symop_operation_xyz
x,y,z
-x,-y,z
x,-y,1/2-z
-x,y,1/2-z
-x,-y,-z
x,y,-z
-x,y,1/2+z
x,-y,1/2+z
loop_
_atom_site_type_symbol
_atom_site_label
_atom_site_fract_x
_atom_site_fract_y
_atom_site_fract_z
Si Si1 0.225516 0.500645 0.161583
Si Si2 0.239790 0.013199 0.341431
Si Si3 0.073420 0.905228 0.909443
Si Si4 0.324984 0.247712 0.156367
Si Si5 0.494169 0.349605 0.158142
Si Si6 0.338916 0.740759 0.836023
Si Si7 0.934058 0.397811 0.090124
O O1 0.197272 0.500000 0.250000
O O2 0.258387 0.357756 0.136117
O O3 0.298698 0.599850 0.147021
O O4 0.152192 0.541384 0.108398
O O5 0.149920 0.024688 0.371838
O O6 0.288212 0.140572 0.373433
O O7 0.235681 0.000000 0.250000
O O8 0.287669 0.887867 0.377372
O O9 0.058830 0.754070 0.877300
O O10 0.086398 0.900235 0.000000
O O11 0.000000 0.000000 0.885992
O O12 0.413398 0.282820 0.123251
O O13 0.339596 0.233056 0.246065
O O14 0.500000 0.500000 0.126691
O O15 0.500000 0.353119 0.250000
O O16 0.571014 0.263972 0.129323
O O17 0.000000 0.500000 0.126027
O O18 0.946780 0.390934 0.000000
#
# Coordination Sequence:
#
# PCOD8202636 Si02
#       7
#     8   8   8   8   8   8   8
#     4  10  18  32  52  78 106 135 171 211 257 305
#     4  10  20  34  50  78 110 135 170 214 260 306
#     4  10  22  40  58  75 100 136 174 212 259 315
#     4   9  18  27  46  76 105 139 170 209 256 300
#     4   9  14  24  43  70 104 140 173 207 254 301
#     4   9  16  29  47  70 108 139 170 212 251 305
#     4  10  22  39  57  78 102 132 174 217 256 306
#
# _framework density 19.230944999999998
#
# number of rings (size 3 to 8) (size 9 to 14) (size 15 to 20)
#    0.000    2.429    2.857    0.000    2.000    1.143 
#    0.000    4.286    0.000    0.000    0.000    6.000 
#    0.000    0.000    0.000    0.000    0.000    0.000 
#
# Total GULP energy -694103.471812 kJ/mol
# GULP energy per Si atom -12394.704854 kJ/mol
# Density = 1.918717 g / cm^3
# Si number density = 19.230945 Si / 1000 Ang^3
#
#
#
# Elastic Constant Matrix: (Units=GPa)
#
#
# Indices 1 2 3 4 5 6 
#
# 1 138.3265 58.4222 15.6825 0.0000 0.0000 0.0000
# 2 58.4222 130.4434 14.4101 0.0000 0.0000 0.0000
# 3 15.6825 14.4101 5.6165 0.0000 0.0000 0.0000
# 4 0.0000 0.0000 0.0000 12.9246 0.0000 0.0000
# 5 0.0000 0.0000 0.0000 0.0000 -4.8690 0.0000
# 6 0.0000 0.0000 0.0000 0.0000 0.0000 -75.4632
#
#
#
# Elastic Compliance Matrix: (Units=1/GPa)
#
#
# Indices 1 2 3 4 5 6 
#
# 1 0.010989 -0.002138 -0.025199 0.000000 0.000000 0.000000
# 2 -0.002138 0.011114 -0.022546 0.000000 0.000000 0.000000
# 3 -0.025199 -0.022546 0.306255 0.000000 0.000000 0.000000
# 4 0.000000 0.000000 0.000000 0.077372 0.000000 0.000000
# 5 0.000000 0.000000 0.000000 0.000000 -0.205379 0.000000
# 6 0.000000 0.000000 0.000000 0.000000 0.000000 -0.013251
#
#
# Mechanical properties :
#
#
# Convention : Reuss Voigt Hill
#
# Bulk Modulus (GPa) = 4.37459 50.15734 27.26597
# Shear Modulus (GPa) = 13.77167 -1.09010 6.34079
#
# Velocity S-wave (km/s) = 2.67895 -0.75371 1.81778
# Velocity P-wave (km/s) = 3.44219 5.03793 4.31448
#
# Compressibility (1/GPa) = 0.22859281
#
# Stress axis : x y z
#
# Youngs Moduli (GPa) = 90.99893 89.97319 3.26525
#
# Poissons Ratio (x) = 0.19237 0.08228
# Poissons Ratio (y) = 0.19456 0.07362
# Poissons Ratio (z) = 2.29306 2.02856
#
# Static dielectric constant tensor:
#      x y z
#    x 3.692030 0.000000 0.000000 
#    y 0.000000 3.705690 0.000000 
#    z 0.000000 0.000000 -2.022120 
# 
# 
# High freq. dielectric constant tensor:
#      x y z
#    x 1.763380 0.000000 0.000000 
#    y 0.000000 1.761950 0.000000 
#    z 0.000000 0.000000 1.683110 
# 
# From -- ./inp_files/21022.got.cif
#   From: 2010.03.12/outbox.cif.g09.slc.cpg/sg49_11_cif.got.tgz:21022.got - 2010.04.14 03:58:27.
