data_PCOD8202774
_publ_section_title
;
Structure prediction by ZEFSAII (Michael W. Deem and Ramdas Pophale) SiO2 
 PCOD8202774
Probable space group: P C C M
;
_chemical_formula_sum "Si O2"
_cell_formula_units_Z 64
_cell_length_a 30.357365
_cell_length_b 15.313853
_cell_length_c 9.022508
_cell_angle_alpha 90.000000
_cell_angle_beta 90.000000
_cell_angle_gamma 90.000000
_cell_volume 4194.457730
_symmetry_space_group_name_H-M "P C C M"
_symmetry_group_IT_number 49
_symmetry_cell_setting 'orthorhombic'
loop_
_space_group_symop_operation_xyz
x,y,z
-x,-y,z
x,-y,1/2-z
-x,y,1/2-z
-x,-y,-z
x,y,-z
-x,y,1/2+z
x,-y,1/2+z
loop_
_atom_site_type_symbol
_atom_site_label
_atom_site_fract_x
_atom_site_fract_y
_atom_site_fract_z
Si Si1 0.959399 0.092905 0.171555
Si Si2 0.540817 0.093293 0.672615
Si Si3 0.194531 0.585606 0.832207
Si Si4 0.701560 0.757541 0.172582
Si Si5 0.138188 0.906363 0.826753
Si Si6 0.361937 0.092087 0.827724
Si Si7 0.299381 0.584371 0.833897
Si Si8 0.195916 0.761559 0.673753
O O1 0.911006 0.134939 0.193365
O O2 0.000000 0.146410 0.250000
O O3 0.957301 0.000000 0.250000
O O4 0.970801 0.081982 0.000000
O O5 0.500000 0.146581 0.750000
O O6 0.530430 0.083906 0.500000
O O7 0.589316 0.134103 0.699730
O O8 0.542405 0.000000 0.750000
O O9 0.175325 0.500000 0.750000
O O10 0.246896 0.581305 0.832420
O O11 0.178546 0.671396 0.744698
O O12 0.176231 0.588626 0.000000
O O13 0.673851 0.839560 0.233651
O O14 0.683871 0.671672 0.254564
O O15 0.752581 0.774965 0.206053
O O16 0.693008 0.742263 0.000000
O O17 0.172065 0.841893 0.750262
O O18 0.142610 0.000000 0.750000
O O19 0.149532 0.916955 0.000000
O O20 0.354636 0.000000 0.750000
O O21 0.354437 0.074247 0.000000
O O22 0.318636 0.500000 0.750000
O O23 0.317894 0.583344 0.000000
O O24 0.185438 0.759627 0.500000
#
# Coordination Sequence:
#
# PCOD8202774 Si02
#       8
#     8   8   8   8   8   8   8   8
#     4   9  16  26  42  61  80 103 132 169 212 253
#     4   9  15  24  39  57  76  99 128 164 207 248
#     4   9  16  27  43  62  83 106 135 172 213 254
#     4   9  18  31  43  58  82 111 143 176 207 241
#     4  10  20  32  44  60  84 114 146 178 211 248
#     4   9  18  30  42  57  80 110 141 173 207 242
#     4   9  16  26  42  62  81 104 133 168 210 250
#     4  10  19  30  44  61  83 113 146 178 210 244
#
# _framework density 15.258229999999999
#
# number of rings (size 3 to 8) (size 9 to 14) (size 15 to 20)
#    0.000    2.750    0.000    3.000    0.000    6.500 
#    0.000    1.250    0.000    0.000    0.000    0.000 
#    0.000    1.000    0.000   11.000    0.000    5.125 
#
# Total GULP energy -793110.490006 kJ/mol
# GULP energy per Si atom -12392.351406 kJ/mol
# Density = 1.522350 g / cm^3
# Si number density = 15.258230 Si / 1000 Ang^3
#
#
#
# Elastic Constant Matrix: (Units=GPa)
#
#
# Indices 1 2 3 4 5 6 
#
# 1 65.4817 48.9324 46.9658 0.0000 0.0000 0.0000
# 2 48.9324 103.3232 56.9831 0.0000 0.0000 0.0000
# 3 46.9658 56.9831 113.0334 0.0000 0.0000 0.0000
# 4 0.0000 0.0000 0.0000 26.3729 0.0000 0.0000
# 5 0.0000 0.0000 0.0000 0.0000 34.9289 0.0000
# 6 0.0000 0.0000 0.0000 0.0000 0.0000 0.2859
#
#
#
# Elastic Compliance Matrix: (Units=1/GPa)
#
#
# Indices 1 2 3 4 5 6 
#
# 1 0.026726 -0.009049 -0.006543 0.000000 0.000000 0.000000
# 2 -0.009049 0.016469 -0.004543 0.000000 0.000000 0.000000
# 3 -0.006543 -0.004543 0.013856 0.000000 0.000000 0.000000
# 4 0.000000 0.000000 0.000000 0.037918 0.000000 0.000000
# 5 0.000000 0.000000 0.000000 0.000000 0.028630 0.000000
# 6 0.000000 0.000000 0.000000 0.000000 0.000000 3.497479
#
#
# Mechanical properties :
#
#
# Convention : Reuss Voigt Hill
#
# Bulk Modulus (GPa) = 59.58787 65.28900 62.43843
# Shear Modulus (GPa) = 1.36353 20.91468 11.13911
#
# Velocity S-wave (km/s) = 0.94635 3.70633 2.70486
# Velocity P-wave (km/s) = 6.35073 7.82292 7.12495
#
# Compressibility (1/GPa) = 0.01678194
#
# Stress axis : x y z
#
# Youngs Moduli (GPa) = 37.41652 60.72040 72.17202
#
# Poissons Ratio (x) = 0.54943 0.47224
# Poissons Ratio (y) = 0.33856 0.32786
# Poissons Ratio (z) = 0.24483 0.27584
#
# Static dielectric constant tensor:
#      x y z
#    x 3.428660 0.000000 0.000000 
#    y 0.000000 2.773590 0.000000 
#    z 0.000000 0.000000 3.134490 
# 
# 
# High freq. dielectric constant tensor:
#      x y z
#    x 1.561830 0.000000 0.000000 
#    y 0.000000 1.552700 0.000000 
#    z 0.000000 0.000000 1.604080 
# 
# From -- ./inp_files/7048.got.cif
#   From: 2010.03.12/outbox.cif.g09.slc.cpg/sg49_4_cif.got.tgz:7048.got - 2010.04.14 03:58:27.
