data_PCOD8202837
_publ_section_title
;
Structure prediction by ZEFSAII (Michael W. Deem and Ramdas Pophale) SiO2 
 PCOD8202837
Probable space group: P C C M
;
_chemical_formula_sum "Si O2"
_cell_formula_units_Z 64
_cell_length_a 20.861627
_cell_length_b 20.812894
_cell_length_c 9.020269
_cell_angle_alpha 90.000000
_cell_angle_beta 90.000000
_cell_angle_gamma 90.000000
_cell_volume 3916.518097
_symmetry_space_group_name_H-M "P C C M"
_symmetry_group_IT_number 49
_symmetry_cell_setting 'orthorhombic'
loop_
_space_group_symop_operation_xyz
x,y,z
-x,-y,z
x,-y,1/2-z
-x,y,1/2-z
-x,-y,-z
x,y,-z
-x,y,1/2+z
x,-y,1/2+z
loop_
_atom_site_type_symbol
_atom_site_label
_atom_site_fract_x
_atom_site_fract_y
_atom_site_fract_z
Si Si1 0.918696 0.937567 0.333505
Si Si2 0.233970 0.064430 0.332776
Si Si3 0.938589 0.687384 0.326624
Si Si4 0.922541 0.184354 0.664181
Si Si5 0.559438 0.431331 0.827211
Si Si6 0.299034 0.432199 0.672296
Si Si7 0.227369 0.190463 0.835015
Si Si8 0.205750 0.679060 0.824161
O O1 0.945963 0.935379 0.500000
O O2 0.842245 0.935239 0.337542
O O3 0.948849 0.880223 0.237497
O O4 0.943854 0.000000 0.250000
O O5 0.261656 0.064282 0.500000
O O6 0.258764 0.129499 0.250582
O O7 0.258943 0.000000 0.250000
O O8 0.946865 0.678496 0.500000
O O9 0.943093 0.761371 0.279951
O O10 0.867888 0.663579 0.274380
O O11 0.000000 0.651092 0.250000
O O12 0.951958 0.196760 0.500000
O O13 0.847148 0.177802 0.648862
O O14 0.561527 0.500000 0.750000
O O15 0.500000 0.392093 0.750000
O O16 0.630012 0.401476 0.799234
O O17 0.544522 0.438013 0.000000
O O18 0.287856 0.500000 0.750000
O O19 0.288939 0.445516 0.500000
O O20 0.247422 0.381157 0.731416
O O21 0.236615 0.257390 0.747833
O O22 0.258054 0.195719 0.000000
O O23 0.208702 0.689261 0.000000
#
# Coordination Sequence:
#
# PCOD8202837 Si02
#       8
#     8   8   8   8   8   8   8   8
#     4   9  15  22  33  50  71  95 122 152 191 239
#     4   9  15  22  33  50  74 103 134 169 209 254
#     4  10  19  31  47  63  78  97 125 165 213 263
#     4   9  16  26  39  55  74  94 120 156 199 248
#     4   9  15  24  40  63  92 123 153 182 208 237
#     4   9  18  31  47  68  93 121 152 184 217 253
#     4   9  16  25  38  57  79 103 134 172 213 258
#     4   9  18  32  47  63  85 112 141 176 220 266
#
# _framework density 16.341045999999999
#
# number of rings (size 3 to 8) (size 9 to 14) (size 15 to 20)
#    0.000    2.875    0.000    2.625    0.000    7.500 
#    0.000    0.000    0.000    0.750    0.000    5.250 
#    0.000    0.000    0.000    0.000    0.000    0.625 
#
# Total GULP energy -792929.266398 kJ/mol
# GULP energy per Si atom -12389.519787 kJ/mol
# Density = 1.630385 g / cm^3
# Si number density = 16.341046 Si / 1000 Ang^3
#
#
#
# Elastic Constant Matrix: (Units=GPa)
#
#
# Indices 1 2 3 4 5 6 
#
# 1 75.3862 46.0540 29.4817 0.0000 0.0000 0.0000
# 2 46.0540 88.0644 39.6767 0.0000 0.0000 0.0000
# 3 29.4817 39.6767 90.2748 0.0000 0.0000 0.0000
# 4 0.0000 0.0000 0.0000 19.6117 0.0000 0.0000
# 5 0.0000 0.0000 0.0000 0.0000 10.2446 0.0000
# 6 0.0000 0.0000 0.0000 0.0000 0.0000 1.1632
#
#
#
# Elastic Compliance Matrix: (Units=1/GPa)
#
#
# Indices 1 2 3 4 5 6 
#
# 1 0.019901 -0.009326 -0.002400 0.000000 0.000000 0.000000
# 2 -0.009326 0.018529 -0.005098 0.000000 0.000000 0.000000
# 3 -0.002400 -0.005098 0.014102 0.000000 0.000000 0.000000
# 4 0.000000 0.000000 0.000000 0.050990 0.000000 0.000000
# 5 0.000000 0.000000 0.000000 0.000000 0.097612 0.000000
# 6 0.000000 0.000000 0.000000 0.000000 0.000000 0.859688
#
#
# Mechanical properties :
#
#
# Convention : Reuss Voigt Hill
#
# Bulk Modulus (GPa) = 52.95694 53.79446 53.37570
# Shear Modulus (GPa) = 4.54229 15.43810 9.99019
#
# Velocity S-wave (km/s) = 1.66905 3.07700 2.47524
# Velocity P-wave (km/s) = 6.01597 6.75390 6.39559
#
# Compressibility (1/GPa) = 0.01888327
#
# Stress axis : x y z
#
# Youngs Moduli (GPa) = 50.24863 53.96839 70.91231
#
# Poissons Ratio (x) = 0.50331 0.17022
# Poissons Ratio (y) = 0.46862 0.36153
# Poissons Ratio (z) = 0.12062 0.27514
#
# Static dielectric constant tensor:
#      x y z
#    x 3.373560 0.000000 0.000000 
#    y 0.000000 2.896240 0.000000 
#    z 0.000000 0.000000 3.314110 
# 
# 
# High freq. dielectric constant tensor:
#      x y z
#    x 1.584630 0.000000 0.000000 
#    y 0.000000 1.595730 0.000000 
#    z 0.000000 0.000000 1.646070 
# 
# From -- ./inp_files/6046.got.cif
#   From: 2010.03.12/outbox.cif.g09.slc.cpg/sg49_4_cif.got.tgz:6046.got - 2010.04.14 03:58:27.
