data_PCOD8202307
_publ_section_title
;
Structure prediction by ZEFSAII (Michael W. Deem and Ramdas Pophale) SiO2 
 PCOD8202307
Probable space group: P C C M
;
_chemical_formula_sum "Si O2"
_cell_formula_units_Z 48
_cell_length_a 15.729311
_cell_length_b 19.462706
_cell_length_c 8.745950
_cell_angle_alpha 90.000000
_cell_angle_beta 90.000000
_cell_angle_gamma 90.000000
_cell_volume 2677.441015
_symmetry_space_group_name_H-M "P C C M"
_symmetry_group_IT_number 49
_symmetry_cell_setting 'orthorhombic'
loop_
_space_group_symop_operation_xyz
x,y,z
-x,-y,z
x,-y,1/2-z
-x,y,1/2-z
-x,-y,-z
x,y,-z
-x,y,1/2+z
x,-y,1/2+z
loop_
_atom_site_type_symbol
_atom_site_label
_atom_site_fract_x
_atom_site_fract_y
_atom_site_fract_z
Si Si1 0.081238 0.574854 0.178336
Si Si2 0.743647 0.075214 0.817827
Si Si3 0.587551 0.168869 0.819934
Si Si4 0.915347 0.076298 0.317394
Si Si5 0.587886 0.324473 0.818773
Si Si6 0.732244 0.425444 0.820467
O O1 0.081864 0.500000 0.250000
O O2 0.174011 0.606600 0.216773
O O3 0.000000 0.616346 0.250000
O O4 0.065922 0.569801 0.000000
O O5 0.665156 0.121914 0.764454
O O6 0.828560 0.110548 0.745735
O O7 0.727919 0.000000 0.750000
O O8 0.753137 0.071082 0.000000
O O9 0.500000 0.139971 0.750000
O O10 0.604506 0.246596 0.762777
O O11 0.578395 0.166144 0.000000
O O12 0.917542 0.076104 0.500000
O O13 0.000000 0.113976 0.250000
O O14 0.914397 0.000000 0.250000
O O15 0.500000 0.352691 0.750000
O O16 0.663599 0.372032 0.754233
O O17 0.583032 0.328224 0.000000
O O18 0.717420 0.500000 0.750000
O O19 0.721300 0.434630 0.000000
#
# Coordination Sequence:
#
# PCOD8202307 Si02
#       6
#     8   8   8   8   8   8
#     4   9  15  24  39  61  87 117 146 178 216 260
#     4  10  19  31  47  71  97 123 154 193 236 278
#     4   9  19  34  52  69  90 121 158 193 231 278
#     4  10  17  27  44  67  95 126 156 190 229 275
#     4   9  18  34  51  68  89 120 156 190 227 273
#     4   9  18  30  46  68  95 121 150 186 229 270
#
# _framework density 17.927565999999999
#
# number of rings (size 3 to 8) (size 9 to 14) (size 15 to 20)
#    0.000    2.667    0.000    4.500    0.000    3.333 
#    0.000    3.333    0.000    1.000    0.000    2.333 
#    0.000    0.000    0.000    0.000    0.000    0.000 
#
# Total GULP energy -594817.462470 kJ/mol
# GULP energy per Si atom -12392.030468 kJ/mol
# Density = 1.788676 g / cm^3
# Si number density = 17.927566 Si / 1000 Ang^3
#
#
#
# Elastic Constant Matrix: (Units=GPa)
#
#
# Indices 1 2 3 4 5 6 
#
# 1 217.5574 70.8280 59.4591 0.0000 0.0000 0.0000
# 2 70.8280 54.6256 23.1934 0.0000 0.0000 0.0000
# 3 59.4591 23.1934 74.4251 0.0000 0.0000 0.0000
# 4 0.0000 0.0000 0.0000 15.2895 0.0000 0.0000
# 5 0.0000 0.0000 0.0000 0.0000 33.5495 0.0000
# 6 0.0000 0.0000 0.0000 0.0000 0.0000 7.5334
#
#
#
# Elastic Compliance Matrix: (Units=1/GPa)
#
#
# Indices 1 2 3 4 5 6 
#
# 1 0.008901 -0.009821 -0.004050 0.000000 0.000000 0.000000
# 2 -0.009821 0.031935 -0.002106 0.000000 0.000000 0.000000
# 3 -0.004050 -0.002106 0.017328 0.000000 0.000000 0.000000
# 4 0.000000 0.000000 0.000000 0.065404 0.000000 0.000000
# 5 0.000000 0.000000 0.000000 0.000000 0.029807 0.000000
# 6 0.000000 0.000000 0.000000 0.000000 0.000000 0.132742
#
#
# Mechanical properties :
#
#
# Convention : Reuss Voigt Hill
#
# Bulk Modulus (GPa) = 38.15410 72.61878 55.38644
# Shear Modulus (GPa) = 15.29952 24.14966 19.72459
#
# Velocity S-wave (km/s) = 2.92448 3.67422 3.32058
# Velocity P-wave (km/s) = 5.72119 7.65471 6.75746
#
# Compressibility (1/GPa) = 0.02620951
#
# Stress axis : x y z
#
# Youngs Moduli (GPa) = 112.34876 31.31394 57.70862
#
# Poissons Ratio (x) = 0.30754 0.23374
# Poissons Ratio (y) = 1.10340 0.12151
# Poissons Ratio (z) = 0.45506 0.06594
#
# Static dielectric constant tensor:
#      x y z
#    x 4.626990 0.000000 0.000000 
#    y 0.000000 3.014410 0.000000 
#    z 0.000000 0.000000 3.299820 
# 
# 
# High freq. dielectric constant tensor:
#      x y z
#    x 1.723530 0.000000 0.000000 
#    y 0.000000 1.637630 0.000000 
#    z 0.000000 0.000000 1.697810 
# 
# From -- ./inp_files/4151.got.cif
#   From: 2010.03.12/outbox.cif.g09.slc.cpg/sg49_3_cif.got.tgz:4151.got - 2010.04.14 03:58:27.
