data_PCOD8202875
_publ_section_title
;
Structure prediction by ZEFSAII (Michael W. Deem and Ramdas Pophale) SiO2 
 PCOD8202875
Probable space group: P C C M
;
_chemical_formula_sum "Si O2"
_cell_formula_units_Z 64
_cell_length_a 19.816267
_cell_length_b 19.782305
_cell_length_c 8.945152
_cell_angle_alpha 90.000000
_cell_angle_beta 90.000000
_cell_angle_gamma 90.000000
_cell_volume 3506.601896
_symmetry_space_group_name_H-M "P C C M"
_symmetry_group_IT_number 49
_symmetry_cell_setting 'orthorhombic'
loop_
_space_group_symop_operation_xyz
x,y,z
-x,-y,z
x,-y,1/2-z
-x,y,1/2-z
-x,-y,-z
x,y,-z
-x,y,1/2+z
x,-y,1/2+z
loop_
_atom_site_type_symbol
_atom_site_label
_atom_site_fract_x
_atom_site_fract_y
_atom_site_fract_z
Si Si1 0.106696 0.065751 0.324506
Si Si2 0.569524 0.572133 0.177967
Si Si3 0.934118 0.786406 0.326205
Si Si4 0.786653 0.243549 0.173800
Si Si5 0.434719 0.202008 0.327750
Si Si6 0.387693 0.932222 0.671538
Si Si7 0.763301 0.107658 0.329199
Si Si8 0.662024 0.675595 0.669719
O O1 0.102898 0.057137 0.500000
O O2 0.072473 0.135679 0.271166
O O3 0.184439 0.067331 0.273832
O O4 0.071122 0.000000 0.250000
O O5 0.585937 0.500000 0.250000
O O6 0.500000 0.600652 0.250000
O O7 0.632001 0.620963 0.216298
O O8 0.561401 0.566032 0.000000
O O9 0.947460 0.783567 0.500000
O O10 0.865796 0.744990 0.284250
O O11 0.000000 0.753301 0.250000
O O12 0.755690 0.184639 0.274416
O O13 0.742114 0.311543 0.200833
O O14 0.781840 0.220992 0.000000
O O15 0.500000 0.235729 0.250000
O O16 0.450280 0.189533 0.500000
O O17 0.421285 0.130850 0.251562
O O18 0.372432 0.252118 0.304657
O O19 0.410593 0.932246 0.500000
O O20 0.307401 0.929438 0.687238
O O21 0.414415 0.000000 0.750000
O O22 0.788902 0.107614 0.500000
O O23 0.650338 0.649876 0.500000
#
# Coordination Sequence:
#
# PCOD8202875 Si02
#       8
#     8   8   8   8   8   8   8   8
#     4  10  20  32  46  65  90 121 160 206 259 322
#     4  11  22  37  58  85 121 159 194 226 261 309
#     4   9  19  33  49  69  97 132 167 209 261 318
#     4   9  18  34  54  76 103 135 171 213 261 311
#     4  11  23  38  56  75  99 131 167 213 265 316
#     4  11  23  36  51  70  93 122 163 213 268 326
#     4  10  19  31  49  72  95 122 158 207 261 318
#     4  10  20  36  59  84 110 143 180 221 265 309
#
# _framework density 18.251287999999999
#
# number of rings (size 3 to 8) (size 9 to 14) (size 15 to 20)
#    0.000    1.875    1.250    4.500    0.000    8.000 
#    0.000    2.500    0.000    0.000    0.000    0.000 
#    0.000    0.500    0.000    5.750    0.000    1.750 
#
# Total GULP energy -793526.578460 kJ/mol
# GULP energy per Si atom -12398.852788 kJ/mol
# Density = 1.820975 g / cm^3
# Si number density = 18.251288 Si / 1000 Ang^3
#
#
#
# Elastic Constant Matrix: (Units=GPa)
#
#
# Indices 1 2 3 4 5 6 
#
# 1 102.2280 35.3690 43.1909 0.0000 0.0000 0.0000
# 2 35.3690 62.4447 33.8631 0.0000 0.0000 0.0000
# 3 43.1909 33.8631 95.5477 0.0000 0.0000 0.0000
# 4 0.0000 0.0000 0.0000 25.0144 0.0000 0.0000
# 5 0.0000 0.0000 0.0000 0.0000 28.3434 0.0000
# 6 0.0000 0.0000 0.0000 0.0000 0.0000 14.7904
#
#
#
# Elastic Compliance Matrix: (Units=1/GPa)
#
#
# Indices 1 2 3 4 5 6 
#
# 1 0.013382 -0.005322 -0.004163 0.000000 0.000000 0.000000
# 2 -0.005322 0.021941 -0.005370 0.000000 0.000000 0.000000
# 3 -0.004163 -0.005370 0.014251 0.000000 0.000000 0.000000
# 4 0.000000 0.000000 0.000000 0.039977 0.000000 0.000000
# 5 0.000000 0.000000 0.000000 0.000000 0.035282 0.000000
# 6 0.000000 0.000000 0.000000 0.000000 0.000000 0.067612
#
#
# Mechanical properties :
#
#
# Convention : Reuss Voigt Hill
#
# Bulk Modulus (GPa) = 50.34409 53.89625 52.12017
# Shear Modulus (GPa) = 21.85539 23.48279 22.66909
#
# Velocity S-wave (km/s) = 3.46420 3.59086 3.52810
# Velocity P-wave (km/s) = 6.60641 6.84008 6.72426
#
# Compressibility (1/GPa) = 0.01986331
#
# Stress axis : x y z
#
# Youngs Moduli (GPa) = 74.72546 45.57688 70.17013
#
# Poissons Ratio (x) = 0.24257 0.29212
# Poissons Ratio (y) = 0.39771 0.37683
# Poissons Ratio (z) = 0.31108 0.24476
#
# Static dielectric constant tensor:
#      x y z
#    x 3.559990 0.000000 0.000000 
#    y 0.000000 3.036320 0.000000 
#    z 0.000000 0.000000 3.443630 
# 
# 
# High freq. dielectric constant tensor:
#      x y z
#    x 1.707570 0.000000 0.000000 
#    y 0.000000 1.663900 0.000000 
#    z 0.000000 0.000000 1.715970 
# 
# From -- ./inp_files/5961.got.cif
#   From: 2010.03.12/outbox.cif.g09.slc.cpg/sg49_3_cif.got.tgz:5961.got - 2010.04.14 03:58:27.
