data_PCOD8202266
_publ_section_title
;
Structure prediction by ZEFSAII (Michael W. Deem and Ramdas Pophale) SiO2 
 PCOD8202266
Probable space group: P C C M
;
_chemical_formula_sum "Si O2"
_cell_formula_units_Z 56
_cell_length_a 15.529240
_cell_length_b 19.837172
_cell_length_c 8.636152
_cell_angle_alpha 90.000000
_cell_angle_beta 90.000000
_cell_angle_gamma 90.000000
_cell_volume 2660.420210
_symmetry_space_group_name_H-M "P C C M"
_symmetry_group_IT_number 49
_symmetry_cell_setting 'orthorhombic'
loop_
_space_group_symop_operation_xyz
x,y,z
-x,-y,z
x,-y,1/2-z
-x,y,1/2-z
-x,-y,-z
x,y,-z
-x,y,1/2+z
x,-y,1/2+z
loop_
_atom_site_type_symbol
_atom_site_label
_atom_site_fract_x
_atom_site_fract_y
_atom_site_fract_z
Si Si1 0.155697 0.201609 0.682043
Si Si2 0.341397 0.798225 0.678340
Si Si3 0.410153 0.346202 0.821552
Si Si4 0.746864 0.573826 0.317170
Si Si5 0.648831 0.932057 0.682683
Si Si6 0.089591 0.655507 0.817091
Si Si7 0.839921 0.933682 0.182738
O O1 0.148378 0.189498 0.500000
O O2 0.254969 0.213979 0.724542
O O3 0.103387 0.267328 0.736755
O O4 0.114201 0.136659 0.770378
O O5 0.315698 0.810391 0.500000
O O6 0.402922 0.734256 0.698542
O O7 0.392242 0.864155 0.743648
O O8 0.500000 0.370471 0.750000
O O9 0.334384 0.382268 0.730824
O O10 0.405937 0.367845 0.000000
O O11 0.738499 0.500000 0.250000
O O12 0.749890 0.569647 0.500000
O O13 0.833381 0.609064 0.251573
O O14 0.638247 0.931084 0.500000
O O15 0.748350 0.931450 0.731804
O O16 0.604166 0.000000 0.750000
O O17 0.000000 0.628035 0.750000
O O18 0.087458 0.650818 0.000000
O O19 0.889571 0.000000 0.250000
O O20 0.829375 0.939948 0.000000
#
# Coordination Sequence:
#
# PCOD8202266 Si02
#       7
#     8   8   8   8   8   8   8
#     4  10  18  32  53  80 113 154 199 248 303 356
#     4  10  19  32  53  82 114 153 200 248 302 359
#     4  11  24  41  65  95 127 165 205 252 303 362
#     4  11  24  45  69  97 129 163 202 247 300 359
#     4  10  17  26  43  70 107 150 196 249 303 356
#     4  10  23  40  63  92 126 164 204 250 301 359
#     4  10  17  26  42  70 106 148 195 248 302 357
#
# _framework density 21.049306999999999
#
# number of rings (size 3 to 8) (size 9 to 14) (size 15 to 20)
#    0.000    1.714    1.429    6.857    0.000    4.571 
#    0.000    2.857    0.000    0.857    0.000    6.000 
#    0.000    0.000    0.000    0.000    0.000    0.000 
#
# Total GULP energy -694333.327200 kJ/mol
# GULP energy per Si atom -12398.809414 kJ/mol
# Density = 2.100140 g / cm^3
# Si number density = 21.049307 Si / 1000 Ang^3
#
#
#
# Elastic Constant Matrix: (Units=GPa)
#
#
# Indices 1 2 3 4 5 6 
#
# 1 87.0815 33.0189 18.3652 0.0000 0.0000 0.0000
# 2 33.0189 125.9190 49.9320 0.0000 0.0000 0.0000
# 3 18.3652 49.9320 84.9257 0.0000 0.0000 0.0000
# 4 0.0000 0.0000 0.0000 32.8553 0.0000 0.0000
# 5 0.0000 0.0000 0.0000 0.0000 19.9949 0.0000
# 6 0.0000 0.0000 0.0000 0.0000 0.0000 3.1220
#
#
#
# Elastic Compliance Matrix: (Units=1/GPa)
#
#
# Indices 1 2 3 4 5 6 
#
# 1 0.012821 -0.002950 -0.001038 0.000000 0.000000 0.000000
# 2 -0.002950 0.011035 -0.005850 0.000000 0.000000 0.000000
# 3 -0.001038 -0.005850 0.015439 0.000000 0.000000 0.000000
# 4 0.000000 0.000000 0.000000 0.030437 0.000000 0.000000
# 5 0.000000 0.000000 0.000000 0.000000 0.050013 0.000000
# 6 0.000000 0.000000 0.000000 0.000000 0.000000 0.320310
#
#
# Mechanical properties :
#
#
# Convention : Reuss Voigt Hill
#
# Bulk Modulus (GPa) = 50.97234 55.61760 53.29497
# Shear Modulus (GPa) = 10.72339 24.30176 17.51258
#
# Velocity S-wave (km/s) = 2.25953 3.40150 2.88753
# Velocity P-wave (km/s) = 5.57455 6.47355 6.04080
#
# Compressibility (1/GPa) = 0.01961848
#
# Stress axis : x y z
#
# Youngs Moduli (GPa) = 77.99646 90.62028 64.77119
#
# Poissons Ratio (x) = 0.26737 0.06722
# Poissons Ratio (y) = 0.23012 0.37891
# Poissons Ratio (z) = 0.08095 0.53013
#
# Static dielectric constant tensor:
#      x y z
#    x 3.480850 0.000000 0.000000 
#    y 0.000000 4.621370 0.000000 
#    z 0.000000 0.000000 3.781040 
# 
# 
# High freq. dielectric constant tensor:
#      x y z
#    x 1.786080 0.000000 0.000000 
#    y 0.000000 1.843340 0.000000 
#    z 0.000000 0.000000 1.832860 
# 
# From -- ./inp_files/4005.got.cif
#   From: 2010.03.12/outbox.cif.g09.slc.cpg/sg49_3_cif.got.tgz:4005.got - 2010.04.14 03:58:27.
