data_PCOD8202555
_publ_section_title
;
Structure prediction by ZEFSAII (Michael W. Deem and Ramdas Pophale) SiO2 
 PCOD8202555
Probable space group: P C C M
;
_chemical_formula_sum "Si O2"
_cell_formula_units_Z 64
_cell_length_a 18.325072
_cell_length_b 22.541109
_cell_length_c 9.018979
_cell_angle_alpha 90.000000
_cell_angle_beta 90.000000
_cell_angle_gamma 90.000000
_cell_volume 3725.446616
_symmetry_space_group_name_H-M "P C C M"
_symmetry_group_IT_number 49
_symmetry_cell_setting 'orthorhombic'
loop_
_space_group_symop_operation_xyz
x,y,z
-x,-y,z
x,-y,1/2-z
-x,y,1/2-z
-x,-y,-z
x,y,-z
-x,y,1/2+z
x,-y,1/2+z
loop_
_atom_site_type_symbol
_atom_site_label
_atom_site_fract_x
_atom_site_fract_y
_atom_site_fract_z
Si Si1 0.575279 0.935989 0.178393
Si Si2 0.878887 0.438660 0.677725
Si Si3 0.782495 0.751650 0.326884
Si Si4 0.436015 0.758467 0.160051
Si Si5 0.714099 0.445698 0.666184
Si Si6 0.686224 0.854617 0.663065
Si Si7 0.660199 0.319780 0.668216
Si Si8 0.927477 0.683012 0.324385
O O1 0.500000 0.909269 0.250000
O O2 0.648961 0.899455 0.219872
O O3 0.586938 0.000000 0.250000
O O4 0.567455 0.938714 0.000000
O O5 0.910147 0.500000 0.750000
O O6 0.890830 0.438946 0.500000
O O7 0.794775 0.431940 0.727623
O O8 0.916565 0.381120 0.748613
O O9 0.765403 0.742856 0.500000
O O10 0.762016 0.821534 0.285244
O O11 0.733720 0.706508 0.235313
O O12 0.865352 0.732730 0.290128
O O13 0.500000 0.791505 0.250000
O O14 0.367418 0.799964 0.145307
O O15 0.412773 0.699545 0.247351
O O16 0.466410 0.740308 0.000000
O O17 0.676187 0.500000 0.750000
O O18 0.723594 0.466892 0.500000
O O19 0.661445 0.390119 0.682607
O O20 0.695794 0.885391 0.500000
O O21 0.656053 0.297709 0.500000
O O22 0.936263 0.673812 0.500000
O O23 0.000000 0.710473 0.250000
#
# Coordination Sequence:
#
# PCOD8202555 Si02
#       8
#     8   8   8   8   8   8   8   8
#     4  11  21  33  50  74 106 145 180 210 242 279
#     4  10  19  33  49  69  93 121 156 197 242 296
#     4   9  19  34  51  70  94 125 162 200 242 288
#     4  10  20  32  47  69  95 125 157 194 238 282
#     4   9  18  29  45  67  88 112 144 185 232 283
#     4   9  18  33  51  72  98 129 166 205 239 277
#     4  10  18  30  48  69  91 116 148 190 237 285
#     4  11  22  35  51  71  96 129 162 200 249 301
#
# _framework density 17.179148000000001
#
# number of rings (size 3 to 8) (size 9 to 14) (size 15 to 20)
#    0.000    2.125    1.250    4.125    0.000    5.750 
#    0.000    1.250    0.000    0.375    0.000    2.625 
#    0.000    0.500    0.000    5.750    0.000    1.750 
#
# Total GULP energy -792930.474927 kJ/mol
# GULP energy per Si atom -12389.538671 kJ/mol
# Density = 1.714005 g / cm^3
# Si number density = 17.179148 Si / 1000 Ang^3
#
#
#
# Elastic Constant Matrix: (Units=GPa)
#
#
# Indices 1 2 3 4 5 6 
#
# 1 62.5758 36.0294 34.2970 0.0000 0.0000 0.0000
# 2 36.0294 68.5530 42.2103 0.0000 0.0000 0.0000
# 3 34.2970 42.2103 109.8746 0.0000 0.0000 0.0000
# 4 0.0000 0.0000 0.0000 22.4044 0.0000 0.0000
# 5 0.0000 0.0000 0.0000 0.0000 24.0687 0.0000
# 6 0.0000 0.0000 0.0000 0.0000 0.0000 18.2146
#
#
#
# Elastic Compliance Matrix: (Units=1/GPa)
#
#
# Indices 1 2 3 4 5 6 
#
# 1 0.023872 -0.010424 -0.003447 0.000000 0.000000 0.000000
# 2 -0.010424 0.023659 -0.005835 0.000000 0.000000 0.000000
# 3 -0.003447 -0.005835 0.012419 0.000000 0.000000 0.000000
# 4 0.000000 0.000000 0.000000 0.044634 0.000000 0.000000
# 5 0.000000 0.000000 0.000000 0.000000 0.041548 0.000000
# 6 0.000000 0.000000 0.000000 0.000000 0.000000 0.054901
#
#
# Mechanical properties :
#
#
# Convention : Reuss Voigt Hill
#
# Bulk Modulus (GPa) = 48.69178 51.78629 50.23904
# Shear Modulus (GPa) = 20.21924 21.50200 20.86062
#
# Velocity S-wave (km/s) = 3.43441 3.54168 3.48846
# Velocity P-wave (km/s) = 6.64319 6.85091 6.74785
#
# Compressibility (1/GPa) = 0.02053735
#
# Stress axis : x y z
#
# Youngs Moduli (GPa) = 41.89087 42.26809 80.52246
#
# Poissons Ratio (x) = 0.44059 0.27756
# Poissons Ratio (y) = 0.43666 0.46986
# Poissons Ratio (z) = 0.14440 0.24664
#
# Static dielectric constant tensor:
#      x y z
#    x 3.283580 0.000000 0.000000 
#    y 0.000000 3.149520 0.000000 
#    z 0.000000 0.000000 3.655580 
# 
# 
# High freq. dielectric constant tensor:
#      x y z
#    x 1.638410 0.000000 0.000000 
#    y 0.000000 1.639450 0.000000 
#    z 0.000000 0.000000 1.677760 
# 
# From -- ./inp_files/5335.got.cif
#   From: 2010.03.12/outbox.cif.g09.slc.cpg/sg49_3_cif.got.tgz:5335.got - 2010.04.14 03:58:27.
