data_PCOD8202522
_publ_section_title
;
Structure prediction by ZEFSAII (Michael W. Deem and Ramdas Pophale) SiO2 
 PCOD8202522
Probable space group: P C C M
;
_chemical_formula_sum "Si O2"
_cell_formula_units_Z 64
_cell_length_a 22.145523
_cell_length_b 16.342370
_cell_length_c 9.197173
_cell_angle_alpha 90.000000
_cell_angle_beta 90.000000
_cell_angle_gamma 90.000000
_cell_volume 3328.551922
_symmetry_space_group_name_H-M "P C C M"
_symmetry_group_IT_number 49
_symmetry_cell_setting 'orthorhombic'
loop_
_space_group_symop_operation_xyz
x,y,z
-x,-y,z
x,-y,1/2-z
-x,y,1/2-z
-x,-y,-z
x,y,-z
-x,y,1/2+z
x,-y,1/2+z
loop_
_atom_site_type_symbol
_atom_site_label
_atom_site_fract_x
_atom_site_fract_y
_atom_site_fract_z
Si Si1 0.147150 0.200291 0.840997
Si Si2 0.755635 0.669671 0.159639
Si Si3 0.159409 0.574055 0.838101
Si Si4 0.058005 0.289055 0.336217
Si Si5 0.364104 0.920815 0.837623
Si Si6 0.220684 0.923502 0.836545
Si Si7 0.354503 0.260707 0.329234
Si Si8 0.436192 0.581140 0.826942
O O1 0.181046 0.285151 0.866780
O O2 0.084157 0.211678 0.754507
O O3 0.194413 0.154114 0.741611
O O4 0.134583 0.159673 0.000000
O O5 0.775577 0.595552 0.264429
O O6 0.705816 0.726035 0.237023
O O7 0.731414 0.641225 0.000000
O O8 0.129417 0.500000 0.750000
O O9 0.110012 0.644331 0.842782
O O10 0.175534 0.545331 0.000000
O O11 0.039806 0.262678 0.500000
O O12 0.000000 0.323181 0.250000
O O13 0.292346 0.921013 0.831081
O O14 0.383484 0.828625 0.783291
O O15 0.390043 0.000000 0.750000
O O16 0.388387 0.934149 0.000000
O O17 0.194416 0.000000 0.750000
O O18 0.196524 0.927317 0.000000
O O19 0.337588 0.256353 0.500000
O O20 0.398556 0.336569 0.295670
O O21 0.406517 0.500000 0.750000
O O22 0.500000 0.595584 0.750000
O O23 0.443187 0.566111 0.000000
#
# Coordination Sequence:
#
# PCOD8202522 Si02
#       8
#     8   8   8   8   8   8   8   8
#     4  10  19  32  50  73 102 133 168 209 253 305
#     4  10  20  32  50  76 105 136 172 212 256 313
#     4  10  21  36  53  72 100 134 167 209 263 318
#     4  10  21  36  54  74  95 126 167 212 260 310
#     4   9  18  31  49  76 112 147 182 221 266 319
#     4  10  18  29  48  73 104 138 172 210 255 308
#     4  10  20  35  55  80 111 150 185 224 275 330
#     4  10  21  38  60  82 109 142 185 234 281 325
#
# _framework density 19.227581000000001
#
# number of rings (size 3 to 8) (size 9 to 14) (size 15 to 20)
#    0.000    2.125    1.250    2.625    0.000    5.250 
#    0.000    2.500    0.000    0.750    0.000    5.250 
#    0.000    0.000    0.000    0.000    0.000    0.000 
#
# Total GULP energy -792907.167920 kJ/mol
# GULP energy per Si atom -12389.174499 kJ/mol
# Density = 1.918382 g / cm^3
# Si number density = 19.227581 Si / 1000 Ang^3
#
#
#
# Elastic Constant Matrix: (Units=GPa)
#
#
# Indices 1 2 3 4 5 6 
#
# 1 39.9575 24.9494 31.6383 0.0000 0.0000 0.0000
# 2 24.9494 91.9240 49.9401 0.0000 0.0000 0.0000
# 3 31.6383 49.9401 155.3154 0.0000 0.0000 0.0000
# 4 0.0000 0.0000 0.0000 32.0968 0.0000 0.0000
# 5 0.0000 0.0000 0.0000 0.0000 16.9094 0.0000
# 6 0.0000 0.0000 0.0000 0.0000 0.0000 11.4113
#
#
#
# Elastic Compliance Matrix: (Units=1/GPa)
#
#
# Indices 1 2 3 4 5 6 
#
# 1 0.032643 -0.006358 -0.004605 0.000000 0.000000 0.000000
# 2 -0.006358 0.014419 -0.003341 0.000000 0.000000 0.000000
# 3 -0.004605 -0.003341 0.008451 0.000000 0.000000 0.000000
# 4 0.000000 0.000000 0.000000 0.031156 0.000000 0.000000
# 5 0.000000 0.000000 0.000000 0.000000 0.059139 0.000000
# 6 0.000000 0.000000 0.000000 0.000000 0.000000 0.087632
#
#
# Mechanical properties :
#
#
# Convention : Reuss Voigt Hill
#
# Bulk Modulus (GPa) = 37.16844 55.58361 46.37603
# Shear Modulus (GPa) = 18.44905 24.12811 21.28858
#
# Velocity S-wave (km/s) = 3.10096 3.54626 3.33106
# Velocity P-wave (km/s) = 5.67398 6.76306 6.24231
#
# Compressibility (1/GPa) = 0.02690455
#
# Stress axis : x y z
#
# Youngs Moduli (GPa) = 30.63471 69.35106 118.32987
#
# Poissons Ratio (x) = 0.44092 0.54493
# Poissons Ratio (y) = 0.19477 0.39538
# Poissons Ratio (z) = 0.14108 0.23172
#
# Static dielectric constant tensor:
#      x y z
#    x 3.120080 0.000000 0.000000 
#    y 0.000000 3.390640 0.000000 
#    z 0.000000 0.000000 4.023670 
# 
# 
# High freq. dielectric constant tensor:
#      x y z
#    x 1.706070 0.000000 0.000000 
#    y 0.000000 1.741980 0.000000 
#    z 0.000000 0.000000 1.768890 
# 
# From -- ./inp_files/4382.got.cif
#   From: 2010.03.12/outbox.cif.g09.slc.cpg/sg49_3_cif.got.tgz:4382.got - 2010.04.14 03:58:27.
