data_PCOD8202097
_publ_section_title
;
Structure prediction by ZEFSAII (Michael W. Deem and Ramdas Pophale) SiO2 
 PCOD8202097
Probable space group: P N N N
;
_chemical_formula_sum "Si O2"
_cell_formula_units_Z 40
_cell_length_a 7.286264
_cell_length_b 33.153416
_cell_length_c 8.814722
_cell_angle_alpha 90.000000
_cell_angle_beta 90.000000
_cell_angle_gamma 90.000000
_cell_volume 2129.324278
_symmetry_space_group_name_H-M "P N N N"
_symmetry_group_IT_number 48
_space_group.IT_coordinate_system_code '2'
_symmetry_cell_setting 'orthorhombic'
loop_
_space_group_symop_operation_xyz
x,y,z
1/2-x,1/2-y,z
x,1/2-y,1/2-z
1/2-x,y,1/2-z
-x,-y,-z
1/2+x,1/2+y,-z
-x,1/2+y,1/2+z
1/2+x,-y,1/2+z
loop_
_atom_site_type_symbol
_atom_site_label
_atom_site_fract_x
_atom_site_fract_y
_atom_site_fract_z
Si Si1 0.955320 0.750000 0.429186
Si Si2 0.038375 0.457538 0.923365
Si Si3 0.750000 0.185465 0.929497
Si Si4 0.461625 0.042462 0.576635
Si Si5 0.750000 0.401258 0.071120
O O1 0.750000 0.750000 0.501904
O O2 0.939395 0.750000 0.250000
O O3 0.068182 0.710275 0.478396
O O4 0.068182 0.789725 0.478396
O O5 0.972552 0.460246 0.750000
O O6 0.250000 0.445998 0.935090
O O7 0.000000 0.500000 0.000000
O O8 0.931030 0.422306 0.007281
O O9 0.750000 0.176480 0.750000
O O10 0.750000 0.144928 0.023963
O O11 0.568970 0.077694 0.492719
O O12 0.500000 0.000000 0.500000
O O13 0.750000 0.405525 0.250000
#
# Coordination Sequence:
#
# PCOD8202097 Si02
#       5
#     8   8   8   8   8
#     4   8  15  31  58  86 112 144 184 235 292 347
#     4  11  23  39  61  85 111 148 195 246 298 348
#     4   9  18  34  56  84 114 146 190 240 287 341
#     4  11  23  39  61  85 111 148 195 246 298 348
#     4  12  25  39  57  84 122 162 198 241 289 346
#
# _framework density 18.785301
#
# number of rings (size 3 to 8) (size 9 to 14) (size 15 to 20)
#    0.000    1.800    2.000    4.200    0.000    4.000 
#    0.000    6.000    0.000    1.200    0.000    0.000 
#    0.000    0.000    0.000    0.000    0.000    0.000 
#
# Total GULP energy -496039.450761 kJ/mol
# GULP energy per Si atom -12400.986269 kJ/mol
# Density = 1.874255 g / cm^3
# Si number density = 18.785301 Si / 1000 Ang^3
#
#
#
# Elastic Constant Matrix: (Units=GPa)
#
#
# Indices 1 2 3 4 5 6 
#
# 1 151.0226 71.9509 55.8371 0.0000 0.0000 0.0000
# 2 71.9509 154.0042 66.4162 0.0000 0.0000 0.0000
# 3 55.8371 66.4162 135.2208 0.0000 0.0000 0.0000
# 4 0.0000 0.0000 0.0000 36.1918 0.0000 0.0000
# 5 0.0000 0.0000 0.0000 0.0000 20.8250 0.0000
# 6 0.0000 0.0000 0.0000 0.0000 0.0000 24.2875
#
#
#
# Elastic Compliance Matrix: (Units=1/GPa)
#
#
# Indices 1 2 3 4 5 6 
#
# 1 0.008958 -0.003286 -0.002085 0.000000 0.000000 0.000000
# 2 -0.003286 0.009444 -0.003282 0.000000 0.000000 0.000000
# 3 -0.002085 -0.003282 0.009868 0.000000 0.000000 0.000000
# 4 0.000000 0.000000 0.000000 0.027631 0.000000 0.000000
# 5 0.000000 0.000000 0.000000 0.000000 0.048019 0.000000
# 6 0.000000 0.000000 0.000000 0.000000 0.000000 0.041174
#
#
# Mechanical properties :
#
#
# Convention : Reuss Voigt Hill
#
# Bulk Modulus (GPa) = 91.20273 92.07287 91.63780
# Shear Modulus (GPa) = 30.11083 32.66375 31.38729
#
# Velocity S-wave (km/s) = 4.00796 4.17441 4.09203
# Velocity P-wave (km/s) = 8.37101 8.50611 8.43883
#
# Compressibility (1/GPa) = 0.01096458
#
# Stress axis : x y z
#
# Youngs Moduli (GPa) = 111.63288 105.89005 101.33637
#
# Poissons Ratio (x) = 0.34795 0.21129
# Poissons Ratio (y) = 0.36682 0.33255
# Poissons Ratio (z) = 0.23276 0.34749
#
# Static dielectric constant tensor:
#      x y z
#    x 3.705280 0.000000 0.000000 
#    y 0.000000 3.423890 0.000000 
#    z 0.000000 0.000000 3.423150 
# 
# 
# High freq. dielectric constant tensor:
#      x y z
#    x 1.745830 0.000000 0.000000 
#    y 0.000000 1.730640 0.000000 
#    z 0.000000 0.000000 1.717300 
# 
# From -- ./inp_files/9327.got.cif
#   From: 2010.06.25/outbox.cif.g09.slc.cpg/sg48_5_cif.got.tgz:9327.got - 2010.06.26 18:06:46.
