data_PCOD8202566
_publ_section_title
;
Structure prediction by ZEFSAII (Michael W. Deem and Ramdas Pophale) SiO2 
 PCOD8202566
Probable space group: P C C M
;
_chemical_formula_sum "Si O2"
_cell_formula_units_Z 40
_cell_length_a 13.202974
_cell_length_b 18.748503
_cell_length_c 9.043988
_cell_angle_alpha 90.000000
_cell_angle_beta 90.000000
_cell_angle_gamma 90.000000
_cell_volume 2238.712592
_symmetry_space_group_name_H-M "P C C M"
_symmetry_group_IT_number 49
_symmetry_cell_setting 'orthorhombic'
loop_
_space_group_symop_operation_xyz
x,y,z
-x,-y,z
x,-y,1/2-z
-x,y,1/2-z
-x,-y,-z
x,y,-z
-x,y,1/2+z
x,-y,1/2+z
loop_
_atom_site_type_symbol
_atom_site_label
_atom_site_fract_x
_atom_site_fract_y
_atom_site_fract_z
Si Si1 0.393679 0.791744 0.171423
Si Si2 0.102217 0.573246 0.671324
Si Si3 0.388743 0.069505 0.178462
Si Si4 0.645019 0.444227 0.000000
Si Si5 0.707965 0.652080 0.748198
Si Si6 0.414123 0.600320 0.500000
O O1 0.500000 0.770982 0.250000
O O2 0.339506 0.857219 0.260413
O O3 0.309927 0.728514 0.172418
O O4 0.415876 0.811661 0.000000
O O5 0.139035 0.500000 0.750000
O O6 0.081324 0.556463 0.500000
O O7 0.181986 0.639486 0.680147
O O8 0.000000 0.600534 0.750000
O O9 0.500000 0.071434 0.250000
O O10 0.332960 0.000000 0.250000
O O11 0.389332 0.065806 0.000000
O O12 0.701560 0.414843 0.859456
O O13 0.530574 0.417283 0.000000
O O14 0.654465 0.529104 0.000000
O O15 0.614198 0.647322 0.860218
#
# Coordination Sequence:
#
# PCOD8202566 Si02
#       6
#     8   8   8   4   8   4
#     4  11  22  34  51  74 106 144 180 218 263 316
#     4  11  24  40  61  79  99 128 173 229 282 334
#     4  10  18  30  49  71 101 137 179 219 255 305
#     4  11  22  36  51  73 100 144 175 220 253 317
#     4  12  24  35  54  76 104 138 176 225 271 318
#     4  11  22  36  51  71 104 136 185 212 263 309
#
# _framework density 17.867412999999999
#
# number of rings (size 3 to 8) (size 9 to 14) (size 15 to 20)
#    0.000    1.000    2.000    9.000    5.600    1.600 
#    0.000    0.000    0.000    0.000    0.000    0.000 
#    0.000    0.800    0.000    5.600    0.000    1.400 
#
# Total GULP energy -495677.576561 kJ/mol
# GULP energy per Si atom -12391.939414 kJ/mol
# Density = 1.782675 g / cm^3
# Si number density = 17.867413 Si / 1000 Ang^3
#
#
#
# Elastic Constant Matrix: (Units=GPa)
#
#
# Indices 1 2 3 4 5 6 
#
# 1 46.4704 33.3386 18.8306 0.0000 0.0000 0.0000
# 2 33.3386 98.2601 32.3375 0.0000 0.0000 0.0000
# 3 18.8306 32.3375 152.5475 0.0000 0.0000 0.0000
# 4 0.0000 0.0000 0.0000 30.1357 0.0000 0.0000
# 5 0.0000 0.0000 0.0000 0.0000 19.7097 0.0000
# 6 0.0000 0.0000 0.0000 0.0000 0.0000 13.5488
#
#
#
# Elastic Compliance Matrix: (Units=1/GPa)
#
#
# Indices 1 2 3 4 5 6 
#
# 1 0.028799 -0.009246 -0.001595 0.000000 0.000000 0.000000
# 2 -0.009246 0.013909 -0.001807 0.000000 0.000000 0.000000
# 3 -0.001595 -0.001807 0.007135 0.000000 0.000000 0.000000
# 4 0.000000 0.000000 0.000000 0.033183 0.000000 0.000000
# 5 0.000000 0.000000 0.000000 0.000000 0.050736 0.000000
# 6 0.000000 0.000000 0.000000 0.000000 0.000000 0.073807
#
#
# Mechanical properties :
#
#
# Convention : Reuss Voigt Hill
#
# Bulk Modulus (GPa) = 40.73898 51.81017 46.27458
# Shear Modulus (GPa) = 20.74272 26.86360 23.80316
#
# Velocity S-wave (km/s) = 3.41093 3.88170 3.65391
# Velocity P-wave (km/s) = 6.19377 7.01071 6.61487
#
# Compressibility (1/GPa) = 0.02454652
#
# Stress axis : x y z
#
# Youngs Moduli (GPa) = 34.72378 71.89633 140.14858
#
# Poissons Ratio (x) = 0.66477 0.22352
# Poissons Ratio (y) = 0.32106 0.25326
# Poissons Ratio (z) = 0.05538 0.12992
#
# Static dielectric constant tensor:
#      x y z
#    x 2.904570 0.000000 0.000000 
#    y 0.000000 3.928190 0.000000 
#    z 0.000000 0.000000 3.544620 
# 
# 
# High freq. dielectric constant tensor:
#      x y z
#    x 1.634300 0.000000 0.000000 
#    y 0.000000 1.686640 0.000000 
#    z 0.000000 0.000000 1.719840 
# 
# From -- ./inp_files/2821.got.cif
#   From: 2010.03.12/outbox.cif.g09.slc.cpg/sg49_2_cif.got.tgz:2821.got - 2010.04.14 03:58:27.
