data_PCOD8202800
_publ_section_title
;
Structure prediction by ZEFSAII (Michael W. Deem and Ramdas Pophale) SiO2 
 PCOD8202800
Probable space group: P C C M
;
_chemical_formula_sum "Si O2"
_cell_formula_units_Z 56
_cell_length_a 15.326389
_cell_length_b 20.045424
_cell_length_c 9.040500
_cell_angle_alpha 90.000000
_cell_angle_beta 90.000000
_cell_angle_gamma 90.000000
_cell_volume 2777.458264
_symmetry_space_group_name_H-M "P C C M"
_symmetry_group_IT_number 49
_symmetry_cell_setting 'orthorhombic'
loop_
_space_group_symop_operation_xyz
x,y,z
-x,-y,z
x,-y,1/2-z
-x,y,1/2-z
-x,-y,-z
x,y,-z
-x,y,1/2+z
x,-y,1/2+z
loop_
_atom_site_type_symbol
_atom_site_label
_atom_site_fract_x
_atom_site_fract_y
_atom_site_fract_z
Si Si1 0.585202 0.885268 0.670553
Si Si2 0.354493 0.258255 0.334206
Si Si3 0.235695 0.564179 0.326131
Si Si4 0.772257 0.067097 0.825641
Si Si5 0.911914 0.178296 0.825821
Si Si6 0.816787 0.290548 0.328014
Si Si7 0.585979 0.402735 0.831194
O O1 0.500000 0.915623 0.750000
O O2 0.575123 0.902436 0.500000
O O3 0.587621 0.806129 0.701036
O O4 0.674420 0.917718 0.732449
O O5 0.313010 0.251218 0.500000
O O6 0.277845 0.262959 0.215356
O O7 0.416223 0.322431 0.326126
O O8 0.189102 0.500000 0.250000
O O9 0.245757 0.552945 0.500000
O O10 0.178714 0.630256 0.292161
O O11 0.331052 0.569655 0.255053
O O12 0.834593 0.128111 0.780006
O O13 0.807415 0.000000 0.750000
O O14 0.773821 0.057114 0.000000
O O15 0.890372 0.252314 0.765223
O O16 0.000000 0.151983 0.750000
O O17 0.925889 0.181892 0.000000
O O18 0.832410 0.276545 0.500000
O O19 0.500000 0.430194 0.750000
O O20 0.588230 0.428467 0.000000
#
# Coordination Sequence:
#
# PCOD8202800 Si02
#       7
#     8   8   8   8   8   8   8
#     4  10  20  35  54  81 115 156 203 248 296 346
#     4   9  17  32  52  75 110 150 192 243 298 351
#     4  10  21  36  54  79 111 149 196 240 289 353
#     4  10  23  42  62  85 122 162 200 246 297 353
#     4  11  23  42  67  95 125 155 193 241 295 359
#     4  10  20  35  59  89 118 150 192 240 290 349
#     4  10  19  30  47  71 104 146 191 245 302 353
#
# _framework density 20.162319
#
# number of rings (size 3 to 8) (size 9 to 14) (size 15 to 20)
#    0.000    2.000    1.429    2.143    0.000    5.429 
#    0.000    4.286    0.000    0.429    0.000    3.000 
#    0.000    0.000    0.000    0.000    0.000    0.000 
#
# Total GULP energy -694447.700034 kJ/mol
# GULP energy per Si atom -12400.851786 kJ/mol
# Density = 2.011643 g / cm^3
# Si number density = 20.162319 Si / 1000 Ang^3
#
#
#
# Elastic Constant Matrix: (Units=GPa)
#
#
# Indices 1 2 3 4 5 6 
#
# 1 100.4296 36.6326 47.1253 0.0000 0.0000 0.0000
# 2 36.6326 110.3650 54.1899 0.0000 0.0000 0.0000
# 3 47.1253 54.1899 96.8571 0.0000 0.0000 0.0000
# 4 0.0000 0.0000 0.0000 31.9524 0.0000 0.0000
# 5 0.0000 0.0000 0.0000 0.0000 33.0690 0.0000
# 6 0.0000 0.0000 0.0000 0.0000 0.0000 7.7081
#
#
#
# Elastic Compliance Matrix: (Units=1/GPa)
#
#
# Indices 1 2 3 4 5 6 
#
# 1 0.013126 -0.001684 -0.005445 0.000000 0.000000 0.000000
# 2 -0.001684 0.012709 -0.006291 0.000000 0.000000 0.000000
# 3 -0.005445 -0.006291 0.016493 0.000000 0.000000 0.000000
# 4 0.000000 0.000000 0.000000 0.031297 0.000000 0.000000
# 5 0.000000 0.000000 0.000000 0.000000 0.030240 0.000000
# 6 0.000000 0.000000 0.000000 0.000000 0.000000 0.129734
#
#
# Mechanical properties :
#
#
# Convention : Reuss Voigt Hill
#
# Bulk Modulus (GPa) = 64.55951 64.83861 64.69906
# Shear Modulus (GPa) = 18.82532 25.85950 22.34241
#
# Velocity S-wave (km/s) = 3.05895 3.58518 3.33247
# Velocity P-wave (km/s) = 6.67575 7.02610 6.85316
#
# Compressibility (1/GPa) = 0.01548958
#
# Stress axis : x y z
#
# Youngs Moduli (GPa) = 76.18422 78.68660 60.63076
#
# Poissons Ratio (x) = 0.13247 0.33010
# Poissons Ratio (y) = 0.12826 0.38144
# Poissons Ratio (z) = 0.41479 0.49503
#
# Static dielectric constant tensor:
#      x y z
#    x 3.387740 0.000000 0.000000 
#    y 0.000000 3.861970 0.000000 
#    z 0.000000 0.000000 3.638940 
# 
# 
# High freq. dielectric constant tensor:
#      x y z
#    x 1.758100 0.000000 0.000000 
#    y 0.000000 1.795200 0.000000 
#    z 0.000000 0.000000 1.789650 
# 
# From -- ./inp_files/3999.got.cif
#   From: 2010.03.12/outbox.cif.g09.slc.cpg/sg49_2_cif.got.tgz:3999.got - 2010.04.14 03:58:27.
