data_PCOD8202900
_publ_section_title
;
Structure prediction by ZEFSAII (Michael W. Deem and Ramdas Pophale) SiO2 
 PCOD8202900
Probable space group: P C C M
;
_chemical_formula_sum "Si O2"
_cell_formula_units_Z 40
_cell_length_a 13.597972
_cell_length_b 18.693132
_cell_length_c 8.791328
_cell_angle_alpha 90.000000
_cell_angle_beta 90.000000
_cell_angle_gamma 90.000000
_cell_volume 2234.656108
_symmetry_space_group_name_H-M "P C C M"
_symmetry_group_IT_number 49
_symmetry_cell_setting 'orthorhombic'
loop_
_space_group_symop_operation_xyz
x,y,z
-x,-y,z
x,-y,1/2-z
-x,y,1/2-z
-x,-y,-z
x,y,-z
-x,y,1/2+z
x,-y,1/2+z
loop_
_atom_site_type_symbol
_atom_site_label
_atom_site_fract_x
_atom_site_fract_y
_atom_site_fract_z
Si Si1 0.299589 0.924409 0.679904
Si Si2 0.397294 0.788394 0.819849
Si Si3 0.101981 0.850315 0.676417
Si Si4 0.219514 0.285833 0.178199
Si Si5 0.104433 0.573628 0.321165
O O1 0.315651 0.924846 0.500000
O O2 0.370758 0.865457 0.751254
O O3 0.186704 0.906487 0.723072
O O4 0.329187 0.000000 0.750000
O O5 0.500000 0.762695 0.750000
O O6 0.317687 0.728552 0.773482
O O7 0.404251 0.793992 0.000000
O O8 0.082364 0.851962 0.500000
O O9 0.135614 0.770921 0.727707
O O10 0.000000 0.873514 0.750000
O O11 0.182599 0.364961 0.217770
O O12 0.243418 0.275748 0.000000
O O13 0.144931 0.500000 0.250000
O O14 0.090119 0.564198 0.500000
O O15 0.000000 0.594572 0.250000
#
# Coordination Sequence:
#
# PCOD8202900 Si02
#       5
#     8   8   8   8   8
#     4  10  21  37  53  74 103 133 169 212 256 304
#     4  11  22  37  58  80 101 129 165 209 259 311
#     4   9  18  31  48  70  99 133 170 209 249 296
#     4   9  19  35  52  74 104 137 172 214 256 299
#     4  10  19  31  50  77 112 147 179 213 251 297
#
# _framework density 17.899847000000001
#
# number of rings (size 3 to 8) (size 9 to 14) (size 15 to 20)
#    0.000    2.200    0.000    5.400    0.000    6.400 
#    0.000    4.000    0.000    0.600    0.000    4.200 
#    0.000    0.000    0.000    0.000    0.000    0.000 
#
# Total GULP energy -496063.643058 kJ/mol
# GULP energy per Si atom -12401.591076 kJ/mol
# Density = 1.785911 g / cm^3
# Si number density = 17.899847 Si / 1000 Ang^3
#
#
#
# Elastic Constant Matrix: (Units=GPa)
#
#
# Indices 1 2 3 4 5 6 
#
# 1 90.2586 36.4129 38.8430 0.0000 0.0000 0.0000
# 2 36.4129 112.5742 46.0966 0.0000 0.0000 0.0000
# 3 38.8430 46.0966 93.1082 0.0000 0.0000 0.0000
# 4 0.0000 0.0000 0.0000 7.8178 0.0000 0.0000
# 5 0.0000 0.0000 0.0000 0.0000 31.6830 0.0000
# 6 0.0000 0.0000 0.0000 0.0000 0.0000 -16.9869
#
#
#
# Elastic Compliance Matrix: (Units=1/GPa)
#
#
# Indices 1 2 3 4 5 6 
#
# 1 0.014131 -0.002705 -0.004556 0.000000 0.000000 0.000000
# 2 -0.002705 0.011660 -0.004644 0.000000 0.000000 0.000000
# 3 -0.004556 -0.004644 0.014940 0.000000 0.000000 0.000000
# 4 0.000000 0.000000 0.000000 0.127914 0.000000 0.000000
# 5 0.000000 0.000000 0.000000 0.000000 0.031563 0.000000
# 6 0.000000 0.000000 0.000000 0.000000 0.000000 -0.058869
#
#
# Mechanical properties :
#
#
# Convention : Reuss Voigt Hill
#
# Bulk Modulus (GPa) = 59.09962 59.84955 59.47458
# Shear Modulus (GPa) = 29.27583 16.14200 22.70892
#
# Velocity S-wave (km/s) = 4.04856 3.00625 3.56570
# Velocity P-wave (km/s) = 7.41235 6.74970 7.08877
#
# Compressibility (1/GPa) = 0.01692058
#
# Stress axis : x y z
#
# Youngs Moduli (GPa) = 70.76462 85.76572 66.93433
#
# Poissons Ratio (x) = 0.23202 0.30495
# Poissons Ratio (y) = 0.19144 0.31084
# Poissons Ratio (z) = 0.32240 0.39829
#
# Static dielectric constant tensor:
#      x y z
#    x 3.367540 0.000000 0.000000 
#    y 0.000000 3.298780 0.000000 
#    z 0.000000 0.000000 3.333520 
# 
# 
# High freq. dielectric constant tensor:
#      x y z
#    x 1.685160 0.000000 0.000000 
#    y 0.000000 1.685420 0.000000 
#    z 0.000000 0.000000 1.701930 
# 
# From -- ./inp_files/2666.got.cif
#   From: 2010.03.12/outbox.cif.g09.slc.cpg/sg49_2_cif.got.tgz:2666.got - 2010.04.14 03:58:27.
