data_PCOD8202010
_publ_section_title
;
Structure prediction by ZEFSAII (Michael W. Deem and Ramdas Pophale) SiO2 
 PCOD8202010
Probable space group: P N N N
;
_chemical_formula_sum "Si O2"
_cell_formula_units_Z 40
_cell_length_a 18.969943
_cell_length_b 8.782916
_cell_length_c 11.662501
_cell_angle_alpha 90.000000
_cell_angle_beta 90.000000
_cell_angle_gamma 90.000000
_cell_volume 1943.105804
_symmetry_space_group_name_H-M "P N N N"
_symmetry_group_IT_number 48
_space_group.IT_coordinate_system_code '2'
_symmetry_cell_setting 'orthorhombic'
loop_
_space_group_symop_operation_xyz
x,y,z
1/2-x,1/2-y,z
x,1/2-y,1/2-z
1/2-x,y,1/2-z
-x,-y,-z
1/2+x,1/2+y,-z
-x,1/2+y,1/2+z
1/2+x,-y,1/2+z
loop_
_atom_site_type_symbol
_atom_site_label
_atom_site_fract_x
_atom_site_fract_y
_atom_site_fract_z
Si Si1 0.827263 0.796743 0.103186
Si Si2 0.556496 0.358669 0.844646
Si Si3 0.978191 0.343380 0.059214
Si Si4 0.089990 0.044126 0.731959
Si Si5 0.382350 0.179228 0.363637
O O1 0.750000 0.750000 0.145178
O O2 0.849848 0.956572 0.167072
O O3 0.886766 0.674854 0.141947
O O4 0.827857 0.800764 0.966935
O O5 0.591914 0.250000 0.750000
O O6 0.481664 0.413071 0.796815
O O7 0.607788 0.499923 0.855422
O O8 0.553155 0.274591 0.967596
O O9 0.921286 0.387107 0.160132
O O10 0.044312 0.266250 0.119256
O O11 0.000000 0.500000 0.000000
O O12 0.346704 0.250000 0.250000
#
# Coordination Sequence:
#
# PCOD8202010 Si02
#       5
#     8   8   8   8   8
#     4  11  23  41  61  89 128 172 219 254 298 404
#     4  12  21  35  59  98 133 159 200 274 337 380
#     4  12  19  34  58  96 130 156 201 272 328 384
#     4  11  19  37  62  92 122 159 211 255 332 350
#     4  12  23  36  62  98 126 165 211 262 336 378
#
# _framework density 20.585602000000002
#
# number of rings (size 3 to 8) (size 9 to 14) (size 15 to 20)
#    0.000    0.400   10.000    1.800    0.000    0.400 
#    0.000    0.000    0.000    1.200    5.200    0.000 
#    0.000    0.000    0.000    0.000    0.000    0.000 
#
# Total GULP energy -495587.403242 kJ/mol
# GULP energy per Si atom -12389.685081 kJ/mol
# Density = 2.053875 g / cm^3
# Si number density = 20.585602 Si / 1000 Ang^3
#
#
#
# Elastic Constant Matrix: (Units=GPa)
#
#
# Indices 1 2 3 4 5 6 
#
# 1 53.0777 19.1442 33.7702 0.0000 0.0000 0.0000
# 2 19.1442 88.6845 46.4009 0.0000 0.0000 0.0000
# 3 33.7702 46.4009 174.3048 0.0000 0.0000 0.0000
# 4 0.0000 0.0000 0.0000 49.2801 0.0000 0.0000
# 5 0.0000 0.0000 0.0000 0.0000 4.4915 0.0000
# 6 0.0000 0.0000 0.0000 0.0000 0.0000 15.0557
#
#
#
# Elastic Compliance Matrix: (Units=1/GPa)
#
#
# Indices 1 2 3 4 5 6 
#
# 1 0.022132 -0.002944 -0.003504 0.000000 0.000000 0.000000
# 2 -0.002944 0.013492 -0.003021 0.000000 0.000000 0.000000
# 3 -0.003504 -0.003021 0.007220 0.000000 0.000000 0.000000
# 4 0.000000 0.000000 0.000000 0.020292 0.000000 0.000000
# 5 0.000000 0.000000 0.000000 0.000000 0.222641 0.000000
# 6 0.000000 0.000000 0.000000 0.000000 0.000000 0.066420
#
#
# Mechanical properties :
#
#
# Convention : Reuss Voigt Hill
#
# Bulk Modulus (GPa) = 41.83208 57.18861 49.51034
# Shear Modulus (GPa) = 13.18895 28.21557 20.70226
#
# Velocity S-wave (km/s) = 2.53393 3.70624 3.17467
# Velocity P-wave (km/s) = 5.37831 6.79383 6.12709
#
# Compressibility (1/GPa) = 0.02390510
#
# Stress axis : x y z
#
# Youngs Moduli (GPa) = 45.18413 74.11658 138.49932
#
# Poissons Ratio (x) = 0.21821 0.48531
# Poissons Ratio (y) = 0.13303 0.41845
# Poissons Ratio (z) = 0.15833 0.22393
#
# Static dielectric constant tensor:
#      x y z
#    x 3.228150 0.000000 0.000000 
#    y 0.000000 4.006200 0.000000 
#    z 0.000000 0.000000 4.137840 
# 
# 
# High freq. dielectric constant tensor:
#      x y z
#    x 1.748630 0.000000 0.000000 
#    y 0.000000 1.794030 0.000000 
#    z 0.000000 0.000000 1.842470 
# 
# From -- ./inp_files/10984.got.cif
#   From: 2010.06.25/outbox.cif.g09.slc.cpg/sg48_6_cif.got.tgz:10984.got - 2010.06.26 18:06:46.
