data_PCOD8202491
_publ_section_title
;
Structure prediction by ZEFSAII (Michael W. Deem and Ramdas Pophale) SiO2 
 PCOD8202491
Probable space group: P C C M
;
_chemical_formula_sum "Si O2"
_cell_formula_units_Z 64
_cell_length_a 23.606153
_cell_length_b 19.150520
_cell_length_c 8.826979
_cell_angle_alpha 90.000000
_cell_angle_beta 90.000000
_cell_angle_gamma 90.000000
_cell_volume 3990.413325
_symmetry_space_group_name_H-M "P C C M"
_symmetry_group_IT_number 49
_symmetry_cell_setting 'orthorhombic'
loop_
_space_group_symop_operation_xyz
x,y,z
-x,-y,z
x,-y,1/2-z
-x,y,1/2-z
-x,-y,-z
x,y,-z
-x,y,1/2+z
x,-y,1/2+z
loop_
_atom_site_type_symbol
_atom_site_label
_atom_site_fract_x
_atom_site_fract_y
_atom_site_fract_z
Si Si1 0.058020 0.424084 0.318547
Si Si2 0.764745 0.219625 0.822495
Si Si3 0.169494 0.350479 0.322328
Si Si4 0.257383 0.931120 0.175515
Si Si5 0.613029 0.071575 0.179449
Si Si6 0.558427 0.793984 0.822752
Si Si7 0.335573 0.298857 0.824135
Si Si8 0.718247 0.574228 0.320625
O O1 0.069289 0.500000 0.250000
O O2 0.053971 0.428394 0.500000
O O3 0.108842 0.374594 0.258044
O O4 0.000000 0.392804 0.250000
O O5 0.818172 0.269266 0.780050
O O6 0.778577 0.138734 0.783178
O O7 0.710012 0.242095 0.729321
O O8 0.749609 0.227904 0.000000
O O9 0.167489 0.360864 0.500000
O O10 0.220591 0.398678 0.259564
O O11 0.321676 0.919150 0.231137
O O12 0.229807 0.000000 0.250000
O O13 0.256224 0.946229 0.000000
O O14 0.576828 0.134552 0.244373
O O15 0.588917 0.000000 0.250000
O O16 0.606616 0.069776 0.000000
O O17 0.500000 0.768148 0.750000
O O18 0.602767 0.732179 0.790770
O O19 0.551413 0.808261 0.000000
O O20 0.329442 0.371007 0.732269
O O21 0.325983 0.314473 0.000000
O O22 0.704117 0.500000 0.250000
O O23 0.717151 0.568489 0.500000
#
# Coordination Sequence:
#
# PCOD8202491 Si02
#       8
#     8   8   8   8   8   8   8   8
#     4  10  18  29  43  62  89 126 162 195 224 259
#     4   9  16  30  48  67  90 121 153 185 227 273
#     4   8  16  28  45  67  93 122 156 191 224 263
#     4   9  17  27  44  66  91 121 150 180 220 271
#     4  10  19  32  49  69  92 120 151 186 224 268
#     4  11  23  36  51  69  90 117 151 189 226 271
#     4  10  20  33  49  70  93 116 145 183 226 274
#     4  10  19  32  51  73  96 121 148 183 225 272
#
# _framework density 16.038439
#
# number of rings (size 3 to 8) (size 9 to 14) (size 15 to 20)
#    0.000    2.375    1.250    3.375    0.000    2.750 
#    0.000    6.875    0.000    0.375    0.000    2.625 
#    0.000    0.500    0.000    6.250    0.000    0.000 
#
# Total GULP energy -793412.215165 kJ/mol
# GULP energy per Si atom -12397.065862 kJ/mol
# Density = 1.600193 g / cm^3
# Si number density = 16.038439 Si / 1000 Ang^3
#
#
#
# Elastic Constant Matrix: (Units=GPa)
#
#
# Indices 1 2 3 4 5 6 
#
# 1 89.8723 59.6110 38.4192 0.0000 0.0000 0.0000
# 2 59.6110 134.2768 43.8138 0.0000 0.0000 0.0000
# 3 38.4192 43.8138 65.8291 0.0000 0.0000 0.0000
# 4 0.0000 0.0000 0.0000 26.9132 0.0000 0.0000
# 5 0.0000 0.0000 0.0000 0.0000 16.6062 0.0000
# 6 0.0000 0.0000 0.0000 0.0000 0.0000 24.5882
#
#
#
# Elastic Compliance Matrix: (Units=1/GPa)
#
#
# Indices 1 2 3 4 5 6 
#
# 1 0.017722 -0.005739 -0.006523 0.000000 0.000000 0.000000
# 2 -0.005739 0.011372 -0.004219 0.000000 0.000000 0.000000
# 3 -0.006523 -0.004219 0.021806 0.000000 0.000000 0.000000
# 4 0.000000 0.000000 0.000000 0.037156 0.000000 0.000000
# 5 0.000000 0.000000 0.000000 0.000000 0.060218 0.000000
# 6 0.000000 0.000000 0.000000 0.000000 0.000000 0.040670
#
#
# Mechanical properties :
#
#
# Convention : Reuss Voigt Hill
#
# Bulk Modulus (GPa) = 55.75094 63.74067 59.74580
# Shear Modulus (GPa) = 21.94068 23.49715 22.71891
#
# Velocity S-wave (km/s) = 3.70267 3.83175 3.76776
# Velocity P-wave (km/s) = 7.28807 7.70747 7.50070
#
# Compressibility (1/GPa) = 0.01793692
#
# Stress axis : x y z
#
# Youngs Moduli (GPa) = 56.42647 87.93638 45.85850
#
# Poissons Ratio (x) = 0.50468 0.29915
# Poissons Ratio (y) = 0.32384 0.19349
# Poissons Ratio (z) = 0.36809 0.37103
#
# Static dielectric constant tensor:
#      x y z
#    x 3.038320 0.000000 0.000000 
#    y 0.000000 3.177670 0.000000 
#    z 0.000000 0.000000 3.042380 
# 
# 
# High freq. dielectric constant tensor:
#      x y z
#    x 1.581950 0.000000 0.000000 
#    y 0.000000 1.617380 0.000000 
#    z 0.000000 0.000000 1.620300 
# 
# From -- ./inp_files/6623.got.cif
#   From: 2010.03.12/outbox.cif.g09.slc.cpg/sg49_4_cif.got.tgz:6623.got - 2010.04.14 03:58:27.
