data_PCOD8202942
_publ_section_title
;
Structure prediction by ZEFSAII (Michael W. Deem and Ramdas Pophale) SiO2 
 PCOD8202942
Probable space group: P C C M
;
_chemical_formula_sum "Si O2"
_cell_formula_units_Z 56
_cell_length_a 14.975746
_cell_length_b 20.216178
_cell_length_c 8.977907
_cell_angle_alpha 90.000000
_cell_angle_beta 90.000000
_cell_angle_gamma 90.000000
_cell_volume 2718.082414
_symmetry_space_group_name_H-M "P C C M"
_symmetry_group_IT_number 49
_symmetry_cell_setting 'orthorhombic'
loop_
_space_group_symop_operation_xyz
x,y,z
-x,-y,z
x,-y,1/2-z
-x,y,1/2-z
-x,-y,-z
x,y,-z
-x,y,1/2+z
x,-y,1/2+z
loop_
_atom_site_type_symbol
_atom_site_label
_atom_site_fract_x
_atom_site_fract_y
_atom_site_fract_z
Si Si1 0.414653 0.658273 0.164711
Si Si2 0.910497 0.291016 0.323777
Si Si3 0.886607 0.438430 0.338519
Si Si4 0.319519 0.439449 0.161262
Si Si5 0.590101 0.185761 0.169826
Si Si6 0.221435 0.825238 0.322895
Si Si7 0.092485 0.929088 0.820392
O O1 0.500000 0.629452 0.250000
O O2 0.329162 0.629820 0.251310
O O3 0.414992 0.736171 0.163215
O O4 0.414104 0.628987 0.000000
O O5 0.922446 0.291586 0.500000
O O6 0.898866 0.366228 0.260781
O O7 0.824473 0.245544 0.283205
O O8 0.000000 0.260400 0.250000
O O9 0.930676 0.500000 0.250000
O O10 0.933316 0.436262 0.500000
O O11 0.783622 0.453974 0.359177
O O12 0.365235 0.500000 0.250000
O O13 0.365469 0.433213 0.000000
O O14 0.500000 0.157942 0.250000
O O15 0.676707 0.168720 0.267576
O O16 0.596423 0.157554 0.000000
O O17 0.218254 0.838585 0.500000
O O18 0.170304 0.880758 0.230509
O O19 0.000000 0.902610 0.750000
O O20 0.114619 0.000000 0.750000
O O21 0.086096 0.932970 0.000000
#
# Coordination Sequence:
#
# PCOD8202942 Si02
#       7
#     8   8   8   8   8   8   8
#     4  10  20  33  49  70  97 129 169 217 276 341
#     4  10  22  37  54  79 112 148 189 237 292 349
#     4   9  19  35  52  71  96 133 179 228 281 339
#     4  10  19  32  49  67  90 121 163 216 276 340
#     4  10  21  37  58  85 115 150 192 240 291 347
#     4  11  22  38  61  89 122 160 200 247 299 351
#     4  11  22  39  63  94 131 170 210 249 293 349
#
# _framework density 20.602761000000001
#
# number of rings (size 3 to 8) (size 9 to 14) (size 15 to 20)
#    0.000    1.857    0.000    4.714    0.000    6.857 
#    0.000    2.857    0.000    0.429    0.000    3.000 
#    0.000    0.000    0.000    0.000    0.000    0.000 
#
# Total GULP energy -694026.726792 kJ/mol
# GULP energy per Si atom -12393.334407 kJ/mol
# Density = 2.055587 g / cm^3
# Si number density = 20.602761 Si / 1000 Ang^3
#
#
#
# Elastic Constant Matrix: (Units=GPa)
#
#
# Indices 1 2 3 4 5 6 
#
# 1 110.8429 42.0753 52.8917 0.0000 0.0000 0.0000
# 2 42.0753 66.6083 42.8470 0.0000 0.0000 0.0000
# 3 52.8917 42.8470 154.6324 0.0000 0.0000 0.0000
# 4 0.0000 0.0000 0.0000 25.6071 0.0000 0.0000
# 5 0.0000 0.0000 0.0000 0.0000 32.3483 0.0000
# 6 0.0000 0.0000 0.0000 0.0000 0.0000 23.6743
#
#
#
# Elastic Compliance Matrix: (Units=1/GPa)
#
#
# Indices 1 2 3 4 5 6 
#
# 1 0.012656 -0.006340 -0.002572 0.000000 0.000000 0.000000
# 2 -0.006340 0.021445 -0.003774 0.000000 0.000000 0.000000
# 3 -0.002572 -0.003774 0.008392 0.000000 0.000000 0.000000
# 4 0.000000 0.000000 0.000000 0.039052 0.000000 0.000000
# 5 0.000000 0.000000 0.000000 0.000000 0.030914 0.000000
# 6 0.000000 0.000000 0.000000 0.000000 0.000000 0.042240
#
#
# Mechanical properties :
#
#
# Convention : Reuss Voigt Hill
#
# Bulk Modulus (GPa) = 58.40413 67.52349 62.96381
# Shear Modulus (GPa) = 26.91392 29.27725 28.09558
#
# Velocity S-wave (km/s) = 3.61823 3.77375 3.69681
# Velocity P-wave (km/s) = 6.77235 7.19954 6.98921
#
# Compressibility (1/GPa) = 0.01712208
#
# Stress axis : x y z
#
# Youngs Moduli (GPa) = 79.01576 46.62999 119.15500
#
# Poissons Ratio (x) = 0.29562 0.30649
# Poissons Ratio (y) = 0.50094 0.44967
# Poissons Ratio (z) = 0.20324 0.17597
#
# Static dielectric constant tensor:
#      x y z
#    x 3.780670 0.000000 0.000000 
#    y 0.000000 3.561900 0.000000 
#    z 0.000000 0.000000 4.178270 
# 
# 
# High freq. dielectric constant tensor:
#      x y z
#    x 1.805470 0.000000 0.000000 
#    y 0.000000 1.782320 0.000000 
#    z 0.000000 0.000000 1.818660 
# 
# From -- ./inp_files/4056.got.cif
#   From: 2010.03.12/outbox.cif.g09.slc.cpg/sg49_3_cif.got.tgz:4056.got - 2010.04.14 03:58:27.
