data_PCOD8202689
_publ_section_title
;
Structure prediction by ZEFSAII (Michael W. Deem and Ramdas Pophale) SiO2 
 PCOD8202689
Probable space group: P C C M
;
_chemical_formula_sum "Si O2"
_cell_formula_units_Z 56
_cell_length_a 20.535545
_cell_length_b 15.410542
_cell_length_c 8.555453
_cell_angle_alpha 90.000000
_cell_angle_beta 90.000000
_cell_angle_gamma 90.000000
_cell_volume 2707.491841
_symmetry_space_group_name_H-M "P C C M"
_symmetry_group_IT_number 49
_symmetry_cell_setting 'orthorhombic'
loop_
_space_group_symop_operation_xyz
x,y,z
-x,-y,z
x,-y,1/2-z
-x,y,1/2-z
-x,-y,-z
x,y,-z
-x,y,1/2+z
x,-y,1/2+z
loop_
_atom_site_type_symbol
_atom_site_label
_atom_site_fract_x
_atom_site_fract_y
_atom_site_fract_z
Si Si1 0.930982 0.763734 0.814315
Si Si2 0.566398 0.769346 0.184765
Si Si3 0.297014 0.178111 0.176727
Si Si4 0.171244 0.907908 0.686071
Si Si5 0.601801 0.411207 0.182118
Si Si6 0.125073 0.411269 0.685343
Si Si7 0.736014 0.374659 0.321876
O O1 0.878292 0.834063 0.755403
O O2 0.916573 0.669864 0.743115
O O3 0.000000 0.796409 0.750000
O O4 0.931540 0.756429 0.000000
O O5 0.500000 0.812604 0.250000
O O6 0.630751 0.818135 0.256500
O O7 0.567723 0.668539 0.230284
O O8 0.567648 0.776246 0.000000
O O9 0.244405 0.112535 0.253953
O O10 0.262639 0.271062 0.183804
O O11 0.308553 0.148566 0.000000
O O12 0.172717 0.909074 0.500000
O O13 0.147366 0.000000 0.750000
O O14 0.571243 0.500000 0.250000
O O15 0.678947 0.411833 0.213971
O O16 0.587210 0.403030 0.000000
O O17 0.092179 0.500000 0.750000
O O18 0.127431 0.411465 0.500000
O O19 0.197069 0.409544 0.755728
O O20 0.725484 0.406570 0.500000
#
# Coordination Sequence:
#
# PCOD8202689 Si02
#       7
#     8   8   8   8   8   8   8
#     4  11  24  44  66  90 126 165 205 252 308 363
#     4  10  20  35  55  79 109 150 195 243 302 364
#     4   8  16  34  59  83 114 154 192 238 298 354
#     4  10  21  40  66  96 126 159 198 247 304 367
#     4  11  21  33  48  73 107 147 197 250 303 359
#     4  12  24  38  59  88 121 162 211 257 306 361
#     4  10  18  34  56  80 113 154 199 250 307 357
#
# _framework density 20.683349
#
# number of rings (size 3 to 8) (size 9 to 14) (size 15 to 20)
#    0.000    1.714    1.429    5.143    0.000    2.000 
#    0.000    5.714    0.000    0.429    0.000    3.000 
#    0.000    0.000    0.000    0.000    0.000    0.000 
#
# Total GULP energy -694251.756132 kJ/mol
# GULP energy per Si atom -12397.352788 kJ/mol
# Density = 2.063627 g / cm^3
# Si number density = 20.683349 Si / 1000 Ang^3
#
#
#
# Elastic Constant Matrix: (Units=GPa)
#
#
# Indices 1 2 3 4 5 6 
#
# 1 132.7534 50.5760 21.8389 0.0000 0.0000 0.0000
# 2 50.5760 98.5584 21.9958 0.0000 0.0000 0.0000
# 3 21.8389 21.9958 76.0017 0.0000 0.0000 0.0000
# 4 0.0000 0.0000 0.0000 26.0205 0.0000 0.0000
# 5 0.0000 0.0000 0.0000 0.0000 31.6481 0.0000
# 6 0.0000 0.0000 0.0000 0.0000 0.0000 12.1693
#
#
#
# Elastic Compliance Matrix: (Units=1/GPa)
#
#
# Indices 1 2 3 4 5 6 
#
# 1 0.009503 -0.004562 -0.001410 0.000000 0.000000 0.000000
# 2 -0.004562 0.013037 -0.002462 0.000000 0.000000 0.000000
# 3 -0.001410 -0.002462 0.014275 0.000000 0.000000 0.000000
# 4 0.000000 0.000000 0.000000 0.038431 0.000000 0.000000
# 5 0.000000 0.000000 0.000000 0.000000 0.031597 0.000000
# 6 0.000000 0.000000 0.000000 0.000000 0.000000 0.082174
#
#
# Mechanical properties :
#
#
# Convention : Reuss Voigt Hill
#
# Bulk Modulus (GPa) = 50.13444 55.12611 52.63028
# Shear Modulus (GPa) = 23.52562 28.16112 25.84337
#
# Velocity S-wave (km/s) = 3.37622 3.69390 3.53863
# Velocity P-wave (km/s) = 6.28412 6.70101 6.49591
#
# Compressibility (1/GPa) = 0.01994637
#
# Stress axis : x y z
#
# Youngs Moduli (GPa) = 105.23386 76.70724 70.05030
#
# Poissons Ratio (x) = 0.34991 0.09880
# Poissons Ratio (y) = 0.48003 0.17248
# Poissons Ratio (z) = 0.14842 0.18887
#
# Static dielectric constant tensor:
#      x y z
#    x 4.055030 0.000000 0.000000 
#    y 0.000000 3.736610 0.000000 
#    z 0.000000 0.000000 3.610560 
# 
# 
# High freq. dielectric constant tensor:
#      x y z
#    x 1.819040 0.000000 0.000000 
#    y 0.000000 1.789030 0.000000 
#    z 0.000000 0.000000 1.797050 
# 
# From -- ./inp_files/5778.got.cif
#   From: 2010.03.12/outbox.cif.g09.slc.cpg/sg49_3_cif.got.tgz:5778.got - 2010.04.14 03:58:27.
