data_PCOD8202470
_publ_section_title
;
Structure prediction by ZEFSAII (Michael W. Deem and Ramdas Pophale) SiO2 
 PCOD8202470
Probable space group: P C C M
;
_chemical_formula_sum "Si O2"
_cell_formula_units_Z 56
_cell_length_a 18.575070
_cell_length_b 21.125723
_cell_length_c 8.901034
_cell_angle_alpha 90.000000
_cell_angle_beta 90.000000
_cell_angle_gamma 90.000000
_cell_volume 3492.870627
_symmetry_space_group_name_H-M "P C C M"
_symmetry_group_IT_number 49
_symmetry_cell_setting 'orthorhombic'
loop_
_space_group_symop_operation_xyz
x,y,z
-x,-y,z
x,-y,1/2-z
-x,y,1/2-z
-x,-y,-z
x,y,-z
-x,y,1/2+z
x,-y,1/2+z
loop_
_atom_site_type_symbol
_atom_site_label
_atom_site_fract_x
_atom_site_fract_y
_atom_site_fract_z
Si Si1 0.924711 0.308595 0.822085
Si Si2 0.290856 0.625747 0.836137
Si Si3 0.152042 0.565012 0.179727
Si Si4 0.575245 0.064328 0.675465
Si Si5 0.343645 0.190533 0.826166
Si Si6 0.786364 0.759227 0.665028
Si Si7 0.423640 0.304201 0.680191
O O1 0.900639 0.378667 0.767057
O O2 0.866658 0.254986 0.771570
O O3 0.000000 0.289757 0.750000
O O4 0.931616 0.308427 0.000000
O O5 0.233819 0.578472 0.755806
O O6 0.251073 0.692078 0.854271
O O7 0.367861 0.641234 0.758042
O O8 0.307681 0.597273 0.000000
O O9 0.122971 0.500000 0.250000
O O10 0.153847 0.560994 0.000000
O O11 0.500000 0.084575 0.750000
O O12 0.562076 0.053028 0.500000
O O13 0.633714 0.118604 0.704832
O O14 0.605018 0.000000 0.750000
O O15 0.260196 0.196965 0.776373
O O16 0.397026 0.235459 0.732740
O O17 0.350988 0.208988 0.000000
O O18 0.790039 0.791732 0.500000
O O19 0.500000 0.321150 0.750000
O O20 0.427150 0.303898 0.500000
#
# Coordination Sequence:
#
# PCOD8202470 Si02
#       7
#     8   8   8   8   8   8   8
#     4   9  18  31  46  65  91 118 142 170 209 253
#     4   7  13  27  43  56  76 105 134 168 211 253
#     4   9  17  30  45  61  81 108 142 175 207 249
#     4  10  20  31  43  60  86 120 155 186 217 250
#     4  10  19  29  43  65  88 112 145 182 215 252
#     4   8  15  29  46  62  82 112 143 173 212 254
#     4  10  18  28  43  62  83 108 137 174 219 262
#
# _framework density 16.032657
#
# number of rings (size 3 to 8) (size 9 to 14) (size 15 to 20)
#    0.000    3.000    0.000    4.714    0.000    4.857 
#    0.000    7.857    0.000    0.429    0.000    3.000 
#    0.000    0.571    0.000    6.286    0.000    4.571 
#
# Total GULP energy -693762.519491 kJ/mol
# GULP energy per Si atom -12388.616419 kJ/mol
# Density = 1.599617 g / cm^3
# Si number density = 16.032657 Si / 1000 Ang^3
#
#
#
# Elastic Constant Matrix: (Units=GPa)
#
#
# Indices 1 2 3 4 5 6 
#
# 1 122.8789 29.9693 31.6003 0.0000 0.0000 0.0000
# 2 29.9693 44.7575 21.4971 0.0000 0.0000 0.0000
# 3 31.6003 21.4971 55.9005 0.0000 0.0000 0.0000
# 4 0.0000 0.0000 0.0000 18.8992 0.0000 0.0000
# 5 0.0000 0.0000 0.0000 0.0000 24.7956 0.0000
# 6 0.0000 0.0000 0.0000 0.0000 0.0000 20.2392
#
#
#
# Elastic Compliance Matrix: (Units=1/GPa)
#
#
# Indices 1 2 3 4 5 6 
#
# 1 0.010382 -0.005069 -0.003920 0.000000 0.000000 0.000000
# 2 -0.005069 0.029880 -0.008625 0.000000 0.000000 0.000000
# 3 -0.003920 -0.008625 0.023421 0.000000 0.000000 0.000000
# 4 0.000000 0.000000 0.000000 0.052912 0.000000 0.000000
# 5 0.000000 0.000000 0.000000 0.000000 0.040330 0.000000
# 6 0.000000 0.000000 0.000000 0.000000 0.000000 0.049409
#
#
# Mechanical properties :
#
#
# Convention : Reuss Voigt Hill
#
# Bulk Modulus (GPa) = 35.14227 43.29670 39.21948
# Shear Modulus (GPa) = 19.91653 22.15147 21.03400
#
# Velocity S-wave (km/s) = 3.52838 3.72108 3.62601
# Velocity P-wave (km/s) = 6.21016 6.74729 6.48429
#
# Compressibility (1/GPa) = 0.02845576
#
# Stress axis : x y z
#
# Youngs Moduli (GPa) = 96.31597 33.46773 42.69595
#
# Poissons Ratio (x) = 0.16966 0.16735
# Poissons Ratio (y) = 0.48827 0.36824
# Poissons Ratio (z) = 0.37753 0.28865
#
# Static dielectric constant tensor:
#      x y z
#    x 3.399820 0.000000 0.000000 
#    y 0.000000 2.871310 0.000000 
#    z 0.000000 0.000000 2.948990 
# 
# 
# High freq. dielectric constant tensor:
#      x y z
#    x 1.614060 0.000000 0.000000 
#    y 0.000000 1.578470 0.000000 
#    z 0.000000 0.000000 1.608680 
# 
# From -- ./inp_files/5158.got.cif
#   From: 2010.03.12/outbox.cif.g09.slc.cpg/sg49_3_cif.got.tgz:5158.got - 2010.04.14 03:58:27.
