data_PCOD8202393
_publ_section_title
;
Structure prediction by ZEFSAII (Michael W. Deem and Ramdas Pophale) SiO2 
 PCOD8202393
Probable space group: P C C M
;
_chemical_formula_sum "Si O2"
_cell_formula_units_Z 48
_cell_length_a 30.598968
_cell_length_b 9.084826
_cell_length_c 8.551364
_cell_angle_alpha 90.000000
_cell_angle_beta 90.000000
_cell_angle_gamma 90.000000
_cell_volume 2377.162039
_symmetry_space_group_name_H-M "P C C M"
_symmetry_group_IT_number 49
_symmetry_cell_setting 'orthorhombic'
loop_
_space_group_symop_operation_xyz
x,y,z
-x,-y,z
x,-y,1/2-z
-x,y,1/2-z
-x,-y,-z
x,y,-z
-x,y,1/2+z
x,-y,1/2+z
loop_
_atom_site_type_symbol
_atom_site_label
_atom_site_fract_x
_atom_site_fract_y
_atom_site_fract_z
Si Si1 0.543773 0.664310 0.315447
Si Si2 0.047522 0.343696 0.315309
Si Si3 0.289130 0.158709 0.319596
Si Si4 0.632662 0.661697 0.816753
Si Si5 0.123921 0.159035 0.183718
Si Si6 0.201588 0.341424 0.319337
O O1 0.544301 0.500000 0.250000
O O2 0.500000 0.745530 0.250000
O O3 0.542240 0.664993 0.500000
O O4 0.588834 0.737174 0.255567
O O5 0.064592 0.500000 0.250000
O O6 0.045198 0.354423 0.500000
O O7 0.079646 0.214326 0.264005
O O8 0.000000 0.305062 0.250000
O O9 0.303278 0.149351 0.500000
O O10 0.327292 0.233430 0.221279
O O11 0.245164 0.248991 0.297779
O O12 0.279779 0.000000 0.250000
O O13 0.642099 0.500000 0.750000
O O14 0.626214 0.646827 0.000000
O O15 0.162975 0.269562 0.220775
O O16 0.136348 0.000000 0.250000
O O17 0.116530 0.149693 0.000000
O O18 0.211630 0.500000 0.250000
O O19 0.187275 0.351393 0.500000
#
# Coordination Sequence:
#
# PCOD8202393 Si02
#       6
#     8   8   8   8   8   8
#     4  10  17  28  47  75 110 146 187 235 288 341
#     4  11  22  40  64  92 124 161 205 251 300 351
#     4  11  24  41  61  86 117 153 193 238 291 348
#     4  11  21  35  56  83 115 151 193 240 290 344
#     4  12  25  42  63  90 124 161 201 246 298 354
#     4  11  24  42  65  92 121 155 196 242 292 347
#
# _framework density 20.192143999999999
#
# number of rings (size 3 to 8) (size 9 to 14) (size 15 to 20)
#    0.000    1.000    0.000   10.500    0.000    5.667 
#    0.000    1.667    0.000    0.500    0.000    3.500 
#    0.000    0.000    0.000    0.000    0.000    0.000 
#
# Total GULP energy -595409.899410 kJ/mol
# GULP energy per Si atom -12404.372904 kJ/mol
# Density = 2.014619 g / cm^3
# Si number density = 20.192144 Si / 1000 Ang^3
#
#
#
# Elastic Constant Matrix: (Units=GPa)
#
#
# Indices 1 2 3 4 5 6 
#
# 1 104.0470 35.7311 52.8441 0.0000 0.0000 0.0000
# 2 35.7311 99.0853 39.9771 0.0000 0.0000 0.0000
# 3 52.8441 39.9771 186.5955 0.0000 0.0000 0.0000
# 4 0.0000 0.0000 0.0000 28.9461 0.0000 0.0000
# 5 0.0000 0.0000 0.0000 0.0000 38.1027 0.0000
# 6 0.0000 0.0000 0.0000 0.0000 0.0000 -17.9899
#
#
#
# Elastic Compliance Matrix: (Units=1/GPa)
#
#
# Indices 1 2 3 4 5 6 
#
# 1 0.012121 -0.003269 -0.002732 0.000000 0.000000 0.000000
# 2 -0.003269 0.011929 -0.001630 0.000000 0.000000 0.000000
# 3 -0.002732 -0.001630 0.006482 0.000000 0.000000 0.000000
# 4 0.000000 0.000000 0.000000 0.034547 0.000000 0.000000
# 5 0.000000 0.000000 0.000000 0.000000 0.026245 0.000000
# 6 0.000000 0.000000 0.000000 0.000000 0.000000 -0.055587
#
#
# Mechanical properties :
#
#
# Convention : Reuss Voigt Hill
#
# Bulk Modulus (GPa) = 65.48764 71.87026 68.67895
# Shear Modulus (GPa) = 89.14301 27.22346 58.18323
#
# Velocity S-wave (km/s) = 6.65156 3.67580 5.37376
# Velocity P-wave (km/s) = 9.56523 7.32706 8.51996
#
# Compressibility (1/GPa) = 0.01527006
#
# Stress axis : x y z
#
# Youngs Moduli (GPa) = 82.49924 83.83183 154.26757
#
# Poissons Ratio (x) = 0.27401 0.42154
# Poissons Ratio (y) = 0.26966 0.25145
# Poissons Ratio (z) = 0.22543 0.13664
#
# Static dielectric constant tensor:
#      x y z
#    x 4.228150 0.000000 0.000000 
#    y 0.000000 3.484910 0.000000 
#    z 0.000000 0.000000 3.762340 
# 
# 
# High freq. dielectric constant tensor:
#      x y z
#    x 1.811140 0.000000 0.000000 
#    y 0.000000 1.766580 0.000000 
#    z 0.000000 0.000000 1.812540 
# 
# From -- ./inp_files/2109.got.cif
#   From: 2010.03.12/outbox.cif.g09.slc.cpg/sg49_2_cif.got.tgz:2109.got - 2010.04.14 03:58:27.
