data_PCOD8202586
_publ_section_title
;
Structure prediction by ZEFSAII (Michael W. Deem and Ramdas Pophale) SiO2 
 PCOD8202586
Probable space group: P C C M
;
_chemical_formula_sum "Si O2"
_cell_formula_units_Z 64
_cell_length_a 22.727412
_cell_length_b 18.314876
_cell_length_c 8.978397
_cell_angle_alpha 90.000000
_cell_angle_beta 90.000000
_cell_angle_gamma 90.000000
_cell_volume 3737.255350
_symmetry_space_group_name_H-M "P C C M"
_symmetry_group_IT_number 49
_symmetry_cell_setting 'orthorhombic'
loop_
_space_group_symop_operation_xyz
x,y,z
-x,-y,z
x,-y,1/2-z
-x,y,1/2-z
-x,-y,-z
x,y,-z
-x,y,1/2+z
x,-y,1/2+z
loop_
_atom_site_type_symbol
_atom_site_label
_atom_site_fract_x
_atom_site_fract_y
_atom_site_fract_z
Si Si1 0.253098 0.281606 0.674773
Si Si2 0.940858 0.376114 0.170541
Si Si3 0.058251 0.204040 0.671770
Si Si4 0.186431 0.425997 0.675438
Si Si5 0.645192 0.815238 0.336811
Si Si6 0.563430 0.075373 0.678485
Si Si7 0.826322 0.162898 0.675751
Si Si8 0.256769 0.934439 0.837134
O O1 0.241085 0.266349 0.500000
O O2 0.235655 0.364731 0.715190
O O3 0.322527 0.261396 0.712449
O O4 0.209827 0.232929 0.771396
O O5 0.935462 0.290204 0.192120
O O6 0.879616 0.408228 0.236785
O O7 0.000000 0.406678 0.250000
O O8 0.947729 0.398474 0.000000
O O9 0.059018 0.181354 0.500000
O O10 0.109216 0.163811 0.758595
O O11 0.000000 0.174895 0.750000
O O12 0.209405 0.500000 0.750000
O O13 0.182811 0.436133 0.500000
O O14 0.614216 0.806247 0.500000
O O15 0.600659 0.851529 0.218375
O O16 0.699649 0.868202 0.355073
O O17 0.500000 0.088138 0.750000
O O18 0.560290 0.067093 0.500000
O O19 0.589648 0.000000 0.750000
O O20 0.827990 0.162125 0.500000
O O21 0.798390 0.088377 0.736758
O O22 0.289217 0.000000 0.750000
O O23 0.235783 0.960294 0.000000
#
# Coordination Sequence:
#
# PCOD8202586 Si02
#       8
#     8   8   8   8   8   8   8   8
#     4   9  18  35  52  67  94 128 163 203 247 292
#     4   9  18  31  47  64  89 119 154 194 239 294
#     4  10  18  31  48  67  89 114 148 191 238 289
#     4  10  20  34  49  68  94 128 161 200 250 301
#     4   9  18  32  52  73  96 131 169 205 244 281
#     4  11  21  33  50  73 107 144 179 211 240 281
#     4  11  20  30  48  71  92 118 153 193 239 289
#     4  10  20  33  49  70  97 127 158 197 240 284
#
# _framework density 17.124867999999999
#
# number of rings (size 3 to 8) (size 9 to 14) (size 15 to 20)
#    0.000    2.125    1.250    4.500    0.000    5.250 
#    0.000    1.250    0.000    0.375    0.000    2.625 
#    0.000    0.500    0.000    5.750    0.000    1.750 
#
# Total GULP energy -793066.572683 kJ/mol
# GULP energy per Si atom -12391.665198 kJ/mol
# Density = 1.708589 g / cm^3
# Si number density = 17.124868 Si / 1000 Ang^3
#
#
#
# Elastic Constant Matrix: (Units=GPa)
#
#
# Indices 1 2 3 4 5 6 
#
# 1 76.9697 32.7889 38.3322 0.0000 0.0000 0.0000
# 2 32.7889 63.7805 28.7473 0.0000 0.0000 0.0000
# 3 38.3322 28.7473 102.8666 0.0000 0.0000 0.0000
# 4 0.0000 0.0000 0.0000 22.5580 0.0000 0.0000
# 5 0.0000 0.0000 0.0000 0.0000 24.9879 0.0000
# 6 0.0000 0.0000 0.0000 0.0000 0.0000 20.5996
#
#
#
# Elastic Compliance Matrix: (Units=1/GPa)
#
#
# Indices 1 2 3 4 5 6 
#
# 1 0.018538 -0.007341 -0.004856 0.000000 0.000000 0.000000
# 2 -0.007341 0.020846 -0.003090 0.000000 0.000000 0.000000
# 3 -0.004856 -0.003090 0.012395 0.000000 0.000000 0.000000
# 4 0.000000 0.000000 0.000000 0.044330 0.000000 0.000000
# 5 0.000000 0.000000 0.000000 0.000000 0.040019 0.000000
# 6 0.000000 0.000000 0.000000 0.000000 0.000000 0.048545
#
#
# Mechanical properties :
#
#
# Convention : Reuss Voigt Hill
#
# Bulk Modulus (GPa) = 47.16331 49.26152 48.21241
# Shear Modulus (GPa) = 22.49057 23.21231 22.85144
#
# Velocity S-wave (km/s) = 3.62792 3.68567 3.65691
# Velocity P-wave (km/s) = 6.71935 6.85133 6.78566
#
# Compressibility (1/GPa) = 0.02120292
#
# Stress axis : x y z
#
# Youngs Moduli (GPa) = 53.94299 47.97186 80.68087
#
# Poissons Ratio (x) = 0.35218 0.39182
# Poissons Ratio (y) = 0.39602 0.24929
# Poissons Ratio (z) = 0.26197 0.14823
#
# Static dielectric constant tensor:
#      x y z
#    x 3.213700 0.000000 0.000000 
#    y 0.000000 4.167720 0.000000 
#    z 0.000000 0.000000 3.325110 
# 
# 
# High freq. dielectric constant tensor:
#      x y z
#    x 1.642510 0.000000 0.000000 
#    y 0.000000 1.633770 0.000000 
#    z 0.000000 0.000000 1.667780 
# 
# From -- ./inp_files/6067.got.cif
#   From: 2010.03.12/outbox.cif.g09.slc.cpg/sg49_4_cif.got.tgz:6067.got - 2010.04.14 03:58:27.
