data_PCOD8202804
_publ_section_title
;
Structure prediction by ZEFSAII (Michael W. Deem and Ramdas Pophale) SiO2 
 PCOD8202804
Probable space group: P C C M
;
_chemical_formula_sum "Si O2"
_cell_formula_units_Z 64
_cell_length_a 18.482970
_cell_length_b 22.785803
_cell_length_c 8.659803
_cell_angle_alpha 90.000000
_cell_angle_beta 90.000000
_cell_angle_gamma 90.000000
_cell_volume 3647.070087
_symmetry_space_group_name_H-M "P C C M"
_symmetry_group_IT_number 49
_symmetry_cell_setting 'orthorhombic'
loop_
_space_group_symop_operation_xyz
x,y,z
-x,-y,z
x,-y,1/2-z
-x,y,1/2-z
-x,-y,-z
x,y,-z
-x,y,1/2+z
x,-y,1/2+z
loop_
_atom_site_type_symbol
_atom_site_label
_atom_site_fract_x
_atom_site_fract_y
_atom_site_fract_z
Si Si1 0.926026 0.246521 0.331030
Si Si2 0.803537 0.326516 0.328800
Si Si3 0.296655 0.237366 0.679713
Si Si4 0.075775 0.065052 0.315325
Si Si5 0.814047 0.847007 0.184612
Si Si6 0.577292 0.313955 0.683187
Si Si7 0.780990 0.443301 0.829642
Si Si8 0.388920 0.440482 0.671450
O O1 0.943096 0.222430 0.500000
O O2 0.887710 0.309571 0.331264
O O3 0.871461 0.200692 0.253764
O O4 0.000000 0.254048 0.250000
O O5 0.769318 0.315104 0.500000
O O6 0.761099 0.289204 0.201615
O O7 0.801601 0.393589 0.289213
O O8 0.311776 0.226754 0.500000
O O9 0.264504 0.175808 0.751631
O O10 0.369306 0.262087 0.759253
O O11 0.073224 0.065868 0.500000
O O12 0.151542 0.094042 0.256788
O O13 0.000000 0.094293 0.250000
O O14 0.078897 0.000000 0.250000
O O15 0.807577 0.852150 0.000000
O O16 0.500000 0.296087 0.750000
O O17 0.576482 0.313479 0.500000
O O18 0.596552 0.380406 0.735566
O O19 0.815471 0.500000 0.750000
O O20 0.695730 0.449481 0.844281
O O21 0.814534 0.433163 0.000000
O O22 0.421683 0.500000 0.750000
O O23 0.423332 0.434033 0.500000
#
# Coordination Sequence:
#
# PCOD8202804 Si02
#       8
#     8   8   8   8   8   8   8   8
#     4   9  19  31  46  69  96 126 160 200 246 294
#     4  10  19  32  49  69  94 123 156 198 247 296
#     4  11  21  35  53  76 101 130 170 211 255 307
#     4  11  21  34  52  78 113 155 194 230 266 309
#     4  10  20  35  53  76 105 140 179 220 260 300
#     4  12  24  38  55  74 101 135 168 210 260 313
#     4  10  19  30  48  70  92 117 151 194 242 297
#     4  10  20  34  51  73  98 126 163 203 249 308
#
# _framework density 17.548333
#
# number of rings (size 3 to 8) (size 9 to 14) (size 15 to 20)
#    0.000    1.625    1.250    6.375    0.000    5.250 
#    0.000    1.250    0.000    0.375    0.000    2.625 
#    0.000    0.500    0.000    5.000    0.000    3.000 
#
# Total GULP energy -792910.660759 kJ/mol
# GULP energy per Si atom -12389.229074 kJ/mol
# Density = 1.750839 g / cm^3
# Si number density = 17.548333 Si / 1000 Ang^3
#
#
#
# Elastic Constant Matrix: (Units=GPa)
#
#
# Indices 1 2 3 4 5 6 
#
# 1 71.0475 33.1841 41.4154 0.0000 0.0000 0.0000
# 2 33.1841 69.2578 33.2265 0.0000 0.0000 0.0000
# 3 41.4154 33.2265 136.4823 0.0000 0.0000 0.0000
# 4 0.0000 0.0000 0.0000 26.9416 0.0000 0.0000
# 5 0.0000 0.0000 0.0000 0.0000 25.9586 0.0000
# 6 0.0000 0.0000 0.0000 0.0000 0.0000 14.4932
#
#
#
# Elastic Compliance Matrix: (Units=1/GPa)
#
#
# Indices 1 2 3 4 5 6 
#
# 1 0.020098 -0.007590 -0.004251 0.000000 0.000000 0.000000
# 2 -0.007590 0.019215 -0.002375 0.000000 0.000000 0.000000
# 3 -0.004251 -0.002375 0.009195 0.000000 0.000000 0.000000
# 4 0.000000 0.000000 0.000000 0.037117 0.000000 0.000000
# 5 0.000000 0.000000 0.000000 0.000000 0.038523 0.000000
# 6 0.000000 0.000000 0.000000 0.000000 0.000000 0.068998
#
#
# Mechanical properties :
#
#
# Convention : Reuss Voigt Hill
#
# Bulk Modulus (GPa) = 49.80994 54.71552 52.26273
# Shear Modulus (GPa) = 21.90384 24.74277 23.32330
#
# Velocity S-wave (km/s) = 3.53682 3.75904 3.64962
# Velocity P-wave (km/s) = 6.71750 7.07730 6.89974
#
# Compressibility (1/GPa) = 0.02007631
#
# Stress axis : x y z
#
# Youngs Moduli (GPa) = 49.75531 52.04301 108.75504
#
# Poissons Ratio (x) = 0.39503 0.46231
# Poissons Ratio (y) = 0.37767 0.25824
# Poissons Ratio (z) = 0.21151 0.12358
#
# Static dielectric constant tensor:
#      x y z
#    x 3.286060 0.000000 0.000000 
#    y 0.000000 3.283880 0.000000 
#    z 0.000000 0.000000 3.418920 
# 
# 
# High freq. dielectric constant tensor:
#      x y z
#    x 1.651910 0.000000 0.000000 
#    y 0.000000 1.657670 0.000000 
#    z 0.000000 0.000000 1.698540 
# 
# From -- ./inp_files/5309.got.cif
#   From: 2010.03.12/outbox.cif.g09.slc.cpg/sg49_3_cif.got.tgz:5309.got - 2010.04.14 03:58:27.
