data_PCOD8202182
_publ_section_title
;
Structure prediction by ZEFSAII (Michael W. Deem and Ramdas Pophale) SiO2 
 PCOD8202182
Probable space group: P C C M
;
_chemical_formula_sum "Si O2"
_cell_formula_units_Z 56
_cell_length_a 29.413970
_cell_length_b 13.637273
_cell_length_c 8.752518
_cell_angle_alpha 90.000000
_cell_angle_beta 90.000000
_cell_angle_gamma 90.000000
_cell_volume 3510.865502
_symmetry_space_group_name_H-M "P C C M"
_symmetry_group_IT_number 49
_symmetry_cell_setting 'orthorhombic'
loop_
_space_group_symop_operation_xyz
x,y,z
-x,-y,z
x,-y,1/2-z
-x,y,1/2-z
-x,-y,-z
x,y,-z
-x,y,1/2+z
x,-y,1/2+z
loop_
_atom_site_type_symbol
_atom_site_label
_atom_site_fract_x
_atom_site_fract_y
_atom_site_fract_z
Si Si1 0.907063 0.395070 0.180692
Si Si2 0.733503 0.394411 0.676541
Si Si3 0.633644 0.393584 0.678518
Si Si4 0.814953 0.292122 0.824410
Si Si5 0.869154 0.101503 0.179442
Si Si6 0.454920 0.609099 0.181203
Si Si7 0.952275 0.210310 0.681542
O O1 0.918461 0.500000 0.250000
O O2 0.855445 0.365876 0.222231
O O3 0.941426 0.318389 0.255741
O O4 0.914901 0.394130 0.000000
O O5 0.741729 0.500000 0.750000
O O6 0.739571 0.414274 0.500000
O O7 0.683443 0.346955 0.709878
O O8 0.770195 0.315191 0.728765
O O9 0.637186 0.500000 0.750000
O O10 0.622315 0.400068 0.500000
O O11 0.591686 0.336661 0.762452
O O12 0.829963 0.181163 0.788630
O O13 0.802354 0.305987 0.000000
O O14 0.915314 0.131925 0.263314
O O15 0.851459 0.000000 0.250000
O O16 0.879095 0.092646 0.000000
O O17 0.453213 0.500000 0.250000
O O18 0.500000 0.662183 0.250000
O O19 0.457770 0.607342 0.000000
O O20 0.954066 0.212298 0.500000
O O21 0.000000 0.175206 0.750000
#
# Coordination Sequence:
#
# PCOD8202182 Si02
#       7
#     8   8   8   8   8   8   8
#     4  10  20  34  50  71  96 124 155 186 218 256
#     4  10  19  28  42  62  87 117 149 183 221 260
#     4   9  16  25  34  49  72 100 136 178 217 256
#     4   9  19  33  49  68  92 116 144 179 215 257
#     4  10  21  38  57  77  96 117 144 178 217 260
#     4  10  16  22  32  45  63  92 130 175 220 260
#     4  11  22  37  55  75  98 123 149 181 216 256
#
# _framework density 15.950483999999999
#
# number of rings (size 3 to 8) (size 9 to 14) (size 15 to 20)
#    0.000    2.143    0.000    6.857    0.000    6.857 
#    0.000    2.857    0.000    0.000    0.000    0.000 
#    0.000    0.000    0.000    0.000    0.000    0.714 
#
# Total GULP energy -694178.612686 kJ/mol
# GULP energy per Si atom -12396.046655 kJ/mol
# Density = 1.591418 g / cm^3
# Si number density = 15.950484 Si / 1000 Ang^3
#
#
#
# Elastic Constant Matrix: (Units=GPa)
#
#
# Indices 1 2 3 4 5 6 
#
# 1 122.1614 22.5311 57.1203 0.0000 0.0000 0.0000
# 2 22.5311 59.3560 24.0028 0.0000 0.0000 0.0000
# 3 57.1203 24.0028 116.7209 0.0000 0.0000 0.0000
# 4 0.0000 0.0000 0.0000 21.9641 0.0000 0.0000
# 5 0.0000 0.0000 0.0000 0.0000 30.7483 0.0000
# 6 0.0000 0.0000 0.0000 0.0000 0.0000 5.4094
#
#
#
# Elastic Compliance Matrix: (Units=1/GPa)
#
#
# Indices 1 2 3 4 5 6 
#
# 1 0.010861 -0.002152 -0.004873 0.000000 0.000000 0.000000
# 2 -0.002152 0.018802 -0.002813 0.000000 0.000000 0.000000
# 3 -0.004873 -0.002813 0.011530 0.000000 0.000000 0.000000
# 4 0.000000 0.000000 0.000000 0.045529 0.000000 0.000000
# 5 0.000000 0.000000 0.000000 0.000000 0.032522 0.000000
# 6 0.000000 0.000000 0.000000 0.000000 0.000000 0.184864
#
#
# Mechanical properties :
#
#
# Convention : Reuss Voigt Hill
#
# Bulk Modulus (GPa) = 46.47385 56.17185 51.32285
# Shear Modulus (GPa) = 15.10768 24.59664 19.85216
#
# Velocity S-wave (km/s) = 3.08094 3.93117 3.53173
# Velocity P-wave (km/s) = 6.46961 7.47652 6.99121
#
# Compressibility (1/GPa) = 0.02151748
#
# Stress axis : x y z
#
# Youngs Moduli (GPa) = 92.07086 53.18539 86.72676
#
# Poissons Ratio (x) = 0.11448 0.42258
# Poissons Ratio (y) = 0.19818 0.24398
# Poissons Ratio (z) = 0.44862 0.14962
#
# Static dielectric constant tensor:
#      x y z
#    x 3.931650 0.000000 0.000000 
#    y 0.000000 2.538190 0.000000 
#    z 0.000000 0.000000 3.173590 
# 
# 
# High freq. dielectric constant tensor:
#      x y z
#    x 1.623850 0.000000 0.000000 
#    y 0.000000 1.553130 0.000000 
#    z 0.000000 0.000000 1.634310 
# 
# From -- ./inp_files/7021.got.cif
#   From: 2010.03.12/outbox.cif.g09.slc.cpg/sg49_4_cif.got.tgz:7021.got - 2010.04.14 03:58:27.
