data_PCOD8202383
_publ_section_title
;
Structure prediction by ZEFSAII (Michael W. Deem and Ramdas Pophale) SiO2 
 PCOD8202383
Probable space group: P C C M
;
_chemical_formula_sum "Si O2"
_cell_formula_units_Z 56
_cell_length_a 18.811752
_cell_length_b 19.256596
_cell_length_c 8.661722
_cell_angle_alpha 90.000000
_cell_angle_beta 90.000000
_cell_angle_gamma 90.000000
_cell_volume 3137.711465
_symmetry_space_group_name_H-M "P C C M"
_symmetry_group_IT_number 49
_symmetry_cell_setting 'orthorhombic'
loop_
_space_group_symop_operation_xyz
x,y,z
-x,-y,z
x,-y,1/2-z
-x,y,1/2-z
-x,-y,-z
x,y,-z
-x,y,1/2+z
x,-y,1/2+z
loop_
_atom_site_type_symbol
_atom_site_label
_atom_site_fract_x
_atom_site_fract_y
_atom_site_fract_z
Si Si1 0.206953 0.206824 0.682947
Si Si2 0.302495 0.570586 0.182573
Si Si3 0.425407 0.153851 0.317706
Si Si4 0.286343 0.074325 0.682119
Si Si5 0.853496 0.572584 0.816204
Si Si6 0.075292 0.706557 0.183881
Si Si7 0.343863 0.283300 0.317643
O O1 0.208429 0.210381 0.500000
O O2 0.224429 0.127950 0.736544
O O3 0.131031 0.234566 0.742025
O O4 0.268482 0.257070 0.750069
O O5 0.336935 0.500000 0.250000
O O6 0.226076 0.584731 0.256095
O O7 0.353972 0.635540 0.227312
O O8 0.292841 0.563502 0.000000
O O9 0.500000 0.128831 0.250000
O O10 0.431269 0.151861 0.500000
O O11 0.363323 0.101947 0.260194
O O12 0.406898 0.232581 0.258184
O O13 0.287543 0.068450 0.500000
O O14 0.268059 0.000000 0.750000
O O15 0.883207 0.500000 0.750000
O O16 0.904639 0.632422 0.754457
O O17 0.853990 0.571093 0.000000
O O18 0.000000 0.730688 0.250000
O O19 0.073274 0.700469 0.000000
O O20 0.340340 0.275115 0.500000
#
# Coordination Sequence:
#
# PCOD8202383 Si02
#       7
#     8   8   8   8   8   8   8
#     4   8  15  31  53  71  93 128 165 197 241 296
#     4  10  17  28  47  70  95 125 163 208 257 296
#     4   9  18  32  50  73 102 134 167 197 237 289
#     4   9  18  33  54  78 102 132 165 197 237 288
#     4  11  21  33  48  70  99 132 168 206 252 300
#     4  11  21  35  53  73  98 130 167 207 254 300
#     4   8  14  28  50  69  89 127 168 200 241 294
#
# _framework density 17.847403
#
# number of rings (size 3 to 8) (size 9 to 14) (size 15 to 20)
#    0.000    2.571    1.429    4.714    0.000    1.143 
#    0.000    5.714    0.000    0.857    0.000    6.000 
#    0.000    0.000    0.000    0.000    0.000    0.000 
#
# Total GULP energy -693956.409866 kJ/mol
# GULP energy per Si atom -12392.078748 kJ/mol
# Density = 1.780678 g / cm^3
# Si number density = 17.847403 Si / 1000 Ang^3
#
#
#
# Elastic Constant Matrix: (Units=GPa)
#
#
# Indices 1 2 3 4 5 6 
#
# 1 74.9347 51.3719 19.8088 0.0000 0.0000 0.0000
# 2 51.3719 143.4467 30.4416 0.0000 0.0000 0.0000
# 3 19.8088 30.4416 60.9730 0.0000 0.0000 0.0000
# 4 0.0000 0.0000 0.0000 20.9894 0.0000 0.0000
# 5 0.0000 0.0000 0.0000 0.0000 -0.7919 0.0000
# 6 0.0000 0.0000 0.0000 0.0000 0.0000 43.4730
#
#
#
# Elastic Compliance Matrix: (Units=1/GPa)
#
#
# Indices 1 2 3 4 5 6 
#
# 1 0.018155 -0.005872 -0.002966 0.000000 0.000000 0.000000
# 2 -0.005872 0.009697 -0.002933 0.000000 0.000000 0.000000
# 3 -0.002966 -0.002933 0.018829 0.000000 0.000000 0.000000
# 4 0.000000 0.000000 0.000000 0.047643 0.000000 0.000000
# 5 0.000000 0.000000 0.000000 0.000000 -1.262739 0.000000
# 6 0.000000 0.000000 0.000000 0.000000 0.000000 0.023003
#
#
# Mechanical properties :
#
#
# Convention : Reuss Voigt Hill
#
# Bulk Modulus (GPa) = 43.22173 53.62211 48.42192
# Shear Modulus (GPa) = -4.48770 24.58289 10.04760
#
# Velocity S-wave (km/s) = -1.58743 3.71535 2.37528
# Velocity P-wave (km/s) = 4.57275 6.96528 5.89174
#
# Compressibility (1/GPa) = 0.02313651
#
# Stress axis : x y z
#
# Youngs Moduli (GPa) = 55.08181 103.12742 53.10963
#
# Poissons Ratio (x) = 0.60558 0.15754
# Poissons Ratio (y) = 0.32345 0.15580
# Poissons Ratio (z) = 0.16339 0.30252
#
# Static dielectric constant tensor:
#      x y z
#    x 3.338570 0.000000 0.000000 
#    y 0.000000 3.764050 0.000000 
#    z 0.000000 0.000000 3.062610 
# 
# 
# High freq. dielectric constant tensor:
#      x y z
#    x 1.662780 0.000000 0.000000 
#    y 0.000000 1.696150 0.000000 
#    z 0.000000 0.000000 1.671300 
# 
# From -- ./inp_files/5180.got.cif
#   From: 2010.03.12/outbox.cif.g09.slc.cpg/sg49_3_cif.got.tgz:5180.got - 2010.04.14 03:58:27.
