data_PCOD8202284
_publ_section_title
;
Structure prediction by ZEFSAII (Michael W. Deem and Ramdas Pophale) SiO2 
 PCOD8202284
Probable space group: P C C M
;
_chemical_formula_sum "Si O2"
_cell_formula_units_Z 48
_cell_length_a 24.089961
_cell_length_b 13.490733
_cell_length_c 8.655736
_cell_angle_alpha 90.000000
_cell_angle_beta 90.000000
_cell_angle_gamma 90.000000
_cell_volume 2813.038305
_symmetry_space_group_name_H-M "P C C M"
_symmetry_group_IT_number 49
_symmetry_cell_setting 'orthorhombic'
loop_
_space_group_symop_operation_xyz
x,y,z
-x,-y,z
x,-y,1/2-z
-x,y,1/2-z
-x,-y,-z
x,y,-z
-x,y,1/2+z
x,-y,1/2+z
loop_
_atom_site_type_symbol
_atom_site_label
_atom_site_fract_x
_atom_site_fract_y
_atom_site_fract_z
Si Si1 0.378351 0.898154 0.818108
Si Si2 0.663332 0.397999 0.680942
Si Si3 0.440421 0.298943 0.680792
Si Si4 0.944635 0.110278 0.683524
Si Si5 0.167958 0.108906 0.317615
Si Si6 0.725981 0.200497 0.681281
O O1 0.422237 0.812715 0.775653
O O2 0.319937 0.878134 0.735010
O O3 0.403017 0.000000 0.750000
O O4 0.368301 0.905668 0.000000
O O5 0.687179 0.500000 0.750000
O O6 0.656377 0.407867 0.500000
O O7 0.602996 0.376908 0.751185
O O8 0.706212 0.311060 0.724662
O O9 0.500000 0.321983 0.750000
O O10 0.442724 0.314977 0.500000
O O11 0.946086 0.110478 0.500000
O O12 0.887735 0.159115 0.745552
O O13 0.000000 0.164961 0.750000
O O14 0.944178 0.000000 0.750000
O O15 0.161299 0.100044 0.500000
O O16 0.217798 0.181788 0.274200
O O17 0.179686 0.000000 0.250000
O O18 0.736462 0.186988 0.500000
#
# Coordination Sequence:
#
# PCOD8202284 Si02
#       6
#     8   8   8   8   8   8
#     4  10  20  33  49  69  94 126 158 192 230 274
#     4  10  21  37  57  76  96 120 149 187 236 287
#     4  10  21  36  53  73  97 122 154 191 230 275
#     4  10  17  27  41  60  89 126 167 205 239 276
#     4  11  20  30  45  67  96 131 167 202 237 276
#     4  10  20  34  50  70  95 123 155 194 235 280
#
# _framework density 17.063402
#
# number of rings (size 3 to 8) (size 9 to 14) (size 15 to 20)
#    0.000    1.833    0.000    7.000    0.000    4.667 
#    0.000    3.333    0.000    0.000    0.000    0.000 
#    0.000    0.667    0.000    7.000    0.000    3.833 
#
# Total GULP energy -595274.066791 kJ/mol
# GULP energy per Si atom -12401.543058 kJ/mol
# Density = 1.702456 g / cm^3
# Si number density = 17.063402 Si / 1000 Ang^3
#
#
#
# Elastic Constant Matrix: (Units=GPa)
#
#
# Indices 1 2 3 4 5 6 
#
# 1 121.0677 24.6876 48.5513 0.0000 0.0000 0.0000
# 2 24.6876 71.8483 28.8948 0.0000 0.0000 0.0000
# 3 48.5513 28.8948 116.0839 0.0000 0.0000 0.0000
# 4 0.0000 0.0000 0.0000 25.5880 0.0000 0.0000
# 5 0.0000 0.0000 0.0000 0.0000 31.0304 0.0000
# 6 0.0000 0.0000 0.0000 0.0000 0.0000 12.7005
#
#
#
# Elastic Compliance Matrix: (Units=1/GPa)
#
#
# Indices 1 2 3 4 5 6 
#
# 1 0.010172 -0.001983 -0.003761 0.000000 0.000000 0.000000
# 2 -0.001983 0.015853 -0.003117 0.000000 0.000000 0.000000
# 3 -0.003761 -0.003117 0.010963 0.000000 0.000000 0.000000
# 4 0.000000 0.000000 0.000000 0.039081 0.000000 0.000000
# 5 0.000000 0.000000 0.000000 0.000000 0.032226 0.000000
# 6 0.000000 0.000000 0.000000 0.000000 0.000000 0.078737
#
#
# Mechanical properties :
#
#
# Convention : Reuss Voigt Hill
#
# Bulk Modulus (GPa) = 51.90053 57.02968 54.46511
# Shear Modulus (GPa) = 23.67686 27.65486 25.66586
#
# Velocity S-wave (km/s) = 3.72907 4.03017 3.88254
# Velocity P-wave (km/s) = 7.00168 7.42638 7.21716
#
# Compressibility (1/GPa) = 0.01926763
#
# Stress axis : x y z
#
# Youngs Moduli (GPa) = 98.30510 63.07979 91.21370
#
# Poissons Ratio (x) = 0.12507 0.34305
# Poissons Ratio (y) = 0.19492 0.28429
# Poissons Ratio (z) = 0.36973 0.19660
#
# Static dielectric constant tensor:
#      x y z
#    x 3.651690 0.000000 0.000000 
#    y 0.000000 2.978770 0.000000 
#    z 0.000000 0.000000 3.319310 
# 
# 
# High freq. dielectric constant tensor:
#      x y z
#    x 1.660100 0.000000 0.000000 
#    y 0.000000 1.619650 0.000000 
#    z 0.000000 0.000000 1.682010 
# 
# From -- ./inp_files/2913.got.cif
#   From: 2010.03.12/outbox.cif.g09.slc.cpg/sg49_2_cif.got.tgz:2913.got - 2010.04.14 03:58:27.
