data_PCOD8202948
_publ_section_title
;
Structure prediction by ZEFSAII (Michael W. Deem and Ramdas Pophale) SiO2 
 PCOD8202948
Probable space group: P C C M
;
_chemical_formula_sum "Si O2"
_cell_formula_units_Z 56
_cell_length_a 15.167301
_cell_length_b 19.951816
_cell_length_c 9.035929
_cell_angle_alpha 90.000000
_cell_angle_beta 90.000000
_cell_angle_gamma 90.000000
_cell_volume 2734.409450
_symmetry_space_group_name_H-M "P C C M"
_symmetry_group_IT_number 49
_symmetry_cell_setting 'orthorhombic'
loop_
_space_group_symop_operation_xyz
x,y,z
-x,-y,z
x,-y,1/2-z
-x,y,1/2-z
-x,-y,-z
x,y,-z
-x,y,1/2+z
x,-y,1/2+z
loop_
_atom_site_type_symbol
_atom_site_label
_atom_site_fract_x
_atom_site_fract_y
_atom_site_fract_z
Si Si1 0.408921 0.428787 0.678142
Si Si2 0.284453 0.675924 0.324882
Si Si3 0.917232 0.844998 0.836560
Si Si4 0.413231 0.204557 0.825821
Si Si5 0.084986 0.312989 0.163548
Si Si6 0.611530 0.936154 0.664029
Si Si7 0.815640 0.938324 0.338997
O O1 0.385207 0.500000 0.750000
O O2 0.500000 0.402544 0.750000
O O3 0.416939 0.433940 0.500000
O O4 0.332231 0.378488 0.724085
O O5 0.292208 0.659741 0.500000
O O6 0.327908 0.748790 0.292682
O O7 0.182256 0.672079 0.270567
O O8 0.923287 0.766076 0.841931
O O9 0.830337 0.869141 0.750177
O O10 0.000000 0.876049 0.750000
O O11 0.914285 0.875342 0.000000
O O12 0.500000 0.237814 0.750000
O O13 0.402656 0.130665 0.758828
O O14 0.428918 0.198559 0.000000
O O15 0.000000 0.343369 0.250000
O O16 0.078931 0.343940 0.000000
O O17 0.568327 0.928461 0.500000
O O18 0.713343 0.950474 0.642335
O O19 0.569580 0.000000 0.750000
O O20 0.860460 0.933185 0.500000
O O21 0.859260 0.000000 0.250000
#
# Coordination Sequence:
#
# PCOD8202948 Si02
#       7
#     8   8   8   8   8   8   8
#     4  11  22  38  62  92 127 166 204 242 285 339
#     4  10  21  38  60  88 122 158 195 240 291 343
#     4  10  19  32  49  70  97 130 169 216 273 335
#     4  11  23  38  57  82 114 149 189 237 291 346
#     4   9  19  35  56  82 113 148 187 232 282 335
#     4  10  21  37  56  76 101 136 182 232 284 342
#     4  10  20  33  49  69  92 122 163 215 272 334
#
# _framework density 20.479742999999999
#
# number of rings (size 3 to 8) (size 9 to 14) (size 15 to 20)
#    0.000    1.857    0.000    4.714    0.000    6.857 
#    0.000    2.857    0.000    0.429    0.000    3.000 
#    0.000    0.000    0.000    0.000    0.000    0.000 
#
# Total GULP energy -694042.692401 kJ/mol
# GULP energy per Si atom -12393.619507 kJ/mol
# Density = 2.043313 g / cm^3
# Si number density = 20.479743 Si / 1000 Ang^3
#
#
#
# Elastic Constant Matrix: (Units=GPa)
#
#
# Indices 1 2 3 4 5 6 
#
# 1 126.8968 46.6069 64.6827 0.0000 0.0000 0.0000
# 2 46.6069 66.2297 48.0549 0.0000 0.0000 0.0000
# 3 64.6827 48.0549 166.6333 0.0000 0.0000 0.0000
# 4 0.0000 0.0000 0.0000 28.9807 0.0000 0.0000
# 5 0.0000 0.0000 0.0000 0.0000 31.9560 0.0000
# 6 0.0000 0.0000 0.0000 0.0000 0.0000 25.0949
#
#
#
# Elastic Compliance Matrix: (Units=1/GPa)
#
#
# Indices 1 2 3 4 5 6 
#
# 1 0.011512 -0.006144 -0.002697 0.000000 0.000000 0.000000
# 2 -0.006144 0.022374 -0.004067 0.000000 0.000000 0.000000
# 3 -0.002697 -0.004067 0.008221 0.000000 0.000000 0.000000
# 4 0.000000 0.000000 0.000000 0.034506 0.000000 0.000000
# 5 0.000000 0.000000 0.000000 0.000000 0.031293 0.000000
# 6 0.000000 0.000000 0.000000 0.000000 0.000000 0.039849
#
#
# Mechanical properties :
#
#
# Convention : Reuss Voigt Hill
#
# Bulk Modulus (GPa) = 61.38695 75.38317 68.38506
# Shear Modulus (GPa) = 27.93288 30.56733 29.25010
#
# Velocity S-wave (km/s) = 3.69715 3.86756 3.78331
# Velocity P-wave (km/s) = 6.94728 7.53874 7.24905
#
# Compressibility (1/GPa) = 0.01629011
#
# Stress axis : x y z
#
# Youngs Moduli (GPa) = 86.86858 44.69473 121.64121
#
# Poissons Ratio (x) = 0.27462 0.32801
# Poissons Ratio (y) = 0.53375 0.49475
# Poissons Ratio (z) = 0.23425 0.18179
#
# Static dielectric constant tensor:
#      x y z
#    x 3.949870 0.000000 0.000000 
#    y 0.000000 3.398410 0.000000 
#    z 0.000000 0.000000 4.233850 
# 
# 
# High freq. dielectric constant tensor:
#      x y z
#    x 1.806490 0.000000 0.000000 
#    y 0.000000 1.770740 0.000000 
#    z 0.000000 0.000000 1.813440 
# 
# From -- ./inp_files/4002.got.cif
#   From: 2010.03.12/outbox.cif.g09.slc.cpg/sg49_3_cif.got.tgz:4002.got - 2010.04.14 03:58:27.
