data_PCOD8202582
_publ_section_title
;
Structure prediction by ZEFSAII (Michael W. Deem and Ramdas Pophale) SiO2 
 PCOD8202582
Probable space group: P C C M
;
_chemical_formula_sum "Si O2"
_cell_formula_units_Z 52
_cell_length_a 9.732264
_cell_length_b 13.843975
_cell_length_c 19.441546
_cell_angle_alpha 90.000000
_cell_angle_beta 90.000000
_cell_angle_gamma 90.000000
_cell_volume 2619.422085
_symmetry_space_group_name_H-M "P C C M"
_symmetry_group_IT_number 49
_symmetry_cell_setting 'orthorhombic'
loop_
_space_group_symop_operation_xyz
x,y,z
-x,-y,z
x,-y,1/2-z
-x,y,1/2-z
-x,-y,-z
x,y,-z
-x,y,1/2+z
x,-y,1/2+z
loop_
_atom_site_type_symbol
_atom_site_label
_atom_site_fract_x
_atom_site_fract_y
_atom_site_fract_z
Si Si1 0.639262 0.391672 0.129740
Si Si2 0.938676 0.104727 0.580946
Si Si3 0.346378 0.405785 0.077808
Si Si4 0.500000 0.284457 0.250000
Si Si5 0.796937 0.781252 0.419379
Si Si6 0.316594 0.791184 0.366653
Si Si7 0.551992 0.902379 0.422333
O O1 0.509553 0.382477 0.078085
O O2 0.688863 0.503007 0.127093
O O3 0.589735 0.357324 0.204253
O O4 0.768296 0.326327 0.107305
O O5 0.897830 0.107094 0.500000
O O6 0.808561 0.131668 0.629274
O O7 0.050686 0.185869 0.599591
O O8 0.000000 0.000000 0.600292
O O9 0.263844 0.314157 0.108665
O O10 0.298316 0.426735 0.000000
O O11 0.607289 0.216424 0.292283
O O12 0.772724 0.783143 0.500000
O O13 0.686478 0.856409 0.385816
O O14 0.430871 0.824361 0.421256
O O15 0.591727 0.930431 0.500000
O O16 0.500000 0.000000 0.383648
#
# Coordination Sequence:
#
# PCOD8202582 Si02
#       7
#     8   8   8   4   8   8   8
#     4  10  19  32  52  79 116 149 198 244 291 348
#     4  10  21  37  60  88 119 154 191 243 314 372
#     4  10  18  30  56  89 117 149 191 250 315 356
#     4  10  22  37  57  82 114 164 205 244 279 340
#     4  10  18  32  54  81 112 145 185 242 306 360
#     4  11  21  36  56  83 122 155 197 243 289 353
#     4  10  18  30  54  82 107 141 189 248 304 345
#
# _framework density 19.851707000000001
#
# number of rings (size 3 to 8) (size 9 to 14) (size 15 to 20)
#    0.000    1.846    3.077    4.154    0.000    7.385 
#    0.000    1.923    0.000    3.692    0.000    6.462 
#    0.000    0.000    0.000    0.000    0.000    0.000 
#
# Total GULP energy -644391.654140 kJ/mol
# GULP energy per Si atom -12392.147195 kJ/mol
# Density = 1.980652 g / cm^3
# Si number density = 19.851707 Si / 1000 Ang^3
#
#
#
# Elastic Constant Matrix: (Units=GPa)
#
#
# Indices 1 2 3 4 5 6 
#
# 1 84.9698 39.0189 43.7199 0.0000 0.0000 0.0000
# 2 39.0189 123.3997 40.7432 0.0000 0.0000 0.0000
# 3 43.7199 40.7432 67.0806 0.0000 0.0000 0.0000
# 4 0.0000 0.0000 0.0000 16.2207 0.0000 0.0000
# 5 0.0000 0.0000 0.0000 0.0000 23.3636 0.0000
# 6 0.0000 0.0000 0.0000 0.0000 0.0000 32.7483
#
#
#
# Elastic Compliance Matrix: (Units=1/GPa)
#
#
# Indices 1 2 3 4 5 6 
#
# 1 0.018215 -0.002301 -0.010474 0.000000 0.000000 0.000000
# 2 -0.002301 0.010427 -0.004833 0.000000 0.000000 0.000000
# 3 -0.010474 -0.004833 0.024669 0.000000 0.000000 0.000000
# 4 0.000000 0.000000 0.000000 0.061650 0.000000 0.000000
# 5 0.000000 0.000000 0.000000 0.000000 0.042802 0.000000
# 6 0.000000 0.000000 0.000000 0.000000 0.000000 0.030536
#
#
# Mechanical properties :
#
#
# Convention : Reuss Voigt Hill
#
# Bulk Modulus (GPa) = 55.26530 58.04601 56.65565
# Shear Modulus (GPa) = 21.78204 24.59774 23.18989
#
# Velocity S-wave (km/s) = 3.31605 3.52387 3.42154
# Velocity P-wave (km/s) = 6.52389 6.77201 6.64911
#
# Compressibility (1/GPa) = 0.01809454
#
# Stress axis : x y z
#
# Youngs Moduli (GPa) = 54.90048 95.90223 40.53612
#
# Poissons Ratio (x) = 0.22071 0.42456
# Poissons Ratio (y) = 0.12635 0.19593
# Poissons Ratio (z) = 0.57501 0.46353
#
# Static dielectric constant tensor:
#      x y z
#    x 3.430020 0.000000 0.000000 
#    y 0.000000 4.001360 0.000000 
#    z 0.000000 0.000000 3.282930 
# 
# 
# High freq. dielectric constant tensor:
#      x y z
#    x 1.742620 0.000000 0.000000 
#    y 0.000000 1.792440 0.000000 
#    z 0.000000 0.000000 1.733820 
# 
# From -- ./inp_files/19834.got.cif
#   From: 2010.03.12/outbox.cif.g09.slc.cpg/sg49_10_cif.got.tgz:19834.got - 2010.04.14 03:58:27.
