data_PCOD8202919
_publ_section_title
;
Structure prediction by ZEFSAII (Michael W. Deem and Ramdas Pophale) SiO2 
 PCOD8202919
Probable space group: P C C M
;
_chemical_formula_sum "Si O2"
_cell_formula_units_Z 56
_cell_length_a 12.449834
_cell_length_b 12.450829
_cell_length_c 18.990769
_cell_angle_alpha 90.000000
_cell_angle_beta 90.000000
_cell_angle_gamma 90.000000
_cell_volume 2943.773426
_symmetry_space_group_name_H-M "P C C M"
_symmetry_group_IT_number 49
_symmetry_cell_setting 'orthorhombic'
loop_
_space_group_symop_operation_xyz
x,y,z
-x,-y,z
x,-y,1/2-z
-x,y,1/2-z
-x,-y,-z
x,y,-z
-x,y,1/2+z
x,-y,1/2+z
loop_
_atom_site_type_symbol
_atom_site_label
_atom_site_fract_x
_atom_site_fract_y
_atom_site_fract_z
Si Si1 0.779401 0.119008 0.167429
Si Si2 0.597225 0.267363 0.418636
Si Si3 0.239460 0.874997 0.329500
Si Si4 0.644272 0.713042 0.583686
Si Si5 0.993309 0.792305 0.169601
Si Si6 0.931034 0.395856 0.422531
Si Si7 0.289175 0.481035 0.918547
O O1 0.745803 0.148995 0.246886
O O2 0.724843 0.199816 0.113757
O O3 0.907801 0.126913 0.155584
O O4 0.739992 0.998889 0.151178
O O5 0.614241 0.234228 0.500000
O O6 0.676234 0.196189 0.371915
O O7 0.475143 0.250982 0.393484
O O8 0.616861 0.394454 0.408279
O O9 0.117438 0.849891 0.351327
O O10 0.652662 0.711228 0.500000
O O11 0.674995 0.595081 0.614916
O O12 0.000000 0.754642 0.250000
O O13 0.001415 0.685681 0.123151
O O14 0.908288 0.344627 0.500000
O O15 0.818816 0.429344 0.384455
O O16 0.000000 0.500000 0.432406
O O17 0.262714 0.501954 0.000000
#
# Coordination Sequence:
#
# PCOD8202919 Si02
#       7
#     8   8   8   8   8   8   8
#     4  10  22  38  57  81 111 149 183 228 284 330
#     4  10  20  36  60  84 109 145 189 232 274 326
#     4  10  21  39  59  80 109 145 190 231 275 334
#     4  10  21  37  57  84 114 145 185 231 277 327
#     4  10  20  36  57  81 108 143 185 229 274 329
#     4  10  19  31  52  82 114 146 179 220 272 330
#     4   9  17  33  56  81 111 145 179 219 273 330
#
# _framework density 19.023202999999999
#
# number of rings (size 3 to 8) (size 9 to 14) (size 15 to 20)
#    0.000    2.143    1.429    1.714    0.000    7.143 
#    0.000    3.571    0.000    4.286    0.000    0.000 
#    0.000    0.000    0.000    0.000    0.000    0.000 
#
# Total GULP energy -694288.421942 kJ/mol
# GULP energy per Si atom -12398.007535 kJ/mol
# Density = 1.897990 g / cm^3
# Si number density = 19.023203 Si / 1000 Ang^3
#
#
#
# Elastic Constant Matrix: (Units=GPa)
#
#
# Indices 1 2 3 4 5 6 
#
# 1 95.6273 35.2763 34.1868 0.0000 0.0000 0.0000
# 2 35.2763 102.9930 35.7988 0.0000 0.0000 0.0000
# 3 34.1868 35.7988 42.9025 0.0000 0.0000 0.0000
# 4 0.0000 0.0000 0.0000 2.9256 0.0000 0.0000
# 5 0.0000 0.0000 0.0000 0.0000 29.2273 0.0000
# 6 0.0000 0.0000 0.0000 0.0000 0.0000 23.3181
#
#
#
# Elastic Compliance Matrix: (Units=1/GPa)
#
#
# Indices 1 2 3 4 5 6 
#
# 1 0.014757 -0.001362 -0.010623 0.000000 0.000000 0.000000
# 2 -0.001362 0.013802 -0.010431 0.000000 0.000000 0.000000
# 3 -0.010623 -0.010431 0.040477 0.000000 0.000000 0.000000
# 4 0.000000 0.000000 0.000000 0.341815 0.000000 0.000000
# 5 0.000000 0.000000 0.000000 0.000000 0.034215 0.000000
# 6 0.000000 0.000000 0.000000 0.000000 0.000000 0.042885
#
#
# Mechanical properties :
#
#
# Convention : Reuss Voigt Hill
#
# Bulk Modulus (GPa) = 41.31472 50.22743 45.77107
# Shear Modulus (GPa) = 9.24469 20.17825 14.71147
#
# Velocity S-wave (km/s) = 2.20686 3.26040 2.78392
# Velocity P-wave (km/s) = 5.31591 6.37449 5.86912
#
# Compressibility (1/GPa) = 0.02420445
#
# Stress axis : x y z
#
# Youngs Moduli (GPa) = 67.76241 72.45535 24.70530
#
# Poissons Ratio (x) = 0.09871 0.26244
# Poissons Ratio (y) = 0.09231 0.25770
# Poissons Ratio (z) = 0.71982 0.75577
#
# Static dielectric constant tensor:
#      x y z
#    x 3.642780 0.000000 0.000000 
#    y 0.000000 3.468300 0.000000 
#    z 0.000000 0.000000 3.319010 
# 
# 
# High freq. dielectric constant tensor:
#      x y z
#    x 1.751160 0.000000 0.000000 
#    y 0.000000 1.741970 0.000000 
#    z 0.000000 0.000000 1.711720 
# 
# From -- ./inp_files/20478.got.cif
#   From: 2010.03.12/outbox.cif.g09.slc.cpg/sg49_11_cif.got.tgz:20478.got - 2010.04.14 03:58:27.
