data_PCOD8202600
_publ_section_title
;
Structure prediction by ZEFSAII (Michael W. Deem and Ramdas Pophale) SiO2 
 PCOD8202600
Probable space group: P C C M
;
_chemical_formula_sum "Si O2"
_cell_formula_units_Z 64
_cell_length_a 18.533700
_cell_length_b 21.424369
_cell_length_c 9.127180
_cell_angle_alpha 90.000000
_cell_angle_beta 90.000000
_cell_angle_gamma 90.000000
_cell_volume 3624.155172
_symmetry_space_group_name_H-M "P C C M"
_symmetry_group_IT_number 49
_symmetry_cell_setting 'orthorhombic'
loop_
_space_group_symop_operation_xyz
x,y,z
-x,-y,z
x,-y,1/2-z
-x,y,1/2-z
-x,-y,-z
x,y,-z
-x,y,1/2+z
x,-y,1/2+z
loop_
_atom_site_type_symbol
_atom_site_label
_atom_site_fract_x
_atom_site_fract_y
_atom_site_fract_z
Si Si1 0.203248 0.240086 0.834811
Si Si2 0.853060 0.939487 0.327269
Si Si3 0.435907 0.748965 0.841616
Si Si4 0.425616 0.435435 0.174530
Si Si5 0.073576 0.189838 0.670360
Si Si6 0.328980 0.679389 0.665921
Si Si7 0.282501 0.887053 0.671554
Si Si8 0.568759 0.105297 0.164156
O O1 0.136095 0.236498 0.725269
O O2 0.242835 0.307973 0.815604
O O3 0.261291 0.185183 0.802758
O O4 0.173595 0.232631 0.000000
O O5 0.843404 0.949830 0.500000
O O6 0.905065 0.881274 0.293561
O O7 0.775701 0.929983 0.252517
O O8 0.888871 0.000000 0.250000
O O9 0.500000 0.717292 0.750000
O O10 0.361266 0.733465 0.765704
O O11 0.446565 0.822060 0.854711
O O12 0.437824 0.716989 0.000000
O O13 0.402551 0.500000 0.250000
O O14 0.500000 0.411710 0.250000
O O15 0.358915 0.388656 0.210509
O O16 0.436834 0.443875 0.000000
O O17 0.063021 0.201355 0.500000
O O18 0.000000 0.207188 0.750000
O O19 0.352372 0.693471 0.500000
O O20 0.285250 0.903657 0.500000
O O21 0.359076 0.904820 0.742357
O O22 0.500000 0.075330 0.250000
O O23 0.576016 0.076003 0.000000
#
# Coordination Sequence:
#
# PCOD8202600 Si02
#       8
#     8   8   8   8   8   8   8   8
#     4   9  18  32  50  72  99 128 160 197 244 298
#     4  10  21  36  54  77 102 129 166 204 239 284
#     4  10  19  27  39  60  89 122 156 197 242 290
#     4  10  20  33  48  65  93 133 180 224 263 302
#     4  10  21  36  55  78 106 136 164 195 235 287
#     4  10  19  31  47  68  94 126 165 210 254 298
#     4  10  18  31  51  70  95 128 159 199 251 298
#     4  10  19  29  42  63  91 122 157 197 242 292
#
# _framework density 17.659289000000001
#
# number of rings (size 3 to 8) (size 9 to 14) (size 15 to 20)
#    0.000    2.125    1.250    3.000    0.000    5.750 
#    0.000    1.250    0.000    0.375    0.000    2.625 
#    0.000    0.500    0.000    5.750    0.000    1.750 
#
# Total GULP energy -793238.671940 kJ/mol
# GULP energy per Si atom -12394.354249 kJ/mol
# Density = 1.761910 g / cm^3
# Si number density = 17.659289 Si / 1000 Ang^3
#
#
#
# Elastic Constant Matrix: (Units=GPa)
#
#
# Indices 1 2 3 4 5 6 
#
# 1 96.1747 24.8841 52.9974 0.0000 0.0000 0.0000
# 2 24.8841 56.2453 28.9409 0.0000 0.0000 0.0000
# 3 52.9974 28.9409 115.2248 0.0000 0.0000 0.0000
# 4 0.0000 0.0000 0.0000 -1.8870 0.0000 0.0000
# 5 0.0000 0.0000 0.0000 0.0000 30.1889 0.0000
# 6 0.0000 0.0000 0.0000 0.0000 0.0000 16.3572
#
#
#
# Elastic Compliance Matrix: (Units=1/GPa)
#
#
# Indices 1 2 3 4 5 6 
#
# 1 0.014479 -0.003421 -0.005800 0.000000 0.000000 0.000000
# 2 -0.003421 0.021226 -0.003758 0.000000 0.000000 0.000000
# 3 -0.005800 -0.003758 0.012290 0.000000 0.000000 0.000000
# 4 0.000000 0.000000 0.000000 -0.529940 0.000000 0.000000
# 5 0.000000 0.000000 0.000000 0.000000 0.033125 0.000000
# 6 0.000000 0.000000 0.000000 0.000000 0.000000 0.061135
#
#
# Mechanical properties :
#
#
# Convention : Reuss Voigt Hill
#
# Bulk Modulus (GPa) = 45.37798 53.47663 49.42730
# Shear Modulus (GPa) = -14.10917 19.65333 2.77208
#
# Velocity S-wave (km/s) = -2.82967 3.33966 1.25426
# Velocity P-wave (km/s) = 3.88280 6.72453 5.49069
#
# Compressibility (1/GPa) = 0.02203712
#
# Stress axis : x y z
#
# Youngs Moduli (GPa) = 69.06411 47.11095 81.36440
#
# Poissons Ratio (x) = 0.16118 0.47194
# Poissons Ratio (y) = 0.23629 0.30575
# Poissons Ratio (z) = 0.40060 0.17703
#
# Static dielectric constant tensor:
#      x y z
#    x 3.139640 0.000000 0.000000 
#    y 0.000000 3.059230 0.000000 
#    z 0.000000 0.000000 3.527470 
# 
# 
# High freq. dielectric constant tensor:
#      x y z
#    x 1.664820 0.000000 0.000000 
#    y 0.000000 1.644290 0.000000 
#    z 0.000000 0.000000 1.702840 
# 
# From -- ./inp_files/5422.got.cif
#   From: 2010.03.12/outbox.cif.g09.slc.cpg/sg49_3_cif.got.tgz:5422.got - 2010.04.14 03:58:27.
