data_PCOD8202892
_publ_section_title
;
Structure prediction by ZEFSAII (Michael W. Deem and Ramdas Pophale) SiO2 
 PCOD8202892
Probable space group: P C C M
;
_chemical_formula_sum "Si O2"
_cell_formula_units_Z 36
_cell_length_a 11.258382
_cell_length_b 18.278685
_cell_length_c 9.342810
_cell_angle_alpha 90.000000
_cell_angle_beta 90.000000
_cell_angle_gamma 90.000000
_cell_volume 1922.642091
_symmetry_space_group_name_H-M "P C C M"
_symmetry_group_IT_number 49
_symmetry_cell_setting 'orthorhombic'
loop_
_space_group_symop_operation_xyz
x,y,z
-x,-y,z
x,-y,1/2-z
-x,y,1/2-z
-x,-y,-z
x,y,-z
-x,y,1/2+z
x,-y,1/2+z
loop_
_atom_site_type_symbol
_atom_site_label
_atom_site_fract_x
_atom_site_fract_y
_atom_site_fract_z
Si Si1 0.500000 0.685712 0.750000
Si Si2 0.122346 0.671312 0.830352
Si Si3 0.328563 0.567869 0.156263
Si Si4 0.376659 0.069453 0.830651
Si Si5 0.719928 0.224862 0.340481
O O1 0.425835 0.632326 0.853812
O O2 0.409252 0.736708 0.663481
O O3 0.204214 0.601841 0.789191
O O4 0.186757 0.744488 0.774089
O O5 0.000000 0.658692 0.750000
O O6 0.103489 0.678803 0.000000
O O7 0.371183 0.500000 0.250000
O O8 0.311050 0.534661 0.000000
O O9 0.500000 0.084740 0.750000
O O10 0.292313 0.139016 0.807961
O O11 0.316140 0.000000 0.750000
O O12 0.397464 0.054402 0.000000
O O13 0.771043 0.237235 0.500000
#
# Coordination Sequence:
#
# PCOD8202892 Si02
#       5
#     4   8   8   8   8
#     4  10  19  34  53  78 110 140 180 216 261 318
#     4  10  22  39  58  79 103 135 178 224 271 319
#     4  10  22  36  53  77 105 139 174 216 266 318
#     4  10  19  31  49  77 112 149 181 215 258 308
#     4  10  20  34  55  80 109 144 180 220 265 314
#
# _framework density 18.724233000000002
#
# number of rings (size 3 to 8) (size 9 to 14) (size 15 to 20)
#    0.000    2.000    1.111    3.000    0.000    9.333 
#    0.000    2.222    0.000    0.667    0.000    4.667 
#    0.000    0.000    0.000    0.000    0.000    0.000 
#
# Total GULP energy -446238.256966 kJ/mol
# GULP energy per Si atom -12395.507138 kJ/mol
# Density = 1.868162 g / cm^3
# Si number density = 18.724233 Si / 1000 Ang^3
#
#
#
# Elastic Constant Matrix: (Units=GPa)
#
#
# Indices 1 2 3 4 5 6 
#
# 1 81.3977 23.1588 25.6031 0.0000 0.0000 0.0000
# 2 23.1588 106.5926 41.7880 0.0000 0.0000 0.0000
# 3 25.6031 41.7880 103.2394 0.0000 0.0000 0.0000
# 4 0.0000 0.0000 0.0000 23.8541 0.0000 0.0000
# 5 0.0000 0.0000 0.0000 0.0000 24.2128 0.0000
# 6 0.0000 0.0000 0.0000 0.0000 0.0000 16.4124
#
#
#
# Elastic Compliance Matrix: (Units=1/GPa)
#
#
# Indices 1 2 3 4 5 6 
#
# 1 0.013657 -0.001949 -0.002598 0.000000 0.000000 0.000000
# 2 -0.001949 0.011429 -0.004143 0.000000 0.000000 0.000000
# 3 -0.002598 -0.004143 0.012007 0.000000 0.000000 0.000000
# 4 0.000000 0.000000 0.000000 0.041922 0.000000 0.000000
# 5 0.000000 0.000000 0.000000 0.000000 0.041300 0.000000
# 6 0.000000 0.000000 0.000000 0.000000 0.000000 0.060929
#
#
# Mechanical properties :
#
#
# Convention : Reuss Voigt Hill
#
# Bulk Modulus (GPa) = 50.72479 52.48105 51.60292
# Shear Modulus (GPa) = 24.36699 26.27451 25.32075
#
# Velocity S-wave (km/s) = 3.61135 3.75004 3.68135
# Velocity P-wave (km/s) = 6.67371 6.84395 6.75937
#
# Compressibility (1/GPa) = 0.01971423
#
# Stress axis : x y z
#
# Youngs Moduli (GPa) = 73.22248 87.49663 83.28160
#
# Poissons Ratio (x) = 0.17050 0.21638
# Poissons Ratio (y) = 0.14268 0.34502
# Poissons Ratio (z) = 0.19024 0.36248
#
# Static dielectric constant tensor:
#      x y z
#    x 3.248030 0.000000 0.000000 
#    y 0.000000 3.561610 0.000000 
#    z 0.000000 0.000000 3.481080 
# 
# 
# High freq. dielectric constant tensor:
#      x y z
#    x 1.700850 0.000000 0.000000 
#    y 0.000000 1.731170 0.000000 
#    z 0.000000 0.000000 1.736620 
# 
# From -- ./inp_files/2789.got.cif
#   From: 2010.03.12/outbox.cif.g09.slc.cpg/sg49_2_cif.got.tgz:2789.got - 2010.04.14 03:58:27.
