data_PCOD8202730
_publ_section_title
;
Structure prediction by ZEFSAII (Michael W. Deem and Ramdas Pophale) SiO2 
 PCOD8202730
Probable space group: P C C M
;
_chemical_formula_sum "Si O2"
_cell_formula_units_Z 56
_cell_length_a 18.468400
_cell_length_b 21.796764
_cell_length_c 8.815392
_cell_angle_alpha 90.000000
_cell_angle_beta 90.000000
_cell_angle_gamma 90.000000
_cell_volume 3548.648006
_symmetry_space_group_name_H-M "P C C M"
_symmetry_group_IT_number 49
_symmetry_cell_setting 'orthorhombic'
loop_
_space_group_symop_operation_xyz
x,y,z
-x,-y,z
x,-y,1/2-z
-x,y,1/2-z
-x,-y,-z
x,y,-z
-x,y,1/2+z
x,-y,1/2+z
loop_
_atom_site_type_symbol
_atom_site_label
_atom_site_fract_x
_atom_site_fract_y
_atom_site_fract_z
Si Si1 0.423851 0.799208 0.321352
Si Si2 0.922198 0.818346 0.318429
Si Si3 0.835256 0.064094 0.179617
Si Si4 0.301149 0.133281 0.333072
Si Si5 0.654826 0.314144 0.819418
Si Si6 0.792564 0.254710 0.834822
Si Si7 0.422531 0.437324 0.679064
O O1 0.500000 0.818114 0.250000
O O2 0.431211 0.793829 0.500000
O O3 0.367244 0.853386 0.280548
O O4 0.400323 0.733261 0.256565
O O5 0.924256 0.815582 0.500000
O O6 0.892317 0.884408 0.263817
O O7 0.868384 0.764036 0.254072
O O8 0.000000 0.805517 0.250000
O O9 0.752766 0.080562 0.231431
O O10 0.859825 0.000000 0.250000
O O11 0.837708 0.059461 0.000000
O O12 0.331825 0.115289 0.500000
O O13 0.252318 0.192763 0.352950
O O14 0.737360 0.303200 0.754710
O O15 0.632376 0.383031 0.777747
O O16 0.652633 0.302326 0.000000
O O17 0.812043 0.281649 0.000000
O O18 0.391007 0.500000 0.750000
O O19 0.500000 0.421624 0.750000
O O20 0.431548 0.444986 0.500000
#
# Coordination Sequence:
#
# PCOD8202730 Si02
#       7
#     8   8   8   8   8   8   8
#     4  11  20  28  42  64  86 108 135 173 217 256
#     4   9  17  29  44  63  88 116 139 166 205 249
#     4   9  18  31  47  64  84 112 143 173 206 246
#     4   8  15  30  46  59  79 107 137 171 211 254
#     4   9  17  30  46  62  82 112 147 180 212 251
#     4   7  12  26  45  60  78 106 139 170 206 251
#     4  10  19  29  42  59  84 118 151 181 214 248
#
# _framework density 15.780658000000001
#
# number of rings (size 3 to 8) (size 9 to 14) (size 15 to 20)
#    0.000    3.000    0.000    5.143    0.000    3.714 
#    0.000    7.143    0.000    0.429    0.000    3.000 
#    0.000    0.571    0.000    7.143    0.000    0.000 
#
# Total GULP energy -693734.481964 kJ/mol
# GULP energy per Si atom -12388.115749 kJ/mol
# Density = 1.574474 g / cm^3
# Si number density = 15.780658 Si / 1000 Ang^3
#
#
#
# Elastic Constant Matrix: (Units=GPa)
#
#
# Indices 1 2 3 4 5 6 
#
# 1 122.0931 48.5906 31.2566 0.0000 0.0000 0.0000
# 2 48.5906 63.0239 15.5761 0.0000 0.0000 0.0000
# 3 31.2566 15.5761 50.0146 0.0000 0.0000 0.0000
# 4 0.0000 0.0000 0.0000 -1.3182 0.0000 0.0000
# 5 0.0000 0.0000 0.0000 0.0000 21.3147 0.0000
# 6 0.0000 0.0000 0.0000 0.0000 0.0000 22.7601
#
#
#
# Elastic Compliance Matrix: (Units=1/GPa)
#
#
# Indices 1 2 3 4 5 6 
#
# 1 0.013054 -0.008719 -0.005443 0.000000 0.000000 0.000000
# 2 -0.008719 0.023014 -0.001718 0.000000 0.000000 0.000000
# 3 -0.005443 -0.001718 0.023931 0.000000 0.000000 0.000000
# 4 0.000000 0.000000 0.000000 -0.758586 0.000000 0.000000
# 5 0.000000 0.000000 0.000000 0.000000 0.046916 0.000000
# 6 0.000000 0.000000 0.000000 0.000000 0.000000 0.043937
#
#
# Mechanical properties :
#
#
# Convention : Reuss Voigt Hill
#
# Bulk Modulus (GPa) = 35.41265 47.33090 41.37178
# Shear Modulus (GPa) = -8.82517 17.86518 4.52001
#
# Velocity S-wave (km/s) = -2.36739 3.36831 1.69425
# Velocity P-wave (km/s) = 3.87512 6.72201 5.48644
#
# Compressibility (1/GPa) = 0.02823849
#
# Stress axis : x y z
#
# Youngs Moduli (GPa) = 76.60543 43.45162 41.78744
#
# Poissons Ratio (x) = 0.37887 0.22743
# Poissons Ratio (y) = 0.66794 0.07180
# Poissons Ratio (z) = 0.41693 0.07466
#
# Static dielectric constant tensor:
#      x y z
#    x 3.261960 0.000000 0.000000 
#    y 0.000000 3.071930 0.000000 
#    z 0.000000 0.000000 2.846520 
# 
# 
# High freq. dielectric constant tensor:
#      x y z
#    x 1.599910 0.000000 0.000000 
#    y 0.000000 1.576510 0.000000 
#    z 0.000000 0.000000 1.592370 
# 
# From -- ./inp_files/5367.got.cif
#   From: 2010.03.12/outbox.cif.g09.slc.cpg/sg49_3_cif.got.tgz:5367.got - 2010.04.14 03:58:27.
