data_PCOD8202014
_publ_section_title
;
Structure prediction by ZEFSAII (Michael W. Deem and Ramdas Pophale) SiO2 
 PCOD8202014
Probable space group: P N N N
;
_chemical_formula_sum "Si O2"
_cell_formula_units_Z 52
_cell_length_a 13.780242
_cell_length_b 11.983505
_cell_length_c 18.065807
_cell_angle_alpha 90.000000
_cell_angle_beta 90.000000
_cell_angle_gamma 90.000000
_cell_volume 2983.307859
_symmetry_space_group_name_H-M "P N N N"
_symmetry_group_IT_number 48
_space_group.IT_coordinate_system_code '2'
_symmetry_cell_setting 'orthorhombic'
loop_
_space_group_symop_operation_xyz
x,y,z
1/2-x,1/2-y,z
x,1/2-y,1/2-z
1/2-x,y,1/2-z
-x,-y,-z
1/2+x,1/2+y,-z
-x,1/2+y,1/2+z
1/2+x,-y,1/2+z
loop_
_atom_site_type_symbol
_atom_site_label
_atom_site_fract_x
_atom_site_fract_y
_atom_site_fract_z
Si Si1 0.556594 0.608355 0.592022
Si Si2 0.811235 0.051280 0.950776
Si Si3 0.353550 0.200464 0.485977
Si Si4 0.880971 0.416569 0.005557
Si Si5 0.181170 0.969263 0.308760
Si Si6 0.916510 0.250000 0.750000
Si Si7 0.029169 0.725450 0.411933
O O1 0.599742 0.732995 0.584068
O O2 0.598460 0.543557 0.519933
O O3 0.438478 0.609691 0.582571
O O4 0.591458 0.550662 0.668401
O O5 0.744790 0.063729 0.878860
O O6 0.905342 0.126978 0.945735
O O7 0.846766 0.926486 0.961375
O O8 0.736372 0.093887 0.015915
O O9 0.250000 0.250000 0.507874
O O10 0.421056 0.210657 0.557932
O O11 0.922060 0.340423 0.938338
O O12 0.250000 0.034252 0.250000
O O13 0.147965 0.857503 0.267448
O O14 0.980239 0.277163 0.677137
#
# Coordination Sequence:
#
# PCOD8202014 Si02
#       7
#     8   8   8   8   8   4   8
#     4   9  18  33  49  76 103 141 183 216 261 327
#     4  11  20  33  53  81 110 140 180 231 278 321
#     4  11  21  37  54  73 109 149 186 225 268 322
#     4   9  17  30  54  75 101 138 182 222 263 318
#     4  11  20  29  52  79 113 139 166 215 282 332
#     4  12  21  32  51  82 114 140 167 222 283 340
#     4  11  22  33  53  81 111 141 178 230 279 326
#
# _framework density 17.430316000000001
#
# number of rings (size 3 to 8) (size 9 to 14) (size 15 to 20)
#    0.000    1.538    7.692    1.154    0.000    0.000 
#    0.000    1.923    0.000    0.000    0.000    0.000 
#    0.000    0.000    0.000    0.000    0.000    0.000 
#
# Total GULP energy -644381.051622 kJ/mol
# GULP energy per Si atom -12391.943300 kJ/mol
# Density = 1.739064 g / cm^3
# Si number density = 17.430316 Si / 1000 Ang^3
#
#
#
# Elastic Constant Matrix: (Units=GPa)
#
#
# Indices 1 2 3 4 5 6 
#
# 1 95.2914 46.4700 38.6827 0.0000 0.0000 0.0000
# 2 46.4700 93.0594 39.8696 0.0000 0.0000 0.0000
# 3 38.6827 39.8696 75.0977 0.0000 0.0000 0.0000
# 4 0.0000 0.0000 0.0000 17.0459 0.0000 0.0000
# 5 0.0000 0.0000 0.0000 0.0000 33.0513 0.0000
# 6 0.0000 0.0000 0.0000 0.0000 0.0000 19.2644
#
#
#
# Elastic Compliance Matrix: (Units=1/GPa)
#
#
# Indices 1 2 3 4 5 6 
#
# 1 0.015149 -0.005465 -0.004902 0.000000 0.000000 0.000000
# 2 -0.005465 0.015881 -0.005616 0.000000 0.000000 0.000000
# 3 -0.004902 -0.005616 0.018823 0.000000 0.000000 0.000000
# 4 0.000000 0.000000 0.000000 0.058665 0.000000 0.000000
# 5 0.000000 0.000000 0.000000 0.000000 0.030256 0.000000
# 6 0.000000 0.000000 0.000000 0.000000 0.000000 0.051909
#
#
# Mechanical properties :
#
#
# Convention : Reuss Voigt Hill
#
# Bulk Modulus (GPa) = 55.90792 57.05480 56.48136
# Shear Modulus (GPa) = 21.87121 23.10073 22.48597
#
# Velocity S-wave (km/s) = 3.54613 3.64444 3.59562
# Velocity P-wave (km/s) = 6.99367 7.10728 7.05071
#
# Compressibility (1/GPa) = 0.01788655
#
# Stress axis : x y z
#
# Youngs Moduli (GPa) = 66.01123 62.96887 53.12705
#
# Poissons Ratio (x) = 0.34410 0.26043
# Poissons Ratio (y) = 0.36072 0.29838
# Poissons Ratio (z) = 0.32359 0.35366
#
# Static dielectric constant tensor:
#      x y z
#    x 3.639180 0.000000 0.000000 
#    y 0.000000 3.340960 0.000000 
#    z 0.000000 0.000000 3.233650 
# 
# 
# High freq. dielectric constant tensor:
#      x y z
#    x 1.672790 0.000000 0.000000 
#    y 0.000000 1.683420 0.000000 
#    z 0.000000 0.000000 1.628820 
# 
# From -- ./inp_files/31646.got.cif
#   From: 2010.06.25/outbox.cif.g09.slc.cpg/sg48_16_cif.got.tgz:31646.got - 2010.06.26 18:06:46.
