data_PCOD8202777
_publ_section_title
;
Structure prediction by ZEFSAII (Michael W. Deem and Ramdas Pophale) SiO2 
 PCOD8202777
Probable space group: P C C M
;
_chemical_formula_sum "Si O2"
_cell_formula_units_Z 64
_cell_length_a 30.948144
_cell_length_b 14.450321
_cell_length_c 8.921569
_cell_angle_alpha 90.000000
_cell_angle_beta 90.000000
_cell_angle_gamma 90.000000
_cell_volume 3989.820361
_symmetry_space_group_name_H-M "P C C M"
_symmetry_group_IT_number 49
_symmetry_cell_setting 'orthorhombic'
loop_
_space_group_symop_operation_xyz
x,y,z
-x,-y,z
x,-y,1/2-z
-x,y,1/2-z
-x,-y,-z
x,y,-z
-x,y,1/2+z
x,-y,1/2+z
loop_
_atom_site_type_symbol
_atom_site_label
_atom_site_fract_x
_atom_site_fract_y
_atom_site_fract_z
Si Si1 0.954101 0.596129 0.321317
Si Si2 0.117447 0.286905 0.174991
Si Si3 0.748501 0.093078 0.322868
Si Si4 0.364415 0.400885 0.175276
Si Si5 0.540642 0.400245 0.325044
Si Si6 0.716347 0.712910 0.821673
Si Si7 0.847034 0.908302 0.175113
Si Si8 0.797671 0.401566 0.324324
O O1 0.937214 0.500000 0.250000
O O2 0.958057 0.586248 0.500000
O O3 0.920965 0.676564 0.278689
O O4 0.000000 0.622272 0.250000
O O5 0.123844 0.179621 0.217998
O O6 0.161066 0.340246 0.215938
O O7 0.105812 0.299373 0.000000
O O8 0.745220 0.083485 0.500000
O O9 0.721357 0.181636 0.263935
O O10 0.797919 0.107919 0.269849
O O11 0.728995 0.000000 0.250000
O O12 0.357743 0.500000 0.250000
O O13 0.412024 0.356338 0.206941
O O14 0.328993 0.328656 0.237382
O O15 0.357900 0.417723 0.000000
O O16 0.541858 0.500000 0.250000
O O17 0.500000 0.344349 0.250000
O O18 0.531585 0.409091 0.500000
O O19 0.755329 0.649706 0.759338
O O20 0.718678 0.713691 0.000000
O O21 0.867130 0.000000 0.250000
O O22 0.847107 0.924476 0.000000
O O23 0.803278 0.500000 0.250000
O O24 0.793153 0.416406 0.500000
#
# Coordination Sequence:
#
# PCOD8202777 Si02
#       8
#     8   8   8   8   8   8   8   8
#     4  11  22  37  56  77 100 127 157 191 230 271
#     4  10  19  33  51  72  98 126 156 189 227 270
#     4   9  16  29  47  65  86 116 150 186 225 263
#     4   9  17  27  40  58  82 115 152 184 217 263
#     4   9  15  23  36  54  75 103 141 183 223 260
#     4   9  16  29  45  60  85 121 152 178 217 267
#     4   9  17  30  49  71  95 123 154 190 229 269
#     4  10  19  30  44  63  90 123 155 183 215 256
#
# _framework density 16.040821999999999
#
# number of rings (size 3 to 8) (size 9 to 14) (size 15 to 20)
#    0.000    2.500    1.250    3.000    0.000    2.500 
#    0.000    1.250    0.000    0.375    0.000    2.625 
#    0.000    0.500    0.000    6.250    0.000    0.000 
#
# Total GULP energy -793294.749482 kJ/mol
# GULP energy per Si atom -12395.230461 kJ/mol
# Density = 1.600431 g / cm^3
# Si number density = 16.040822 Si / 1000 Ang^3
#
#
#
# Elastic Constant Matrix: (Units=GPa)
#
#
# Indices 1 2 3 4 5 6 
#
# 1 107.7643 59.5969 42.4173 0.0000 0.0000 0.0000
# 2 59.5969 116.7920 40.2005 0.0000 0.0000 0.0000
# 3 42.4173 40.2005 53.9113 0.0000 0.0000 0.0000
# 4 0.0000 0.0000 0.0000 23.4233 0.0000 0.0000
# 5 0.0000 0.0000 0.0000 0.0000 45.6457 0.0000
# 6 0.0000 0.0000 0.0000 0.0000 0.0000 12.6420
#
#
#
# Elastic Compliance Matrix: (Units=1/GPa)
#
#
# Indices 1 2 3 4 5 6 
#
# 1 0.015295 -0.004927 -0.008360 0.000000 0.000000 0.000000
# 2 -0.004927 0.013106 -0.005896 0.000000 0.000000 0.000000
# 3 -0.008360 -0.005896 0.029523 0.000000 0.000000 0.000000
# 4 0.000000 0.000000 0.000000 0.042693 0.000000 0.000000
# 5 0.000000 0.000000 0.000000 0.000000 0.021908 0.000000
# 6 0.000000 0.000000 0.000000 0.000000 0.000000 0.079101
#
#
# Mechanical properties :
#
#
# Convention : Reuss Voigt Hill
#
# Bulk Modulus (GPa) = 51.13104 62.54410 56.83757
# Shear Modulus (GPa) = 20.28300 25.42573 22.85436
#
# Velocity S-wave (km/s) = 3.55978 3.98561 3.77870
# Velocity P-wave (km/s) = 6.98862 7.76243 7.38567
#
# Compressibility (1/GPa) = 0.01955759
#
# Stress axis : x y z
#
# Youngs Moduli (GPa) = 65.38087 76.30112 33.87166
#
# Poissons Ratio (x) = 0.37595 0.28317
# Poissons Ratio (y) = 0.32215 0.19971
# Poissons Ratio (z) = 0.54658 0.44988
#
# Static dielectric constant tensor:
#      x y z
#    x 3.472710 0.000000 0.000000 
#    y 0.000000 3.128770 0.000000 
#    z 0.000000 0.000000 2.938480 
# 
# 
# High freq. dielectric constant tensor:
#      x y z
#    x 1.610950 0.000000 0.000000 
#    y 0.000000 1.596190 0.000000 
#    z 0.000000 0.000000 1.607500 
# 
# From -- ./inp_files/7049.got.cif
#   From: 2010.03.12/outbox.cif.g09.slc.cpg/sg49_4_cif.got.tgz:7049.got - 2010.04.14 03:58:27.
