data_PCOD8202733
_publ_section_title
;
Structure prediction by ZEFSAII (Michael W. Deem and Ramdas Pophale) SiO2 
 PCOD8202733
Probable space group: P C C M
;
_chemical_formula_sum "Si O2"
_cell_formula_units_Z 56
_cell_length_a 23.037400
_cell_length_b 17.296213
_cell_length_c 8.945596
_cell_angle_alpha 90.000000
_cell_angle_beta 90.000000
_cell_angle_gamma 90.000000
_cell_volume 3564.460191
_symmetry_space_group_name_H-M "P C C M"
_symmetry_group_IT_number 49
_symmetry_cell_setting 'orthorhombic'
loop_
_space_group_symop_operation_xyz
x,y,z
-x,-y,z
x,-y,1/2-z
-x,y,1/2-z
-x,-y,-z
x,y,-z
-x,y,1/2+z
x,-y,1/2+z
loop_
_atom_site_type_symbol
_atom_site_label
_atom_site_fract_x
_atom_site_fract_y
_atom_site_fract_z
Si Si1 0.316794 0.915961 0.674272
Si Si2 0.940073 0.584000 0.680198
Si Si3 0.131601 0.070845 0.336554
Si Si4 0.147692 0.303660 0.167947
Si Si5 0.946372 0.172580 0.663637
Si Si6 0.771089 0.197198 0.832751
Si Si7 0.446337 0.917693 0.327649
O O1 0.301313 0.926593 0.500000
O O2 0.278573 0.848059 0.744089
O O3 0.382230 0.882502 0.695349
O O4 0.307225 0.000000 0.750000
O O5 0.930855 0.500000 0.750000
O O6 0.944719 0.581433 0.500000
O O7 0.883824 0.632900 0.728869
O O8 0.000000 0.618816 0.750000
O O9 0.113899 0.041734 0.500000
O O10 0.073454 0.095432 0.249694
O O11 0.174437 0.141859 0.347494
O O12 0.162259 0.000000 0.250000
O O13 0.106017 0.231280 0.153281
O O14 0.207945 0.274870 0.245286
O O15 0.160854 0.335815 0.000000
O O16 0.967812 0.148711 0.500000
O O17 0.000000 0.211784 0.750000
O O18 0.749332 0.219592 0.000000
O O19 0.500000 0.869886 0.250000
O O20 0.461584 0.926647 0.500000
O O21 0.444327 0.000000 0.250000
#
# Coordination Sequence:
#
# PCOD8202733 Si02
#       7
#     8   8   8   8   8   8   8
#     4  10  19  29  42  61  84 112 147 188 228 266
#     4  11  21  34  52  74  97 118 142 171 207 252
#     4  10  20  32  44  57  74  95 125 164 205 246
#     4  10  20  34  50  67  88 112 136 167 206 249
#     4  10  20  32  46  61  77  98 125 157 197 243
#     4  10  20  32  46  63  82 108 140 174 212 255
#     4   9  16  25  38  56  79 107 140 179 224 267
#
# _framework density 15.710654
#
# number of rings (size 3 to 8) (size 9 to 14) (size 15 to 20)
#    0.000    2.000    0.000    5.571    0.000    7.714 
#    0.000    1.429    0.000    0.000    0.000    0.000 
#    0.000    0.000    0.000    0.000    0.000    0.714 
#
# Total GULP energy -693918.855080 kJ/mol
# GULP energy per Si atom -12391.408126 kJ/mol
# Density = 1.567490 g / cm^3
# Si number density = 15.710654 Si / 1000 Ang^3
#
#
#
# Elastic Constant Matrix: (Units=GPa)
#
#
# Indices 1 2 3 4 5 6 
#
# 1 84.3041 23.4131 52.7213 0.0000 0.0000 0.0000
# 2 23.4131 43.5196 32.8785 0.0000 0.0000 0.0000
# 3 52.7213 32.8785 159.3470 0.0000 0.0000 0.0000
# 4 0.0000 0.0000 0.0000 19.8375 0.0000 0.0000
# 5 0.0000 0.0000 0.0000 0.0000 27.8974 0.0000
# 6 0.0000 0.0000 0.0000 0.0000 0.0000 7.8995
#
#
#
# Elastic Compliance Matrix: (Units=1/GPa)
#
#
# Indices 1 2 3 4 5 6 
#
# 1 0.015979 -0.005452 -0.004162 0.000000 0.000000 0.000000
# 2 -0.005452 0.029082 -0.004197 0.000000 0.000000 0.000000
# 3 -0.004162 -0.004197 0.008518 0.000000 0.000000 0.000000
# 4 0.000000 0.000000 0.000000 0.050410 0.000000 0.000000
# 5 0.000000 0.000000 0.000000 0.000000 0.035846 0.000000
# 6 0.000000 0.000000 0.000000 0.000000 0.000000 0.126590
#
#
# Mechanical properties :
#
#
# Convention : Reuss Voigt Hill
#
# Bulk Modulus (GPa) = 38.52398 56.13293 47.32845
# Shear Modulus (GPa) = 16.51812 23.00407 19.76110
#
# Velocity S-wave (km/s) = 3.24604 3.83068 3.55042
# Velocity P-wave (km/s) = 6.21476 7.44126 6.85549
#
# Compressibility (1/GPa) = 0.02595786
#
# Stress axis : x y z
#
# Youngs Moduli (GPa) = 62.58363 34.38569 117.39227
#
# Poissons Ratio (x) = 0.18748 0.48855
# Poissons Ratio (y) = 0.34122 0.49265
# Poissons Ratio (z) = 0.26045 0.14430
#
# Static dielectric constant tensor:
#      x y z
#    x 3.517970 0.000000 0.000000 
#    y 0.000000 2.656480 0.000000 
#    z 0.000000 0.000000 3.476640 
# 
# 
# High freq. dielectric constant tensor:
#      x y z
#    x 1.583750 0.000000 0.000000 
#    y 0.000000 1.551420 0.000000 
#    z 0.000000 0.000000 1.633610 
# 
# From -- ./inp_files/5364.got.cif
#   From: 2010.03.12/outbox.cif.g09.slc.cpg/sg49_3_cif.got.tgz:5364.got - 2010.04.14 03:58:27.
