data_PCOD8202769
_publ_section_title
;
Structure prediction by ZEFSAII (Michael W. Deem and Ramdas Pophale) SiO2 
 PCOD8202769
Probable space group: P C C M
;
_chemical_formula_sum "Si O2"
_cell_formula_units_Z 56
_cell_length_a 18.147815
_cell_length_b 21.565021
_cell_length_c 8.816724
_cell_angle_alpha 90.000000
_cell_angle_beta 90.000000
_cell_angle_gamma 90.000000
_cell_volume 3450.495573
_symmetry_space_group_name_H-M "P C C M"
_symmetry_group_IT_number 49
_symmetry_cell_setting 'orthorhombic'
loop_
_space_group_symop_operation_xyz
x,y,z
-x,-y,z
x,-y,1/2-z
-x,y,1/2-z
-x,-y,-z
x,y,-z
-x,y,1/2+z
x,-y,1/2+z
loop_
_atom_site_type_symbol
_atom_site_label
_atom_site_fract_x
_atom_site_fract_y
_atom_site_fract_z
Si Si1 0.158261 0.312498 0.177875
Si Si2 0.656691 0.064974 0.319664
Si Si3 0.798835 0.130016 0.333128
Si Si4 0.699432 0.749179 0.832997
Si Si5 0.422454 0.818399 0.178546
Si Si6 0.077994 0.198025 0.322288
Si Si7 0.078656 0.436585 0.821164
O O1 0.245021 0.305397 0.222717
O O2 0.106894 0.264307 0.265984
O O3 0.135036 0.381955 0.221011
O O4 0.147368 0.298771 0.000000
O O5 0.646373 0.065365 0.500000
O O6 0.742753 0.076579 0.275081
O O7 0.604386 0.117392 0.250615
O O8 0.631221 0.000000 0.250000
O O9 0.830432 0.113389 0.500000
O O10 0.750298 0.191081 0.345720
O O11 0.866429 0.141654 0.219367
O O12 0.633402 0.761655 0.715768
O O13 0.666308 0.734119 0.000000
O O14 0.500000 0.799814 0.250000
O O15 0.429176 0.826421 0.000000
O O16 0.068714 0.201107 0.500000
O O17 0.000000 0.182223 0.250000
O O18 0.110343 0.500000 0.750000
O O19 0.000000 0.420042 0.750000
O O20 0.069201 0.444794 0.000000
#
# Coordination Sequence:
#
# PCOD8202769 Si02
#       7
#     8   8   8   8   8   8   8
#     4   9  18  31  46  64  89 119 152 188 227 268
#     4  10  20  34  51  70  91 117 148 181 215 258
#     4   8  16  31  47  63  87 114 141 177 222 266
#     4   8  15  30  48  66  89 116 145 181 223 266
#     4  11  21  33  49  70  96 123 149 178 216 262
#     4  11  20  28  43  65  88 113 145 185 229 271
#     4  10  19  30  43  61  88 125 162 196 231 266
#
# _framework density 16.229554
#
# number of rings (size 3 to 8) (size 9 to 14) (size 15 to 20)
#    0.000    2.429    0.000    6.000    0.000    8.286 
#    0.000    1.429    0.000    0.429    0.000    3.000 
#    0.000    0.571    0.000    6.571    0.000    2.000 
#
# Total GULP energy -694152.565164 kJ/mol
# GULP energy per Si atom -12395.581521 kJ/mol
# Density = 1.619261 g / cm^3
# Si number density = 16.229554 Si / 1000 Ang^3
#
#
#
# Elastic Constant Matrix: (Units=GPa)
#
#
# Indices 1 2 3 4 5 6 
#
# 1 103.1579 37.9183 49.1887 0.0000 0.0000 0.0000
# 2 37.9183 58.3696 24.1062 0.0000 0.0000 0.0000
# 3 49.1887 24.1062 100.1915 0.0000 0.0000 0.0000
# 4 0.0000 0.0000 0.0000 1.6287 0.0000 0.0000
# 5 0.0000 0.0000 0.0000 0.0000 26.1928 0.0000
# 6 0.0000 0.0000 0.0000 0.0000 0.0000 20.9235
#
#
#
# Elastic Compliance Matrix: (Units=1/GPa)
#
#
# Indices 1 2 3 4 5 6 
#
# 1 0.015136 -0.007510 -0.005624 0.000000 0.000000 0.000000
# 2 -0.007510 0.022749 -0.001786 0.000000 0.000000 0.000000
# 3 -0.005624 -0.001786 0.013172 0.000000 0.000000 0.000000
# 4 0.000000 0.000000 0.000000 0.613995 0.000000 0.000000
# 5 0.000000 0.000000 0.000000 0.000000 0.038178 0.000000
# 6 0.000000 0.000000 0.000000 0.000000 0.000000 0.047793
#
#
# Mechanical properties :
#
#
# Convention : Reuss Voigt Hill
#
# Bulk Modulus (GPa) = 47.13509 53.79395 50.46452
# Shear Modulus (GPa) = 6.34569 19.78270 13.06419
#
# Velocity S-wave (km/s) = 1.97951 3.49511 2.84027
# Velocity P-wave (km/s) = 5.85921 7.03600 6.47440
#
# Compressibility (1/GPa) = 0.02121562
#
# Stress axis : x y z
#
# Youngs Moduli (GPa) = 66.06699 43.95862 75.91966
#
# Poissons Ratio (x) = 0.33013 0.42698
# Poissons Ratio (y) = 0.49617 0.13562
# Poissons Ratio (z) = 0.37157 0.07852
#
# Static dielectric constant tensor:
#      x y z
#    x 3.223320 0.000000 0.000000 
#    y 0.000000 3.114590 0.000000 
#    z 0.000000 0.000000 3.120290 
# 
# 
# High freq. dielectric constant tensor:
#      x y z
#    x 1.614720 0.000000 0.000000 
#    y 0.000000 1.591060 0.000000 
#    z 0.000000 0.000000 1.633170 
# 
# From -- ./inp_files/5349.got.cif
#   From: 2010.03.12/outbox.cif.g09.slc.cpg/sg49_3_cif.got.tgz:5349.got - 2010.04.14 03:58:27.
