data_PCOD8202899
_publ_section_title
;
Structure prediction by ZEFSAII (Michael W. Deem and Ramdas Pophale) SiO2 
 PCOD8202899
Probable space group: P C C M
;
_chemical_formula_sum "Si O2"
_cell_formula_units_Z 40
_cell_length_a 5.174719
_cell_length_b 20.167113
_cell_length_c 18.818972
_cell_angle_alpha 90.000000
_cell_angle_beta 90.000000
_cell_angle_gamma 90.000000
_cell_volume 1963.931787
_symmetry_space_group_name_H-M "P C C M"
_symmetry_group_IT_number 49
_symmetry_cell_setting 'orthorhombic'
loop_
_space_group_symop_operation_xyz
x,y,z
-x,-y,z
x,-y,1/2-z
-x,y,1/2-z
-x,-y,-z
x,y,-z
-x,y,1/2+z
x,-y,1/2+z
loop_
_atom_site_type_symbol
_atom_site_label
_atom_site_fract_x
_atom_site_fract_y
_atom_site_fract_z
Si Si1 0.004449 0.652423 0.665769
Si Si2 0.497844 0.574277 0.334417
Si Si3 0.395150 0.131813 0.578810
Si Si4 0.745830 0.073887 0.781236
Si Si5 0.109912 0.782496 0.420732
O O1 0.736135 0.619956 0.638409
O O2 0.000000 0.661354 0.750000
O O3 0.230003 0.604372 0.639094
O O4 0.075122 0.723018 0.633443
O O5 0.500000 0.500000 0.366208
O O6 0.500000 0.570928 0.250000
O O7 0.431095 0.100029 0.500000
O O8 0.294922 0.074757 0.633533
O O9 0.663052 0.166617 0.603767
O O10 0.169152 0.184739 0.577565
O O11 0.500000 0.113233 0.750000
O O12 0.000000 0.110684 0.750000
O O13 0.750098 0.000000 0.750000
O O14 0.181523 0.756955 0.500000
#
# Coordination Sequence:
#
# PCOD8202899 Si02
#       5
#     8   8   8   8   8
#     4  10  19  31  50  77 103 134 179 226 275 326
#     4   9  17  30  49  73 103 138 178 224 272 326
#     4  10  21  38  58  80 109 149 189 220 269 341
#     4  10  21  38  58  85 115 143 178 226 279 323
#     4  10  21  36  55  79 109 145 182 226 276 326
#
# _framework density 20.367305999999999
#
# number of rings (size 3 to 8) (size 9 to 14) (size 15 to 20)
#    0.000    2.200    0.000    3.000    0.000    4.800 
#    0.000    4.000    0.000    3.600    0.000    0.000 
#    0.000    0.000    0.000    0.000    0.000    0.000 
#
# Total GULP energy -495545.910313 kJ/mol
# GULP energy per Si atom -12388.647758 kJ/mol
# Density = 2.032095 g / cm^3
# Si number density = 20.367306 Si / 1000 Ang^3
#
#
#
# Elastic Constant Matrix: (Units=GPa)
#
#
# Indices 1 2 3 4 5 6 
#
# 1 149.8102 20.0872 31.7807 0.0000 0.0000 0.0000
# 2 20.0872 75.7750 46.7724 0.0000 0.0000 0.0000
# 3 31.7807 46.7724 94.0129 0.0000 0.0000 0.0000
# 4 0.0000 0.0000 0.0000 10.3515 0.0000 0.0000
# 5 0.0000 0.0000 0.0000 0.0000 25.9457 0.0000
# 6 0.0000 0.0000 0.0000 0.0000 0.0000 19.3483
#
#
#
# Elastic Compliance Matrix: (Units=1/GPa)
#
#
# Indices 1 2 3 4 5 6 
#
# 1 0.007209 -0.000587 -0.002145 0.000000 0.000000 0.000000
# 2 -0.000587 0.019094 -0.009301 0.000000 0.000000 0.000000
# 3 -0.002145 -0.009301 0.015989 0.000000 0.000000 0.000000
# 4 0.000000 0.000000 0.000000 0.096604 0.000000 0.000000
# 5 0.000000 0.000000 0.000000 0.000000 0.038542 0.000000
# 6 0.000000 0.000000 0.000000 0.000000 0.000000 0.051684
#
#
# Mechanical properties :
#
#
# Convention : Reuss Voigt Hill
#
# Bulk Modulus (GPa) = 54.86635 57.43097 56.14866
# Shear Modulus (GPa) = 19.28549 25.85963 22.57256
#
# Velocity S-wave (km/s) = 3.08049 3.56710 3.33269
# Velocity P-wave (km/s) = 6.29678 6.72491 6.51437
#
# Compressibility (1/GPa) = 0.01822611
#
# Stress axis : x y z
#
# Youngs Moduli (GPa) = 138.71857 52.37376 62.54255
#
# Poissons Ratio (x) = 0.03075 0.13414
# Poissons Ratio (y) = 0.08144 0.58169
# Poissons Ratio (z) = 0.29753 0.48712
#
# Static dielectric constant tensor:
#      x y z
#    x 7.479520 0.000000 0.000000 
#    y 0.000000 3.934310 0.000000 
#    z 0.000000 0.000000 3.799040 
# 
# 
# High freq. dielectric constant tensor:
#      x y z
#    x 1.830200 0.000000 0.000000 
#    y 0.000000 1.768780 0.000000 
#    z 0.000000 0.000000 1.773710 
# 
# From -- ./inp_files/15277.got.cif
#   From: 2010.03.12/outbox.cif.g09.slc.cpg/sg49_8_cif.got.tgz:15277.got - 2010.04.14 03:58:27.
