data_PCOD8202540
_publ_section_title
;
Structure prediction by ZEFSAII (Michael W. Deem and Ramdas Pophale) SiO2 
 PCOD8202540
Probable space group: P C C M
;
_chemical_formula_sum "Si O2"
_cell_formula_units_Z 64
_cell_length_a 18.847234
_cell_length_b 22.073490
_cell_length_c 8.610967
_cell_angle_alpha 90.000000
_cell_angle_beta 90.000000
_cell_angle_gamma 90.000000
_cell_volume 3582.370926
_symmetry_space_group_name_H-M "P C C M"
_symmetry_group_IT_number 49
_symmetry_cell_setting 'orthorhombic'
loop_
_space_group_symop_operation_xyz
x,y,z
-x,-y,z
x,-y,1/2-z
-x,y,1/2-z
-x,-y,-z
x,y,-z
-x,y,1/2+z
x,-y,1/2+z
loop_
_atom_site_type_symbol
_atom_site_label
_atom_site_fract_x
_atom_site_fract_y
_atom_site_fract_z
Si Si1 0.928364 0.392645 0.326665
Si Si2 0.641715 0.436909 0.316520
Si Si3 0.077004 0.934598 0.813973
Si Si4 0.930015 0.249682 0.673713
Si Si5 0.283795 0.260521 0.315659
Si Si6 0.177443 0.169683 0.320894
Si Si7 0.574188 0.318646 0.816216
Si Si8 0.220011 0.385894 0.683378
O O1 0.921014 0.419353 0.500000
O O2 0.935636 0.321064 0.332779
O O3 0.858298 0.409157 0.229107
O O4 0.000000 0.420238 0.250000
O O5 0.612222 0.500000 0.250000
O O6 0.636569 0.436394 0.500000
O O7 0.591491 0.384521 0.250039
O O8 0.723087 0.429597 0.263495
O O9 0.138372 0.888995 0.746787
O O10 0.000000 0.914810 0.750000
O O11 0.098550 0.000000 0.750000
O O12 0.073718 0.935161 0.000000
O O13 0.918906 0.223154 0.500000
O O14 0.868976 0.229409 0.790893
O O15 0.000000 0.221210 0.750000
O O16 0.278099 0.259807 0.500000
O O17 0.253848 0.194498 0.254470
O O18 0.365071 0.270618 0.262674
O O19 0.236008 0.317367 0.255993
O O20 0.184785 0.154573 0.500000
O O21 0.500000 0.294390 0.750000
O O22 0.570831 0.323297 0.000000
O O23 0.229939 0.390734 0.500000
#
# Coordination Sequence:
#
# PCOD8202540 Si02
#       8
#     8   8   8   8   8   8   8   8
#     4  10  19  29  42  64  92 124 160 199 245 295
#     4  11  22  37  56  79 104 131 168 207 241 289
#     4  10  20  32  47  63  90 129 176 218 260 299
#     4  10  19  27  38  60  89 121 155 196 241 288
#     4   8  16  30  49  71  97 125 158 193 239 296
#     4  10  18  30  47  67  90 124 163 207 250 296
#     4  10  20  36  56  80 107 138 164 193 238 291
#     4  10  18  32  52  71  97 130 160 202 253 301
#
# _framework density 17.865262999999999
#
# number of rings (size 3 to 8) (size 9 to 14) (size 15 to 20)
#    0.000    2.125    1.250    4.500    0.000    3.250 
#    0.000    1.875    0.000    0.375    0.000    2.625 
#    0.000    0.500    0.000    6.250    0.000    0.000 
#
# Total GULP energy -792961.182575 kJ/mol
# GULP energy per Si atom -12390.018478 kJ/mol
# Density = 1.782460 g / cm^3
# Si number density = 17.865263 Si / 1000 Ang^3
#
#
#
# Elastic Constant Matrix: (Units=GPa)
#
#
# Indices 1 2 3 4 5 6 
#
# 1 121.7915 39.4798 21.6414 0.0000 0.0000 0.0000
# 2 39.4798 74.1370 20.5450 0.0000 0.0000 0.0000
# 3 21.6414 20.5450 65.9308 0.0000 0.0000 0.0000
# 4 0.0000 0.0000 0.0000 13.8394 0.0000 0.0000
# 5 0.0000 0.0000 0.0000 0.0000 26.8549 0.0000
# 6 0.0000 0.0000 0.0000 0.0000 0.0000 22.6390
#
#
#
# Elastic Compliance Matrix: (Units=1/GPa)
#
#
# Indices 1 2 3 4 5 6 
#
# 1 0.010115 -0.004888 -0.001797 0.000000 0.000000 0.000000
# 2 -0.004888 0.017126 -0.003732 0.000000 0.000000 0.000000
# 3 -0.001797 -0.003732 0.016920 0.000000 0.000000 0.000000
# 4 0.000000 0.000000 0.000000 0.072257 0.000000 0.000000
# 5 0.000000 0.000000 0.000000 0.000000 0.037237 0.000000
# 6 0.000000 0.000000 0.000000 0.000000 0.000000 0.044172
#
#
# Mechanical properties :
#
#
# Convention : Reuss Voigt Hill
#
# Bulk Modulus (GPa) = 42.87016 47.24352 45.05684
# Shear Modulus (GPa) = 22.08122 24.67953 23.38038
#
# Velocity S-wave (km/s) = 3.51947 3.72079 3.62153
# Velocity P-wave (km/s) = 6.36899 6.70528 6.53930
#
# Compressibility (1/GPa) = 0.02332625
#
# Stress axis : x y z
#
# Youngs Moduli (GPa) = 98.86668 58.39091 59.10101
#
# Poissons Ratio (x) = 0.28544 0.10619
# Poissons Ratio (y) = 0.48330 0.22057
# Poissons Ratio (z) = 0.17764 0.21792
#
# Static dielectric constant tensor:
#      x y z
#    x 3.612850 0.000000 0.000000 
#    y 0.000000 3.237700 0.000000 
#    z 0.000000 0.000000 3.331180 
# 
# 
# High freq. dielectric constant tensor:
#      x y z
#    x 1.682260 0.000000 0.000000 
#    y 0.000000 1.655740 0.000000 
#    z 0.000000 0.000000 1.691170 
# 
# From -- ./inp_files/5425.got.cif
#   From: 2010.03.12/outbox.cif.g09.slc.cpg/sg49_3_cif.got.tgz:5425.got - 2010.04.14 03:58:27.
