data_PCOD8202703
_publ_section_title
;
Structure prediction by ZEFSAII (Michael W. Deem and Ramdas Pophale) SiO2 
 PCOD8202703
Probable space group: P C C M
;
_chemical_formula_sum "Si O2"
_cell_formula_units_Z 64
_cell_length_a 13.116601
_cell_length_b 9.837729
_cell_length_c 26.806870
_cell_angle_alpha 90.000000
_cell_angle_beta 90.000000
_cell_angle_gamma 90.000000
_cell_volume 3459.093258
_symmetry_space_group_name_H-M "P C C M"
_symmetry_group_IT_number 49
_symmetry_cell_setting 'orthorhombic'
loop_
_space_group_symop_operation_xyz
x,y,z
-x,-y,z
x,-y,1/2-z
-x,y,1/2-z
-x,-y,-z
x,y,-z
-x,y,1/2+z
x,-y,1/2+z
loop_
_atom_site_type_symbol
_atom_site_label
_atom_site_fract_x
_atom_site_fract_y
_atom_site_fract_z
Si Si1 0.886003 0.152331 0.360512
Si Si2 0.314279 0.693645 0.878786
Si Si3 0.613283 0.351033 0.768745
Si Si4 0.606288 0.935984 0.557171
Si Si5 0.789390 0.154324 0.256063
Si Si6 0.114165 0.163708 0.652819
Si Si7 0.386384 0.465544 0.057497
Si Si8 0.733261 0.799525 0.056571
O O1 0.842274 0.194449 0.307289
O O2 0.825799 0.225466 0.405339
O O3 0.001098 0.209417 0.362830
O O4 0.874914 0.990602 0.365703
O O5 0.375381 0.660217 0.828270
O O6 0.376539 0.809315 0.907244
O O7 0.197871 0.740923 0.872713
O O8 0.307976 0.557785 0.911567
O O9 0.645142 0.500000 0.750000
O O10 0.500000 0.315666 0.750000
O O11 0.688491 0.243261 0.744686
O O12 0.603331 0.884703 0.500000
O O13 0.500000 0.000000 0.573147
O O14 0.692451 0.049090 0.565022
O O15 0.871405 0.180089 0.212273
O O16 0.751663 0.000000 0.250000
O O17 0.500000 0.500000 0.076818
O O18 0.357910 0.307988 0.066625
O O19 0.376105 0.505846 0.000000
O O20 0.774059 0.781799 0.000000
#
# Coordination Sequence:
#
# PCOD8202703 Si02
#       8
#     8   8   8   8   8   8   8   8
#     4  10  18  35  63  79 115 149 187 233 298 333
#     4  11  21  38  60  83 117 151 196 233 285 341
#     4  10  24  40  53  81 120 157 189 223 281 349
#     4  10  20  36  58  87 119 148 188 243 290 337
#     4   9  19  35  60  86 109 141 191 243 278 328
#     4   9  19  36  55  91 109 144 191 240 282 344
#     4  10  22  38  59  85 112 153 196 231 280 345
#     4  10  21  36  55  86 118 147 190 235 288 350
#
# _framework density 18.50196
#
# number of rings (size 3 to 8) (size 9 to 14) (size 15 to 20)
#    0.000    2.125    1.250    1.500    3.500    4.750 
#    0.000    3.125    0.000    2.250    0.000    0.000 
#    0.000    0.000    0.000    0.000    0.000    0.000 
#
# Total GULP energy -793556.028809 kJ/mol
# GULP energy per Si atom -12399.312950 kJ/mol
# Density = 1.845985 g / cm^3
# Si number density = 18.501960 Si / 1000 Ang^3
#
#
#
# Elastic Constant Matrix: (Units=GPa)
#
#
# Indices 1 2 3 4 5 6 
#
# 1 111.8736 27.7805 54.9611 0.0000 0.0000 0.0000
# 2 27.7805 66.6776 38.8583 0.0000 0.0000 0.0000
# 3 54.9611 38.8583 101.3841 0.0000 0.0000 0.0000
# 4 0.0000 0.0000 0.0000 31.7672 0.0000 0.0000
# 5 0.0000 0.0000 0.0000 0.0000 25.5114 0.0000
# 6 0.0000 0.0000 0.0000 0.0000 0.0000 22.5471
#
#
#
# Elastic Compliance Matrix: (Units=1/GPa)
#
#
# Indices 1 2 3 4 5 6 
#
# 1 0.012314 -0.001597 -0.006064 0.000000 0.000000 0.000000
# 2 -0.001597 0.019518 -0.006615 0.000000 0.000000 0.000000
# 3 -0.006064 -0.006615 0.015686 0.000000 0.000000 0.000000
# 4 0.000000 0.000000 0.000000 0.031479 0.000000 0.000000
# 5 0.000000 0.000000 0.000000 0.000000 0.039198 0.000000
# 6 0.000000 0.000000 0.000000 0.000000 0.000000 0.044352
#
#
# Mechanical properties :
#
#
# Convention : Reuss Voigt Hill
#
# Bulk Modulus (GPa) = 52.72301 58.12611 55.42456
# Shear Modulus (GPa) = 25.32667 26.52083 25.92375
#
# Velocity S-wave (km/s) = 3.70383 3.79014 3.74724
# Velocity P-wave (km/s) = 6.84463 7.11604 6.98165
#
# Compressibility (1/GPa) = 0.01896705
#
# Stress axis : x y z
#
# Youngs Moduli (GPa) = 81.20795 51.23473 63.75109
#
# Poissons Ratio (x) = 0.08181 0.38656
# Poissons Ratio (y) = 0.12967 0.42172
# Poissons Ratio (z) = 0.49241 0.33893
#
# Static dielectric constant tensor:
#      x y z
#    x 3.360700 0.000000 0.000000 
#    y 0.000000 3.375080 0.000000 
#    z 0.000000 0.000000 3.505130 
# 
# 
# High freq. dielectric constant tensor:
#      x y z
#    x 1.711340 0.000000 0.000000 
#    y 0.000000 1.711600 0.000000 
#    z 0.000000 0.000000 1.724700 
# 
# From -- ./inp_files/26677.got.cif
#   From: 2010.03.12/outbox.cif.g09.slc.cpg/sg49_14_cif.got.tgz:26677.got - 2010.04.14 03:58:27.
