data_PCOD8202058
_publ_section_title
;
Structure prediction by ZEFSAII (Michael W. Deem and Ramdas Pophale) SiO2 
 PCOD8202058
Probable space group: P N N N
;
_chemical_formula_sum "Si O2"
_cell_formula_units_Z 64
_cell_length_a 26.876598
_cell_length_b 12.400978
_cell_length_c 9.158030
_cell_angle_alpha 90.000000
_cell_angle_beta 90.000000
_cell_angle_gamma 90.000000
_cell_volume 3052.335687
_symmetry_space_group_name_H-M "P N N N"
_symmetry_group_IT_number 48
_space_group.IT_coordinate_system_code '2'
_symmetry_cell_setting 'orthorhombic'
loop_
_space_group_symop_operation_xyz
x,y,z
1/2-x,1/2-y,z
x,1/2-y,1/2-z
1/2-x,y,1/2-z
-x,-y,-z
1/2+x,1/2+y,-z
-x,1/2+y,1/2+z
1/2+x,-y,1/2+z
loop_
_atom_site_type_symbol
_atom_site_label
_atom_site_fract_x
_atom_site_fract_y
_atom_site_fract_z
Si Si1 0.972795 0.170402 0.128935
Si Si2 0.802680 0.362351 0.180122
Si Si3 0.077263 0.354972 0.936181
Si Si4 0.030987 0.681359 0.115663
Si Si5 0.198648 0.859014 0.328028
Si Si6 0.392104 0.000904 0.176789
Si Si7 0.892787 0.497459 0.298016
Si Si8 0.420257 0.124711 0.444863
O O1 0.996060 0.250000 0.250000
O O2 0.019522 0.112448 0.048878
O O3 0.936244 0.091347 0.216797
O O4 0.942936 0.240358 0.005295
O O5 0.820906 0.250000 0.250000
O O6 0.750000 0.395867 0.250000
O O7 0.841662 0.453553 0.230167
O O8 0.797403 0.348112 0.004523
O O9 0.091327 0.385991 0.770329
O O10 0.018003 0.368754 0.960773
O O11 0.106081 0.452052 0.015330
O O12 0.097179 0.240463 0.993825
O O13 0.009707 0.750000 0.250000
O O14 0.068216 0.595395 0.183786
O O15 0.178857 0.750000 0.250000
O O16 0.250000 0.890111 0.250000
O O17 0.161952 0.955318 0.288051
O O18 0.404085 0.102834 0.279220
O O19 0.891748 0.528640 0.468822
#
# Coordination Sequence:
#
# PCOD8202058 Si02
#       8
#     8   8   8   8   8   8   8   8
#     4  11  22  38  59  94 135 174 213 268 319 385
#     4  11  25  44  71 101 131 160 200 264 337 398
#     4  11  22  42  58  89 130 178 218 268 307 366
#     4  11  22  37  60  93 135 168 215 263 322 388
#     4  11  25  45  71  99 132 159 200 266 336 398
#     4  12  23  39  64  94 124 173 221 260 319 388
#     4  12  23  39  67  93 127 171 222 260 327 386
#     4  11  24  38  61  89 132 179 222 264 307 368
#
# _framework density 20.967548000000001
#
# number of rings (size 3 to 8) (size 9 to 14) (size 15 to 20)
#    0.000    0.750    1.250    9.000    5.250    0.000 
#    0.000    0.000    0.000    4.500    0.000    0.000 
#    0.000    0.000    0.000    0.000    0.000    0.000 
#
# Total GULP energy -793246.720630 kJ/mol
# GULP energy per Si atom -12394.480010 kJ/mol
# Density = 2.091982 g / cm^3
# Si number density = 20.967548 Si / 1000 Ang^3
#
#
#
# Elastic Constant Matrix: (Units=GPa)
#
#
# Indices 1 2 3 4 5 6 
#
# 1 85.9724 56.0497 36.0404 0.0000 0.0000 0.0000
# 2 56.0497 98.2522 38.6643 0.0000 0.0000 0.0000
# 3 36.0404 38.6643 110.2723 0.0000 0.0000 0.0000
# 4 0.0000 0.0000 0.0000 53.7542 0.0000 0.0000
# 5 0.0000 0.0000 0.0000 0.0000 27.4242 0.0000
# 6 0.0000 0.0000 0.0000 0.0000 0.0000 29.3940
#
#
#
# Elastic Compliance Matrix: (Units=1/GPa)
#
#
# Indices 1 2 3 4 5 6 
#
# 1 0.019253 -0.009868 -0.002832 0.000000 0.000000 0.000000
# 2 -0.009868 0.016865 -0.002688 0.000000 0.000000 0.000000
# 3 -0.002832 -0.002688 0.010937 0.000000 0.000000 0.000000
# 4 0.000000 0.000000 0.000000 0.018603 0.000000 0.000000
# 5 0.000000 0.000000 0.000000 0.000000 0.036464 0.000000
# 6 0.000000 0.000000 0.000000 0.000000 0.000000 0.034021
#
#
# Mechanical properties :
#
#
# Convention : Reuss Voigt Hill
#
# Bulk Modulus (GPa) = 61.43619 61.77841 61.60730
# Shear Modulus (GPa) = 29.01142 33.03065 31.02104
#
# Velocity S-wave (km/s) = 3.72376 3.97334 3.85057
# Velocity P-wave (km/s) = 6.91757 7.11180 7.01536
#
# Compressibility (1/GPa) = 0.01627705
#
# Stress axis : x y z
#
# Youngs Moduli (GPa) = 51.94082 59.29309 91.43583
#
# Poissons Ratio (x) = 0.58513 0.25897
# Poissons Ratio (y) = 0.51258 0.24579
# Poissons Ratio (z) = 0.14711 0.15939
#
# Static dielectric constant tensor:
#      x y z
#    x 3.443880 0.000000 0.000000 
#    y 0.000000 3.766040 0.000000 
#    z 0.000000 0.000000 4.024960 
# 
# 
# High freq. dielectric constant tensor:
#      x y z
#    x 1.785700 0.000000 0.000000 
#    y 0.000000 1.821510 0.000000 
#    z 0.000000 0.000000 1.852010 
# 
# From -- ./inp_files/16963.got.cif
#   From: 2010.06.25/outbox.cif.g09.slc.cpg/sg48_9_cif.got.tgz:16963.got - 2010.06.26 18:06:46.
