data_PCOD8202485
_publ_section_title
;
Structure prediction by ZEFSAII (Michael W. Deem and Ramdas Pophale) SiO2 
 PCOD8202485
Probable space group: P C C M
;
_chemical_formula_sum "Si O2"
_cell_formula_units_Z 58
_cell_length_a 10.519483
_cell_length_b 16.980850
_cell_length_c 16.502943
_cell_angle_alpha 90.000000
_cell_angle_beta 90.000000
_cell_angle_gamma 90.000000
_cell_volume 2947.916795
_symmetry_space_group_name_H-M "P C C M"
_symmetry_group_IT_number 49
_symmetry_cell_setting 'orthorhombic'
loop_
_space_group_symop_operation_xyz
x,y,z
-x,-y,z
x,-y,1/2-z
-x,y,1/2-z
-x,-y,-z
x,y,-z
-x,y,1/2+z
x,-y,1/2+z
loop_
_atom_site_type_symbol
_atom_site_label
_atom_site_fract_x
_atom_site_fract_y
_atom_site_fract_z
Si Si1 0.250003 0.284617 0.094808
Si Si2 0.039190 0.745611 0.091360
Si Si3 0.000000 0.000000 0.250000
Si Si4 0.927821 0.406178 0.834223
Si Si5 0.354333 0.979346 0.410696
Si Si6 0.638116 0.162325 0.290851
Si Si7 0.174966 0.453620 0.908808
Si Si8 0.183515 0.887991 0.155632
O O1 0.351105 0.238610 0.150938
O O2 0.259913 0.377947 0.118288
O O3 0.110024 0.249921 0.114517
O O4 0.283580 0.272814 0.000000
O O5 0.113220 0.684293 0.151870
O O6 0.103569 0.830234 0.098650
O O7 0.055149 0.715786 0.000000
O O8 0.915403 0.053535 0.194062
O O9 0.812833 0.469698 0.848694
O O10 0.000000 0.420473 0.750000
O O11 0.029704 0.422780 0.905776
O O12 0.317356 0.946417 0.500000
O O13 0.326238 0.915059 0.342511
O O14 0.500000 0.000000 0.407074
O O15 0.281020 0.060765 0.396467
O O16 0.500000 0.158214 0.250000
O O17 0.742207 0.165495 0.220458
O O18 0.211247 0.478282 0.000000
#
# Coordination Sequence:
#
# PCOD8202485 Si02
#       8
#     8   8   2   8   8   8   8   8
#     4   9  20  37  58  86 121 158 194 232 292 357
#     4  10  22  38  56  85 128 162 190 233 291 363
#     4  12  24  36  60  84 120 158 194 230 296 376
#     4  10  18  28  50  83 120 158 193 230 273 338
#     4  11  23  42  64  83 108 146 201 254 296 346
#     4  12  23  40  61  84 114 148 198 256 302 341
#     4   9  16  30  51  77 115 155 188 226 270 334
#     4  12  24  39  59  85 117 154 196 241 297 359
#
# _framework density 19.674911999999999
#
# number of rings (size 3 to 8) (size 9 to 14) (size 15 to 20)
#    0.000    1.517    2.759    4.966    4.828    0.000 
#    0.000    0.690    0.000    0.000    0.000    1.931 
#    0.000    3.310    0.000    0.000    0.000    0.000 
#
# Total GULP energy -718783.673859 kJ/mol
# GULP energy per Si atom -12392.821963 kJ/mol
# Density = 1.963013 g / cm^3
# Si number density = 19.674912 Si / 1000 Ang^3
#
#
#
# Elastic Constant Matrix: (Units=GPa)
#
#
# Indices 1 2 3 4 5 6 
#
# 1 55.1801 31.2962 27.8159 0.0000 0.0000 0.0000
# 2 31.2962 123.4658 44.4652 0.0000 0.0000 0.0000
# 3 27.8159 44.4652 91.4297 0.0000 0.0000 0.0000
# 4 0.0000 0.0000 0.0000 36.9819 0.0000 0.0000
# 5 0.0000 0.0000 0.0000 0.0000 23.5946 0.0000
# 6 0.0000 0.0000 0.0000 0.0000 0.0000 18.7616
#
#
#
# Elastic Compliance Matrix: (Units=1/GPa)
#
#
# Indices 1 2 3 4 5 6 
#
# 1 0.022927 -0.004000 -0.005030 0.000000 0.000000 0.000000
# 2 -0.004000 0.010517 -0.003898 0.000000 0.000000 0.000000
# 3 -0.005030 -0.003898 0.014363 0.000000 0.000000 0.000000
# 4 0.000000 0.000000 0.000000 0.027040 0.000000 0.000000
# 5 0.000000 0.000000 0.000000 0.000000 0.042383 0.000000
# 6 0.000000 0.000000 0.000000 0.000000 0.000000 0.053300
#
#
# Mechanical properties :
#
#
# Convention : Reuss Voigt Hill
#
# Bulk Modulus (GPa) = 45.55446 53.02558 49.29002
# Shear Modulus (GPa) = 24.54562 26.96753 25.75657
#
# Velocity S-wave (km/s) = 3.53591 3.70625 3.62208
# Velocity P-wave (km/s) = 6.31459 6.73234 6.52681
#
# Compressibility (1/GPa) = 0.02195175
#
# Stress axis : x y z
#
# Youngs Moduli (GPa) = 43.61751 95.08293 69.62236
#
# Poissons Ratio (x) = 0.38034 0.35018
# Poissons Ratio (y) = 0.17447 0.27138
# Poissons Ratio (z) = 0.21938 0.37062
#
# Static dielectric constant tensor:
#      x y z
#    x 3.318370 0.000000 0.000000 
#    y 0.000000 3.888580 0.000000 
#    z 0.000000 0.000000 3.729290 
# 
# 
# High freq. dielectric constant tensor:
#      x y z
#    x 1.710440 0.000000 0.000000 
#    y 0.000000 1.781710 0.000000 
#    z 0.000000 0.000000 1.778550 
# 
# From -- ./inp_files/16488.got.cif
#   From: 2010.03.12/outbox.cif.g09.slc.cpg/sg49_9_cif.got.tgz:16488.got - 2010.04.14 03:58:27.
