data_PCOD8202866
_publ_section_title
;
Structure prediction by ZEFSAII (Michael W. Deem and Ramdas Pophale) SiO2 
 PCOD8202866
Probable space group: P C C M
;
_chemical_formula_sum "Si O2"
_cell_formula_units_Z 56
_cell_length_a 13.591163
_cell_length_b 9.635506
_cell_length_c 24.800680
_cell_angle_alpha 90.000000
_cell_angle_beta 90.000000
_cell_angle_gamma 90.000000
_cell_volume 3247.840821
_symmetry_space_group_name_H-M "P C C M"
_symmetry_group_IT_number 49
_symmetry_cell_setting 'orthorhombic'
loop_
_space_group_symop_operation_xyz
x,y,z
-x,-y,z
x,-y,1/2-z
-x,y,1/2-z
-x,-y,-z
x,y,-z
-x,y,1/2+z
x,-y,1/2+z
loop_
_atom_site_type_symbol
_atom_site_label
_atom_site_fract_x
_atom_site_fract_y
_atom_site_fract_z
Si Si1 0.263704 0.281946 0.437200
Si Si2 0.883295 0.841330 0.249477
Si Si3 0.609401 0.020188 0.936895
Si Si4 0.395063 0.520903 0.438622
Si Si5 0.112939 0.335788 0.648675
Si Si6 0.735983 0.226953 0.438242
Si Si7 0.117530 0.660204 0.351836
O O1 0.233691 0.281126 0.500000
O O2 0.309667 0.424741 0.414565
O O3 0.163728 0.266921 0.403628
O O4 0.348800 0.171304 0.424335
O O5 0.847591 0.754530 0.301207
O O6 0.845244 0.755053 0.197770
O O7 0.000000 0.846485 0.250000
O O8 0.841436 0.000000 0.250000
O O9 0.693665 0.916557 0.914154
O O10 0.500000 0.000000 0.910933
O O11 0.600389 0.988230 0.000000
O O12 0.500000 0.500000 0.408717
O O13 0.407906 0.468717 0.500000
O O14 0.360960 0.677953 0.434363
O O15 0.139040 0.497669 0.658943
O O16 0.997619 0.316856 0.638610
O O17 0.773338 0.215201 0.500000
O O18 0.826988 0.286065 0.404811
#
# Coordination Sequence:
#
# PCOD8202866 Si02
#       7
#     8   8   8   8   8   8   8
#     4  10  19  31  48  76 107 136 169 203 249 305
#     4   9  19  35  55  75  94 125 174 221 252 287
#     4   9  18  32  49  70 101 138 173 212 253 293
#     4   9  16  28  47  70  99 132 169 210 245 285
#     4  10  20  34  52  75 105 137 168 205 248 297
#     4  10  19  31  48  76 107 136 169 203 249 305
#     4  10  20  34  52  75 105 137 168 205 248 297
#
# _framework density 17.242225000000001
#
# number of rings (size 3 to 8) (size 9 to 14) (size 15 to 20)
#    0.000    2.429    1.429    1.286    2.000    5.714 
#    0.000    1.429    0.000    2.571    0.000    6.000 
#    0.000    0.000    0.000    0.000    0.000    0.000 
#
# Total GULP energy -694023.815812 kJ/mol
# GULP energy per Si atom -12393.282425 kJ/mol
# Density = 1.720298 g / cm^3
# Si number density = 17.242225 Si / 1000 Ang^3
#
#
#
# Elastic Constant Matrix: (Units=GPa)
#
#
# Indices 1 2 3 4 5 6 
#
# 1 67.2709 25.3274 44.4759 0.0000 0.0000 0.0000
# 2 25.3274 91.1657 41.8923 0.0000 0.0000 0.0000
# 3 44.4759 41.8923 85.5251 0.0000 0.0000 0.0000
# 4 0.0000 0.0000 0.0000 23.4777 0.0000 0.0000
# 5 0.0000 0.0000 0.0000 0.0000 4.9431 0.0000
# 6 0.0000 0.0000 0.0000 0.0000 0.0000 26.4568
#
#
#
# Elastic Compliance Matrix: (Units=1/GPa)
#
#
# Indices 1 2 3 4 5 6 
#
# 1 0.022746 -0.001140 -0.011270 0.000000 0.000000 0.000000
# 2 -0.001140 0.014212 -0.006368 0.000000 0.000000 0.000000
# 3 -0.011270 -0.006368 0.020673 0.000000 0.000000 0.000000
# 4 0.000000 0.000000 0.000000 0.042594 0.000000 0.000000
# 5 0.000000 0.000000 0.000000 0.000000 0.202304 0.000000
# 6 0.000000 0.000000 0.000000 0.000000 0.000000 0.037798
#
#
# Mechanical properties :
#
#
# Convention : Reuss Voigt Hill
#
# Bulk Modulus (GPa) = 49.81810 51.92808 50.87309
# Shear Modulus (GPa) = 13.00139 19.79325 16.39732
#
# Velocity S-wave (km/s) = 2.74896 3.39182 3.08717
# Velocity P-wave (km/s) = 6.24752 6.74696 6.50204
#
# Compressibility (1/GPa) = 0.02007303
#
# Stress axis : x y z
#
# Youngs Moduli (GPa) = 43.96436 70.36163 48.37309
#
# Poissons Ratio (x) = 0.08024 0.54516
# Poissons Ratio (y) = 0.05014 0.30806
# Poissons Ratio (z) = 0.49547 0.44810
#
# Static dielectric constant tensor:
#      x y z
#    x 3.089640 0.000000 0.000000 
#    y 0.000000 3.422940 0.000000 
#    z 0.000000 0.000000 2.945740 
# 
# 
# High freq. dielectric constant tensor:
#      x y z
#    x 1.652450 0.000000 0.000000 
#    y 0.000000 1.684950 0.000000 
#    z 0.000000 0.000000 1.625220 
# 
# From -- ./inp_files/20890.got.cif
#   From: 2010.03.12/outbox.cif.g09.slc.cpg/sg49_11_cif.got.tgz:20890.got - 2010.04.14 03:58:27.
