data_PCOD8202476
_publ_section_title
;
Structure prediction by ZEFSAII (Michael W. Deem and Ramdas Pophale) SiO2 
 PCOD8202476
Probable space group: P C C M
;
_chemical_formula_sum "Si O2"
_cell_formula_units_Z 58
_cell_length_a 14.188867
_cell_length_b 25.520319
_cell_length_c 8.951843
_cell_angle_alpha 90.000000
_cell_angle_beta 90.000000
_cell_angle_gamma 90.000000
_cell_volume 3241.501847
_symmetry_space_group_name_H-M "P C C M"
_symmetry_group_IT_number 49
_symmetry_cell_setting 'orthorhombic'
loop_
_space_group_symop_operation_xyz
x,y,z
-x,-y,z
x,-y,1/2-z
-x,y,1/2-z
-x,-y,-z
x,y,-z
-x,y,1/2+z
x,-y,1/2+z
loop_
_atom_site_type_symbol
_atom_site_label
_atom_site_fract_x
_atom_site_fract_y
_atom_site_fract_z
Si Si1 0.899862 0.652763 0.825551
Si Si2 0.897514 0.854352 0.676156
Si Si3 0.596393 0.400896 0.822696
Si Si4 0.407372 0.719149 0.827830
Si Si5 0.176559 0.049662 0.164895
Si Si6 0.000000 0.000000 0.250000
Si Si7 0.778026 0.447054 0.676594
Si Si8 0.796593 0.746714 0.326432
O O1 0.852369 0.597947 0.782786
O O2 0.834278 0.699547 0.771544
O O3 0.000000 0.656803 0.750000
O O4 0.914614 0.658958 0.000000
O O5 0.907796 0.862580 0.500000
O O6 0.822450 0.897251 0.737999
O O7 0.852112 0.798867 0.717724
O O8 0.000000 0.858063 0.750000
O O9 0.500000 0.421629 0.750000
O O10 0.612177 0.340407 0.775872
O O11 0.678452 0.435162 0.751885
O O12 0.594697 0.408754 0.000000
O O13 0.500000 0.743288 0.750000
O O14 0.314828 0.753683 0.790613
O O15 0.431935 0.720083 0.000000
O O16 0.065643 0.035755 0.144395
O O17 0.226941 0.000000 0.250000
O O18 0.221520 0.057912 0.000000
O O19 0.818573 0.500000 0.750000
O O20 0.764924 0.453331 0.500000
O O21 0.810638 0.732503 0.500000
#
# Coordination Sequence:
#
# PCOD8202476 Si02
#       8
#     8   8   8   8   8   2   8   8
#     4  11  24  40  59  79 102 134 173 214 256 306
#     4  11  21  31  46  69 102 139 179 217 254 298
#     4  10  19  34  58  83 110 137 165 203 253 310
#     4   9  18  33  55  80 105 134 166 203 251 304
#     4  10  18  28  45  65  93 132 177 219 260 301
#     4   8  18  24  42  60  86 124 176 212 256 292
#     4  11  24  40  58  81 105 133 171 212 257 307
#     4  10  21  37  55  78 107 139 172 211 258 306
#
# _framework density 17.892939999999999
#
# number of rings (size 3 to 8) (size 9 to 14) (size 15 to 20)
#    0.414    1.379    2.069    2.690    0.000    5.517 
#    0.000    2.759    0.000    0.000    0.000    0.000 
#    0.000    0.552    0.000    6.345    0.000    1.931 
#
# Total GULP energy -718996.763399 kJ/mol
# GULP energy per Si atom -12396.495921 kJ/mol
# Density = 1.785222 g / cm^3
# Si number density = 17.892940 Si / 1000 Ang^3
#
#
#
# Elastic Constant Matrix: (Units=GPa)
#
#
# Indices 1 2 3 4 5 6 
#
# 1 69.9895 26.6348 27.3577 0.0000 0.0000 0.0000
# 2 26.6348 93.1637 48.9460 0.0000 0.0000 0.0000
# 3 27.3577 48.9460 87.9243 0.0000 0.0000 0.0000
# 4 0.0000 0.0000 0.0000 21.7701 0.0000 0.0000
# 5 0.0000 0.0000 0.0000 0.0000 22.7117 0.0000
# 6 0.0000 0.0000 0.0000 0.0000 0.0000 6.2625
#
#
#
# Elastic Compliance Matrix: (Units=1/GPa)
#
#
# Indices 1 2 3 4 5 6 
#
# 1 0.016806 -0.002908 -0.003610 0.000000 0.000000 0.000000
# 2 -0.002908 0.015674 -0.007821 0.000000 0.000000 0.000000
# 3 -0.003610 -0.007821 0.016850 0.000000 0.000000 0.000000
# 4 0.000000 0.000000 0.000000 0.045935 0.000000 0.000000
# 5 0.000000 0.000000 0.000000 0.000000 0.044030 0.000000
# 6 0.000000 0.000000 0.000000 0.000000 0.000000 0.159680
#
#
# Mechanical properties :
#
#
# Convention : Reuss Voigt Hill
#
# Bulk Modulus (GPa) = 48.42064 50.77272 49.59668
# Shear Modulus (GPa) = 14.94606 20.02480 17.48543
#
# Velocity S-wave (km/s) = 2.89330 3.34899 3.12945
# Velocity P-wave (km/s) = 6.18722 6.58724 6.39036
#
# Compressibility (1/GPa) = 0.02065235
#
# Stress axis : x y z
#
# Youngs Moduli (GPa) = 59.50377 63.80038 59.34576
#
# Poissons Ratio (x) = 0.18552 0.21426
# Poissons Ratio (y) = 0.17303 0.46412
# Poissons Ratio (z) = 0.21483 0.49896
#
# Static dielectric constant tensor:
#      x y z
#    x 3.156840 0.000000 0.000000 
#    y 0.000000 3.375240 0.000000 
#    z 0.000000 0.000000 3.353690 
# 
# 
# High freq. dielectric constant tensor:
#      x y z
#    x 1.663720 0.000000 0.000000 
#    y 0.000000 1.686890 0.000000 
#    z 0.000000 0.000000 1.703000 
# 
# From -- ./inp_files/4270.got.cif
#   From: 2010.03.12/outbox.cif.g09.slc.cpg/sg49_3_cif.got.tgz:4270.got - 2010.04.14 03:58:27.
