data_PCOD8202821
_publ_section_title
;
Structure prediction by ZEFSAII (Michael W. Deem and Ramdas Pophale) SiO2 
 PCOD8202821
Probable space group: P C C M
;
_chemical_formula_sum "Si O2"
_cell_formula_units_Z 64
_cell_length_a 19.491923
_cell_length_b 19.296699
_cell_length_c 9.091628
_cell_angle_alpha 90.000000
_cell_angle_beta 90.000000
_cell_angle_gamma 90.000000
_cell_volume 3419.631958
_symmetry_space_group_name_H-M "P C C M"
_symmetry_group_IT_number 49
_symmetry_cell_setting 'orthorhombic'
loop_
_space_group_symop_operation_xyz
x,y,z
-x,-y,z
x,-y,1/2-z
-x,y,1/2-z
-x,-y,-z
x,y,-z
-x,y,1/2+z
x,-y,1/2+z
loop_
_atom_site_type_symbol
_atom_site_label
_atom_site_fract_x
_atom_site_fract_y
_atom_site_fract_z
Si Si1 0.344468 0.065095 0.337363
Si Si2 0.070684 0.684643 0.170232
Si Si3 0.183167 0.932314 0.833981
Si Si4 0.184405 0.428568 0.330884
Si Si5 0.281571 0.675010 0.674472
Si Si6 0.563350 0.150131 0.338258
Si Si7 0.435530 0.687760 0.661622
Si Si8 0.829741 0.787272 0.825529
O O1 0.376320 0.067412 0.500000
O O2 0.263784 0.059437 0.345998
O O3 0.366545 0.134009 0.249241
O O4 0.375893 0.000000 0.250000
O O5 0.115633 0.615760 0.183751
O O6 0.106356 0.747657 0.254892
O O7 0.000000 0.667709 0.250000
O O8 0.059366 0.705226 0.000000
O O9 0.167791 0.863655 0.741781
O O10 0.152511 0.000000 0.750000
O O11 0.152195 0.927727 0.000000
O O12 0.170077 0.500000 0.250000
O O13 0.203875 0.441939 0.500000
O O14 0.247578 0.389925 0.254178
O O15 0.279141 0.663975 0.500000
O O16 0.360185 0.676524 0.733199
O O17 0.240918 0.746293 0.714288
O O18 0.500000 0.116297 0.250000
O O19 0.567777 0.116847 0.500000
O O20 0.552613 0.231177 0.351885
O O21 0.500000 0.654624 0.750000
O O22 0.437076 0.653567 0.500000
O O23 0.839436 0.792494 0.000000
#
# Coordination Sequence:
#
# PCOD8202821 Si02
#       8
#     8   8   8   8   8   8   8   8
#     4  10  20  32  45  62  85 116 155 201 254 310
#     4  10  21  37  57  84 116 149 184 218 256 304
#     4  10  20  33  50  73 101 132 170 218 269 320
#     4  10  21  36  56  83 114 147 182 218 257 304
#     4   9  18  33  53  77 106 140 178 219 266 319
#     4  10  19  31  45  62  86 116 154 199 251 311
#     4   9  18  31  48  71  98 129 165 210 262 314
#     4  10  19  33  55  80 107 141 180 223 270 318
#
# _framework density 18.715464999999998
#
# number of rings (size 3 to 8) (size 9 to 14) (size 15 to 20)
#    0.000    2.250    0.000    3.000    0.000    6.000 
#    0.000    2.500    0.000    0.750    0.000    5.250 
#    0.000    0.000    0.000    0.000    0.000    0.000 
#
# Total GULP energy -793366.440272 kJ/mol
# GULP energy per Si atom -12396.350629 kJ/mol
# Density = 1.867287 g / cm^3
# Si number density = 18.715465 Si / 1000 Ang^3
#
#
#
# Elastic Constant Matrix: (Units=GPa)
#
#
# Indices 1 2 3 4 5 6 
#
# 1 95.2700 27.8780 44.4940 0.0000 0.0000 0.0000
# 2 27.8780 95.4054 52.9624 0.0000 0.0000 0.0000
# 3 44.4940 52.9624 132.6887 0.0000 0.0000 0.0000
# 4 0.0000 0.0000 0.0000 30.3062 0.0000 0.0000
# 5 0.0000 0.0000 0.0000 0.0000 29.8378 0.0000
# 6 0.0000 0.0000 0.0000 0.0000 0.0000 15.2115
#
#
#
# Elastic Compliance Matrix: (Units=1/GPa)
#
#
# Indices 1 2 3 4 5 6 
#
# 1 0.012663 -0.001725 -0.003558 0.000000 0.000000 0.000000
# 2 -0.001725 0.013700 -0.004890 0.000000 0.000000 0.000000
# 3 -0.003558 -0.004890 0.010681 0.000000 0.000000 0.000000
# 4 0.000000 0.000000 0.000000 0.032997 0.000000 0.000000
# 5 0.000000 0.000000 0.000000 0.000000 0.033515 0.000000
# 6 0.000000 0.000000 0.000000 0.000000 0.000000 0.065740
#
#
# Mechanical properties :
#
#
# Convention : Reuss Voigt Hill
#
# Bulk Modulus (GPa) = 59.88441 63.78146 61.83293
# Shear Modulus (GPa) = 25.61385 28.27307 26.94346
#
# Velocity S-wave (km/s) = 3.70346 3.89096 3.79837
# Velocity P-wave (km/s) = 7.09607 7.37154 7.23512
#
# Compressibility (1/GPa) = 0.01669884
#
# Stress axis : x y z
#
# Youngs Moduli (GPa) = 78.97140 72.99132 93.62268
#
# Poissons Ratio (x) = 0.12593 0.33307
# Poissons Ratio (y) = 0.13625 0.45781
# Poissons Ratio (z) = 0.28094 0.35692
#
# Static dielectric constant tensor:
#      x y z
#    x 3.334140 0.000000 0.000000 
#    y 0.000000 3.226080 0.000000 
#    z 0.000000 0.000000 3.848240 
# 
# 
# High freq. dielectric constant tensor:
#      x y z
#    x 1.710350 0.000000 0.000000 
#    y 0.000000 1.705400 0.000000 
#    z 0.000000 0.000000 1.743480 
# 
# From -- ./inp_files/5288.got.cif
#   From: 2010.03.12/outbox.cif.g09.slc.cpg/sg49_3_cif.got.tgz:5288.got - 2010.04.14 03:58:27.
