data_PCOD8202235
_publ_section_title
;
Structure prediction by ZEFSAII (Michael W. Deem and Ramdas Pophale) SiO2 
 PCOD8202235
Probable space group: P C C M
;
_chemical_formula_sum "Si O2"
_cell_formula_units_Z 48
_cell_length_a 5.203813
_cell_length_b 27.358821
_cell_length_c 16.751824
_cell_angle_alpha 90.000000
_cell_angle_beta 90.000000
_cell_angle_gamma 90.000000
_cell_volume 2384.960339
_symmetry_space_group_name_H-M "P C C M"
_symmetry_group_IT_number 49
_symmetry_cell_setting 'orthorhombic'
loop_
_space_group_symop_operation_xyz
x,y,z
-x,-y,z
x,-y,1/2-z
-x,y,1/2-z
-x,-y,-z
x,y,-z
-x,y,1/2+z
x,-y,1/2+z
loop_
_atom_site_type_symbol
_atom_site_label
_atom_site_fract_x
_atom_site_fract_y
_atom_site_fract_z
Si Si1 0.960566 0.054265 0.094514
Si Si2 0.377361 0.218989 0.091860
Si Si3 0.108550 0.278696 0.408021
Si Si4 0.746673 0.478764 0.160049
Si Si5 0.751761 0.369819 0.801646
Si Si6 0.464574 0.888369 0.594652
O O1 0.214344 0.082379 0.119905
O O2 0.713532 0.083235 0.130311
O O3 0.925466 0.050653 0.000000
O O4 0.000000 0.000000 0.130427
O O5 0.646518 0.244964 0.102945
O O6 0.420789 0.165755 0.131669
O O7 0.141689 0.250746 0.129678
O O8 0.299886 0.211477 0.000000
O O9 0.055029 0.291734 0.500000
O O10 0.173586 0.328431 0.363983
O O11 0.500000 0.500000 0.113900
O O12 0.747612 0.500000 0.250000
O O13 0.709971 0.420691 0.153329
O O14 0.000000 0.500000 0.116409
O O15 0.500000 0.355182 0.750000
O O16 0.000000 0.379340 0.750000
O O17 0.499889 0.884086 0.500000
#
# Coordination Sequence:
#
# PCOD8202235 Si02
#       6
#     8   8   8   8   8   8
#     4   9  15  21  30  50  79 108 146 203 253 281
#     4   9  17  31  47  63  87 127 172 207 241 295
#     4  10  21  35  50  71 102 132 164 212 259 293
#     4  10  16  30  49  75  97 124 159 201 233 285
#     4  12  21  33  55  81 101 129 168 207 249 301
#     4   9  15  23  37  53  73 111 161 199 232 288
#
# _framework density 20.126123
#
# number of rings (size 3 to 8) (size 9 to 14) (size 15 to 20)
#    0.000    2.167    3.333    2.500    0.000    6.000 
#    0.000    0.000    0.000    1.000    0.000    0.000 
#    0.000    0.000    0.000    0.000    0.000  175.000 
#
# Total GULP energy -594784.730801 kJ/mol
# GULP energy per Si atom -12391.348558 kJ/mol
# Density = 2.008032 g / cm^3
# Si number density = 20.126123 Si / 1000 Ang^3
#
#
#
# Elastic Constant Matrix: (Units=GPa)
#
#
# Indices 1 2 3 4 5 6 
#
# 1 172.9850 60.2605 18.6250 0.0000 0.0000 0.0000
# 2 60.2605 181.2268 25.7379 0.0000 0.0000 0.0000
# 3 18.6250 25.7379 8.4240 0.0000 0.0000 0.0000
# 4 0.0000 0.0000 0.0000 17.8143 0.0000 0.0000
# 5 0.0000 0.0000 0.0000 0.0000 -4.8394 0.0000
# 6 0.0000 0.0000 0.0000 0.0000 0.0000 37.3919
#
#
#
# Elastic Compliance Matrix: (Units=1/GPa)
#
#
# Indices 1 2 3 4 5 6 
#
# 1 0.007593 -0.000248 -0.016029 0.000000 0.000000 0.000000
# 2 -0.000248 0.009756 -0.029257 0.000000 0.000000 0.000000
# 3 -0.016029 -0.029257 0.243538 0.000000 0.000000 0.000000
# 4 0.000000 0.000000 0.000000 0.056135 0.000000 0.000000
# 5 0.000000 0.000000 0.000000 0.000000 -0.206639 0.000000
# 6 0.000000 0.000000 0.000000 0.000000 0.000000 0.026744
#
#
# Mechanical properties :
#
#
# Convention : Reuss Voigt Hill
#
# Bulk Modulus (GPa) = 5.88871 63.54253 34.71562
# Shear Modulus (GPa) = 17.55607 27.27419 22.41513
#
# Velocity S-wave (km/s) = 2.95668 3.68525 3.34088
# Velocity P-wave (km/s) = 3.81945 7.05328 5.67173
#
# Compressibility (1/GPa) = 0.16981641
#
# Stress axis : x y z
#
# Youngs Moduli (GPa) = 131.69650 102.50439 4.10614
#
# Poissons Ratio (x) = 0.02546 0.06582
# Poissons Ratio (y) = 0.03271 0.12013
# Poissons Ratio (z) = 2.11100 2.99901
#
# Static dielectric constant tensor:
#      x y z
#    x 6.021440 0.000000 0.000000 
#    y 0.000000 4.074750 0.000000 
#    z 0.000000 0.000000 2.854550 
# 
# 
# High freq. dielectric constant tensor:
#      x y z
#    x 1.817260 0.000000 0.000000 
#    y 0.000000 1.807610 0.000000 
#    z 0.000000 0.000000 1.693430 
# 
# From -- ./inp_files/14576.got.cif
#   From: 2010.03.12/outbox.cif.g09.slc.cpg/sg49_8_cif.got.tgz:14576.got - 2010.04.14 03:58:27.
