data_PCOD8202082
_publ_section_title
;
Structure prediction by ZEFSAII (Michael W. Deem and Ramdas Pophale) SiO2 
 PCOD8202082
Probable space group: P N N N
;
_chemical_formula_sum "Si O2"
_cell_formula_units_Z 60
_cell_length_a 19.678646
_cell_length_b 12.531035
_cell_length_c 11.817518
_cell_angle_alpha 90.000000
_cell_angle_beta 90.000000
_cell_angle_gamma 90.000000
_cell_volume 2914.126691
_symmetry_space_group_name_H-M "P N N N"
_symmetry_group_IT_number 48
_space_group.IT_coordinate_system_code '2'
_symmetry_cell_setting 'orthorhombic'
loop_
_space_group_symop_operation_xyz
x,y,z
1/2-x,1/2-y,z
x,1/2-y,1/2-z
1/2-x,y,1/2-z
-x,-y,-z
1/2+x,1/2+y,-z
-x,1/2+y,1/2+z
1/2+x,-y,1/2+z
loop_
_atom_site_type_symbol
_atom_site_label
_atom_site_fract_x
_atom_site_fract_y
_atom_site_fract_z
Si Si1 0.492547 0.053132 0.826933
Si Si2 0.601598 0.984819 0.973981
Si Si3 0.191378 0.333366 0.574980
Si Si4 0.514460 0.421698 0.103559
Si Si5 0.724119 0.042713 0.104895
Si Si6 0.656971 0.360620 0.188609
Si Si7 0.103375 0.243510 0.117033
Si Si8 0.415137 0.250000 0.750000
O O1 0.568521 0.058245 0.877968
O O2 0.465744 0.171143 0.812228
O O3 0.502798 0.984978 0.715731
O O4 0.441537 0.993710 0.912344
O O5 0.601156 0.860564 0.938876
O O6 0.677772 0.029197 0.993816
O O7 0.250000 0.250000 0.599164
O O8 0.222281 0.446397 0.605269
O O9 0.162769 0.323635 0.446490
O O10 0.128915 0.313121 0.659023
O O11 0.593645 0.390067 0.109024
O O12 0.468806 0.315068 0.097451
O O13 0.500000 0.500000 0.000000
O O14 0.775116 0.145415 0.108269
O O15 0.674893 0.048801 0.215724
O O16 0.641661 0.250000 0.250000
O O17 0.121218 0.250000 0.250000
#
# Coordination Sequence:
#
# PCOD8202082 Si02
#       8
#     8   8   8   8   8   8   8   4
#     4  11  23  41  65  95 134 182 226 278 347 411
#     4  11  23  42  68  96 131 181 227 285 344 414
#     4  12  25  39  68 103 135 177 213 291 350 408
#     4  12  25  43  65 101 147 183 226 287 344 417
#     4  11  22  43  65  99 134 169 234 286 349 406
#     4  11  25  43  71 101 137 185 233 290 344 403
#     4  12  24  44  65  98 140 182 234 274 348 428
#     4  12  23  40  66 104 136 169 228 284 354 401
#
# _framework density 20.589359000000002
#
# number of rings (size 3 to 8) (size 9 to 14) (size 15 to 20)
#    0.000    0.533    5.333    3.800    5.600    0.267 
#    0.000    0.000    0.000    0.000    0.000    0.000 
#    4.000    0.000    0.000    0.000    0.000    0.000 
#
# Total GULP energy -743608.095731 kJ/mol
# GULP energy per Si atom -12393.468262 kJ/mol
# Density = 2.054250 g / cm^3
# Si number density = 20.589359 Si / 1000 Ang^3
#
#
#
# Elastic Constant Matrix: (Units=GPa)
#
#
# Indices 1 2 3 4 5 6 
#
# 1 140.7177 66.1763 59.5071 0.0000 0.0000 0.0000
# 2 66.1763 75.0960 46.9152 0.0000 0.0000 0.0000
# 3 59.5071 46.9152 126.2534 0.0000 0.0000 0.0000
# 4 0.0000 0.0000 0.0000 35.9170 0.0000 0.0000
# 5 0.0000 0.0000 0.0000 0.0000 41.7230 0.0000
# 6 0.0000 0.0000 0.0000 0.0000 0.0000 44.4544
#
#
#
# Elastic Compliance Matrix: (Units=1/GPa)
#
#
# Indices 1 2 3 4 5 6 
#
# 1 0.012659 -0.009673 -0.002372 0.000000 0.000000 0.000000
# 2 -0.009673 0.024734 -0.004632 0.000000 0.000000 0.000000
# 3 -0.002372 -0.004632 0.010760 0.000000 0.000000 0.000000
# 4 0.000000 0.000000 0.000000 0.027842 0.000000 0.000000
# 5 0.000000 0.000000 0.000000 0.000000 0.023968 0.000000
# 6 0.000000 0.000000 0.000000 0.000000 0.000000 0.022495
#
#
# Mechanical properties :
#
#
# Convention : Reuss Voigt Hill
#
# Bulk Modulus (GPa) = 67.57375 76.36270 71.96823
# Shear Modulus (GPa) = 31.10543 35.71678 33.41110
#
# Velocity S-wave (km/s) = 3.89106 4.16952 4.03269
# Velocity P-wave (km/s) = 7.28547 7.76845 7.53083
#
# Compressibility (1/GPa) = 0.01479865
#
# Stress axis : x y z
#
# Youngs Moduli (GPa) = 78.99817 40.42979 92.93968
#
# Poissons Ratio (x) = 0.39109 0.22044
# Poissons Ratio (y) = 0.76417 0.43048
# Poissons Ratio (z) = 0.18737 0.18726
#
# Static dielectric constant tensor:
#      x y z
#    x 3.774240 0.000000 0.000000 
#    y 0.000000 3.026290 0.000000 
#    z 0.000000 0.000000 2.756080 
# 
# 
# High freq. dielectric constant tensor:
#      x y z
#    x 1.817110 0.000000 0.000000 
#    y 0.000000 1.800830 0.000000 
#    z 0.000000 0.000000 1.796530 
# 
# From -- ./inp_files/22950.got.cif
#   From: 2010.06.25/outbox.cif.g09.slc.cpg/sg48_12_cif.got.tgz:22950.got - 2010.06.26 18:06:46.
