data_PCOD8202694
_publ_section_title
;
Structure prediction by ZEFSAII (Michael W. Deem and Ramdas Pophale) SiO2 
 PCOD8202694
Probable space group: P C C M
;
_chemical_formula_sum "Si O2"
_cell_formula_units_Z 58
_cell_length_a 17.233690
_cell_length_b 10.159403
_cell_length_c 15.022268
_cell_angle_alpha 90.000000
_cell_angle_beta 90.000000
_cell_angle_gamma 90.000000
_cell_volume 2630.158799
_symmetry_space_group_name_H-M "P C C M"
_symmetry_group_IT_number 49
_symmetry_cell_setting 'orthorhombic'
loop_
_space_group_symop_operation_xyz
x,y,z
-x,-y,z
x,-y,1/2-z
-x,y,1/2-z
-x,-y,-z
x,y,-z
-x,y,1/2+z
x,-y,1/2+z
loop_
_atom_site_type_symbol
_atom_site_label
_atom_site_fract_x
_atom_site_fract_y
_atom_site_fract_z
Si Si1 0.008665 0.645248 0.896563
Si Si2 0.753658 0.959832 0.845279
Si Si3 0.419603 0.552354 0.397277
Si Si4 0.404974 0.139368 0.098420
Si Si5 0.500000 0.000000 0.250000
Si Si6 0.741080 0.540165 0.605828
Si Si7 0.162004 0.221148 0.396032
Si Si8 0.836740 0.288251 0.396629
O O1 0.078260 0.734789 0.854274
O O2 0.000000 0.500000 0.852364
O O3 0.928385 0.719875 0.881545
O O4 0.027429 0.623832 0.000000
O O5 0.679440 0.929725 0.906838
O O6 0.803425 0.827633 0.835773
O O7 0.720249 0.000000 0.750000
O O8 0.812050 0.071988 0.880018
O O9 0.500000 0.500000 0.351822
O O10 0.424409 0.512729 0.500000
O O11 0.401677 0.705572 0.385454
O O12 0.345458 0.478279 0.353691
O O13 0.450950 0.088544 0.183240
O O14 0.442861 0.112015 0.000000
O O15 0.735965 0.536465 0.500000
O O16 0.772693 0.679252 0.642069
O O17 0.800252 0.425657 0.636697
O O18 0.154963 0.243136 0.500000
O O19 0.815440 0.262557 0.500000
#
# Coordination Sequence:
#
# PCOD8202694 Si02
#       8
#     8   8   8   8   2   8   8   8
#     4   9  16  30  58  95 127 156 207 278 335 396
#     4  12  25  42  60  87 128 173 223 271 316 387
#     4   9  18  34  61  96 126 160 213 268 326 397
#     4  11  23  44  71  95 131 180 218 264 336 398
#     4  12  26  44  66 102 140 166 222 274 320 394
#     4   9  16  30  58  90 118 154 206 262 323 394
#     4  10  20  35  60  94 124 159 212 273 334 392
#     4  10  18  34  63  90 119 166 213 262 335 404
#
# _framework density 22.051898999999999
#
# number of rings (size 3 to 8) (size 9 to 14) (size 15 to 20)
#    0.000    1.931    3.448    1.448    0.000    1.655 
#    0.000    7.241    0.000    0.828    0.000    0.000 
#    0.000    0.000    0.000    0.000    0.000    0.000 
#
# Total GULP energy -718722.962775 kJ/mol
# GULP energy per Si atom -12391.775220 kJ/mol
# Density = 2.200171 g / cm^3
# Si number density = 22.051899 Si / 1000 Ang^3
#
#
#
# Elastic Constant Matrix: (Units=GPa)
#
#
# Indices 1 2 3 4 5 6 
#
# 1 141.6523 40.2033 9.7443 0.0000 0.0000 0.0000
# 2 40.2033 105.3548 8.5090 0.0000 0.0000 0.0000
# 3 9.7443 8.5090 52.8986 0.0000 0.0000 0.0000
# 4 0.0000 0.0000 0.0000 -13.1011 0.0000 0.0000
# 5 0.0000 0.0000 0.0000 0.0000 14.4671 0.0000
# 6 0.0000 0.0000 0.0000 0.0000 0.0000 26.8205
#
#
#
# Elastic Compliance Matrix: (Units=1/GPa)
#
#
# Indices 1 2 3 4 5 6 
#
# 1 0.007968 -0.002960 -0.000992 0.000000 0.000000 0.000000
# 2 -0.002960 0.010717 -0.001178 0.000000 0.000000 0.000000
# 3 -0.000992 -0.001178 0.019276 0.000000 0.000000 0.000000
# 4 0.000000 0.000000 0.000000 -0.076329 0.000000 0.000000
# 5 0.000000 0.000000 0.000000 0.000000 0.069122 0.000000
# 6 0.000000 0.000000 0.000000 0.000000 0.000000 0.037285
#
#
# Mechanical properties :
#
#
# Convention : Reuss Voigt Hill
#
# Bulk Modulus (GPa) = 36.10123 46.31320 41.20721
# Shear Modulus (GPa) = 57.12128 21.73390 39.42759
#
# Velocity S-wave (km/s) = 5.09503 3.14280 4.23300
# Velocity P-wave (km/s) = 7.14276 5.84954 6.52825
#
# Compressibility (1/GPa) = 0.02769989
#
# Stress axis : x y z
#
# Youngs Moduli (GPa) = 125.50226 93.31284 51.87712
#
# Poissons Ratio (x) = 0.27625 0.05144
# Poissons Ratio (y) = 0.37155 0.06114
# Poissons Ratio (z) = 0.12444 0.10997
#
# Static dielectric constant tensor:
#      x y z
#    x 4.272920 0.000000 0.000000 
#    y 0.000000 3.987610 0.000000 
#    z 0.000000 0.000000 3.633510 
# 
# 
# High freq. dielectric constant tensor:
#      x y z
#    x 1.878140 0.000000 0.000000 
#    y 0.000000 1.863480 0.000000 
#    z 0.000000 0.000000 1.837970 
# 
# From -- ./inp_files/18193.got.cif
#   From: 2010.03.12/outbox.cif.g09.slc.cpg/sg49_10_cif.got.tgz:18193.got - 2010.04.14 03:58:27.
