data_PCOD8202117
_publ_section_title
;
Structure prediction by ZEFSAII (Michael W. Deem and Ramdas Pophale) SiO2 
 PCOD8202117
Probable space group: P N N N
;
_chemical_formula_sum "Si O2"
_cell_formula_units_Z 48
_cell_length_a 18.687825
_cell_length_b 14.278677
_cell_length_c 8.245777
_cell_angle_alpha 90.000000
_cell_angle_beta 90.000000
_cell_angle_gamma 90.000000
_cell_volume 2200.281836
_symmetry_space_group_name_H-M "P N N N"
_symmetry_group_IT_number 48
_space_group.IT_coordinate_system_code '2'
_symmetry_cell_setting 'orthorhombic'
loop_
_space_group_symop_operation_xyz
x,y,z
1/2-x,1/2-y,z
x,1/2-y,1/2-z
1/2-x,y,1/2-z
-x,-y,-z
1/2+x,1/2+y,-z
-x,1/2+y,1/2+z
1/2+x,-y,1/2+z
loop_
_atom_site_type_symbol
_atom_site_label
_atom_site_fract_x
_atom_site_fract_y
_atom_site_fract_z
Si Si1 0.035684 0.304319 0.407709
Si Si2 0.667471 0.350599 0.214176
Si Si3 0.538787 0.999587 0.759045
Si Si4 0.828545 0.783028 0.427817
Si Si5 0.104019 0.026052 0.604437
Si Si6 0.400700 0.674952 0.117273
O O1 0.008004 0.250000 0.250000
O O2 0.040514 0.414619 0.369386
O O3 0.112711 0.262024 0.454684
O O4 0.976452 0.287794 0.546779
O O5 0.632447 0.250000 0.250000
O O6 0.750000 0.352558 0.250000
O O7 0.634148 0.426248 0.337371
O O8 0.654443 0.358497 0.022033
O O9 0.459010 0.045563 0.764796
O O10 0.593739 0.078034 0.709444
O O11 0.564636 0.966881 0.933492
O O12 0.750000 0.750000 0.488589
O O13 0.845196 0.750000 0.250000
O O14 0.833778 0.895997 0.409414
O O15 0.370949 0.750000 0.250000
#
# Coordination Sequence:
#
# PCOD8202117 Si02
#       6
#     8   8   8   8   8   8
#     4  12  23  42  66 102 140 185 233 297 353 420
#     4  11  26  46  69  97 135 182 233 292 361 426
#     4  11  24  40  70 103 138 178 238 293 345 421
#     4  11  26  43  67  99 142 192 237 288 358 437
#     4  11  23  45  67 101 141 184 233 291 354 424
#     4  12  25  42  71 102 133 177 237 294 356 419
#
# _framework density 21.815387999999999
#
# number of rings (size 3 to 8) (size 9 to 14) (size 15 to 20)
#    0.000    0.667    3.333    4.500    7.000    0.333 
#    0.000    7.500    0.000    0.000    0.000    0.000 
#    0.000    0.000    0.000    0.000    0.000    0.000 
#
# Total GULP energy -594776.123857 kJ/mol
# GULP energy per Si atom -12391.169247 kJ/mol
# Density = 2.176574 g / cm^3
# Si number density = 21.815388 Si / 1000 Ang^3
#
#
#
# Elastic Constant Matrix: (Units=GPa)
#
#
# Indices 1 2 3 4 5 6 
#
# 1 111.0659 41.1684 29.9733 0.0000 0.0000 0.0000
# 2 41.1684 118.4085 8.7578 0.0000 0.0000 0.0000
# 3 29.9733 8.7578 64.1590 0.0000 0.0000 0.0000
# 4 0.0000 0.0000 0.0000 41.0189 0.0000 0.0000
# 5 0.0000 0.0000 0.0000 0.0000 8827.1571 0.0000
# 6 0.0000 0.0000 0.0000 0.0000 0.0000 33.6330
#
#
#
# Elastic Compliance Matrix: (Units=1/GPa)
#
#
# Indices 1 2 3 4 5 6 
#
# 1 0.011719 -0.003707 -0.004969 0.000000 0.000000 0.000000
# 2 -0.003707 0.009704 0.000407 0.000000 0.000000 0.000000
# 3 -0.004969 0.000407 0.017852 0.000000 0.000000 0.000000
# 4 0.000000 0.000000 0.000000 0.024379 0.000000 0.000000
# 5 0.000000 0.000000 0.000000 0.000000 0.000113 0.000000
# 6 0.000000 0.000000 0.000000 0.000000 0.000000 0.029733
#
#
# Mechanical properties :
#
#
# Convention : Reuss Voigt Hill
#
# Bulk Modulus (GPa) = 43.97951 50.38137 47.18044
# Shear Modulus (GPa) = 42.51147 1794.61073 918.56110
#
# Velocity S-wave (km/s) = 4.41919 28.71273 20.54203
# Velocity P-wave (km/s) = 6.80019 33.50183 24.17246
#
# Compressibility (1/GPa) = 0.02273786
#
# Stress axis : x y z
#
# Youngs Moduli (GPa) = 85.33489 103.05005 56.01642
#
# Poissons Ratio (x) = 0.38199 0.27832
# Poissons Ratio (y) = 0.31632 -0.02281
# Poissons Ratio (z) = 0.42399 -0.04195
#
# Static dielectric constant tensor:
#      x y z
#    x 3.868660 0.000000 0.000000 
#    y 0.000000 4.366850 0.000000 
#    z 0.000000 0.000000 4.508290 
# 
# 
# High freq. dielectric constant tensor:
#      x y z
#    x 1.845570 0.000000 0.000000 
#    y 0.000000 1.869770 0.000000 
#    z 0.000000 0.000000 1.870280 
# 
# From -- ./inp_files/12803.got.cif
#   From: 2010.06.25/outbox.cif.g09.slc.cpg/sg48_7_cif.got.tgz:12803.got - 2010.06.26 18:06:46.
