data_PCOD8202640
_publ_section_title
;
Structure prediction by ZEFSAII (Michael W. Deem and Ramdas Pophale) SiO2 
 PCOD8202640
Probable space group: P C C M
;
_chemical_formula_sum "Si O2"
_cell_formula_units_Z 56
_cell_length_a 20.022493
_cell_length_b 15.471399
_cell_length_c 8.987691
_cell_angle_alpha 90.000000
_cell_angle_beta 90.000000
_cell_angle_gamma 90.000000
_cell_volume 2784.170771
_symmetry_space_group_name_H-M "P C C M"
_symmetry_group_IT_number 49
_symmetry_cell_setting 'orthorhombic'
loop_
_space_group_symop_operation_xyz
x,y,z
-x,-y,z
x,-y,1/2-z
-x,y,1/2-z
-x,-y,-z
x,y,-z
-x,y,1/2+z
x,-y,1/2+z
loop_
_atom_site_type_symbol
_atom_site_label
_atom_site_fract_x
_atom_site_fract_y
_atom_site_fract_z
Si Si1 0.565097 0.272213 0.172591
Si Si2 0.264650 0.138212 0.171827
Si Si3 0.394019 0.082429 0.675319
Si Si4 0.712105 0.685164 0.677346
Si Si5 0.116412 0.085061 0.169222
Si Si6 0.068195 0.730694 0.676037
Si Si7 0.823743 0.587440 0.823549
O O1 0.500000 0.313714 0.250000
O O2 0.569081 0.171083 0.217590
O O3 0.633350 0.320343 0.220713
O O4 0.553545 0.282957 0.000000
O O5 0.320114 0.082769 0.255796
O O6 0.255454 0.229624 0.252737
O O7 0.196090 0.086374 0.184110
O O8 0.284635 0.154074 0.000000
O O9 0.388771 0.069654 0.500000
O O10 0.431685 0.000000 0.750000
O O11 0.720715 0.687433 0.500000
O O12 0.751030 0.604975 0.750062
O O13 0.086121 0.173565 0.237453
O O14 0.087770 0.000000 0.250000
O O15 0.093668 0.077554 0.000000
O O16 0.060003 0.731873 0.500000
O O17 0.126147 0.664094 0.721361
O O18 0.000000 0.698290 0.750000
O O19 0.851935 0.500000 0.750000
O O20 0.816299 0.577157 0.000000
#
# Coordination Sequence:
#
# PCOD8202640 Si02
#       7
#     8   8   8   8   8   8   8
#     4   9  20  35  52  77 110 149 196 241 290 356
#     4  10  18  32  53  77 110 150 193 246 301 351
#     4  10  20  32  45  70 105 144 194 249 301 357
#     4  10  20  36  59  88 119 152 194 241 292 352
#     4  10  21  36  54  81 116 155 202 250 294 347
#     4  10  23  43  62  86 123 161 201 246 297 355
#     4  11  23  42  67  96 126 155 195 243 296 361
#
# _framework density 20.113710000000001
#
# number of rings (size 3 to 8) (size 9 to 14) (size 15 to 20)
#    0.000    2.000    1.429    3.000    0.000    8.286 
#    0.000    4.286    0.000    0.429    0.000    3.000 
#    0.000    0.000    0.000    0.000    0.000    0.000 
#
# Total GULP energy -694344.067571 kJ/mol
# GULP energy per Si atom -12399.001207 kJ/mol
# Density = 2.006793 g / cm^3
# Si number density = 20.113710 Si / 1000 Ang^3
#
#
#
# Elastic Constant Matrix: (Units=GPa)
#
#
# Indices 1 2 3 4 5 6 
#
# 1 106.9233 40.6863 42.1432 0.0000 0.0000 0.0000
# 2 40.6863 108.2892 39.4342 0.0000 0.0000 0.0000
# 3 42.1432 39.4342 73.2259 0.0000 0.0000 0.0000
# 4 0.0000 0.0000 0.0000 28.7992 0.0000 0.0000
# 5 0.0000 0.0000 0.0000 0.0000 31.1817 0.0000
# 6 0.0000 0.0000 0.0000 0.0000 0.0000 17.9160
#
#
#
# Elastic Compliance Matrix: (Units=1/GPa)
#
#
# Indices 1 2 3 4 5 6 
#
# 1 0.012666 -0.002618 -0.005880 0.000000 0.000000 0.000000
# 2 -0.002618 0.012028 -0.004971 0.000000 0.000000 0.000000
# 3 -0.005880 -0.004971 0.019717 0.000000 0.000000 0.000000
# 4 0.000000 0.000000 0.000000 0.034723 0.000000 0.000000
# 5 0.000000 0.000000 0.000000 0.000000 0.032070 0.000000
# 6 0.000000 0.000000 0.000000 0.000000 0.000000 0.055816
#
#
# Mechanical properties :
#
#
# Convention : Reuss Voigt Hill
#
# Bulk Modulus (GPa) = 57.22611 59.21841 58.22226
# Shear Modulus (GPa) = 25.02713 26.65770 25.84241
#
# Velocity S-wave (km/s) = 3.53127 3.64448 3.58832
# Velocity P-wave (km/s) = 6.71859 6.87135 6.79540
#
# Compressibility (1/GPa) = 0.01747454
#
# Stress axis : x y z
#
# Youngs Moduli (GPa) = 78.95085 83.13749 50.71649
#
# Poissons Ratio (x) = 0.21763 0.29821
# Poissons Ratio (y) = 0.20667 0.25211
# Poissons Ratio (z) = 0.46423 0.41328
#
# Static dielectric constant tensor:
#      x y z
#    x 3.594130 0.000000 0.000000 
#    y 0.000000 3.305130 0.000000 
#    z 0.000000 0.000000 3.587140 
# 
# 
# High freq. dielectric constant tensor:
#      x y z
#    x 1.782560 0.000000 0.000000 
#    y 0.000000 1.768800 0.000000 
#    z 0.000000 0.000000 1.785610 
# 
# From -- ./inp_files/5790.got.cif
#   From: 2010.03.12/outbox.cif.g09.slc.cpg/sg49_3_cif.got.tgz:5790.got - 2010.04.14 03:58:27.
