data_PCOD8202466
_publ_section_title
;
Structure prediction by ZEFSAII (Michael W. Deem and Ramdas Pophale) SiO2 
 PCOD8202466
Probable space group: P C C M
;
_chemical_formula_sum "Si O2"
_cell_formula_units_Z 64
_cell_length_a 18.418754
_cell_length_b 26.317220
_cell_length_c 8.669231
_cell_angle_alpha 90.000000
_cell_angle_beta 90.000000
_cell_angle_gamma 90.000000
_cell_volume 4202.239820
_symmetry_space_group_name_H-M "P C C M"
_symmetry_group_IT_number 49
_symmetry_cell_setting 'orthorhombic'
loop_
_space_group_symop_operation_xyz
x,y,z
-x,-y,z
x,-y,1/2-z
-x,y,1/2-z
-x,-y,-z
x,y,-z
-x,y,1/2+z
x,-y,1/2+z
loop_
_atom_site_type_symbol
_atom_site_label
_atom_site_fract_x
_atom_site_fract_y
_atom_site_fract_z
Si Si1 0.579117 0.251614 0.183029
Si Si2 0.706821 0.695121 0.826914
Si Si3 0.077892 0.258803 0.183849
Si Si4 0.922734 0.445320 0.316590
Si Si5 0.839837 0.353956 0.817469
Si Si6 0.420628 0.052648 0.683700
Si Si7 0.788413 0.198603 0.329954
Si Si8 0.340065 0.151640 0.680631
O O1 0.500000 0.260139 0.250000
O O2 0.629633 0.297691 0.242520
O O3 0.610653 0.197777 0.245917
O O4 0.576755 0.252720 0.000000
O O5 0.756598 0.656423 0.730374
O O6 0.747107 0.748407 0.832918
O O7 0.694637 0.674109 0.000000
O O8 0.105397 0.310560 0.260077
O O9 0.130426 0.211366 0.230184
O O10 0.000000 0.244299 0.250000
O O11 0.076815 0.266404 0.000000
O O12 0.901328 0.500000 0.250000
O O13 0.927362 0.447817 0.500000
O O14 0.861359 0.406439 0.262723
O O15 0.000000 0.427122 0.250000
O O16 0.845906 0.358550 0.000000
O O17 0.500000 0.063013 0.750000
O O18 0.424619 0.049766 0.500000
O O19 0.369165 0.098023 0.744666
O O20 0.388705 0.000000 0.750000
O O21 0.791575 0.174493 0.500000
O O22 0.744712 0.158788 0.224264
O O23 0.346689 0.151695 0.500000
#
# Coordination Sequence:
#
# PCOD8202466 Si02
#       8
#     8   8   8   8   8   8   8   8
#     4  10  18  28  42  62  86 114 144 177 213 254
#     4   9  17  30  44  61  84 111 142 178 213 252
#     4  10  19  30  43  63  87 114 145 177 210 249
#     4  11  21  34  48  65  88 115 147 184 220 255
#     4  11  20  31  46  64  86 116 148 179 215 256
#     4  10  19  30  42  59  81 108 140 176 211 247
#     4   8  16  28  42  59  81 107 138 172 209 248
#     4   9  18  29  42  59  81 109 143 175 210 251
#
# _framework density 15.229972999999999
#
# number of rings (size 3 to 8) (size 9 to 14) (size 15 to 20)
#    0.000    2.250    0.000    6.000    0.000    5.000 
#    0.000    0.000    0.000    0.000    0.000    0.000 
#    0.000    1.000    0.000   10.500    0.000    7.000 
#
# Total GULP energy -793444.431002 kJ/mol
# GULP energy per Si atom -12397.569234 kJ/mol
# Density = 1.519531 g / cm^3
# Si number density = 15.229973 Si / 1000 Ang^3
#
#
#
# Elastic Constant Matrix: (Units=GPa)
#
#
# Indices 1 2 3 4 5 6 
#
# 1 115.8729 54.8818 38.1867 0.0000 0.0000 0.0000
# 2 54.8818 80.5544 34.7089 0.0000 0.0000 0.0000
# 3 38.1867 34.7089 91.8596 0.0000 0.0000 0.0000
# 4 0.0000 0.0000 0.0000 21.3868 0.0000 0.0000
# 5 0.0000 0.0000 0.0000 0.0000 28.0446 0.0000
# 6 0.0000 0.0000 0.0000 0.0000 0.0000 25.6619
#
#
#
# Elastic Compliance Matrix: (Units=1/GPa)
#
#
# Indices 1 2 3 4 5 6 
#
# 1 0.013204 -0.007920 -0.002496 0.000000 0.000000 0.000000
# 2 -0.007920 0.019579 -0.004105 0.000000 0.000000 0.000000
# 3 -0.002496 -0.004105 0.013475 0.000000 0.000000 0.000000
# 4 0.000000 0.000000 0.000000 0.046758 0.000000 0.000000
# 5 0.000000 0.000000 0.000000 0.000000 0.035657 0.000000
# 6 0.000000 0.000000 0.000000 0.000000 0.000000 0.038968
#
#
# Mechanical properties :
#
#
# Convention : Reuss Voigt Hill
#
# Bulk Modulus (GPa) = 58.09172 60.42686 59.25929
# Shear Modulus (GPa) = 24.70058 25.71930 25.20994
#
# Velocity S-wave (km/s) = 4.03158 4.11387 4.07293
# Velocity P-wave (km/s) = 7.73934 7.89479 7.81745
#
# Compressibility (1/GPa) = 0.01721416
#
# Stress axis : x y z
#
# Youngs Moduli (GPa) = 75.73302 51.07494 74.21080
#
# Poissons Ratio (x) = 0.40454 0.18526
# Poissons Ratio (y) = 0.59984 0.30466
# Poissons Ratio (z) = 0.18906 0.20968
#
# Static dielectric constant tensor:
#      x y z
#    x 3.075560 0.000000 0.000000 
#    y 0.000000 2.873530 0.000000 
#    z 0.000000 0.000000 3.059550 
# 
# 
# High freq. dielectric constant tensor:
#      x y z
#    x 1.574070 0.000000 0.000000 
#    y 0.000000 1.549230 0.000000 
#    z 0.000000 0.000000 1.599720 
# 
# From -- ./inp_files/5441.got.cif
#   From: 2010.03.12/outbox.cif.g09.slc.cpg/sg49_3_cif.got.tgz:5441.got - 2010.04.14 03:58:27.
