data_PCOD8202514
_publ_section_title
;
Structure prediction by ZEFSAII (Michael W. Deem and Ramdas Pophale) SiO2 
 PCOD8202514
Probable space group: P C C M
;
_chemical_formula_sum "Si O2"
_cell_formula_units_Z 64
_cell_length_a 18.954914
_cell_length_b 23.596220
_cell_length_c 8.999606
_cell_angle_alpha 90.000000
_cell_angle_beta 90.000000
_cell_angle_gamma 90.000000
_cell_volume 4025.202665
_symmetry_space_group_name_H-M "P C C M"
_symmetry_group_IT_number 49
_symmetry_cell_setting 'orthorhombic'
loop_
_space_group_symop_operation_xyz
x,y,z
-x,-y,z
x,-y,1/2-z
-x,y,1/2-z
-x,-y,-z
x,y,-z
-x,y,1/2+z
x,-y,1/2+z
loop_
_atom_site_type_symbol
_atom_site_label
_atom_site_fract_x
_atom_site_fract_y
_atom_site_fract_z
Si Si1 0.071603 0.725796 0.329831
Si Si2 0.788211 0.668169 0.830363
Si Si3 0.720916 0.772149 0.674005
Si Si4 0.293295 0.442897 0.825373
Si Si5 0.428004 0.390049 0.676566
Si Si6 0.430530 0.259930 0.327327
Si Si7 0.159371 0.167842 0.174183
Si Si8 0.925878 0.057895 0.676420
O O1 0.052015 0.734671 0.500000
O O2 0.127765 0.675134 0.305251
O O3 0.104727 0.784512 0.266705
O O4 0.000000 0.708933 0.250000
O O5 0.746451 0.710414 0.724087
O O6 0.766427 0.604178 0.793790
O O7 0.768974 0.684492 0.000000
O O8 0.732933 0.776870 0.500000
O O9 0.637966 0.777586 0.714989
O O10 0.764297 0.822877 0.751145
O O11 0.264413 0.500000 0.750000
O O12 0.365918 0.426471 0.746985
O O13 0.306262 0.451490 0.000000
O O14 0.500000 0.412589 0.750000
O O15 0.429812 0.398793 0.500000
O O16 0.416629 0.324599 0.722671
O O17 0.500000 0.234248 0.250000
O O18 0.445930 0.257981 0.500000
O O19 0.130846 0.105975 0.215605
O O20 0.170002 0.175637 0.000000
O O21 0.935999 0.050553 0.500000
O O22 0.000000 0.075062 0.750000
O O23 0.897652 0.000000 0.750000
#
# Coordination Sequence:
#
# PCOD8202514 Si02
#       8
#     8   8   8   8   8   8   8   8
#     4   9  17  30  47  69  92 115 145 182 224 271
#     4   9  19  34  49  65  90 119 146 178 227 283
#     4  10  18  29  47  71  94 118 153 194 230 268
#     4  11  22  35  51  68  87 116 149 187 230 273
#     4  10  19  33  49  68  93 118 150 186 222 269
#     4   9  18  29  44  67  93 121 151 184 222 270
#     4   9  19  32  45  66  97 130 160 193 231 274
#     4  10  19  31  47  67  96 133 173 206 237 274
#
# _framework density 15.899820999999999
#
# number of rings (size 3 to 8) (size 9 to 14) (size 15 to 20)
#    0.000    2.375    1.250    3.000    0.000    5.250 
#    0.000    1.250    0.000    0.375    0.000    2.625 
#    0.000    0.500    0.000    5.500    0.000    4.000 
#
# Total GULP energy -793532.879068 kJ/mol
# GULP energy per Si atom -12398.951235 kJ/mol
# Density = 1.586363 g / cm^3
# Si number density = 15.899821 Si / 1000 Ang^3
#
#
#
# Elastic Constant Matrix: (Units=GPa)
#
#
# Indices 1 2 3 4 5 6 
#
# 1 113.4948 60.6398 48.5129 0.0000 0.0000 0.0000
# 2 60.6398 96.0715 41.5890 0.0000 0.0000 0.0000
# 3 48.5129 41.5890 67.2456 0.0000 0.0000 0.0000
# 4 0.0000 0.0000 0.0000 20.8777 0.0000 0.0000
# 5 0.0000 0.0000 0.0000 0.0000 29.0652 0.0000
# 6 0.0000 0.0000 0.0000 0.0000 0.0000 25.9430
#
#
#
# Elastic Compliance Matrix: (Units=1/GPa)
#
#
# Indices 1 2 3 4 5 6 
#
# 1 0.015348 -0.006684 -0.006939 0.000000 0.000000 0.000000
# 2 -0.006684 0.017125 -0.005769 0.000000 0.000000 0.000000
# 3 -0.006939 -0.005769 0.023445 0.000000 0.000000 0.000000
# 4 0.000000 0.000000 0.000000 0.047898 0.000000 0.000000
# 5 0.000000 0.000000 0.000000 0.000000 0.034405 0.000000
# 6 0.000000 0.000000 0.000000 0.000000 0.000000 0.038546
#
#
# Mechanical properties :
#
#
# Convention : Reuss Voigt Hill
#
# Bulk Modulus (GPa) = 58.36334 64.25504 61.30919
# Shear Modulus (GPa) = 22.59751 23.58187 23.08969
#
# Velocity S-wave (km/s) = 3.77403 3.85535 3.81491
# Velocity P-wave (km/s) = 7.46844 7.76650 7.61893
#
# Compressibility (1/GPa) = 0.01713404
#
# Stress axis : x y z
#
# Youngs Moduli (GPa) = 65.15463 58.39318 42.65308
#
# Poissons Ratio (x) = 0.39029 0.29596
# Poissons Ratio (y) = 0.43548 0.24609
# Poissons Ratio (z) = 0.45210 0.33690
#
# Static dielectric constant tensor:
#      x y z
#    x 3.078510 0.000000 0.000000 
#    y 0.000000 2.888970 0.000000 
#    z 0.000000 0.000000 3.066550 
# 
# 
# High freq. dielectric constant tensor:
#      x y z
#    x 1.606450 0.000000 0.000000 
#    y 0.000000 1.579350 0.000000 
#    z 0.000000 0.000000 1.620920 
# 
# From -- ./inp_files/5457.got.cif
#   From: 2010.03.12/outbox.cif.g09.slc.cpg/sg49_3_cif.got.tgz:5457.got - 2010.04.14 03:58:27.
