data_PCOD8202345
_publ_section_title
;
Structure prediction by ZEFSAII (Michael W. Deem and Ramdas Pophale) SiO2 
 PCOD8202345
Probable space group: P C C M
;
_chemical_formula_sum "Si O2"
_cell_formula_units_Z 40
_cell_length_a 25.657317
_cell_length_b 9.178507
_cell_length_c 8.564440
_cell_angle_alpha 90.000000
_cell_angle_beta 90.000000
_cell_angle_gamma 90.000000
_cell_volume 2016.890195
_symmetry_space_group_name_H-M "P C C M"
_symmetry_group_IT_number 49
_symmetry_cell_setting 'orthorhombic'
loop_
_space_group_symop_operation_xyz
x,y,z
-x,-y,z
x,-y,1/2-z
-x,y,1/2-z
-x,-y,-z
x,y,-z
-x,y,1/2+z
x,-y,1/2+z
loop_
_atom_site_type_symbol
_atom_site_label
_atom_site_fract_x
_atom_site_fract_y
_atom_site_fract_z
Si Si1 0.556793 0.154457 0.315269
Si Si2 0.352946 0.341686 0.683966
Si Si3 0.740449 0.159555 0.316814
Si Si4 0.947894 0.662556 0.316098
Si Si5 0.157251 0.341443 0.181807
O O1 0.500000 0.191009 0.250000
O O2 0.554379 0.144480 0.500000
O O3 0.594567 0.283216 0.262905
O O4 0.577491 0.000000 0.250000
O O5 0.339931 0.500000 0.750000
O O6 0.361064 0.349187 0.500000
O O7 0.305467 0.236980 0.724161
O O8 0.727106 0.157975 0.500000
O O9 0.794079 0.240494 0.280358
O O10 0.746600 0.000000 0.250000
O O11 0.946590 0.500000 0.250000
O O12 0.950751 0.662421 0.500000
O O13 0.893878 0.735400 0.258731
O O14 0.000000 0.742704 0.250000
O O15 0.169245 0.500000 0.250000
O O16 0.146574 0.358728 0.000000
#
# Coordination Sequence:
#
# PCOD8202345 Si02
#       5
#     8   8   8   8   8
#     4  11  22  40  64  92 124 160 200 240 286 339
#     4  12  25  42  63  89 120 154 194 241 291 343
#     4  11  24  41  61  85 114 151 192 237 287 344
#     4  10  17  27  46  73 107 143 181 225 276 330
#     4  10  20  34  54  81 112 145 185 231 282 335
#
# _framework density 19.832512999999999
#
# number of rings (size 3 to 8) (size 9 to 14) (size 15 to 20)
#    0.000    1.200    0.000   10.200    0.000    5.200 
#    0.000    2.000    0.000    0.600    0.000    4.200 
#    0.000    0.000    0.000    0.000    0.000    0.000 
#
# Total GULP energy -496102.268150 kJ/mol
# GULP energy per Si atom -12402.556704 kJ/mol
# Density = 1.978737 g / cm^3
# Si number density = 19.832513 Si / 1000 Ang^3
#
#
#
# Elastic Constant Matrix: (Units=GPa)
#
#
# Indices 1 2 3 4 5 6 
#
# 1 126.1536 50.9025 69.0574 0.0000 0.0000 0.0000
# 2 50.9025 95.0619 41.9340 0.0000 0.0000 0.0000
# 3 69.0574 41.9340 176.5618 0.0000 0.0000 0.0000
# 4 0.0000 0.0000 0.0000 27.4006 0.0000 0.0000
# 5 0.0000 0.0000 0.0000 0.0000 74.8992 0.0000
# 6 0.0000 0.0000 0.0000 0.0000 0.0000 37.5807
#
#
#
# Elastic Compliance Matrix: (Units=1/GPa)
#
#
# Indices 1 2 3 4 5 6 
#
# 1 0.011743 -0.004761 -0.003462 0.000000 0.000000 0.000000
# 2 -0.004761 0.013681 -0.001387 0.000000 0.000000 0.000000
# 3 -0.003462 -0.001387 0.007347 0.000000 0.000000 0.000000
# 4 0.000000 0.000000 0.000000 0.036496 0.000000 0.000000
# 5 0.000000 0.000000 0.000000 0.000000 0.013351 0.000000
# 6 0.000000 0.000000 0.000000 0.000000 0.000000 0.026609
#
#
# Mechanical properties :
#
#
# Convention : Reuss Voigt Hill
#
# Bulk Modulus (GPa) = 73.79706 80.17389 76.98547
# Shear Modulus (GPa) = 37.60402 43.70166 40.65284
#
# Velocity S-wave (km/s) = 4.35912 4.69928 4.53239
# Velocity P-wave (km/s) = 7.91371 8.36406 8.14200
#
# Compressibility (1/GPa) = 0.01355068
#
# Stress axis : x y z
#
# Youngs Moduli (GPa) = 85.15667 73.09628 136.10304
#
# Poissons Ratio (x) = 0.34799 0.47123
# Poissons Ratio (y) = 0.40541 0.18880
# Poissons Ratio (z) = 0.29484 0.10140
#
# Static dielectric constant tensor:
#      x y z
#    x 4.257730 0.000000 0.000000 
#    y 0.000000 3.382130 0.000000 
#    z 0.000000 0.000000 3.817300 
# 
# 
# High freq. dielectric constant tensor:
#      x y z
#    x 1.799760 0.000000 0.000000 
#    y 0.000000 1.743470 0.000000 
#    z 0.000000 0.000000 1.797490 
# 
# From -- ./inp_files/1700.got.cif
#   From: 2010.03.12/outbox.cif.g09.slc.cpg/sg49_1_cif.got.tgz:1700.got - 2010.04.14 03:58:27.
