data_PCOD8202007
_publ_section_title
;
Structure prediction by ZEFSAII (Michael W. Deem and Ramdas Pophale) SiO2 
 PCOD8202007
Probable space group: P N N N
;
_chemical_formula_sum "Si O2"
_cell_formula_units_Z 48
_cell_length_a 10.574119
_cell_length_b 25.367654
_cell_length_c 8.130892
_cell_angle_alpha 90.000000
_cell_angle_beta 90.000000
_cell_angle_gamma 90.000000
_cell_volume 2181.035285
_symmetry_space_group_name_H-M "P N N N"
_symmetry_group_IT_number 48
_space_group.IT_coordinate_system_code '2'
_symmetry_cell_setting 'orthorhombic'
loop_
_space_group_symop_operation_xyz
x,y,z
1/2-x,1/2-y,z
x,1/2-y,1/2-z
1/2-x,y,1/2-z
-x,-y,-z
1/2+x,1/2+y,-z
-x,1/2+y,1/2+z
1/2+x,-y,1/2+z
loop_
_atom_site_type_symbol
_atom_site_label
_atom_site_fract_x
_atom_site_fract_y
_atom_site_fract_z
Si Si1 0.516148 0.595278 0.114861
Si Si2 0.607061 0.805475 0.192434
Si Si3 0.415874 0.000820 0.840594
Si Si4 0.121507 0.157268 0.346319
Si Si5 0.884704 0.113161 0.189590
Si Si6 0.249428 0.443151 0.432683
O O1 0.532079 0.644869 0.234360
O O2 0.516632 0.540669 0.213765
O O3 0.387807 0.604855 0.009615
O O4 0.621772 0.589390 0.969554
O O5 0.547499 0.750000 0.250000
O O6 0.750000 0.811648 0.250000
O O7 0.599186 0.802443 0.995211
O O8 0.405355 0.943730 0.767630
O O9 0.276519 0.018805 0.910410
O O10 0.500000 0.000000 0.000000
O O11 0.250000 0.173759 0.250000
O O12 0.138558 0.099582 0.427093
O O13 0.993560 0.155525 0.237975
O O14 0.750000 0.136017 0.250000
O O15 0.250000 0.470734 0.250000
#
# Coordination Sequence:
#
# PCOD8202007 Si02
#       6
#     8   8   8   8   8   8
#     4  12  21  40  59  85 127 166 196 258 324 372
#     4  11  21  37  66 102 123 151 208 268 320 378
#     4  12  22  36  58  90 125 169 211 252 307 379
#     4  11  20  42  66  89 129 166 201 252 327 380
#     4  12  25  39  59  92 125 165 219 261 300 369
#     4  11  19  35  61  84 120 167 198 242 315 376
#
# _framework density 22.007898999999998
#
# number of rings (size 3 to 8) (size 9 to 14) (size 15 to 20)
#    0.000    0.500    8.333    2.000    0.000    1.333 
#    0.000    9.167    0.000    3.000    0.000    0.000 
#    0.000    0.000    0.000    0.000    0.000    0.000 
#
# Total GULP energy -594931.660373 kJ/mol
# GULP energy per Si atom -12394.409591 kJ/mol
# Density = 2.195781 g / cm^3
# Si number density = 22.007899 Si / 1000 Ang^3
#
#
#
# Elastic Constant Matrix: (Units=GPa)
#
#
# Indices 1 2 3 4 5 6 
#
# 1 99.9445 15.2865 41.5061 0.0000 0.0000 0.0000
# 2 15.2865 46.1143 27.5874 0.0000 0.0000 0.0000
# 3 41.5061 27.5874 152.2858 0.0000 0.0000 0.0000
# 4 0.0000 0.0000 0.0000 23.3047 0.0000 0.0000
# 5 0.0000 0.0000 0.0000 0.0000 31.9157 0.0000
# 6 0.0000 0.0000 0.0000 0.0000 0.0000 4.9646
#
#
#
# Elastic Compliance Matrix: (Units=1/GPa)
#
#
# Indices 1 2 3 4 5 6 
#
# 1 0.011473 -0.002167 -0.002734 0.000000 0.000000 0.000000
# 2 -0.002167 0.024730 -0.003889 0.000000 0.000000 0.000000
# 3 -0.002734 -0.003889 0.008016 0.000000 0.000000 0.000000
# 4 0.000000 0.000000 0.000000 0.042910 0.000000 0.000000
# 5 0.000000 0.000000 0.000000 0.000000 0.031333 0.000000
# 6 0.000000 0.000000 0.000000 0.000000 0.000000 0.201428
#
#
# Mechanical properties :
#
#
# Convention : Reuss Voigt Hill
#
# Bulk Modulus (GPa) = 37.54096 51.90049 44.72073
# Shear Modulus (GPa) = 14.43625 26.30131 20.36878
#
# Velocity S-wave (km/s) = 2.56395 3.46075 3.04554
# Velocity P-wave (km/s) = 5.08528 6.29309 5.72114
#
# Compressibility (1/GPa) = 0.02663757
#
# Stress axis : x y z
#
# Youngs Moduli (GPa) = 87.16446 40.43600 124.74408
#
# Poissons Ratio (x) = 0.08764 0.34108
# Poissons Ratio (y) = 0.18891 0.48517
# Poissons Ratio (z) = 0.23833 0.15727
#
# Static dielectric constant tensor:
#      x y z
#    x 4.312720 0.000000 0.000000 
#    y 0.000000 4.024810 0.000000 
#    z 0.000000 0.000000 4.771270 
# 
# 
# High freq. dielectric constant tensor:
#      x y z
#    x 1.838370 0.000000 0.000000 
#    y 0.000000 1.828550 0.000000 
#    z 0.000000 0.000000 1.894490 
# 
# From -- ./inp_files/11247.got.cif
#   From: 2010.06.25/outbox.cif.g09.slc.cpg/sg48_6_cif.got.tgz:11247.got - 2010.06.26 18:06:46.
