data_PCOD8202562
_publ_section_title
;
Structure prediction by ZEFSAII (Michael W. Deem and Ramdas Pophale) SiO2 
 PCOD8202562
Probable space group: P C C M
;
_chemical_formula_sum "Si O2"
_cell_formula_units_Z 64
_cell_length_a 18.993835
_cell_length_b 23.454982
_cell_length_c 8.790317
_cell_angle_alpha 90.000000
_cell_angle_beta 90.000000
_cell_angle_gamma 90.000000
_cell_volume 3916.086734
_symmetry_space_group_name_H-M "P C C M"
_symmetry_group_IT_number 49
_symmetry_cell_setting 'orthorhombic'
loop_
_space_group_symop_operation_xyz
x,y,z
-x,-y,z
x,-y,1/2-z
-x,y,1/2-z
-x,-y,-z
x,y,-z
-x,y,1/2+z
x,-y,1/2+z
loop_
_atom_site_type_symbol
_atom_site_label
_atom_site_fract_x
_atom_site_fract_y
_atom_site_fract_z
Si Si1 0.573017 0.771151 0.674690
Si Si2 0.929439 0.758088 0.822374
Si Si3 0.792240 0.058226 0.177802
Si Si4 0.712019 0.170459 0.175118
Si Si5 0.425984 0.561041 0.318957
Si Si6 0.221140 0.276331 0.822605
Si Si7 0.927609 0.112416 0.319564
Si Si8 0.343385 0.660581 0.820334
O O1 0.500000 0.787547 0.750000
O O2 0.556381 0.763146 0.500000
O O3 0.628576 0.821951 0.705987
O O4 0.605635 0.711686 0.735266
O O5 0.861855 0.719097 0.781556
O O6 0.916742 0.822491 0.762449
O O7 0.000000 0.731183 0.750000
O O8 0.941862 0.760317 0.000000
O O9 0.733120 0.105878 0.211567
O O10 0.865361 0.074046 0.255679
O O11 0.763117 0.000000 0.250000
O O12 0.805172 0.050410 0.000000
O O13 0.755318 0.212149 0.284145
O O14 0.728769 0.187327 0.000000
O O15 0.406110 0.500000 0.250000
O O16 0.500000 0.582685 0.250000
O O17 0.432039 0.556915 0.500000
O O18 0.364863 0.604209 0.270430
O O19 0.263478 0.323039 0.724692
O O20 0.234651 0.287564 0.000000
O O21 0.929182 0.107414 0.500000
O O22 0.000000 0.088317 0.250000
O O23 0.347556 0.649856 0.000000
#
# Coordination Sequence:
#
# PCOD8202562 Si02
#       8
#     8   8   8   8   8   8   8   8
#     4   9  18  31  48  71  95 119 149 187 232 280
#     4   9  18  29  45  68  95 125 157 192 232 285
#     4  11  22  35  51  68  88 117 151 192 236 283
#     4   9  19  34  49  66  91 120 149 185 234 290
#     4  11  21  34  51  72 101 140 179 215 248 287
#     4  10  18  30  48  72  97 124 159 200 242 285
#     4  10  19  33  49  69  93 120 153 190 229 278
#     4  10  20  33  48  71 102 135 169 205 242 284
#
# _framework density 16.342845000000001
#
# number of rings (size 3 to 8) (size 9 to 14) (size 15 to 20)
#    0.000    2.125    1.250    4.125    0.000    5.750 
#    0.000    1.250    0.000    0.375    0.000    2.625 
#    0.000    0.500    0.000    5.250    0.000    2.875 
#
# Total GULP energy -793616.349743 kJ/mol
# GULP energy per Si atom -12400.255465 kJ/mol
# Density = 1.630565 g / cm^3
# Si number density = 16.342845 Si / 1000 Ang^3
#
#
#
# Elastic Constant Matrix: (Units=GPa)
#
#
# Indices 1 2 3 4 5 6 
#
# 1 110.5464 50.8603 40.2049 0.0000 0.0000 0.0000
# 2 50.8603 81.8637 36.4147 0.0000 0.0000 0.0000
# 3 40.2049 36.4147 76.5765 0.0000 0.0000 0.0000
# 4 0.0000 0.0000 0.0000 23.7586 0.0000 0.0000
# 5 0.0000 0.0000 0.0000 0.0000 29.2284 0.0000
# 6 0.0000 0.0000 0.0000 0.0000 0.0000 23.9850
#
#
#
# Elastic Compliance Matrix: (Units=1/GPa)
#
#
# Indices 1 2 3 4 5 6 
#
# 1 0.013545 -0.006661 -0.003944 0.000000 0.000000 0.000000
# 2 -0.006661 0.018768 -0.005428 0.000000 0.000000 0.000000
# 3 -0.003944 -0.005428 0.017711 0.000000 0.000000 0.000000
# 4 0.000000 0.000000 0.000000 0.042090 0.000000 0.000000
# 5 0.000000 0.000000 0.000000 0.000000 0.034213 0.000000
# 6 0.000000 0.000000 0.000000 0.000000 0.000000 0.041693
#
#
# Mechanical properties :
#
#
# Convention : Reuss Voigt Hill
#
# Bulk Modulus (GPa) = 55.68403 58.21624 56.95013
# Shear Modulus (GPa) = 24.26352 24.82819 24.54585
#
# Velocity S-wave (km/s) = 3.85730 3.90193 3.87968
# Velocity P-wave (km/s) = 7.34743 7.48327 7.41566
#
# Compressibility (1/GPa) = 0.01795847
#
# Stress axis : x y z
#
# Youngs Moduli (GPa) = 73.82854 53.28218 56.46326
#
# Poissons Ratio (x) = 0.35490 0.22269
# Poissons Ratio (y) = 0.49176 0.30647
# Poissons Ratio (z) = 0.29118 0.28920
#
# Static dielectric constant tensor:
#      x y z
#    x 3.183160 0.000000 0.000000 
#    y 0.000000 2.906570 0.000000 
#    z 0.000000 0.000000 3.133110 
# 
# 
# High freq. dielectric constant tensor:
#      x y z
#    x 1.625140 0.000000 0.000000 
#    y 0.000000 1.595480 0.000000 
#    z 0.000000 0.000000 1.640800 
# 
# From -- ./inp_files/5429.got.cif
#   From: 2010.03.12/outbox.cif.g09.slc.cpg/sg49_3_cif.got.tgz:5429.got - 2010.04.14 03:58:27.
