data_PCOD8202413
_publ_section_title
;
Structure prediction by ZEFSAII (Michael W. Deem and Ramdas Pophale) SiO2 
 PCOD8202413
Probable space group: P C C M
;
_chemical_formula_sum "Si O2"
_cell_formula_units_Z 40
_cell_length_a 15.015260
_cell_length_b 15.031982
_cell_length_c 8.771290
_cell_angle_alpha 90.000000
_cell_angle_beta 90.000000
_cell_angle_gamma 90.000000
_cell_volume 1979.760130
_symmetry_space_group_name_H-M "P C C M"
_symmetry_group_IT_number 49
_symmetry_cell_setting 'orthorhombic'
loop_
_space_group_symop_operation_xyz
x,y,z
-x,-y,z
x,-y,1/2-z
-x,y,1/2-z
-x,-y,-z
x,y,-z
-x,y,1/2+z
x,-y,1/2+z
loop_
_atom_site_type_symbol
_atom_site_label
_atom_site_fract_x
_atom_site_fract_y
_atom_site_fract_z
Si Si1 0.266824 0.096258 0.319841
Si Si2 0.088123 0.098619 0.181801
Si Si3 0.281064 0.596122 0.179290
Si Si4 0.403753 0.247082 0.678985
Si Si5 0.084908 0.596721 0.822155
O O1 0.250790 0.087871 0.500000
O O2 0.179371 0.142451 0.243508
O O3 0.350069 0.158195 0.279014
O O4 0.287612 0.000000 0.250000
O O5 0.000000 0.147624 0.250000
O O6 0.089865 0.000000 0.250000
O O7 0.084719 0.098091 0.000000
O O8 0.299203 0.500000 0.250000
O O9 0.352337 0.666424 0.244641
O O10 0.182426 0.636646 0.216563
O O11 0.290999 0.584291 0.000000
O O12 0.500000 0.239937 0.750000
O O13 0.413541 0.257100 0.500000
O O14 0.085130 0.500000 0.750000
O O15 0.000000 0.650640 0.750000
O O16 0.068436 0.590576 0.000000
#
# Coordination Sequence:
#
# PCOD8202413 Si02
#       5
#     8   8   8   8   8
#     4  10  20  36  57  81 110 144 181 225 272 323
#     4  10  17  28  49  78 111 146 182 220 263 317
#     4   9  19  36  56  80 109 143 178 217 265 318
#     4  10  23  41  59  79 107 140 178 227 280 329
#     4   9  15  25  45  72 104 137 171 207 249 301
#
# _framework density 20.204469
#
# number of rings (size 3 to 8) (size 9 to 14) (size 15 to 20)
#    0.000    2.400    0.000    5.400    0.000    4.000 
#    0.000    5.000    0.000    2.400    0.000    0.000 
#    0.000    0.000    0.000    0.000    0.000    0.000 
#
# Total GULP energy -495658.364936 kJ/mol
# GULP energy per Si atom -12391.459123 kJ/mol
# Density = 2.015848 g / cm^3
# Si number density = 20.204469 Si / 1000 Ang^3
#
#
#
# Elastic Constant Matrix: (Units=GPa)
#
#
# Indices 1 2 3 4 5 6 
#
# 1 217.4363 73.2741 76.1135 0.0000 0.0000 0.0000
# 2 73.2741 85.3498 40.6765 0.0000 0.0000 0.0000
# 3 76.1135 40.6765 109.7927 0.0000 0.0000 0.0000
# 4 0.0000 0.0000 0.0000 18.3130 0.0000 0.0000
# 5 0.0000 0.0000 0.0000 0.0000 39.7200 0.0000
# 6 0.0000 0.0000 0.0000 0.0000 0.0000 -114.6488
#
#
#
# Elastic Compliance Matrix: (Units=1/GPa)
#
#
# Indices 1 2 3 4 5 6 
#
# 1 0.007366 -0.004724 -0.003356 0.000000 0.000000 0.000000
# 2 -0.004724 0.017259 -0.003119 0.000000 0.000000 0.000000
# 3 -0.003356 -0.003119 0.012590 0.000000 0.000000 0.000000
# 4 0.000000 0.000000 0.000000 0.054606 0.000000 0.000000
# 5 0.000000 0.000000 0.000000 0.000000 0.025176 0.000000
# 6 0.000000 0.000000 0.000000 0.000000 0.000000 -0.008722
#
#
# Mechanical properties :
#
#
# Convention : Reuss Voigt Hill
#
# Bulk Modulus (GPa) = 67.49406 88.07856 77.78631
# Shear Modulus (GPa) = 36.86977 3.51116 20.19047
#
# Velocity S-wave (km/s) = 4.27644 1.31969 3.16461
# Velocity P-wave (km/s) = 7.60670 6.78309 7.20667
#
# Compressibility (1/GPa) = 0.01481612
#
# Stress axis : x y z
#
# Youngs Moduli (GPa) = 135.76102 57.94133 79.42648
#
# Poissons Ratio (x) = 0.27373 0.26656
# Poissons Ratio (y) = 0.64137 0.24774
# Poissons Ratio (z) = 0.45563 0.18072
#
# Static dielectric constant tensor:
#      x y z
#    x 7.392150 0.000000 0.000000 
#    y 0.000000 3.383020 0.000000 
#    z 0.000000 0.000000 3.643480 
# 
# 
# High freq. dielectric constant tensor:
#      x y z
#    x 1.807910 0.000000 0.000000 
#    y 0.000000 1.758180 0.000000 
#    z 0.000000 0.000000 1.790540 
# 
# From -- ./inp_files/3444.got.cif
#   From: 2010.03.12/outbox.cif.g09.slc.cpg/sg49_2_cif.got.tgz:3444.got - 2010.04.14 03:58:27.
