data_PCOD8202716
_publ_section_title
;
Structure prediction by ZEFSAII (Michael W. Deem and Ramdas Pophale) SiO2 
 PCOD8202716
Probable space group: P C C M
;
_chemical_formula_sum "Si O2"
_cell_formula_units_Z 64
_cell_length_a 26.576106
_cell_length_b 18.295103
_cell_length_c 8.864262
_cell_angle_alpha 90.000000
_cell_angle_beta 90.000000
_cell_angle_gamma 90.000000
_cell_volume 4309.915844
_symmetry_space_group_name_H-M "P C C M"
_symmetry_group_IT_number 49
_symmetry_cell_setting 'orthorhombic'
loop_
_space_group_symop_operation_xyz
x,y,z
-x,-y,z
x,-y,1/2-z
-x,y,1/2-z
-x,-y,-z
x,y,-z
-x,y,1/2+z
x,-y,1/2+z
loop_
_atom_site_type_symbol
_atom_site_label
_atom_site_fract_x
_atom_site_fract_y
_atom_site_fract_z
Si Si1 0.856097 0.922728 0.679319
Si Si2 0.341563 0.578545 0.824683
Si Si3 0.547387 0.421199 0.824727
Si Si4 0.794937 0.788092 0.666095
Si Si5 0.052309 0.837235 0.319989
Si Si6 0.847149 0.578785 0.822716
Si Si7 0.254323 0.336208 0.174206
Si Si8 0.100304 0.705027 0.169265
O O1 0.865654 0.926952 0.500000
O O2 0.807950 0.870847 0.715972
O O3 0.905816 0.892671 0.759579
O O4 0.841895 0.000000 0.750000
O O5 0.333142 0.500000 0.750000
O O6 0.397335 0.612747 0.793931
O O7 0.302531 0.637515 0.765106
O O8 0.332420 0.565792 0.000000
O O9 0.548700 0.500000 0.750000
O O10 0.500000 0.376803 0.750000
O O11 0.536370 0.428376 0.000000
O O12 0.769976 0.786776 0.500000
O O13 0.757443 0.747951 0.781708
O O14 0.847344 0.746335 0.660867
O O15 0.050911 0.839653 0.500000
O O16 0.061793 0.754140 0.265074
O O17 0.000000 0.864728 0.250000
O O18 0.850022 0.500000 0.750000
O O19 0.792771 0.612616 0.784291
O O20 0.891680 0.627586 0.751800
O O21 0.855951 0.573668 0.000000
O O22 0.267636 0.339354 0.000000
O O23 0.079006 0.692575 0.000000
#
# Coordination Sequence:
#
# PCOD8202716 Si02
#       8
#     8   8   8   8   8   8   8   8
#     4  10  20  34  51  72  94 116 140 167 198 233
#     4  10  19  28  38  54  78 106 139 179 223 261
#     4   9  16  25  37  51  68  96 133 175 218 260
#     4   8  16  30  46  62  84 111 137 164 197 238
#     4  11  21  34  51  70  91 114 139 167 199 238
#     4  10  19  29  42  62  84 108 137 171 210 250
#     4  10  19  28  41  60  82 108 139 172 209 249
#     4   9  17  31  48  65  84 108 137 168 202 243
#
# _framework density 14.849477
#
# number of rings (size 3 to 8) (size 9 to 14) (size 15 to 20)
#    0.000    2.375    0.000    4.875    0.000    7.750 
#    0.000    1.250    0.000    0.375    0.000    2.625 
#    0.000    0.000    0.000    0.000    0.000    0.625 
#
# Total GULP energy -793297.281708 kJ/mol
# GULP energy per Si atom -12395.270027 kJ/mol
# Density = 1.481568 g / cm^3
# Si number density = 14.849477 Si / 1000 Ang^3
#
#
#
# Elastic Constant Matrix: (Units=GPa)
#
#
# Indices 1 2 3 4 5 6 
#
# 1 56.1322 32.2333 33.2433 0.0000 0.0000 0.0000
# 2 32.2333 92.5389 41.4261 0.0000 0.0000 0.0000
# 3 33.2433 41.4261 94.6906 0.0000 0.0000 0.0000
# 4 0.0000 0.0000 0.0000 24.0589 0.0000 0.0000
# 5 0.0000 0.0000 0.0000 0.0000 23.7353 0.0000
# 6 0.0000 0.0000 0.0000 0.0000 0.0000 12.3168
#
#
#
# Elastic Compliance Matrix: (Units=1/GPa)
#
#
# Indices 1 2 3 4 5 6 
#
# 1 0.024841 -0.005905 -0.006138 0.000000 0.000000 0.000000
# 2 -0.005905 0.014842 -0.004420 0.000000 0.000000 0.000000
# 3 -0.006138 -0.004420 0.014649 0.000000 0.000000 0.000000
# 4 0.000000 0.000000 0.000000 0.041565 0.000000 0.000000
# 5 0.000000 0.000000 0.000000 0.000000 0.042131 0.000000
# 6 0.000000 0.000000 0.000000 0.000000 0.000000 0.081190
#
#
# Mechanical properties :
#
#
# Convention : Reuss Voigt Hill
#
# Bulk Modulus (GPa) = 46.71469 50.79635 48.75552
# Shear Modulus (GPa) = 19.28426 21.11946 20.20186
#
# Velocity S-wave (km/s) = 3.60759 3.77535 3.69242
# Velocity P-wave (km/s) = 6.99142 7.29973 7.14724
#
# Compressibility (1/GPa) = 0.02140654
#
# Stress axis : x y z
#
# Youngs Moduli (GPa) = 40.25626 67.37727 68.26329
#
# Poissons Ratio (x) = 0.39787 0.41897
# Poissons Ratio (y) = 0.23771 0.30173
# Poissons Ratio (z) = 0.24708 0.29781
#
# Static dielectric constant tensor:
#      x y z
#    x 3.179770 0.000000 0.000000 
#    y 0.000000 2.777380 0.000000 
#    z 0.000000 0.000000 3.070580 
# 
# 
# High freq. dielectric constant tensor:
#      x y z
#    x 1.544060 0.000000 0.000000 
#    y 0.000000 1.537540 0.000000 
#    z 0.000000 0.000000 1.590160 
# 
# From -- ./inp_files/6610.got.cif
#   From: 2010.03.12/outbox.cif.g09.slc.cpg/sg49_4_cif.got.tgz:6610.got - 2010.04.14 03:58:27.
