data_PCOD8202344
_publ_section_title
;
Structure prediction by ZEFSAII (Michael W. Deem and Ramdas Pophale) SiO2 
 PCOD8202344
Probable space group: P C C M
;
_chemical_formula_sum "Si O2"
_cell_formula_units_Z 48
_cell_length_a 9.138993
_cell_length_b 30.815510
_cell_length_c 8.634162
_cell_angle_alpha 90.000000
_cell_angle_beta 90.000000
_cell_angle_gamma 90.000000
_cell_volume 2431.576275
_symmetry_space_group_name_H-M "P C C M"
_symmetry_group_IT_number 49
_symmetry_cell_setting 'orthorhombic'
loop_
_space_group_symop_operation_xyz
x,y,z
-x,-y,z
x,-y,1/2-z
-x,y,1/2-z
-x,-y,-z
x,y,-z
-x,y,1/2+z
x,-y,1/2+z
loop_
_atom_site_type_symbol
_atom_site_label
_atom_site_fract_x
_atom_site_fract_y
_atom_site_fract_z
Si Si1 0.345385 0.953117 0.816823
Si Si2 0.839686 0.715167 0.682171
Si Si3 0.843537 0.878872 0.180812
Si Si4 0.336981 0.543344 0.683730
Si Si5 0.338998 0.631315 0.816559
Si Si6 0.340475 0.206449 0.819743
O O1 0.500000 0.936367 0.750000
O O2 0.217548 0.920735 0.768538
O O3 0.305192 0.000000 0.750000
O O4 0.357911 0.956012 0.000000
O O5 0.851436 0.717358 0.500000
O O6 0.762298 0.670941 0.736570
O O7 0.746630 0.755483 0.738481
O O8 0.000000 0.717459 0.750000
O O9 0.738496 0.838686 0.214048
O O10 0.000000 0.866770 0.250000
O O11 0.856622 0.889301 0.000000
O O12 0.256477 0.500000 0.750000
O O13 0.500000 0.543844 0.750000
O O14 0.336893 0.542102 0.500000
O O15 0.263757 0.587765 0.745524
O O16 0.500000 0.639602 0.750000
O O17 0.350230 0.626607 0.000000
O O18 0.500000 0.203114 0.750000
O O19 0.350363 0.217011 0.000000
#
# Coordination Sequence:
#
# PCOD8202344 Si02
#       6
#     8   8   8   8   8   8
#     4  11  22  39  63  90 121 158 200 247 294 346
#     4  11  24  40  60  84 115 151 190 235 286 342
#     4  11  24  41  61  89 122 158 197 241 291 346
#     4  10  17  27  46  73 106 142 179 226 277 329
#     4  10  20  34  53  80 110 144 185 231 279 333
#     4  11  24  41  64  90 119 152 192 238 286 341
#
# _framework density 19.740283000000002
#
# number of rings (size 3 to 8) (size 9 to 14) (size 15 to 20)
#    0.000    1.333    0.000    8.500    0.000    9.667 
#    0.000    1.667    0.000    0.500    0.000    3.500 
#    0.000    0.000    0.000    0.000    0.000    0.000 
#
# Total GULP energy -595340.641237 kJ/mol
# GULP energy per Si atom -12402.930026 kJ/mol
# Density = 1.969535 g / cm^3
# Si number density = 19.740283 Si / 1000 Ang^3
#
#
#
# Elastic Constant Matrix: (Units=GPa)
#
#
# Indices 1 2 3 4 5 6 
#
# 1 107.9727 48.3553 35.4956 0.0000 0.0000 0.0000
# 2 48.3553 120.7322 54.3783 0.0000 0.0000 0.0000
# 3 35.4956 54.3783 116.0798 0.0000 0.0000 0.0000
# 4 0.0000 0.0000 0.0000 34.0503 0.0000 0.0000
# 5 0.0000 0.0000 0.0000 0.0000 27.8680 0.0000
# 6 0.0000 0.0000 0.0000 0.0000 0.0000 4.3581
#
#
#
# Elastic Compliance Matrix: (Units=1/GPa)
#
#
# Indices 1 2 3 4 5 6 
#
# 1 0.011554 -0.003848 -0.001730 0.000000 0.000000 0.000000
# 2 -0.003848 0.011779 -0.004341 0.000000 0.000000 0.000000
# 3 -0.001730 -0.004341 0.011178 0.000000 0.000000 0.000000
# 4 0.000000 0.000000 0.000000 0.029368 0.000000 0.000000
# 5 0.000000 0.000000 0.000000 0.000000 0.035883 0.000000
# 6 0.000000 0.000000 0.000000 0.000000 0.000000 0.229455
#
#
# Mechanical properties :
#
#
# Convention : Reuss Voigt Hill
#
# Bulk Modulus (GPa) = 68.16121 69.02699 68.59410
# Shear Modulus (GPa) = 14.12637 27.02566 20.57601
#
# Velocity S-wave (km/s) = 2.67799 3.70410 3.23203
# Velocity P-wave (km/s) = 6.64576 7.30324 6.98224
#
# Compressibility (1/GPa) = 0.01467110
#
# Stress axis : x y z
#
# Youngs Moduli (GPa) = 86.55145 84.89356 89.46425
#
# Poissons Ratio (x) = 0.32668 0.15480
# Poissons Ratio (y) = 0.33306 0.38840
# Poissons Ratio (z) = 0.14976 0.36856
#
# Static dielectric constant tensor:
#      x y z
#    x 3.438080 0.000000 0.000000 
#    y 0.000000 4.226190 0.000000 
#    z 0.000000 0.000000 3.856110 
# 
# 
# High freq. dielectric constant tensor:
#      x y z
#    x 1.748860 0.000000 0.000000 
#    y 0.000000 1.794540 0.000000 
#    z 0.000000 0.000000 1.790580 
# 
# From -- ./inp_files/2088.got.cif
#   From: 2010.03.12/outbox.cif.g09.slc.cpg/sg49_2_cif.got.tgz:2088.got - 2010.04.14 03:58:27.
