data_PCOD8202918
_publ_section_title
;
Structure prediction by ZEFSAII (Michael W. Deem and Ramdas Pophale) SiO2 
 PCOD8202918
Probable space group: P C C M
;
_chemical_formula_sum "Si O2"
_cell_formula_units_Z 64
_cell_length_a 15.397191
_cell_length_b 24.524934
_cell_length_c 8.773275
_cell_angle_alpha 90.000000
_cell_angle_beta 90.000000
_cell_angle_gamma 90.000000
_cell_volume 3312.921056
_symmetry_space_group_name_H-M "P C C M"
_symmetry_group_IT_number 49
_symmetry_cell_setting 'orthorhombic'
loop_
_space_group_symop_operation_xyz
x,y,z
-x,-y,z
x,-y,1/2-z
-x,y,1/2-z
-x,-y,-z
x,y,-z
-x,y,1/2+z
x,-y,1/2+z
loop_
_atom_site_type_symbol
_atom_site_label
_atom_site_fract_x
_atom_site_fract_y
_atom_site_fract_z
Si Si1 0.590100 0.140972 0.675178
Si Si2 0.127652 0.785977 0.174206
Si Si3 0.085432 0.105131 0.821906
Si Si4 0.729223 0.637477 0.177089
Si Si5 0.409935 0.559251 0.181344
Si Si6 0.265601 0.057748 0.181321
Si Si7 0.911084 0.662797 0.678729
Si Si8 0.700842 0.239674 0.326606
O O1 0.500000 0.126037 0.750000
O O2 0.578867 0.127612 0.500000
O O3 0.665509 0.102164 0.741695
O O4 0.613626 0.204768 0.702587
O O5 0.083867 0.830702 0.281676
O O6 0.086564 0.727320 0.210405
O O7 0.229614 0.783117 0.208502
O O8 0.113646 0.803383 0.000000
O O9 0.171179 0.075914 0.755842
O O10 0.000000 0.077040 0.750000
O O11 0.080629 0.098026 0.000000
O O12 0.671383 0.596213 0.273401
O O13 0.827793 0.636142 0.239064
O O14 0.684489 0.696483 0.200609
O O15 0.730422 0.620629 0.000000
O O16 0.392537 0.500000 0.250000
O O17 0.500000 0.583169 0.250000
O O18 0.417922 0.555980 0.000000
O O19 0.292092 0.000000 0.250000
O O20 0.264551 0.054718 0.000000
O O21 0.906097 0.649298 0.500000
O O22 0.000000 0.638167 0.750000
O O23 0.734541 0.229623 0.500000
#
# Coordination Sequence:
#
# PCOD8202918 Si02
#       8
#     8   8   8   8   8   8   8   8
#     4  10  21  39  59  83 110 143 180 224 278 334
#     4  10  19  31  52  81 111 146 188 228 273 330
#     4  11  22  37  56  80 109 141 177 223 274 335
#     4  10  20  35  58  87 118 158 197 238 292 345
#     4  11  22  39  62  88 120 156 200 250 295 347
#     4  10  23  42  61  78 106 139 178 227 281 334
#     4  10  20  33  50  79 117 157 198 241 285 334
#     4   9  18  35  56  79 116 153 185 226 279 335
#
# _framework density 19.318299
#
# number of rings (size 3 to 8) (size 9 to 14) (size 15 to 20)
#    0.000    1.875    1.250    3.375    0.000    6.000 
#    0.000    3.750    0.000    0.375    0.000    2.625 
#    0.000    0.000    0.000    0.000    0.000    0.000 
#
# Total GULP energy -793618.092097 kJ/mol
# GULP energy per Si atom -12400.282689 kJ/mol
# Density = 1.927433 g / cm^3
# Si number density = 19.318299 Si / 1000 Ang^3
#
#
#
# Elastic Constant Matrix: (Units=GPa)
#
#
# Indices 1 2 3 4 5 6 
#
# 1 150.5282 56.5323 52.8742 0.0000 0.0000 0.0000
# 2 56.5323 75.6533 34.6791 0.0000 0.0000 0.0000
# 3 52.8742 34.6791 85.3009 0.0000 0.0000 0.0000
# 4 0.0000 0.0000 0.0000 24.8992 0.0000 0.0000
# 5 0.0000 0.0000 0.0000 0.0000 36.6139 0.0000
# 6 0.0000 0.0000 0.0000 0.0000 0.0000 14.9851
#
#
#
# Elastic Compliance Matrix: (Units=1/GPa)
#
#
# Indices 1 2 3 4 5 6 
#
# 1 0.010224 -0.005819 -0.003971 0.000000 0.000000 0.000000
# 2 -0.005819 0.019558 -0.004344 0.000000 0.000000 0.000000
# 3 -0.003971 -0.004344 0.015951 0.000000 0.000000 0.000000
# 4 0.000000 0.000000 0.000000 0.040162 0.000000 0.000000
# 5 0.000000 0.000000 0.000000 0.000000 0.027312 0.000000
# 6 0.000000 0.000000 0.000000 0.000000 0.000000 0.066733
#
#
# Mechanical properties :
#
#
# Convention : Reuss Voigt Hill
#
# Bulk Modulus (GPa) = 57.26384 66.62817 61.94601
# Shear Modulus (GPa) = 23.36113 26.45942 24.91028
#
# Velocity S-wave (km/s) = 3.48124 3.70490 3.59481
# Velocity P-wave (km/s) = 6.77239 7.27092 7.02608
#
# Compressibility (1/GPa) = 0.01746303
#
# Stress axis : x y z
#
# Youngs Moduli (GPa) = 97.81155 51.12990 62.69181
#
# Poissons Ratio (x) = 0.29754 0.24897
# Poissons Ratio (y) = 0.56919 0.27235
# Poissons Ratio (z) = 0.38845 0.22212
#
# Static dielectric constant tensor:
#      x y z
#    x 3.661190 0.000000 0.000000 
#    y 0.000000 3.374790 0.000000 
#    z 0.000000 0.000000 3.500380 
# 
# 
# High freq. dielectric constant tensor:
#      x y z
#    x 1.757030 0.000000 0.000000 
#    y 0.000000 1.729940 0.000000 
#    z 0.000000 0.000000 1.755130 
# 
# From -- ./inp_files/4295.got.cif
#   From: 2010.03.12/outbox.cif.g09.slc.cpg/sg49_3_cif.got.tgz:4295.got - 2010.04.14 03:58:27.
