data_PCOD8202656
_publ_section_title
;
Structure prediction by ZEFSAII (Michael W. Deem and Ramdas Pophale) SiO2 
 PCOD8202656
Probable space group: P C C M
;
_chemical_formula_sum "Si O2"
_cell_formula_units_Z 48
_cell_length_a 17.478072
_cell_length_b 10.493932
_cell_length_c 13.915063
_cell_angle_alpha 90.000000
_cell_angle_beta 90.000000
_cell_angle_gamma 90.000000
_cell_volume 2552.213177
_symmetry_space_group_name_H-M "P C C M"
_symmetry_group_IT_number 49
_symmetry_cell_setting 'orthorhombic'
loop_
_space_group_symop_operation_xyz
x,y,z
-x,-y,z
x,-y,1/2-z
-x,y,1/2-z
-x,-y,-z
x,y,-z
-x,y,1/2+z
x,-y,1/2+z
loop_
_atom_site_type_symbol
_atom_site_label
_atom_site_fract_x
_atom_site_fract_y
_atom_site_fract_z
Si Si1 0.552873 0.879716 0.500000
Si Si2 0.561193 0.392099 0.000000
Si Si3 0.941530 0.383293 0.000000
Si Si4 0.042355 0.866048 0.500000
Si Si5 0.587420 0.869741 0.711891
Si Si6 0.335663 0.621388 0.185017
Si Si7 0.913932 0.862921 0.787086
Si Si8 0.159897 0.624970 0.812712
O O1 0.512342 0.740384 0.500000
O O2 0.600930 0.883361 0.597486
O O3 0.500000 0.000000 0.500000
O O4 0.500000 0.500000 0.000000
O O5 0.614826 0.401847 0.091411
O O6 0.889785 0.392280 0.093178
O O7 0.000000 0.500000 0.000000
O O8 0.982260 0.247815 0.000000
O O9 0.092737 0.857758 0.596872
O O10 0.000000 0.000000 0.500000
O O11 0.500000 0.858029 0.750000
O O12 0.634416 0.745323 0.744568
O O13 0.624896 0.000000 0.750000
O O14 0.348584 0.500000 0.250000
O O15 0.247730 0.638814 0.156360
O O16 0.861536 0.750984 0.746474
O O17 0.000000 0.840869 0.750000
O O18 0.883745 0.000000 0.750000
O O19 0.145182 0.500000 0.750000
#
# Coordination Sequence:
#
# PCOD8202656 Si02
#       8
#     4   4   4   4   8   8   8   8
#     4  10  18  33  52  86 117 137 177 241 292 320
#     4  10  23  37  62  89 114 154 199 248 290 358
#     4  12  23  35  64  87 110 159 201 245 296 353
#     4  12  20  35  58  94 119 148 202 257 296 345
#     4  10  20  34  59  86 112 147 192 239 283 351
#     4  10  24  40  58  85 120 159 193 241 305 359
#     4  11  21  37  62  90 120 156 204 253 303 360
#     4  11  24  41  57  84 125 157 196 249 303 369
#
# _framework density 18.807205
#
# number of rings (size 3 to 8) (size 9 to 14) (size 15 to 20)
#    0.000    1.333    5.000    1.500    4.667    0.667 
#    0.000    0.833    0.000    2.000    0.000    0.000 
#    0.000    0.000    0.000    0.000    0.000    0.000 
#
# Total GULP energy -594945.990242 kJ/mol
# GULP energy per Si atom -12394.708130 kJ/mol
# Density = 1.876440 g / cm^3
# Si number density = 18.807205 Si / 1000 Ang^3
#
#
#
# Elastic Constant Matrix: (Units=GPa)
#
#
# Indices 1 2 3 4 5 6 
#
# 1 90.8171 89.9817 58.3372 0.0000 0.0000 0.0000
# 2 89.9817 201.1181 61.8906 0.0000 0.0000 0.0000
# 3 58.3372 61.8906 141.4532 0.0000 0.0000 0.0000
# 4 0.0000 0.0000 0.0000 23.2312 0.0000 0.0000
# 5 0.0000 0.0000 0.0000 0.0000 28.7871 0.0000
# 6 0.0000 0.0000 0.0000 0.0000 0.0000 27.5712
#
#
#
# Elastic Compliance Matrix: (Units=1/GPa)
#
#
# Indices 1 2 3 4 5 6 
#
# 1 0.023318 -0.008636 -0.005838 0.000000 0.000000 0.000000
# 2 -0.008636 0.008944 -0.000352 0.000000 0.000000 0.000000
# 3 -0.005838 -0.000352 0.009631 0.000000 0.000000 0.000000
# 4 0.000000 0.000000 0.000000 0.043045 0.000000 0.000000
# 5 0.000000 0.000000 0.000000 0.000000 0.034738 0.000000
# 6 0.000000 0.000000 0.000000 0.000000 0.000000 0.036270
#
#
# Mechanical properties :
#
#
# Convention : Reuss Voigt Hill
#
# Bulk Modulus (GPa) = 81.68955 94.86749 88.27852
# Shear Modulus (GPa) = 26.36041 30.79651 28.57846
#
# Velocity S-wave (km/s) = 3.74787 4.05097 3.90237
# Velocity P-wave (km/s) = 7.89039 8.51071 8.20641
#
# Compressibility (1/GPa) = 0.01224147
#
# Stress axis : x y z
#
# Youngs Moduli (GPa) = 42.88563 111.80321 103.83040
#
# Poissons Ratio (x) = 0.96553 0.60617
# Poissons Ratio (y) = 0.37036 0.03653
# Poissons Ratio (z) = 0.25037 0.03933
#
# Static dielectric constant tensor:
#      x y z
#    x 3.238610 0.000000 0.000000 
#    y 0.000000 3.951110 0.000000 
#    z 0.000000 0.000000 3.672420 
# 
# 
# High freq. dielectric constant tensor:
#      x y z
#    x 1.697470 0.000000 0.000000 
#    y 0.000000 1.762450 0.000000 
#    z 0.000000 0.000000 1.746280 
# 
# From -- ./inp_files/14075.got.cif
#   From: 2010.03.12/outbox.cif.g09.slc.cpg/sg49_8_cif.got.tgz:14075.got - 2010.04.14 03:58:27.
