data_PCOD8202262
_publ_section_title
;
Structure prediction by ZEFSAII (Michael W. Deem and Ramdas Pophale) SiO2 
 PCOD8202262
Probable space group: P C C M
;
_chemical_formula_sum "Si O2"
_cell_formula_units_Z 40
_cell_length_a 9.714530
_cell_length_b 26.426795
_cell_length_c 8.580650
_cell_angle_alpha 90.000000
_cell_angle_beta 90.000000
_cell_angle_gamma 90.000000
_cell_volume 2202.857871
_symmetry_space_group_name_H-M "P C C M"
_symmetry_group_IT_number 49
_symmetry_cell_setting 'orthorhombic'
loop_
_space_group_symop_operation_xyz
x,y,z
-x,-y,z
x,-y,1/2-z
-x,y,1/2-z
-x,-y,-z
x,y,-z
-x,y,1/2+z
x,-y,1/2+z
loop_
_atom_site_type_symbol
_atom_site_label
_atom_site_fract_x
_atom_site_fract_y
_atom_site_fract_z
Si Si1 0.353313 0.054793 0.184750
Si Si2 0.846640 0.758820 0.815962
Si Si3 0.152062 0.341323 0.317150
Si Si4 0.846425 0.861845 0.684808
Si Si5 0.848125 0.450649 0.818570
O O1 0.500000 0.073029 0.250000
O O2 0.237745 0.093111 0.239610
O O3 0.313625 0.000000 0.250000
O O4 0.360415 0.052407 0.000000
O O5 0.769937 0.706274 0.765877
O O6 0.777754 0.808316 0.737310
O O7 0.000000 0.754354 0.750000
O O8 0.845817 0.765831 0.000000
O O9 0.145171 0.330176 0.500000
O O10 0.224912 0.396025 0.282155
O O11 0.000000 0.345511 0.250000
O O12 0.846127 0.866695 0.500000
O O13 0.000000 0.865133 0.750000
O O14 0.767027 0.500000 0.750000
O O15 0.000000 0.449805 0.750000
O O16 0.860280 0.458507 0.000000
#
# Coordination Sequence:
#
# PCOD8202262 Si02
#       5
#     8   8   8   8   8
#     4  11  22  39  59  81 105 134 167 200 239 287
#     4  10  17  26  40  59  82 111 144 184 230 280
#     4   9  15  22  31  45  65  94 130 172 219 270
#     4  11  21  35  53  76 103 132 164 205 248 290
#     4   9  15  20  27  38  56  83 121 167 215 261
#
# _framework density 18.158228999999999
#
# number of rings (size 3 to 8) (size 9 to 14) (size 15 to 20)
#    0.000    2.000    0.000   10.200    0.000    2.800 
#    0.000    2.000    0.000    0.000    0.000    0.000 
#    0.000    0.000    0.000    0.000    0.000    1.000 
#
# Total GULP energy -495524.029803 kJ/mol
# GULP energy per Si atom -12388.100745 kJ/mol
# Density = 1.811690 g / cm^3
# Si number density = 18.158229 Si / 1000 Ang^3
#
#
#
# Elastic Constant Matrix: (Units=GPa)
#
#
# Indices 1 2 3 4 5 6 
#
# 1 26.5720 42.2030 19.6372 0.0000 0.0000 0.0000
# 2 42.2030 173.3279 65.9215 0.0000 0.0000 0.0000
# 3 19.6372 65.9215 154.4649 0.0000 0.0000 0.0000
# 4 0.0000 0.0000 0.0000 24.1204 0.0000 0.0000
# 5 0.0000 0.0000 0.0000 0.0000 14.7878 0.0000
# 6 0.0000 0.0000 0.0000 0.0000 0.0000 -1.3042
#
#
#
# Elastic Compliance Matrix: (Units=1/GPa)
#
#
# Indices 1 2 3 4 5 6 
#
# 1 0.061741 -0.014382 -0.001711 0.000000 0.000000 0.000000
# 2 -0.014382 0.010238 -0.002541 0.000000 0.000000 0.000000
# 3 -0.001711 -0.002541 0.007776 0.000000 0.000000 0.000000
# 4 0.000000 0.000000 0.000000 0.041459 0.000000 0.000000
# 5 0.000000 0.000000 0.000000 0.000000 0.067624 0.000000
# 6 0.000000 0.000000 0.000000 0.000000 0.000000 -0.766749
#
#
# Mechanical properties :
#
#
# Convention : Reuss Voigt Hill
#
# Bulk Modulus (GPa) = 23.53717 67.76535 45.65126
# Shear Modulus (GPa) = -9.49699 22.62766 6.56533
#
# Velocity S-wave (km/s) = -2.28943 3.53390 1.90354
# Velocity P-wave (km/s) = 2.44985 7.35198 5.47966
#
# Compressibility (1/GPa) = 0.04248600
#
# Stress axis : x y z
#
# Youngs Moduli (GPa) = 16.19672 97.67912 128.60390
#
# Poissons Ratio (x) = 1.40485 0.22007
# Poissons Ratio (y) = 0.23295 0.32675
# Poissons Ratio (z) = 0.02772 0.24817
#
# Static dielectric constant tensor:
#      x y z
#    x 2.590300 0.000000 0.000000 
#    y 0.000000 4.969980 0.000000 
#    z 0.000000 0.000000 3.566340 
# 
# 
# High freq. dielectric constant tensor:
#      x y z
#    x 1.601730 0.000000 0.000000 
#    y 0.000000 1.747060 0.000000 
#    z 0.000000 0.000000 1.729490 
# 
# From -- ./inp_files/1892.got.cif
#   From: 2010.03.12/outbox.cif.g09.slc.cpg/sg49_1_cif.got.tgz:1892.got - 2010.04.14 03:58:27.
