data_PCOD8202031
_publ_section_title
;
Structure prediction by ZEFSAII (Michael W. Deem and Ramdas Pophale) SiO2 
 PCOD8202031
Probable space group: P N N N
;
_chemical_formula_sum "Si O2"
_cell_formula_units_Z 64
_cell_length_a 19.737803
_cell_length_b 16.987202
_cell_length_c 9.535866
_cell_angle_alpha 90.000000
_cell_angle_beta 90.000000
_cell_angle_gamma 90.000000
_cell_volume 3197.280955
_symmetry_space_group_name_H-M "P N N N"
_symmetry_group_IT_number 48
_space_group.IT_coordinate_system_code '2'
_symmetry_cell_setting 'orthorhombic'
loop_
_space_group_symop_operation_xyz
x,y,z
1/2-x,1/2-y,z
x,1/2-y,1/2-z
1/2-x,y,1/2-z
-x,-y,-z
1/2+x,1/2+y,-z
-x,1/2+y,1/2+z
1/2+x,-y,1/2+z
loop_
_atom_site_type_symbol
_atom_site_label
_atom_site_fract_x
_atom_site_fract_y
_atom_site_fract_z
Si Si1 0.560186 0.438483 0.490247
Si Si2 0.181024 0.057479 0.950553
Si Si3 0.404820 0.297194 0.622326
Si Si4 0.949613 0.162325 0.740118
Si Si5 0.667967 0.552183 0.376079
Si Si6 0.878965 0.807395 0.869154
Si Si7 0.563315 0.441624 0.006759
Si Si8 0.517948 0.340162 0.248396
O O1 0.500000 0.500000 0.500000
O O2 0.586545 0.400051 0.635975
O O3 0.623920 0.476757 0.413786
O O4 0.528708 0.366019 0.406734
O O5 0.161498 0.072112 0.789212
O O6 0.259432 0.033001 0.944069
O O7 0.173446 0.133655 0.053461
O O8 0.134070 0.988027 0.012121
O O9 0.367571 0.250000 0.750000
O O10 0.473403 0.331374 0.687900
O O11 0.359201 0.366986 0.557506
O O12 0.417848 0.241475 0.489674
O O13 0.916455 0.250000 0.750000
O O14 0.945992 0.125356 0.892260
O O15 0.844351 0.750000 0.750000
O O16 0.939553 0.854623 0.793809
O O17 0.500000 0.500000 0.000000
O O18 0.565586 0.395012 0.152973
O O19 0.540441 0.250000 0.250000
#
# Coordination Sequence:
#
# PCOD8202031 Si02
#       8
#     8   8   8   8   8   8   8   8
#     4  12  23  39  65  96 125 165 213 262 313 373
#     4  11  24  43  63  92 127 171 217 254 315 375
#     4  11  20  38  62  92 129 172 209 245 309 397
#     4  11  23  37  63  96 130 159 206 263 326 374
#     4  11  24  42  65  90 126 173 216 259 306 383
#     4  11  23  37  62  95 133 167 205 258 317 383
#     4  12  21  38  66  93 122 166 212 263 311 364
#     4  11  22  37  62  94 129 159 205 263 319 364
#
# _framework density 20.017008000000001
#
# number of rings (size 3 to 8) (size 9 to 14) (size 15 to 20)
#    0.000    0.750    5.000    5.250    0.000    0.500 
#    0.000    3.125    0.000    4.500    0.000    0.000 
#    0.000    0.000    0.000    0.000    0.000    0.000 
#
# Total GULP energy -793274.487609 kJ/mol
# GULP energy per Si atom -12394.913869 kJ/mol
# Density = 1.997145 g / cm^3
# Si number density = 20.017008 Si / 1000 Ang^3
#
#
#
# Elastic Constant Matrix: (Units=GPa)
#
#
# Indices 1 2 3 4 5 6 
#
# 1 90.7626 37.1240 19.2064 0.0000 0.0000 0.0000
# 2 37.1240 122.5209 36.1531 0.0000 0.0000 0.0000
# 3 19.2064 36.1531 77.2176 0.0000 0.0000 0.0000
# 4 0.0000 0.0000 0.0000 52.7648 0.0000 0.0000
# 5 0.0000 0.0000 0.0000 0.0000 20.4732 0.0000
# 6 0.0000 0.0000 0.0000 0.0000 0.0000 20.4560
#
#
#
# Elastic Compliance Matrix: (Units=1/GPa)
#
#
# Indices 1 2 3 4 5 6 
#
# 1 0.012740 -0.003394 -0.001580 0.000000 0.000000 0.000000
# 2 -0.003394 0.010374 -0.004013 0.000000 0.000000 0.000000
# 3 -0.001580 -0.004013 0.015222 0.000000 0.000000 0.000000
# 4 0.000000 0.000000 0.000000 0.018952 0.000000 0.000000
# 5 0.000000 0.000000 0.000000 0.000000 0.048844 0.000000
# 6 0.000000 0.000000 0.000000 0.000000 0.000000 0.048885
#
#
# Mechanical properties :
#
#
# Convention : Reuss Voigt Hill
#
# Bulk Modulus (GPa) = 49.10854 52.82978 50.96916
# Shear Modulus (GPa) = 27.81169 31.93999 29.87584
#
# Velocity S-wave (km/s) = 3.73151 3.99888 3.86751
# Velocity P-wave (km/s) = 6.56904 6.91167 6.74253
#
# Compressibility (1/GPa) = 0.02036306
#
# Stress axis : x y z
#
# Youngs Moduli (GPa) = 78.49072 96.39033 65.69324
#
# Poissons Ratio (x) = 0.32717 0.10378
# Poissons Ratio (y) = 0.26641 0.26363
# Poissons Ratio (z) = 0.12400 0.38682
#
# Static dielectric constant tensor:
#      x y z
#    x 3.275830 0.000000 0.000000 
#    y 0.000000 3.853200 0.000000 
#    z 0.000000 0.000000 3.945760 
# 
# 
# High freq. dielectric constant tensor:
#      x y z
#    x 1.734140 0.000000 0.000000 
#    y 0.000000 1.794130 0.000000 
#    z 0.000000 0.000000 1.801400 
# 
# From -- ./inp_files/15423.got.cif
#   From: 2010.06.25/outbox.cif.g09.slc.cpg/sg48_8_cif.got.tgz:15423.got - 2010.06.26 18:06:46.
