data_PCOD8202216
_publ_section_title
;
Structure prediction by ZEFSAII (Michael W. Deem and Ramdas Pophale) SiO2 
 PCOD8202216
Probable space group: P C C M
;
_chemical_formula_sum "Si O2"
_cell_formula_units_Z 64
_cell_length_a 31.288867
_cell_length_b 14.490740
_cell_length_c 8.673124
_cell_angle_alpha 90.000000
_cell_angle_beta 90.000000
_cell_angle_gamma 90.000000
_cell_volume 3932.384331
_symmetry_space_group_name_H-M "P C C M"
_symmetry_group_IT_number 49
_symmetry_cell_setting 'orthorhombic'
loop_
_space_group_symop_operation_xyz
x,y,z
-x,-y,z
x,-y,1/2-z
-x,y,1/2-z
-x,-y,-z
x,y,-z
-x,y,1/2+z
x,-y,1/2+z
loop_
_atom_site_type_symbol
_atom_site_label
_atom_site_fract_x
_atom_site_fract_y
_atom_site_fract_z
Si Si1 0.918626 0.094034 0.182513
Si Si2 0.875058 0.600031 0.681296
Si Si3 0.790732 0.710389 0.319086
Si Si4 0.714392 0.399223 0.681507
Si Si5 0.178042 0.093126 0.680918
Si Si6 0.457248 0.602983 0.316613
Si Si7 0.044787 0.285228 0.317015
Si Si8 0.371936 0.602511 0.816726
O O1 0.870164 0.105831 0.244564
O O2 0.945819 0.181309 0.242021
O O3 0.938967 0.000000 0.250000
O O4 0.919425 0.089595 0.000000
O O5 0.868530 0.500000 0.750000
O O6 0.878180 0.590966 0.500000
O O7 0.835069 0.662874 0.728354
O O8 0.918193 0.647105 0.746060
O O9 0.781024 0.696164 0.500000
O O10 0.753503 0.667607 0.216902
O O11 0.793685 0.818254 0.274026
O O12 0.724314 0.500000 0.750000
O O13 0.707356 0.409035 0.500000
O O14 0.672221 0.351843 0.758365
O O15 0.176229 0.082410 0.500000
O O16 0.198993 0.000000 0.750000
O O17 0.456540 0.500000 0.250000
O O18 0.500000 0.652957 0.250000
O O19 0.458201 0.602225 0.500000
O O20 0.414083 0.653194 0.254183
O O21 0.043454 0.288133 0.500000
O O22 0.000000 0.320273 0.250000
O O23 0.370260 0.500000 0.750000
O O24 0.374825 0.602905 0.000000
#
# Coordination Sequence:
#
# PCOD8202216 Si02
#       8
#     8   8   8   8   8   8   8   8
#     4   9  17  32  52  73  96 121 144 172 211 256
#     4  10  21  37  54  70  91 117 148 184 222 261
#     4  10  19  34  53  71  93 120 147 182 225 267
#     4  11  21  32  45  65  91 120 154 193 233 276
#     4   9  17  31  52  74  96 120 144 175 216 261
#     4  10  16  23  34  51  74 104 145 193 240 283
#     4  10  21  37  53  70  94 121 147 177 216 261
#     4  10  17  27  40  55  78 111 149 191 237 281
#
# _framework density 16.275113999999999
#
# number of rings (size 3 to 8) (size 9 to 14) (size 15 to 20)
#    0.000    2.125    1.250    5.625    0.000    3.500 
#    0.000    2.500    0.000    0.000    0.000    0.000 
#    0.000    0.000    0.000    0.000    0.000    0.625 
#
# Total GULP energy -793383.665836 kJ/mol
# GULP energy per Si atom -12396.619779 kJ/mol
# Density = 1.623807 g / cm^3
# Si number density = 16.275114 Si / 1000 Ang^3
#
#
#
# Elastic Constant Matrix: (Units=GPa)
#
#
# Indices 1 2 3 4 5 6 
#
# 1 117.0293 35.0581 42.9978 0.0000 0.0000 0.0000
# 2 35.0581 79.1479 25.5000 0.0000 0.0000 0.0000
# 3 42.9978 25.5000 82.9418 0.0000 0.0000 0.0000
# 4 0.0000 0.0000 0.0000 20.0671 0.0000 0.0000
# 5 0.0000 0.0000 0.0000 0.0000 25.9936 0.0000
# 6 0.0000 0.0000 0.0000 0.0000 0.0000 5.8380
#
#
#
# Elastic Compliance Matrix: (Units=1/GPa)
#
#
# Indices 1 2 3 4 5 6 
#
# 1 0.011357 -0.003478 -0.004818 0.000000 0.000000 0.000000
# 2 -0.003478 0.015089 -0.002836 0.000000 0.000000 0.000000
# 3 -0.004818 -0.002836 0.015426 0.000000 0.000000 0.000000
# 4 0.000000 0.000000 0.000000 0.049833 0.000000 0.000000
# 5 0.000000 0.000000 0.000000 0.000000 0.038471 0.000000
# 6 0.000000 0.000000 0.000000 0.000000 0.000000 0.171293
#
#
# Mechanical properties :
#
#
# Convention : Reuss Voigt Hill
#
# Bulk Modulus (GPa) = 51.00046 54.02564 52.51305
# Shear Modulus (GPa) = 15.13916 22.08394 18.61155
#
# Velocity S-wave (km/s) = 3.05323 3.68763 3.38532
# Velocity P-wave (km/s) = 6.62073 7.16929 6.90047
#
# Compressibility (1/GPa) = 0.01960767
#
# Stress axis : x y z
#
# Youngs Moduli (GPa) = 88.05056 66.27399 64.82414
#
# Poissons Ratio (x) = 0.23051 0.31234
# Poissons Ratio (y) = 0.30626 0.18383
# Poissons Ratio (z) = 0.42425 0.18794
#
# Static dielectric constant tensor:
#      x y z
#    x 3.854990 0.000000 0.000000 
#    y 0.000000 2.855190 0.000000 
#    z 0.000000 0.000000 3.008650 
# 
# 
# High freq. dielectric constant tensor:
#      x y z
#    x 1.628650 0.000000 0.000000 
#    y 0.000000 1.581490 0.000000 
#    z 0.000000 0.000000 1.629630 
# 
# From -- ./inp_files/7074.got.cif
#   From: 2010.03.12/outbox.cif.g09.slc.cpg/sg49_4_cif.got.tgz:7074.got - 2010.04.14 03:58:27.
