data_PCOD8202047
_publ_section_title
;
Structure prediction by ZEFSAII (Michael W. Deem and Ramdas Pophale) SiO2 
 PCOD8202047
Probable space group: P N N N
;
_chemical_formula_sum "Si O2"
_cell_formula_units_Z 58
_cell_length_a 24.719446
_cell_length_b 9.026430
_cell_length_c 11.824936
_cell_angle_alpha 90.000000
_cell_angle_beta 90.000000
_cell_angle_gamma 90.000000
_cell_volume 2638.478446
_symmetry_space_group_name_H-M "P N N N"
_symmetry_group_IT_number 48
_space_group.IT_coordinate_system_code '2'
_symmetry_cell_setting 'orthorhombic'
loop_
_space_group_symop_operation_xyz
x,y,z
1/2-x,1/2-y,z
x,1/2-y,1/2-z
1/2-x,y,1/2-z
-x,-y,-z
1/2+x,1/2+y,-z
-x,1/2+y,1/2+z
1/2+x,-y,1/2+z
loop_
_atom_site_type_symbol
_atom_site_label
_atom_site_fract_x
_atom_site_fract_y
_atom_site_fract_z
Si Si1 0.603737 0.164401 0.139415
Si Si2 0.905215 0.422946 0.736833
Si Si3 0.198724 0.091796 0.310422
Si Si4 0.509901 0.952559 0.125554
Si Si5 0.179449 0.085102 0.563014
Si Si6 0.561142 0.059131 0.489364
Si Si7 0.409590 0.218023 0.627955
Si Si8 0.250000 0.250000 0.750000
O O1 0.624456 0.250000 0.250000
O O2 0.559605 0.043814 0.179837
O O3 0.655858 0.081694 0.084966
O O4 0.571937 0.272063 0.050430
O O5 0.899867 0.250000 0.750000
O O6 0.854242 0.495508 0.795407
O O7 0.908805 0.468123 0.606980
O O8 0.958040 0.483574 0.799677
O O9 0.190541 0.250000 0.250000
O O10 0.250000 0.013437 0.250000
O O11 0.212130 0.095702 0.444974
O O12 0.528089 0.779267 0.125586
O O13 0.500000 0.000000 0.000000
O O14 0.127964 0.192551 0.540864
O O15 0.215614 0.141086 0.668338
O O16 0.500000 0.000000 0.500000
O O17 0.591317 0.955005 0.398746
O O18 0.383298 0.250000 0.750000
#
# Coordination Sequence:
#
# PCOD8202047 Si02
#       8
#     8   8   8   8   8   8   8   2
#     4  11  24  42  64 100 147 182 223 288 357 414
#     4  12  24  41  65  96 134 179 227 271 333 411
#     4  11  25  47  69  97 131 173 227 291 351 411
#     4  11  22  38  61  93 139 185 225 273 333 410
#     4  11  24  45  72  99 132 176 234 299 359 426
#     4  12  23  37  64 101 140 185 229 271 333 426
#     4  11  21  39  63  94 131 177 220 278 340 406
#     4  12  24  44  80 100 124 176 250 294 370 424
#
# _framework density 21.982365999999999
#
# number of rings (size 3 to 8) (size 9 to 14) (size 15 to 20)
#    0.000    0.690    0.690   10.345    0.000    1.931 
#    0.000    0.345    0.000    0.000    0.000    0.000 
#    0.000    0.000    0.000    0.000    0.000    0.000 
#
# Total GULP energy -719089.753459 kJ/mol
# GULP energy per Si atom -12398.099198 kJ/mol
# Density = 2.193233 g / cm^3
# Si number density = 21.982366 Si / 1000 Ang^3
#
#
#
# Elastic Constant Matrix: (Units=GPa)
#
#
# Indices 1 2 3 4 5 6 
#
# 1 106.9063 35.9521 52.2310 0.0000 0.0000 0.0000
# 2 35.9521 109.8701 47.2393 0.0000 0.0000 0.0000
# 3 52.2310 47.2393 157.3233 0.0000 0.0000 0.0000
# 4 0.0000 0.0000 0.0000 37.5475 0.0000 0.0000
# 5 0.0000 0.0000 0.0000 0.0000 40.3134 0.0000
# 6 0.0000 0.0000 0.0000 0.0000 0.0000 36.4105
#
#
#
# Elastic Compliance Matrix: (Units=1/GPa)
#
#
# Indices 1 2 3 4 5 6 
#
# 1 0.011727 -0.002484 -0.003147 0.000000 0.000000 0.000000
# 2 -0.002484 0.010977 -0.002471 0.000000 0.000000 0.000000
# 3 -0.003147 -0.002471 0.008143 0.000000 0.000000 0.000000
# 4 0.000000 0.000000 0.000000 0.026633 0.000000 0.000000
# 5 0.000000 0.000000 0.000000 0.000000 0.024806 0.000000
# 6 0.000000 0.000000 0.000000 0.000000 0.000000 0.027465
#
#
# Mechanical properties :
#
#
# Convention : Reuss Voigt Hill
#
# Bulk Modulus (GPa) = 68.29816 71.66051 69.97933
# Shear Modulus (GPa) = 38.21542 38.76611 38.49076
#
# Velocity S-wave (km/s) = 4.17401 4.20397 4.18902
# Velocity P-wave (km/s) = 7.37338 7.49896 7.43643
#
# Compressibility (1/GPa) = 0.01464168
#
# Stress axis : x y z
#
# Youngs Moduli (GPa) = 85.27222 91.09872 122.79928
#
# Poissons Ratio (x) = 0.22630 0.38651
# Poissons Ratio (y) = 0.21183 0.30348
# Poissons Ratio (z) = 0.26839 0.22514
#
# Static dielectric constant tensor:
#      x y z
#    x 3.974370 0.000000 0.000000 
#    y 0.000000 4.551310 0.000000 
#    z 0.000000 0.000000 4.159760 
# 
# 
# High freq. dielectric constant tensor:
#      x y z
#    x 1.851070 0.000000 0.000000 
#    y 0.000000 1.866150 0.000000 
#    z 0.000000 0.000000 1.885350 
# 
# From -- ./inp_files/23657.got.cif
#   From: 2010.06.25/outbox.cif.g09.slc.cpg/sg48_12_cif.got.tgz:23657.got - 2010.06.26 18:06:46.
