data_PCOD8202691
_publ_section_title
;
Structure prediction by ZEFSAII (Michael W. Deem and Ramdas Pophale) SiO2 
 PCOD8202691
Probable space group: P C C M
;
_chemical_formula_sum "Si O2"
_cell_formula_units_Z 56
_cell_length_a 10.137100
_cell_length_b 15.972503
_cell_length_c 17.645830
_cell_angle_alpha 90.000000
_cell_angle_beta 90.000000
_cell_angle_gamma 90.000000
_cell_volume 2857.122097
_symmetry_space_group_name_H-M "P C C M"
_symmetry_group_IT_number 49
_symmetry_cell_setting 'orthorhombic'
loop_
_space_group_symop_operation_xyz
x,y,z
-x,-y,z
x,-y,1/2-z
-x,y,1/2-z
-x,-y,-z
x,y,-z
-x,y,1/2+z
x,-y,1/2+z
loop_
_atom_site_type_symbol
_atom_site_label
_atom_site_fract_x
_atom_site_fract_y
_atom_site_fract_z
Si Si1 0.751987 0.336355 0.150899
Si Si2 0.006007 0.247059 0.587807
Si Si3 0.106471 0.067531 0.410668
Si Si4 0.514100 0.765245 0.667913
Si Si5 0.645368 0.509854 0.838768
Si Si6 0.381088 0.952152 0.170438
Si Si7 0.251212 0.689985 0.670438
O O1 0.620728 0.288038 0.120173
O O2 0.739005 0.434706 0.133786
O O3 0.771117 0.311537 0.239041
O O4 0.875224 0.310776 0.100448
O O5 0.966772 0.243095 0.500000
O O6 0.883093 0.277858 0.635448
O O7 0.053733 0.156690 0.617932
O O8 0.127131 0.066763 0.500000
O O9 0.246513 0.044547 0.375097
O O10 0.000000 0.000000 0.383611
O O11 0.500000 0.720045 0.750000
O O12 0.567734 0.858135 0.680188
O O13 0.363808 0.754852 0.638166
O O14 0.500000 0.500000 0.876098
O O15 0.628743 0.500000 0.750000
O O16 0.712223 0.597786 0.860699
O O17 0.500000 0.000000 0.126011
O O18 0.359406 0.000000 0.250000
#
# Coordination Sequence:
#
# PCOD8202691 Si02
#       7
#     8   8   8   8   8   8   8
#     4  10  19  36  62  86 117 152 195 242 297 348
#     4  11  24  42  58  82 120 162 201 239 290 350
#     4  10  24  44  60  78 114 160 202 239 283 346
#     4  10  18  34  57  89 119 146 182 240 296 343
#     4   9  16  32  58  92 117 147 192 248 296 346
#     4  11  22  37  58  92 122 142 183 243 300 348
#     4  10  21  35  62  90 117 152 197 242 291 351
#
# _framework density 19.600144
#
# number of rings (size 3 to 8) (size 9 to 14) (size 15 to 20)
#    0.000    1.857    4.286    0.429    2.000    1.143 
#    2.571    5.000    0.000    0.857    0.000    0.000 
#    0.000    0.000    0.000    0.000    0.000    0.000 
#
# Total GULP energy -694012.667650 kJ/mol
# GULP energy per Si atom -12393.083351 kJ/mol
# Density = 1.955553 g / cm^3
# Si number density = 19.600144 Si / 1000 Ang^3
#
#
#
# Elastic Constant Matrix: (Units=GPa)
#
#
# Indices 1 2 3 4 5 6 
#
# 1 160.0101 61.8843 27.2904 0.0000 0.0000 0.0000
# 2 61.8843 132.9631 20.9067 0.0000 0.0000 0.0000
# 3 27.2904 20.9067 27.1663 0.0000 0.0000 0.0000
# 4 0.0000 0.0000 0.0000 17.8979 0.0000 0.0000
# 5 0.0000 0.0000 0.0000 0.0000 7.1534 0.0000
# 6 0.0000 0.0000 0.0000 0.0000 0.0000 32.7923
#
#
#
# Elastic Compliance Matrix: (Units=1/GPa)
#
#
# Indices 1 2 3 4 5 6 
#
# 1 0.008453 -0.002957 -0.006216 0.000000 0.000000 0.000000
# 2 -0.002957 0.009591 -0.004410 0.000000 0.000000 0.000000
# 3 -0.006216 -0.004410 0.046449 0.000000 0.000000 0.000000
# 4 0.000000 0.000000 0.000000 0.055873 0.000000 0.000000
# 5 0.000000 0.000000 0.000000 0.000000 0.139793 0.000000
# 6 0.000000 0.000000 0.000000 0.000000 0.000000 0.030495
#
#
# Mechanical properties :
#
#
# Convention : Reuss Voigt Hill
#
# Bulk Modulus (GPa) = 26.79107 60.03359 43.41233
# Shear Modulus (GPa) = 15.13944 25.57259 20.35601
#
# Velocity S-wave (km/s) = 2.78225 3.61600 3.22617
# Velocity P-wave (km/s) = 4.90099 6.93755 6.00622
#
# Compressibility (1/GPa) = 0.03732587
#
# Stress axis : x y z
#
# Youngs Moduli (GPa) = 118.29457 104.26873 21.52892
#
# Poissons Ratio (x) = 0.30832 0.13383
# Poissons Ratio (y) = 0.34980 0.09495
# Poissons Ratio (z) = 0.73537 0.45985
#
# Static dielectric constant tensor:
#      x y z
#    x 3.830480 0.000000 0.000000 
#    y 0.000000 3.841530 0.000000 
#    z 0.000000 0.000000 3.108820 
# 
# 
# High freq. dielectric constant tensor:
#      x y z
#    x 1.781360 0.000000 0.000000 
#    y 0.000000 1.779510 0.000000 
#    z 0.000000 0.000000 1.712790 
# 
# From -- ./inp_files/19870.got.cif
#   From: 2010.03.12/outbox.cif.g09.slc.cpg/sg49_10_cif.got.tgz:19870.got - 2010.04.14 03:58:27.
