data_PCOD8202233
_publ_section_title
;
Structure prediction by ZEFSAII (Michael W. Deem and Ramdas Pophale) SiO2 
 PCOD8202233
Probable space group: P C C M
;
_chemical_formula_sum "Si O2"
_cell_formula_units_Z 64
_cell_length_a 5.133498
_cell_length_b 25.383375
_cell_length_c 26.306635
_cell_angle_alpha 90.000000
_cell_angle_beta 90.000000
_cell_angle_gamma 90.000000
_cell_volume 3427.899353
_symmetry_space_group_name_H-M "P C C M"
_symmetry_group_IT_number 49
_symmetry_cell_setting 'orthorhombic'
loop_
_space_group_symop_operation_xyz
x,y,z
-x,-y,z
x,-y,1/2-z
-x,y,1/2-z
-x,-y,-z
x,y,-z
-x,y,1/2+z
x,-y,1/2+z
loop_
_atom_site_type_symbol
_atom_site_label
_atom_site_fract_x
_atom_site_fract_y
_atom_site_fract_z
Si Si1 0.940313 0.938984 0.345216
Si Si2 0.540349 0.817518 0.095533
Si Si3 0.748873 0.464860 0.887309
Si Si4 0.299185 0.706732 0.440796
Si Si5 0.252515 0.558929 0.772219
Si Si6 0.955814 0.127183 0.942127
Si Si7 0.448072 0.883531 0.307287
Si Si8 0.188536 0.357389 0.442018
O O1 0.920716 0.922069 0.404311
O O2 0.661144 0.928316 0.319761
O O3 0.160172 0.907374 0.314086
O O4 0.000000 0.000000 0.342274
O O5 0.622732 0.756893 0.092758
O O6 0.259092 0.827564 0.069571
O O7 0.522500 0.833905 0.154777
O O8 0.754996 0.850738 0.065199
O O9 0.500000 0.500000 0.903087
O O10 0.718662 0.439968 0.832060
O O11 0.802821 0.417263 0.924663
O O12 0.000000 0.500000 0.888733
O O13 0.270163 0.723737 0.500000
O O14 0.526947 0.665008 0.432875
O O15 0.037016 0.679860 0.417593
O O16 0.249822 0.500000 0.750000
O O17 0.500000 0.590052 0.750000
O O18 0.000000 0.588861 0.750000
O O19 0.924341 0.107432 0.000000
O O20 0.500000 0.863428 0.250000
O O21 0.105160 0.359436 0.500000
#
# Coordination Sequence:
#
# PCOD8202233 Si02
#       8
#     8   8   8   8   8   8   8   8
#     4  10  21  34  50  76 110 145 185 220 261 321
#     4  10  20  34  57  82 101 132 178 226 265 321
#     4  12  21  33  55  77 103 141 171 206 251 291
#     4  10  19  36  57  75 103 137 167 210 266 308
#     4  10  16  30  49  75  96 119 167 207 240 278
#     4  10  19  32  51  80 110 134 176 224 268 321
#     4  10  21  36  54  79 104 139 183 226 272 310
#     4  10  23  37  51  78 109 137 171 205 247 313
#
# _framework density 18.670324000000001
#
# number of rings (size 3 to 8) (size 9 to 14) (size 15 to 20)
#    0.000    1.750    2.500    3.375    0.000    3.250 
#    0.000    0.000    0.000    6.750    0.000    0.000 
#    0.000    0.000    0.000    0.000    0.000    0.000 
#
# Total GULP energy -793437.168262 kJ/mol
# GULP energy per Si atom -12397.455754 kJ/mol
# Density = 1.862783 g / cm^3
# Si number density = 18.670324 Si / 1000 Ang^3
#
#
#
# Elastic Constant Matrix: (Units=GPa)
#
#
# Indices 1 2 3 4 5 6 
#
# 1 114.3856 20.1256 27.4694 0.0000 0.0000 0.0000
# 2 20.1256 69.7552 28.7653 0.0000 0.0000 0.0000
# 3 27.4694 28.7653 87.0143 0.0000 0.0000 0.0000
# 4 0.0000 0.0000 0.0000 13.9253 0.0000 0.0000
# 5 0.0000 0.0000 0.0000 0.0000 23.9337 0.0000
# 6 0.0000 0.0000 0.0000 0.0000 0.0000 17.9601
#
#
#
# Elastic Compliance Matrix: (Units=1/GPa)
#
#
# Indices 1 2 3 4 5 6 
#
# 1 0.009644 -0.001768 -0.002460 0.000000 0.000000 0.000000
# 2 -0.001768 0.016923 -0.005036 0.000000 0.000000 0.000000
# 3 -0.002460 -0.005036 0.013934 0.000000 0.000000 0.000000
# 4 0.000000 0.000000 0.000000 0.071812 0.000000 0.000000
# 5 0.000000 0.000000 0.000000 0.000000 0.041782 0.000000
# 6 0.000000 0.000000 0.000000 0.000000 0.000000 0.055679
#
#
# Mechanical properties :
#
#
# Convention : Reuss Voigt Hill
#
# Bulk Modulus (GPa) = 45.51209 47.09729 46.30469
# Shear Modulus (GPa) = 21.22001 24.15013 22.68507
#
# Velocity S-wave (km/s) = 3.37495 3.60043 3.48951
# Velocity P-wave (km/s) = 6.29418 6.52416 6.41020
#
# Compressibility (1/GPa) = 0.02197218
#
# Stress axis : x y z
#
# Youngs Moduli (GPa) = 103.68905 59.09205 71.76769
#
# Poissons Ratio (x) = 0.10448 0.17655
# Poissons Ratio (y) = 0.18333 0.36144
# Poissons Ratio (z) = 0.25508 0.29760
#
# Static dielectric constant tensor:
#      x y z
#    x 3.833430 0.000000 0.000000 
#    y 0.000000 3.043130 0.000000 
#    z 0.000000 0.000000 3.584280 
# 
# 
# High freq. dielectric constant tensor:
#      x y z
#    x 1.757360 0.000000 0.000000 
#    y 0.000000 1.690370 0.000000 
#    z 0.000000 0.000000 1.715100 
# 
# From -- ./inp_files/21955.got.cif
#   From: 2010.03.12/outbox.cif.g09.slc.cpg/sg49_11_cif.got.tgz:21955.got - 2010.04.14 03:58:27.
