data_PCOD8202477
_publ_section_title
;
Structure prediction by ZEFSAII (Michael W. Deem and Ramdas Pophale) SiO2 
 PCOD8202477
Probable space group: P C C M
;
_chemical_formula_sum "Si O2"
_cell_formula_units_Z 64
_cell_length_a 13.820772
_cell_length_b 11.477288
_cell_length_c 25.220449
_cell_angle_alpha 90.000000
_cell_angle_beta 90.000000
_cell_angle_gamma 90.000000
_cell_volume 4000.593234
_symmetry_space_group_name_H-M "P C C M"
_symmetry_group_IT_number 49
_symmetry_cell_setting 'orthorhombic'
loop_
_space_group_symop_operation_xyz
x,y,z
-x,-y,z
x,-y,1/2-z
-x,y,1/2-z
-x,-y,-z
x,y,-z
-x,y,1/2+z
x,-y,1/2+z
loop_
_atom_site_type_symbol
_atom_site_label
_atom_site_fract_x
_atom_site_fract_y
_atom_site_fract_z
Si Si1 0.112675 0.498314 0.658620
Si Si2 0.582901 0.162991 0.327144
Si Si3 0.887897 0.322969 0.750173
Si Si4 0.558460 0.611586 0.895273
Si Si5 0.617841 0.265667 0.941259
Si Si6 0.263140 0.869217 0.240184
Si Si7 0.258904 0.483624 0.437690
Si Si8 0.621127 0.086190 0.146402
O O1 0.138517 0.604480 0.697619
O O2 0.138706 0.385560 0.694227
O O3 0.171400 0.506546 0.603410
O O4 0.000000 0.500000 0.643017
O O5 0.590289 0.291775 0.352419
O O6 0.641506 0.168981 0.272629
O O7 0.471663 0.127059 0.318840
O O8 0.627437 0.054289 0.361517
O O9 0.828597 0.205984 0.745059
O O10 0.000000 0.291795 0.750000
O O11 0.500000 0.500000 0.869607
O O12 0.485448 0.670782 0.936621
O O13 0.654357 0.573665 0.926497
O O14 0.703680 0.353645 0.925283
O O15 0.620812 0.145186 0.910289
O O16 0.633086 0.222741 0.000000
O O17 0.288103 0.861149 0.178083
O O18 0.231393 0.000000 0.250000
O O19 0.227188 0.496693 0.500000
#
# Coordination Sequence:
#
# PCOD8202477 Si02
#       8
#     8   8   8   8   8   8   8   8
#     4   9  18  32  48  65  86 113 144 179 219 261
#     4   9  17  29  44  64  89 116 147 178 212 256
#     4   9  18  32  48  65  86 112 143 180 219 260
#     4   9  17  29  44  63  88 118 148 178 212 251
#     4   9  17  29  44  62  86 115 148 181 211 249
#     4  10  18  28  46  67  89 115 140 174 219 264
#     4  10  18  28  45  66  89 116 143 177 220 261
#     4   9  17  29  44  63  87 116 147 178 213 252
#
# _framework density 15.997628000000001
#
# number of rings (size 3 to 8) (size 9 to 14) (size 15 to 20)
#    0.000    2.750    0.000    3.000    0.000    3.500 
#    0.000    5.625    0.000    6.000    0.000    0.000 
#    0.000    0.000    0.000   34.125    0.000    0.250 
#
# Total GULP energy -792857.689573 kJ/mol
# GULP energy per Si atom -12388.401400 kJ/mol
# Density = 1.596122 g / cm^3
# Si number density = 15.997628 Si / 1000 Ang^3
#
#
#
# Elastic Constant Matrix: (Units=GPa)
#
#
# Indices 1 2 3 4 5 6 
#
# 1 69.3278 37.1814 50.5544 0.0000 0.0000 0.0000
# 2 37.1814 98.7848 49.5901 0.0000 0.0000 0.0000
# 3 50.5544 49.5901 91.5453 0.0000 0.0000 0.0000
# 4 0.0000 0.0000 0.0000 11.8733 0.0000 0.0000
# 5 0.0000 0.0000 0.0000 0.0000 21.9694 0.0000
# 6 0.0000 0.0000 0.0000 0.0000 0.0000 23.4867
#
#
#
# Elastic Compliance Matrix: (Units=1/GPa)
#
#
# Indices 1 2 3 4 5 6 
#
# 1 0.024953 -0.003399 -0.011939 0.000000 0.000000 0.000000
# 2 -0.003399 0.014367 -0.005906 0.000000 0.000000 0.000000
# 3 -0.011939 -0.005906 0.020716 0.000000 0.000000 0.000000
# 4 0.000000 0.000000 0.000000 0.084222 0.000000 0.000000
# 5 0.000000 0.000000 0.000000 0.000000 0.045518 0.000000
# 6 0.000000 0.000000 0.000000 0.000000 0.000000 0.042577
#
#
# Mechanical properties :
#
#
# Convention : Reuss Voigt Hill
#
# Bulk Modulus (GPa) = 56.98276 59.36776 58.17526
# Shear Modulus (GPa) = 17.81333 19.62136 18.71735
#
# Velocity S-wave (km/s) = 3.34053 3.50597 3.42425
# Velocity P-wave (km/s) = 7.11166 7.31983 7.21650
#
# Compressibility (1/GPa) = 0.01754917
#
# Stress axis : x y z
#
# Youngs Moduli (GPa) = 40.07563 69.60448 48.27271
#
# Poissons Ratio (x) = 0.23656 0.57632
# Poissons Ratio (y) = 0.13620 0.28508
# Poissons Ratio (z) = 0.47845 0.41106
#
# Static dielectric constant tensor:
#      x y z
#    x 2.872900 0.000000 0.000000 
#    y 0.000000 3.091680 0.000000 
#    z 0.000000 0.000000 2.905800 
# 
# 
# High freq. dielectric constant tensor:
#      x y z
#    x 1.600560 0.000000 0.000000 
#    y 0.000000 1.617060 0.000000 
#    z 0.000000 0.000000 1.602970 
# 
# From -- ./inp_files/23030.got.cif
#   From: 2010.03.12/outbox.cif.g09.slc.cpg/sg49_12_cif.got.tgz:23030.got - 2010.04.14 03:58:27.
