data_PCOD8202568
_publ_section_title
;
Structure prediction by ZEFSAII (Michael W. Deem and Ramdas Pophale) SiO2 
 PCOD8202568
Probable space group: P C C M
;
_chemical_formula_sum "Si O2"
_cell_formula_units_Z 64
_cell_length_a 19.636113
_cell_length_b 20.220121
_cell_length_c 8.952118
_cell_angle_alpha 90.000000
_cell_angle_beta 90.000000
_cell_angle_gamma 90.000000
_cell_volume 3554.389939
_symmetry_space_group_name_H-M "P C C M"
_symmetry_group_IT_number 49
_symmetry_cell_setting 'orthorhombic'
loop_
_space_group_symop_operation_xyz
x,y,z
-x,-y,z
x,-y,1/2-z
-x,y,1/2-z
-x,-y,-z
x,y,-z
-x,y,1/2+z
x,-y,1/2+z
loop_
_atom_site_type_symbol
_atom_site_label
_atom_site_fract_x
_atom_site_fract_y
_atom_site_fract_z
Si Si1 0.838360 0.807357 0.674011
Si Si2 0.298202 0.379369 0.173257
Si Si3 0.703728 0.775497 0.174442
Si Si4 0.845355 0.567406 0.176252
Si Si5 0.567113 0.225321 0.830472
Si Si6 0.566601 0.382937 0.167386
Si Si7 0.927197 0.304390 0.676895
Si Si8 0.070008 0.067749 0.325647
O O1 0.838214 0.787978 0.500000
O O2 0.762124 0.813907 0.736041
O O3 0.876786 0.751665 0.766894
O O4 0.872958 0.877689 0.702154
O O5 0.287483 0.302157 0.204834
O O6 0.230847 0.416074 0.233327
O O7 0.363947 0.408730 0.257095
O O8 0.310427 0.392333 0.000000
O O9 0.631995 0.800951 0.239011
O O10 0.707921 0.792471 0.000000
O O11 0.871438 0.500000 0.250000
O O12 0.897239 0.624750 0.225325
O O13 0.845187 0.559382 0.000000
O O14 0.500000 0.196776 0.750000
O O15 0.565346 0.304170 0.827391
O O16 0.570034 0.199068 0.000000
O O17 0.500000 0.411691 0.250000
O O18 0.565032 0.410130 0.000000
O O19 0.933764 0.298120 0.500000
O O20 0.000000 0.294013 0.750000
O O21 0.056597 0.055724 0.500000
O O22 0.000000 0.092110 0.250000
O O23 0.095440 0.000000 0.250000
#
# Coordination Sequence:
#
# PCOD8202568 Si02
#       8
#     8   8   8   8   8   8   8   8
#     4  11  22  35  54  82 111 141 177 217 260 309
#     4   9  17  32  49  68  96 128 163 207 254 307
#     4  10  18  30  49  72 102 138 173 215 263 310
#     4  10  22  39  56  75  99 129 168 212 263 317
#     4   9  16  26  40  64  98 135 174 213 257 310
#     4   9  16  25  41  67  94 125 161 200 247 301
#     4  11  23  40  58  80 105 133 169 211 262 316
#     4  10  21  36  55  79 108 143 181 218 257 306
#
# _framework density 18.005903
#
# number of rings (size 3 to 8) (size 9 to 14) (size 15 to 20)
#    0.000    2.125    1.250    3.000    0.000    8.250 
#    0.000    1.250    0.000    0.375    0.000    2.625 
#    0.000    0.500    0.000    5.250    0.000    3.125 
#
# Total GULP energy -793734.900154 kJ/mol
# GULP energy per Si atom -12402.107815 kJ/mol
# Density = 1.796492 g / cm^3
# Si number density = 18.005903 Si / 1000 Ang^3
#
#
#
# Elastic Constant Matrix: (Units=GPa)
#
#
# Indices 1 2 3 4 5 6 
#
# 1 122.6334 35.0754 46.7613 0.0000 0.0000 0.0000
# 2 35.0754 56.9251 35.5461 0.0000 0.0000 0.0000
# 3 46.7613 35.5461 97.3352 0.0000 0.0000 0.0000
# 4 0.0000 0.0000 0.0000 17.5082 0.0000 0.0000
# 5 0.0000 0.0000 0.0000 0.0000 34.1486 0.0000
# 6 0.0000 0.0000 0.0000 0.0000 0.0000 12.1460
#
#
#
# Elastic Compliance Matrix: (Units=1/GPa)
#
#
# Indices 1 2 3 4 5 6 
#
# 1 0.010776 -0.004414 -0.003565 0.000000 0.000000 0.000000
# 2 -0.004414 0.024564 -0.006850 0.000000 0.000000 0.000000
# 3 -0.003565 -0.006850 0.014488 0.000000 0.000000 0.000000
# 4 0.000000 0.000000 0.000000 0.057116 0.000000 0.000000
# 5 0.000000 0.000000 0.000000 0.000000 0.029284 0.000000
# 6 0.000000 0.000000 0.000000 0.000000 0.000000 0.082331
#
#
# Mechanical properties :
#
#
# Convention : Reuss Voigt Hill
#
# Bulk Modulus (GPa) = 49.57798 56.85101 53.21450
# Shear Modulus (GPa) = 19.61233 23.39461 21.50347
#
# Velocity S-wave (km/s) = 3.30391 3.60846 3.45953
# Velocity P-wave (km/s) = 6.49219 7.00024 6.75099
#
# Compressibility (1/GPa) = 0.02017024
#
# Stress axis : x y z
#
# Youngs Moduli (GPa) = 92.79668 40.70989 69.02177
#
# Poissons Ratio (x) = 0.17968 0.24608
# Poissons Ratio (y) = 0.40958 0.47281
# Poissons Ratio (z) = 0.33084 0.27887
#
# Static dielectric constant tensor:
#      x y z
#    x 3.522870 0.000000 0.000000 
#    y 0.000000 2.968930 0.000000 
#    z 0.000000 0.000000 3.472490 
# 
# 
# High freq. dielectric constant tensor:
#      x y z
#    x 1.709770 0.000000 0.000000 
#    y 0.000000 1.648180 0.000000 
#    z 0.000000 0.000000 1.710680 
# 
# From -- ./inp_files/5324.got.cif
#   From: 2010.03.12/outbox.cif.g09.slc.cpg/sg49_3_cif.got.tgz:5324.got - 2010.04.14 03:58:27.
