data_PCOD8202009
_publ_section_title
;
Structure prediction by ZEFSAII (Michael W. Deem and Ramdas Pophale) SiO2 
 PCOD8202009
Probable space group: P N N N
;
_chemical_formula_sum "Si O2"
_cell_formula_units_Z 40
_cell_length_a 26.394553
_cell_length_b 7.484600
_cell_length_c 10.190739
_cell_angle_alpha 90.000000
_cell_angle_beta 90.000000
_cell_angle_gamma 90.000000
_cell_volume 2013.207713
_symmetry_space_group_name_H-M "P N N N"
_symmetry_group_IT_number 48
_space_group.IT_coordinate_system_code '2'
_symmetry_cell_setting 'orthorhombic'
loop_
_space_group_symop_operation_xyz
x,y,z
1/2-x,1/2-y,z
x,1/2-y,1/2-z
1/2-x,y,1/2-z
-x,-y,-z
1/2+x,1/2+y,-z
-x,1/2+y,1/2+z
1/2+x,-y,1/2+z
loop_
_atom_site_type_symbol
_atom_site_label
_atom_site_fract_x
_atom_site_fract_y
_atom_site_fract_z
Si Si1 0.617689 0.035202 0.504857
Si Si2 0.551735 0.962166 0.261538
Si Si3 0.937945 0.039276 0.737842
Si Si4 0.118641 0.941302 0.520434
Si Si5 0.691413 0.743672 0.404600
O O1 0.596813 0.965522 0.644516
O O2 0.636530 0.240152 0.510572
O O3 0.571701 0.019125 0.403233
O O4 0.665605 0.916563 0.467324
O O5 0.556318 0.750000 0.250000
O O6 0.494811 0.036891 0.247404
O O7 0.584907 0.056904 0.150563
O O8 0.941563 0.250000 0.750000
O O9 0.914174 0.979353 0.599673
O O10 0.168483 0.061315 0.537957
O O11 0.750000 0.750000 0.442134
O O12 0.681957 0.750000 0.250000
#
# Coordination Sequence:
#
# PCOD8202009 Si02
#       5
#     8   8   8   8   8
#     4  11  21  40  60  87 123 156 199 249 293 355
#     4  11  19  37  59  87 125 163 199 242 287 352
#     4   9  22  36  58  89 125 163 195 236 300 357
#     4  11  21  40  60  87 123 156 199 249 293 355
#     4  11  24  43  65  89 117 155 203 259 306 346
#
# _framework density 19.868790000000001
#
# number of rings (size 3 to 8) (size 9 to 14) (size 15 to 20)
#    0.000    1.400    4.000    1.800    0.000    1.600 
#    7.200    4.000    0.000    3.600    0.000    0.000 
#    0.000    0.000    0.000    0.000    0.000    0.000 
#
# Total GULP energy -496176.018778 kJ/mol
# GULP energy per Si atom -12404.400469 kJ/mol
# Density = 1.982357 g / cm^3
# Si number density = 19.868790 Si / 1000 Ang^3
#
#
#
# Elastic Constant Matrix: (Units=GPa)
#
#
# Indices 1 2 3 4 5 6 
#
# 1 138.3415 38.5933 29.8606 0.0000 0.0000 0.0000
# 2 38.5933 87.4839 -1.0558 0.0000 0.0000 0.0000
# 3 29.8606 -1.0558 87.4621 0.0000 0.0000 0.0000
# 4 0.0000 0.0000 0.0000 18.0093 0.0000 0.0000
# 5 0.0000 0.0000 0.0000 0.0000 23.3784 0.0000
# 6 0.0000 0.0000 0.0000 0.0000 0.0000 -53.5142
#
#
#
# Elastic Compliance Matrix: (Units=1/GPa)
#
#
# Indices 1 2 3 4 5 6 
#
# 1 0.009025 -0.004019 -0.003130 0.000000 0.000000 0.000000
# 2 -0.004019 0.013222 0.001532 0.000000 0.000000 0.000000
# 3 -0.003130 0.001532 0.012521 0.000000 0.000000 0.000000
# 4 0.000000 0.000000 0.000000 0.055527 0.000000 0.000000
# 5 0.000000 0.000000 0.000000 0.000000 0.042775 0.000000
# 6 0.000000 0.000000 0.000000 0.000000 0.000000 -0.018687
#
#
# Mechanical properties :
#
#
# Convention : Reuss Voigt Hill
#
# Bulk Modulus (GPa) = 42.49252 49.78709 46.13980
# Shear Modulus (GPa) = 37.46382 13.96732 25.71557
#
# Velocity S-wave (km/s) = 4.34702 2.65425 3.60150
# Velocity P-wave (km/s) = 6.82850 5.87416 6.36923
#
# Compressibility (1/GPa) = 0.02353355
#
# Stress axis : x y z
#
# Youngs Moduli (GPa) = 110.79931 75.63005 79.86847
#
# Poissons Ratio (x) = 0.30398 0.24998
# Poissons Ratio (y) = 0.44533 -0.12235
# Poissons Ratio (z) = 0.34679 -0.11585
#
# Static dielectric constant tensor:
#      x y z
#    x 3.546340 0.000000 0.000000 
#    y 0.000000 3.669980 0.000000 
#    z 0.000000 0.000000 3.822050 
# 
# 
# High freq. dielectric constant tensor:
#      x y z
#    x 1.760400 0.000000 0.000000 
#    y 0.000000 1.780860 0.000000 
#    z 0.000000 0.000000 1.784120 
# 
# From -- ./inp_files/9221.got.cif
#   From: 2010.06.25/outbox.cif.g09.slc.cpg/sg48_5_cif.got.tgz:9221.got - 2010.06.26 18:06:46.
