data_PCOD8202546
_publ_section_title
;
Structure prediction by ZEFSAII (Michael W. Deem and Ramdas Pophale) SiO2 
 PCOD8202546
Probable space group: P C C M
;
_chemical_formula_sum "Si O2"
_cell_formula_units_Z 64
_cell_length_a 18.379736
_cell_length_b 23.118919
_cell_length_c 8.626402
_cell_angle_alpha 90.000000
_cell_angle_beta 90.000000
_cell_angle_gamma 90.000000
_cell_volume 3665.527527
_symmetry_space_group_name_H-M "P C C M"
_symmetry_group_IT_number 49
_symmetry_cell_setting 'orthorhombic'
loop_
_space_group_symop_operation_xyz
x,y,z
-x,-y,z
x,-y,1/2-z
-x,y,1/2-z
-x,-y,-z
x,y,-z
-x,y,1/2+z
x,-y,1/2+z
loop_
_atom_site_type_symbol
_atom_site_label
_atom_site_fract_x
_atom_site_fract_y
_atom_site_fract_z
Si Si1 0.794983 0.558341 0.677136
Si Si2 0.183316 0.153484 0.179174
Si Si3 0.077059 0.063086 0.317137
Si Si4 0.075682 0.760878 0.819895
Si Si5 0.622846 0.440585 0.824605
Si Si6 0.838386 0.327415 0.678604
Si Si7 0.706184 0.754195 0.818525
Si Si8 0.423036 0.684711 0.816442
O O1 0.826032 0.500000 0.750000
O O2 0.820073 0.565784 0.500000
O O3 0.708792 0.560362 0.691042
O O4 0.829605 0.605907 0.786778
O O5 0.149394 0.100542 0.277566
O O6 0.131527 0.207292 0.207431
O O7 0.263143 0.180530 0.227038
O O8 0.183688 0.134784 0.000000
O O9 0.068352 0.060056 0.500000
O O10 0.000000 0.088212 0.250000
O O11 0.091402 0.000000 0.250000
O O12 0.095135 0.693959 0.789218
O O13 0.000000 0.779223 0.750000
O O14 0.081617 0.778837 0.000000
O O15 0.591263 0.500000 0.750000
O O16 0.594800 0.379970 0.748402
O O17 0.596241 0.442571 0.000000
O O18 0.859015 0.317658 0.500000
O O19 0.764658 0.294555 0.726185
O O20 0.633335 0.735528 0.729900
O O21 0.689592 0.753515 0.000000
O O22 0.500000 0.704972 0.750000
O O23 0.424323 0.681679 0.000000
#
# Coordination Sequence:
#
# PCOD8202546 Si02
#       8
#     8   8   8   8   8   8   8   8
#     4  10  18  30  47  69  91 116 152 193 241 292
#     4  10  20  35  53  76 104 136 174 214 253 295
#     4  11  21  34  52  77 111 152 189 222 256 294
#     4  11  21  33  49  71  98 128 162 202 245 292
#     4   9  19  32  47  67  91 122 157 199 244 299
#     4  10  19  32  50  71  93 120 153 196 246 295
#     4   9  19  34  52  72  96 126 163 206 251 296
#     4  11  22  35  50  70  97 129 165 205 254 310
#
# _framework density 17.459970999999999
#
# number of rings (size 3 to 8) (size 9 to 14) (size 15 to 20)
#    0.000    1.875    1.250    5.250    0.000    4.250 
#    0.000    1.250    0.000    0.375    0.000    2.625 
#    0.000    0.500    0.000    5.250    0.000    2.250 
#
# Total GULP energy -792969.679535 kJ/mol
# GULP energy per Si atom -12390.151243 kJ/mol
# Density = 1.742023 g / cm^3
# Si number density = 17.459971 Si / 1000 Ang^3
#
#
#
# Elastic Constant Matrix: (Units=GPa)
#
#
# Indices 1 2 3 4 5 6 
#
# 1 62.4147 39.0822 25.8771 0.0000 0.0000 0.0000
# 2 39.0822 93.0064 31.0773 0.0000 0.0000 0.0000
# 3 25.8771 31.0773 73.7092 0.0000 0.0000 0.0000
# 4 0.0000 0.0000 0.0000 28.2387 0.0000 0.0000
# 5 0.0000 0.0000 0.0000 0.0000 22.7413 0.0000
# 6 0.0000 0.0000 0.0000 0.0000 0.0000 16.3267
#
#
#
# Elastic Compliance Matrix: (Units=1/GPa)
#
#
# Indices 1 2 3 4 5 6 
#
# 1 0.023043 -0.008124 -0.004664 0.000000 0.000000 0.000000
# 2 -0.008124 0.015379 -0.003632 0.000000 0.000000 0.000000
# 3 -0.004664 -0.003632 0.016736 0.000000 0.000000 0.000000
# 4 0.000000 0.000000 0.000000 0.035412 0.000000 0.000000
# 5 0.000000 0.000000 0.000000 0.000000 0.043973 0.000000
# 6 0.000000 0.000000 0.000000 0.000000 0.000000 0.061250
#
#
# Mechanical properties :
#
#
# Convention : Reuss Voigt Hill
#
# Bulk Modulus (GPa) = 44.80960 46.80040 45.80500
# Shear Modulus (GPa) = 21.17988 22.33425 21.75707
#
# Velocity S-wave (km/s) = 3.48667 3.58043 3.53386
# Velocity P-wave (km/s) = 6.47527 6.62987 6.55302
#
# Compressibility (1/GPa) = 0.02231664
#
# Stress axis : x y z
#
# Youngs Moduli (GPa) = 43.39740 65.02169 59.75250
#
# Poissons Ratio (x) = 0.52825 0.27870
# Poissons Ratio (y) = 0.35257 0.21703
# Poissons Ratio (z) = 0.20242 0.23617
#
# Static dielectric constant tensor:
#      x y z
#    x 3.439330 0.000000 0.000000 
#    y 0.000000 3.342930 0.000000 
#    z 0.000000 0.000000 3.272830 
# 
# 
# High freq. dielectric constant tensor:
#      x y z
#    x 1.644090 0.000000 0.000000 
#    y 0.000000 1.661800 0.000000 
#    z 0.000000 0.000000 1.683110 
# 
# From -- ./inp_files/5391.got.cif
#   From: 2010.03.12/outbox.cif.g09.slc.cpg/sg49_3_cif.got.tgz:5391.got - 2010.04.14 03:58:27.
