data_PCOD8202584
_publ_section_title
;
Structure prediction by ZEFSAII (Michael W. Deem and Ramdas Pophale) SiO2 
 PCOD8202584
Probable space group: P C C M
;
_chemical_formula_sum "Si O2"
_cell_formula_units_Z 30
_cell_length_a 8.746388
_cell_length_b 5.310386
_cell_length_c 31.345858
_cell_angle_alpha 90.000000
_cell_angle_beta 90.000000
_cell_angle_gamma 90.000000
_cell_volume 1455.911549
_symmetry_space_group_name_H-M "P C C M"
_symmetry_group_IT_number 49
_symmetry_cell_setting 'orthorhombic'
loop_
_space_group_symop_operation_xyz
x,y,z
-x,-y,z
x,-y,1/2-z
-x,y,1/2-z
-x,-y,-z
x,y,-z
-x,y,1/2+z
x,-y,1/2+z
loop_
_atom_site_type_symbol
_atom_site_label
_atom_site_fract_x
_atom_site_fract_y
_atom_site_fract_z
Si Si1 0.000000 0.500000 0.750000
Si Si2 0.320984 0.748841 0.092861
Si Si3 0.399814 0.250307 0.500000
Si Si4 0.337706 0.751805 0.371603
Si Si5 0.291068 0.260193 0.774739
O O1 0.891827 0.682623 0.778729
O O2 0.245741 0.499614 0.114110
O O3 0.501023 0.750331 0.104013
O O4 0.244792 0.999260 0.113380
O O5 0.294090 0.748122 0.042046
O O6 0.500000 0.500000 0.500000
O O7 0.500000 0.000000 0.500000
O O8 0.365304 0.759708 0.321138
O O9 0.366435 0.500000 0.750000
O O10 0.324847 0.000000 0.750000
#
# Coordination Sequence:
#
# PCOD8202584 Si02
#       5
#     2   8   4   8   8
#     4   8  22  36  54  70  86 122 162 212 258 278
#     4  10  19  30  45  71 103 132 159 194 223 285
#     4  12  16  30  46  66 100 138 165 188 235 262
#     4  10  18  31  46  68  98 128 162 198 229 278
#     4  10  20  35  52  68  92 125 160 206 246 287
#
# _framework density 20.605647000000001
#
# number of rings (size 3 to 8) (size 9 to 14) (size 15 to 20)
#    0.800    1.067    5.333    2.000    0.000    0.000 
#    0.000   16.000    0.000    0.000    0.000    0.000 
#    0.000   11.733    0.000    0.000    0.000    0.000 
#
# Total GULP energy -371647.014995 kJ/mol
# GULP energy per Si atom -12388.233833 kJ/mol
# Density = 2.055875 g / cm^3
# Si number density = 20.605647 Si / 1000 Ang^3
#
#
#
# Elastic Constant Matrix: (Units=GPa)
#
#
# Indices 1 2 3 4 5 6 
#
# 1 21.8656 -10.6740 -0.8802 0.0000 0.0000 0.0000
# 2 -10.6740 248.2280 79.4799 0.0000 0.0000 0.0000
# 3 -0.8802 79.4799 194.3821 0.0000 0.0000 0.0000
# 4 0.0000 0.0000 0.0000 42.9147 0.0000 0.0000
# 5 0.0000 0.0000 0.0000 0.0000 4.0234 0.0000
# 6 0.0000 0.0000 0.0000 0.0000 0.0000 -21.4364
#
#
#
# Elastic Compliance Matrix: (Units=1/GPa)
#
#
# Indices 1 2 3 4 5 6 
#
# 1 0.046798 0.002237 -0.000703 0.000000 0.000000 0.000000
# 2 0.002237 0.004742 -0.001929 0.000000 0.000000 0.000000
# 3 -0.000703 -0.001929 0.005930 0.000000 0.000000 0.000000
# 4 0.000000 0.000000 0.000000 0.023302 0.000000 0.000000
# 5 0.000000 0.000000 0.000000 0.000000 0.248549 0.000000
# 6 0.000000 0.000000 0.000000 0.000000 0.000000 -0.046650
#
#
# Mechanical properties :
#
#
# Convention : Reuss Voigt Hill
#
# Bulk Modulus (GPa) = 17.64249 66.70299 42.17274
# Shear Modulus (GPa) = 16.53688 31.53699 24.03694
#
# Velocity S-wave (km/s) = 2.83599 3.91641 3.41914
# Velocity P-wave (km/s) = 4.39367 7.27272 6.00820
#
# Compressibility (1/GPa) = 0.05668134
#
# Stress axis : x y z
#
# Youngs Moduli (GPa) = 21.36851 210.86376 168.63269
#
# Poissons Ratio (x) = -0.47179 0.11854
# Poissons Ratio (y) = -0.04781 0.32529
# Poissons Ratio (z) = 0.01502 0.40675
#
# Static dielectric constant tensor:
#      x y z
#    x 2.867490 0.000000 0.000000 
#    y 0.000000 6.219730 0.000000 
#    z 0.000000 0.000000 3.803070 
# 
# 
# High freq. dielectric constant tensor:
#      x y z
#    x 1.707040 0.000000 0.000000 
#    y 0.000000 1.850510 0.000000 
#    z 0.000000 0.000000 1.811800 
# 
# From -- ./inp_files/23827.got.cif
#   From: 2010.03.12/outbox.cif.g09.slc.cpg/sg49_12_cif.got.tgz:23827.got - 2010.04.14 03:58:27.
