data_PCOD8202614
_publ_section_title
;
Structure prediction by ZEFSAII (Michael W. Deem and Ramdas Pophale) SiO2 
 PCOD8202614
Probable space group: P C C M
;
_chemical_formula_sum "Si O2"
_cell_formula_units_Z 56
_cell_length_a 15.440116
_cell_length_b 19.571603
_cell_length_c 9.090692
_cell_angle_alpha 90.000000
_cell_angle_beta 90.000000
_cell_angle_gamma 90.000000
_cell_volume 2747.096403
_symmetry_space_group_name_H-M "P C C M"
_symmetry_group_IT_number 49
_symmetry_cell_setting 'orthorhombic'
loop_
_space_group_symop_operation_xyz
x,y,z
-x,-y,z
x,-y,1/2-z
-x,y,1/2-z
-x,-y,-z
x,y,-z
-x,y,1/2+z
x,-y,1/2+z
loop_
_atom_site_type_symbol
_atom_site_label
_atom_site_fract_x
_atom_site_fract_y
_atom_site_fract_z
Si Si1 0.664969 0.210317 0.829122
Si Si2 0.588415 0.354073 0.827669
Si Si3 0.158322 0.199669 0.169908
Si Si4 0.915188 0.343828 0.332181
Si Si5 0.354322 0.063510 0.661925
Si Si6 0.748174 0.427436 0.323716
Si Si7 0.852347 0.934548 0.665386
O O1 0.599606 0.272704 0.806510
O O2 0.749849 0.223781 0.733629
O O3 0.618925 0.138953 0.777654
O O4 0.693439 0.202509 0.000000
O O5 0.500000 0.376537 0.750000
O O6 0.663179 0.394361 0.745132
O O7 0.587085 0.373815 0.000000
O O8 0.093109 0.262541 0.190367
O O9 0.117936 0.134647 0.253455
O O10 0.171791 0.180217 0.000000
O O11 0.929079 0.363391 0.500000
O O12 0.829406 0.381426 0.274230
O O13 0.000000 0.371057 0.250000
O O14 0.391358 0.053470 0.500000
O O15 0.250841 0.061176 0.666026
O O16 0.395002 0.000000 0.750000
O O17 0.763275 0.500000 0.250000
O O18 0.738298 0.432576 0.500000
O O19 0.889151 0.933840 0.500000
O O20 0.891625 0.000000 0.750000
#
# Coordination Sequence:
#
# PCOD8202614 Si02
#       7
#     8   8   8   8   8   8   8
#     4   9  18  32  52  78 111 153 199 244 298 357
#     4  11  23  40  64  93 124 162 202 250 303 359
#     4  10  18  31  52  80 113 152 196 248 300 352
#     4  10  23  40  62  91 125 161 202 247 296 355
#     4   8  14  24  39  66 102 140 187 238 286 343
#     4  11  24  45  68  96 127 159 198 243 294 356
#     4   9  16  26  42  70 106 148 195 246 299 357
#
# _framework density 20.385159000000002
#
# number of rings (size 3 to 8) (size 9 to 14) (size 15 to 20)
#    0.000    2.286    1.429    2.571    0.000    6.857 
#    0.000    2.857    0.000    0.857    0.000    6.000 
#    0.000    0.000    0.000    0.000    0.000    0.000 
#
# Total GULP energy -694287.662334 kJ/mol
# GULP energy per Si atom -12397.993970 kJ/mol
# Density = 2.033876 g / cm^3
# Si number density = 20.385159 Si / 1000 Ang^3
#
#
#
# Elastic Constant Matrix: (Units=GPa)
#
#
# Indices 1 2 3 4 5 6 
#
# 1 94.3334 35.3050 50.0145 0.0000 0.0000 0.0000
# 2 35.3050 114.3193 56.4467 0.0000 0.0000 0.0000
# 3 50.0145 56.4467 122.2955 0.0000 0.0000 0.0000
# 4 0.0000 0.0000 0.0000 36.3482 0.0000 0.0000
# 5 0.0000 0.0000 0.0000 0.0000 23.8924 0.0000
# 6 0.0000 0.0000 0.0000 0.0000 0.0000 3.9982
#
#
#
# Elastic Compliance Matrix: (Units=1/GPa)
#
#
# Indices 1 2 3 4 5 6 
#
# 1 0.013853 -0.001918 -0.004780 0.000000 0.000000 0.000000
# 2 -0.001918 0.011595 -0.004567 0.000000 0.000000 0.000000
# 3 -0.004780 -0.004567 0.012240 0.000000 0.000000 0.000000
# 4 0.000000 0.000000 0.000000 0.027512 0.000000 0.000000
# 5 0.000000 0.000000 0.000000 0.000000 0.041854 0.000000
# 6 0.000000 0.000000 0.000000 0.000000 0.000000 0.250112
#
#
# Mechanical properties :
#
#
# Convention : Reuss Voigt Hill
#
# Bulk Modulus (GPa) = 65.97648 68.27561 67.12604
# Shear Modulus (GPa) = 12.99550 25.45991 19.22771
#
# Velocity S-wave (km/s) = 2.52761 3.53787 3.07452
# Velocity P-wave (km/s) = 6.39950 7.08902 6.75307
#
# Compressibility (1/GPa) = 0.01515692
#
# Stress axis : x y z
#
# Youngs Moduli (GPa) = 72.18735 86.24439 81.69984
#
# Poissons Ratio (x) = 0.16541 0.39053
# Poissons Ratio (y) = 0.13845 0.37316
# Poissons Ratio (z) = 0.34506 0.39391
#
# Static dielectric constant tensor:
#      x y z
#    x 3.237600 0.000000 0.000000 
#    y 0.000000 3.972020 0.000000 
#    z 0.000000 0.000000 3.824280 
# 
# 
# High freq. dielectric constant tensor:
#      x y z
#    x 1.763450 0.000000 0.000000 
#    y 0.000000 1.808670 0.000000 
#    z 0.000000 0.000000 1.801270 
# 
# From -- ./inp_files/4052.got.cif
#   From: 2010.03.12/outbox.cif.g09.slc.cpg/sg49_3_cif.got.tgz:4052.got - 2010.04.14 03:58:27.
