data_PCOD8202897
_publ_section_title
;
Structure prediction by ZEFSAII (Michael W. Deem and Ramdas Pophale) SiO2 
 PCOD8202897
Probable space group: P C C M
;
_chemical_formula_sum "Si O2"
_cell_formula_units_Z 64
_cell_length_a 20.211169
_cell_length_b 20.269319
_cell_length_c 8.680760
_cell_angle_alpha 90.000000
_cell_angle_beta 90.000000
_cell_angle_gamma 90.000000
_cell_volume 3556.217711
_symmetry_space_group_name_H-M "P C C M"
_symmetry_group_IT_number 49
_symmetry_cell_setting 'orthorhombic'
loop_
_space_group_symop_operation_xyz
x,y,z
-x,-y,z
x,-y,1/2-z
-x,y,1/2-z
-x,-y,-z
x,y,-z
-x,y,1/2+z
x,-y,1/2+z
loop_
_atom_site_type_symbol
_atom_site_label
_atom_site_fract_x
_atom_site_fract_y
_atom_site_fract_z
Si Si1 0.235048 0.600114 0.324062
Si Si2 0.429476 0.071265 0.183637
Si Si3 0.431778 0.296154 0.183033
Si Si4 0.897455 0.567835 0.679895
Si Si5 0.067036 0.294446 0.183245
Si Si6 0.794480 0.749830 0.175660
Si Si7 0.618757 0.433556 0.319338
Si Si8 0.333255 0.185734 0.183490
O O1 0.215869 0.581567 0.500000
O O2 0.181274 0.569803 0.209017
O O3 0.240330 0.678965 0.309591
O O4 0.304479 0.569968 0.272729
O O5 0.500000 0.096263 0.250000
O O6 0.369233 0.118649 0.238500
O O7 0.411728 0.000000 0.250000
O O8 0.435339 0.068722 0.000000
O O9 0.500000 0.269355 0.250000
O O10 0.418482 0.369676 0.248251
O O11 0.375599 0.247226 0.245089
O O12 0.433800 0.295323 0.000000
O O13 0.926824 0.500000 0.750000
O O14 0.913141 0.571655 0.500000
O O15 0.931028 0.629514 0.764814
O O16 0.131443 0.254466 0.250172
O O17 0.000000 0.261556 0.250000
O O18 0.066716 0.292569 0.000000
O O19 0.742647 0.803886 0.247848
O O20 0.805685 0.769678 0.000000
O O21 0.587122 0.500000 0.250000
O O22 0.610005 0.434956 0.500000
O O23 0.330588 0.187437 0.000000
#
# Coordination Sequence:
#
# PCOD8202897 Si02
#       8
#     8   8   8   8   8   8   8   8
#     4   9  16  30  49  67  87 114 148 193 248 298
#     4  10  19  31  50  75 108 144 175 205 240 286
#     4  10  20  34  50  67  89 118 157 203 247 291
#     4  11  21  32  46  66  91 118 154 195 241 299
#     4  10  20  34  52  71  95 125 154 192 243 296
#     4   8  14  28  51  73  92 118 157 196 235 283
#     4  10  20  32  47  63  84 115 151 198 250 302
#     4   9  16  30  53  76  96 127 168 204 238 283
#
# _framework density 17.996648
#
# number of rings (size 3 to 8) (size 9 to 14) (size 15 to 20)
#    0.000    2.375    1.250    3.750    0.000    2.500 
#    0.000    3.125    0.000    7.500    0.000    0.000 
#    0.000    0.500    0.000    6.250    0.000    0.000 
#
# Total GULP energy -793117.501937 kJ/mol
# GULP energy per Si atom -12392.460968 kJ/mol
# Density = 1.795569 g / cm^3
# Si number density = 17.996648 Si / 1000 Ang^3
#
#
#
# Elastic Constant Matrix: (Units=GPa)
#
#
# Indices 1 2 3 4 5 6 
#
# 1 130.3742 60.8856 24.1573 0.0000 0.0000 0.0000
# 2 60.8856 84.5487 17.0280 0.0000 0.0000 0.0000
# 3 24.1573 17.0280 46.5879 0.0000 0.0000 0.0000
# 4 0.0000 0.0000 0.0000 14.6949 0.0000 0.0000
# 5 0.0000 0.0000 0.0000 0.0000 17.9086 0.0000
# 6 0.0000 0.0000 0.0000 0.0000 0.0000 12.1575
#
#
#
# Elastic Compliance Matrix: (Units=1/GPa)
#
#
# Indices 1 2 3 4 5 6 
#
# 1 0.012012 -0.007983 -0.003311 0.000000 0.000000 0.000000
# 2 -0.007983 0.018073 -0.002466 0.000000 0.000000 0.000000
# 3 -0.003311 -0.002466 0.024083 0.000000 0.000000 0.000000
# 4 0.000000 0.000000 0.000000 0.068051 0.000000 0.000000
# 5 0.000000 0.000000 0.000000 0.000000 0.055839 0.000000
# 6 0.000000 0.000000 0.000000 0.000000 0.000000 0.082254
#
#
# Mechanical properties :
#
#
# Convention : Reuss Voigt Hill
#
# Bulk Modulus (GPa) = 37.52671 51.73917 44.63294
# Shear Modulus (GPa) = 16.85120 19.58152 18.21636
#
# Velocity S-wave (km/s) = 3.06331 3.30216 3.18497
# Velocity P-wave (km/s) = 5.78006 6.58413 6.19516
#
# Compressibility (1/GPa) = 0.02664768
#
# Stress axis : x y z
#
# Youngs Moduli (GPa) = 83.25061 55.33060 41.52325
#
# Poissons Ratio (x) = 0.44172 0.13747
# Poissons Ratio (y) = 0.66462 0.10240
# Poissons Ratio (z) = 0.27561 0.13646
#
# Static dielectric constant tensor:
#      x y z
#    x 3.645400 0.000000 0.000000 
#    y 0.000000 3.273010 0.000000 
#    z 0.000000 0.000000 3.041890 
# 
# 
# High freq. dielectric constant tensor:
#      x y z
#    x 1.703610 0.000000 0.000000 
#    y 0.000000 1.659040 0.000000 
#    z 0.000000 0.000000 1.671120 
# 
# From -- ./inp_files/6103.got.cif
#   From: 2010.03.12/outbox.cif.g09.slc.cpg/sg49_4_cif.got.tgz:6103.got - 2010.04.14 03:58:27.
