data_PCOD8202832
_publ_section_title
;
Structure prediction by ZEFSAII (Michael W. Deem and Ramdas Pophale) SiO2 
 PCOD8202832
Probable space group: P C C M
;
_chemical_formula_sum "Si O2"
_cell_formula_units_Z 64
_cell_length_a 19.914939
_cell_length_b 19.831377
_cell_length_c 8.874829
_cell_angle_alpha 90.000000
_cell_angle_beta 90.000000
_cell_angle_gamma 90.000000
_cell_volume 3505.030851
_symmetry_space_group_name_H-M "P C C M"
_symmetry_group_IT_number 49
_symmetry_cell_setting 'orthorhombic'
loop_
_space_group_symop_operation_xyz
x,y,z
-x,-y,z
x,-y,1/2-z
-x,y,1/2-z
-x,-y,-z
x,y,-z
-x,y,1/2+z
x,-y,1/2+z
loop_
_atom_site_type_symbol
_atom_site_label
_atom_site_fract_x
_atom_site_fract_y
_atom_site_fract_z
Si Si1 0.099327 0.068087 0.174115
Si Si2 0.569387 0.572480 0.179290
Si Si3 0.933436 0.791945 0.320927
Si Si4 0.790057 0.247326 0.177012
Si Si5 0.434666 0.203197 0.326070
Si Si6 0.389191 0.932384 0.674629
Si Si7 0.755349 0.113897 0.330810
Si Si8 0.664488 0.676684 0.674739
O O1 0.069228 0.131561 0.262331
O O2 0.179714 0.067328 0.191727
O O3 0.070968 0.000000 0.250000
O O4 0.076943 0.071633 0.000000
O O5 0.584626 0.500000 0.250000
O O6 0.500000 0.601356 0.250000
O O7 0.632006 0.619829 0.220680
O O8 0.561853 0.567200 0.000000
O O9 0.938532 0.791878 0.500000
O O10 0.867387 0.750115 0.263354
O O11 0.000000 0.757293 0.250000
O O12 0.755724 0.177588 0.221842
O O13 0.742260 0.310130 0.227133
O O14 0.792148 0.247346 0.000000
O O15 0.500000 0.237203 0.250000
O O16 0.448943 0.190989 0.500000
O O17 0.423265 0.131816 0.248635
O O18 0.372540 0.252568 0.299467
O O19 0.407614 0.933031 0.500000
O O20 0.309361 0.930969 0.704332
O O21 0.418150 0.000000 0.750000
O O22 0.752947 0.143145 0.500000
O O23 0.659855 0.654051 0.500000
#
# Coordination Sequence:
#
# PCOD8202832 Si02
#       8
#     8   8   8   8   8   8   8   8
#     4  10  19  31  46  67  92 121 159 204 257 319
#     4  11  22  37  58  85 120 159 193 225 261 307
#     4  10  20  34  51  71  98 132 167 208 261 317
#     4   9  18  33  54  77 102 133 169 212 260 309
#     4  11  23  38  55  74  99 130 168 214 265 316
#     4  11  22  35  51  70  93 123 163 212 269 326
#     4   9  18  31  48  70  95 122 157 206 260 317
#     4  10  20  36  58  84 111 141 179 221 263 310
#
# _framework density 18.259468999999999
#
# number of rings (size 3 to 8) (size 9 to 14) (size 15 to 20)
#    0.000    1.875    1.250    3.750    0.000    4.500 
#    0.000    2.500    0.000    0.000    0.000    0.000 
#    0.000    0.500    0.000    5.750    0.000    1.750 
#
# Total GULP energy -793440.425154 kJ/mol
# GULP energy per Si atom -12397.506643 kJ/mol
# Density = 1.821791 g / cm^3
# Si number density = 18.259469 Si / 1000 Ang^3
#
#
#
# Elastic Constant Matrix: (Units=GPa)
#
#
# Indices 1 2 3 4 5 6 
#
# 1 108.2516 38.9024 52.0656 0.0000 0.0000 0.0000
# 2 38.9024 67.2680 36.9220 0.0000 0.0000 0.0000
# 3 52.0656 36.9220 91.0290 0.0000 0.0000 0.0000
# 4 0.0000 0.0000 0.0000 24.3416 0.0000 0.0000
# 5 0.0000 0.0000 0.0000 0.0000 25.9060 0.0000
# 6 0.0000 0.0000 0.0000 0.0000 0.0000 17.2265
#
#
#
# Elastic Compliance Matrix: (Units=1/GPa)
#
#
# Indices 1 2 3 4 5 6 
#
# 1 0.013808 -0.004696 -0.005993 0.000000 0.000000 0.000000
# 2 -0.004696 0.020720 -0.005718 0.000000 0.000000 0.000000
# 3 -0.005993 -0.005718 0.016733 0.000000 0.000000 0.000000
# 4 0.000000 0.000000 0.000000 0.041082 0.000000 0.000000
# 5 0.000000 0.000000 0.000000 0.000000 0.038601 0.000000
# 6 0.000000 0.000000 0.000000 0.000000 0.000000 0.058050
#
#
# Mechanical properties :
#
#
# Convention : Reuss Voigt Hill
#
# Bulk Modulus (GPa) = 54.21125 58.03651 56.12388
# Shear Modulus (GPa) = 21.93395 22.73871 22.33633
#
# Velocity S-wave (km/s) = 3.46965 3.53272 3.50133
# Velocity P-wave (km/s) = 6.76795 6.96373 6.86654
#
# Compressibility (1/GPa) = 0.01844636
#
# Stress axis : x y z
#
# Youngs Moduli (GPa) = 72.42338 48.26168 59.76336
#
# Poissons Ratio (x) = 0.22663 0.35815
# Poissons Ratio (y) = 0.34009 0.34175
# Poissons Ratio (z) = 0.43402 0.27598
#
# Static dielectric constant tensor:
#      x y z
#    x 4.034410 0.000000 0.000000 
#    y 0.000000 3.003200 0.000000 
#    z 0.000000 0.000000 3.450540 
# 
# 
# High freq. dielectric constant tensor:
#      x y z
#    x 1.717770 0.000000 0.000000 
#    y 0.000000 1.660620 0.000000 
#    z 0.000000 0.000000 1.716270 
# 
# From -- ./inp_files/5996.got.cif
#   From: 2010.03.12/outbox.cif.g09.slc.cpg/sg49_3_cif.got.tgz:5996.got - 2010.04.14 03:58:27.
