data_PCOD8202213
_publ_section_title
;
Structure prediction by ZEFSAII (Michael W. Deem and Ramdas Pophale) SiO2 
 PCOD8202213
Probable space group: P C C M
;
_chemical_formula_sum "Si O2"
_cell_formula_units_Z 40
_cell_length_a 20.726686
_cell_length_b 15.289578
_cell_length_c 8.612494
_cell_angle_alpha 90.000000
_cell_angle_beta 90.000000
_cell_angle_gamma 90.000000
_cell_volume 2729.319005
_symmetry_space_group_name_H-M "P C C M"
_symmetry_group_IT_number 49
_symmetry_cell_setting 'orthorhombic'
loop_
_space_group_symop_operation_xyz
x,y,z
-x,-y,z
x,-y,1/2-z
-x,y,1/2-z
-x,-y,-z
x,y,-z
-x,y,1/2+z
x,-y,1/2+z
loop_
_atom_site_type_symbol
_atom_site_label
_atom_site_fract_x
_atom_site_fract_y
_atom_site_fract_z
Si Si1 0.824673 0.596074 0.816917
Si Si2 0.693928 0.597408 0.684077
Si Si3 0.071479 0.277094 0.317479
Si Si4 0.564716 0.597776 0.184083
Si Si5 0.070464 0.915754 0.179234
O O1 0.837351 0.500000 0.750000
O O2 0.760526 0.641313 0.742130
O O3 0.885315 0.655055 0.775251
O O4 0.815505 0.589395 0.000000
O O5 0.696288 0.500000 0.750000
O O6 0.689789 0.597936 0.500000
O O7 0.630032 0.645357 0.754071
O O8 0.070478 0.299315 0.500000
O O9 0.101497 0.179661 0.288147
O O10 0.000000 0.284651 0.250000
O O11 0.565727 0.500000 0.250000
O O12 0.500000 0.645171 0.250000
O O13 0.563278 0.597211 0.000000
O O14 0.000000 0.913644 0.250000
O O15 0.109269 0.000000 0.250000
O O16 0.064247 0.933584 0.000000
#
# Coordination Sequence:
#
# PCOD8202213 Si02
#       5
#     8   8   8   8   8
#     4  11  21  33  46  59  76 103 136 172 207 243
#     4  10  17  27  40  54  72  96 126 161 197 236
#     4  10  20  33  46  63  82 103 131 167 204 242
#     4  10  16  23  34  51  72  94 121 155 194 233
#     4   9  16  26  43  63  84 103 123 151 190 237
#
# _framework density 14.655670000000001
#
# number of rings (size 3 to 8) (size 9 to 14) (size 15 to 20)
#    0.000    2.000    0.000   10.200    0.000    2.800 
#    0.000    2.000    0.000    0.000    0.000    0.000 
#    0.000    0.000    0.000    0.000    0.000    1.000 
#
# Total GULP energy -495574.630156 kJ/mol
# GULP energy per Si atom -12389.365754 kJ/mol
# Density = 1.462231 g / cm^3
# Si number density = 14.655670 Si / 1000 Ang^3
#
#
#
# Elastic Constant Matrix: (Units=GPa)
#
#
# Indices 1 2 3 4 5 6 
#
# 1 94.4289 32.1728 40.4665 0.0000 0.0000 0.0000
# 2 32.1728 54.9645 31.4897 0.0000 0.0000 0.0000
# 3 40.4665 31.4897 138.4342 0.0000 0.0000 0.0000
# 4 0.0000 0.0000 0.0000 17.0070 0.0000 0.0000
# 5 0.0000 0.0000 0.0000 0.0000 26.8940 0.0000
# 6 0.0000 0.0000 0.0000 0.0000 0.0000 -0.7369
#
#
#
# Elastic Compliance Matrix: (Units=1/GPa)
#
#
# Indices 1 2 3 4 5 6 
#
# 1 0.013973 -0.006714 -0.002557 0.000000 0.000000 0.000000
# 2 -0.006714 0.024146 -0.003530 0.000000 0.000000 0.000000
# 3 -0.002557 -0.003530 0.008774 0.000000 0.000000 0.000000
# 4 0.000000 0.000000 0.000000 0.058799 0.000000 0.000000
# 5 0.000000 0.000000 0.000000 0.000000 0.037183 0.000000
# 6 0.000000 0.000000 0.000000 0.000000 0.000000 -1.357108
#
#
# Mechanical properties :
#
#
# Convention : Reuss Voigt Hill
#
# Bulk Modulus (GPa) = 46.96852 55.12061 51.04457
# Shear Modulus (GPa) = -4.23179 20.87939 8.32380
#
# Velocity S-wave (km/s) = -1.70110 3.77857 2.38577
# Velocity P-wave (km/s) = 5.31594 7.53185 6.51875
#
# Compressibility (1/GPa) = 0.02129086
#
# Stress axis : x y z
#
# Youngs Moduli (GPa) = 71.56421 41.41508 113.97109
#
# Poissons Ratio (x) = 0.27806 0.29147
# Poissons Ratio (y) = 0.48048 0.40230
# Poissons Ratio (z) = 0.18302 0.14619
#
# Static dielectric constant tensor:
#      x y z
#    x 3.678270 0.000000 0.000000 
#    y 0.000000 2.938870 0.000000 
#    z 0.000000 0.000000 3.031860 
# 
# 
# High freq. dielectric constant tensor:
#      x y z
#    x 1.552910 0.000000 0.000000 
#    y 0.000000 1.502900 0.000000 
#    z 0.000000 0.000000 1.589010 
# 
# From -- ./inp_files/3812.got.cif
#   From: 2010.03.12/outbox.cif.g09.slc.cpg/sg49_2_cif.got.tgz:3812.got - 2010.04.14 03:58:27.
