data_PCOD8202495
_publ_section_title
;
Structure prediction by ZEFSAII (Michael W. Deem and Ramdas Pophale) SiO2 
 PCOD8202495
Probable space group: P C C M
;
_chemical_formula_sum "Si O2"
_cell_formula_units_Z 64
_cell_length_a 18.973840
_cell_length_b 23.505295
_cell_length_c 9.029246
_cell_angle_alpha 90.000000
_cell_angle_beta 90.000000
_cell_angle_gamma 90.000000
_cell_volume 4026.914656
_symmetry_space_group_name_H-M "P C C M"
_symmetry_group_IT_number 49
_symmetry_cell_setting 'orthorhombic'
loop_
_space_group_symop_operation_xyz
x,y,z
-x,-y,z
x,-y,1/2-z
-x,y,1/2-z
-x,-y,-z
x,y,-z
-x,y,1/2+z
x,-y,1/2+z
loop_
_atom_site_type_symbol
_atom_site_label
_atom_site_fract_x
_atom_site_fract_y
_atom_site_fract_z
Si Si1 0.709879 0.343266 0.669139
Si Si2 0.791648 0.771900 0.827764
Si Si3 0.930123 0.384731 0.173404
Si Si4 0.213876 0.559158 0.174852
Si Si5 0.574644 0.057788 0.323180
Si Si6 0.571421 0.722720 0.828107
Si Si7 0.653810 0.170046 0.674782
Si Si8 0.070705 0.746455 0.173974
O O1 0.719989 0.363036 0.500000
O O2 0.760539 0.290352 0.703668
O O3 0.728193 0.394844 0.777376
O O4 0.629202 0.326091 0.699706
O O5 0.733904 0.818303 0.771487
O O6 0.862487 0.781552 0.734186
O O7 0.809689 0.779989 0.000000
O O8 0.863222 0.420528 0.229363
O O9 0.918656 0.319285 0.219367
O O10 0.000000 0.409814 0.250000
O O11 0.940773 0.390687 0.000000
O O12 0.233046 0.500000 0.250000
O O13 0.216516 0.552250 0.000000
O O14 0.500000 0.073082 0.250000
O O15 0.566028 0.051122 0.500000
O O16 0.629575 0.107086 0.279740
O O17 0.604221 0.000000 0.250000
O O18 0.500000 0.703807 0.750000
O O19 0.599976 0.782679 0.760453
O O20 0.555042 0.729958 0.000000
O O21 0.653617 0.179296 0.500000
O O22 0.000000 0.770462 0.250000
O O23 0.064307 0.755272 0.000000
#
# Coordination Sequence:
#
# PCOD8202495 Si02
#       8
#     8   8   8   8   8   8   8   8
#     4   9  18  32  49  67  89 115 143 177 221 272
#     4   9  16  29  48  67  88 118 151 186 228 269
#     4   9  19  32  46  64  88 115 145 179 214 257
#     4  11  22  35  49  67  88 113 147 184 220 264
#     4  10  18  29  44  63  92 130 168 201 229 264
#     4   9  17  30  48  71  94 117 146 180 223 271
#     4   8  16  29  45  66  94 125 157 191 227 268
#     4  10  18  29  44  66  92 120 151 182 221 268
#
# _framework density 15.893060999999999
#
# number of rings (size 3 to 8) (size 9 to 14) (size 15 to 20)
#    0.000    2.625    1.250    3.375    0.000    2.250 
#    0.000    5.000    0.000    0.375    0.000    2.625 
#    0.000    0.500    0.000    5.750    0.000    1.750 
#
# Total GULP energy -793516.891265 kJ/mol
# GULP energy per Si atom -12398.701426 kJ/mol
# Density = 1.585689 g / cm^3
# Si number density = 15.893061 Si / 1000 Ang^3
#
#
#
# Elastic Constant Matrix: (Units=GPa)
#
#
# Indices 1 2 3 4 5 6 
#
# 1 123.5201 51.6369 49.2208 0.0000 0.0000 0.0000
# 2 51.6369 85.7777 36.7559 0.0000 0.0000 0.0000
# 3 49.2208 36.7559 60.5211 0.0000 0.0000 0.0000
# 4 0.0000 0.0000 0.0000 14.3478 0.0000 0.0000
# 5 0.0000 0.0000 0.0000 0.0000 28.9203 0.0000
# 6 0.0000 0.0000 0.0000 0.0000 0.0000 23.4446
#
#
#
# Elastic Compliance Matrix: (Units=1/GPa)
#
#
# Indices 1 2 3 4 5 6 
#
# 1 0.013151 -0.004506 -0.007959 0.000000 0.000000 0.000000
# 2 -0.004506 0.017303 -0.006844 0.000000 0.000000 0.000000
# 3 -0.007959 -0.006844 0.027152 0.000000 0.000000 0.000000
# 4 0.000000 0.000000 0.000000 0.069697 0.000000 0.000000
# 5 0.000000 0.000000 0.000000 0.000000 0.034578 0.000000
# 6 0.000000 0.000000 0.000000 0.000000 0.000000 0.042654
#
#
# Mechanical properties :
#
#
# Convention : Reuss Voigt Hill
#
# Bulk Modulus (GPa) = 52.66229 60.56070 56.61150
# Shear Modulus (GPa) = 20.04144 22.15623 21.09883
#
# Velocity S-wave (km/s) = 3.55493 3.73779 3.64751
# Velocity P-wave (km/s) = 7.07513 7.53764 7.31004
#
# Compressibility (1/GPa) = 0.01898892
#
# Stress axis : x y z
#
# Youngs Moduli (GPa) = 76.03872 57.79195 36.82940
#
# Poissons Ratio (x) = 0.26044 0.29312
# Poissons Ratio (y) = 0.34267 0.25205
# Poissons Ratio (z) = 0.60517 0.39551
#
# Static dielectric constant tensor:
#      x y z
#    x 3.072180 0.000000 0.000000 
#    y 0.000000 2.860010 0.000000 
#    z 0.000000 0.000000 2.900900 
# 
# 
# High freq. dielectric constant tensor:
#      x y z
#    x 1.609700 0.000000 0.000000 
#    y 0.000000 1.577820 0.000000 
#    z 0.000000 0.000000 1.606300 
# 
# From -- ./inp_files/5410.got.cif
#   From: 2010.03.12/outbox.cif.g09.slc.cpg/sg49_3_cif.got.tgz:5410.got - 2010.04.14 03:58:27.
