data_PCOD8202595
_publ_section_title
;
Structure prediction by ZEFSAII (Michael W. Deem and Ramdas Pophale) SiO2 
 PCOD8202595
Probable space group: P C C M
;
_chemical_formula_sum "Si O2"
_cell_formula_units_Z 56
_cell_length_a 18.975331
_cell_length_b 18.741892
_cell_length_c 8.890588
_cell_angle_alpha 90.000000
_cell_angle_beta 90.000000
_cell_angle_gamma 90.000000
_cell_volume 3161.791854
_symmetry_space_group_name_H-M "P C C M"
_symmetry_group_IT_number 49
_symmetry_cell_setting 'orthorhombic'
loop_
_space_group_symop_operation_xyz
x,y,z
-x,-y,z
x,-y,1/2-z
-x,y,1/2-z
-x,-y,-z
x,y,-z
-x,y,1/2+z
x,-y,1/2+z
loop_
_atom_site_type_symbol
_atom_site_label
_atom_site_fract_x
_atom_site_fract_y
_atom_site_fract_z
Si Si1 0.786638 0.656976 0.321535
Si Si2 0.710424 0.785487 0.174301
Si Si3 0.335985 0.574079 0.679295
Si Si4 0.786198 0.926654 0.824063
Si Si5 0.071079 0.857131 0.676065
Si Si6 0.927543 0.691709 0.177640
Si Si7 0.572753 0.292982 0.672620
O O1 0.787423 0.648203 0.500000
O O2 0.757191 0.734538 0.277596
O O3 0.739465 0.594908 0.248190
O O4 0.864850 0.647672 0.255257
O O5 0.727542 0.867114 0.215195
O O6 0.627714 0.771374 0.203057
O O7 0.730189 0.768536 0.000000
O O8 0.361728 0.500000 0.750000
O O9 0.329537 0.569365 0.500000
O O10 0.393331 0.632958 0.730385
O O11 0.862285 0.901473 0.761429
O O12 0.761806 0.000000 0.750000
O O13 0.791186 0.938994 0.000000
O O14 0.063232 0.866829 0.500000
O O15 0.082965 0.774786 0.718265
O O16 0.000000 0.887629 0.750000
O O17 0.000000 0.663630 0.250000
O O18 0.927957 0.678209 0.000000
O O19 0.500000 0.273840 0.750000
O O20 0.554793 0.301050 0.500000
#
# Coordination Sequence:
#
# PCOD8202595 Si02
#       7
#     8   8   8   8   8   8   8
#     4  11  20  31  52  79 103 135 177 219 260 308
#     4   9  18  36  54  71 101 138 172 212 262 310
#     4  10  21  37  55  79 111 146 175 207 250 298
#     4  10  20  34  50  70  98 134 174 217 267 314
#     4   9  18  31  47  66  95 133 168 212 261 311
#     4  10  18  31  49  72 101 134 174 221 271 313
#     4   9  19  34  56  81 107 138 169 206 253 303
#
# _framework density 17.711475
#
# number of rings (size 3 to 8) (size 9 to 14) (size 15 to 20)
#    0.000    2.286    1.429    3.000    0.000    5.143 
#    0.000    2.857    0.000    0.857    0.000    6.000 
#    0.000    0.000    0.000    0.000    0.000    0.000 
#
# Total GULP energy -694429.135315 kJ/mol
# GULP energy per Si atom -12400.520273 kJ/mol
# Density = 1.767116 g / cm^3
# Si number density = 17.711475 Si / 1000 Ang^3
#
#
#
# Elastic Constant Matrix: (Units=GPa)
#
#
# Indices 1 2 3 4 5 6 
#
# 1 126.0253 46.9168 40.8582 0.0000 0.0000 0.0000
# 2 46.9168 81.9105 24.3086 0.0000 0.0000 0.0000
# 3 40.8582 24.3086 67.7474 0.0000 0.0000 0.0000
# 4 0.0000 0.0000 0.0000 25.5873 0.0000 0.0000
# 5 0.0000 0.0000 0.0000 0.0000 32.2883 0.0000
# 6 0.0000 0.0000 0.0000 0.0000 0.0000 18.6540
#
#
#
# Elastic Compliance Matrix: (Units=1/GPa)
#
#
# Indices 1 2 3 4 5 6 
#
# 1 0.011472 -0.005056 -0.005105 0.000000 0.000000 0.000000
# 2 -0.005056 0.015892 -0.002653 0.000000 0.000000 0.000000
# 3 -0.005105 -0.002653 0.018791 0.000000 0.000000 0.000000
# 4 0.000000 0.000000 0.000000 0.039082 0.000000 0.000000
# 5 0.000000 0.000000 0.000000 0.000000 0.030971 0.000000
# 6 0.000000 0.000000 0.000000 0.000000 0.000000 0.053608
#
#
# Mechanical properties :
#
#
# Convention : Reuss Voigt Hill
#
# Bulk Modulus (GPa) = 48.71409 55.53893 52.12651
# Shear Modulus (GPa) = 24.71752 26.21256 25.46504
#
# Velocity S-wave (km/s) = 3.73978 3.85122 3.79591
# Velocity P-wave (km/s) = 6.79793 7.15552 6.97902
#
# Compressibility (1/GPa) = 0.02052794
#
# Stress axis : x y z
#
# Youngs Moduli (GPa) = 87.16750 62.92562 53.21655
#
# Poissons Ratio (x) = 0.31816 0.27165
# Poissons Ratio (y) = 0.44073 0.14117
# Poissons Ratio (z) = 0.44496 0.16693
#
# Static dielectric constant tensor:
#      x y z
#    x 3.379340 0.000000 0.000000 
#    y 0.000000 3.146320 0.000000 
#    z 0.000000 0.000000 3.212970 
# 
# 
# High freq. dielectric constant tensor:
#      x y z
#    x 1.684010 0.000000 0.000000 
#    y 0.000000 1.659450 0.000000 
#    z 0.000000 0.000000 1.685640 
# 
# From -- ./inp_files/5173.got.cif
#   From: 2010.03.12/outbox.cif.g09.slc.cpg/sg49_3_cif.got.tgz:5173.got - 2010.04.14 03:58:27.
