data_PCOD8202483
_publ_section_title
;
Structure prediction by ZEFSAII (Michael W. Deem and Ramdas Pophale) SiO2 
 PCOD8202483
Probable space group: P C C M
;
_chemical_formula_sum "Si O2"
_cell_formula_units_Z 56
_cell_length_a 19.079772
_cell_length_b 18.620868
_cell_length_c 8.921024
_cell_angle_alpha 90.000000
_cell_angle_beta 90.000000
_cell_angle_gamma 90.000000
_cell_volume 3169.478498
_symmetry_space_group_name_H-M "P C C M"
_symmetry_group_IT_number 49
_symmetry_cell_setting 'orthorhombic'
loop_
_space_group_symop_operation_xyz
x,y,z
-x,-y,z
x,-y,1/2-z
-x,y,1/2-z
-x,-y,-z
x,y,-z
-x,y,1/2+z
x,-y,1/2+z
loop_
_atom_site_type_symbol
_atom_site_label
_atom_site_fract_x
_atom_site_fract_y
_atom_site_fract_z
Si Si1 0.280561 0.666291 0.172416
Si Si2 0.199564 0.210868 0.824113
Si Si3 0.712870 0.074222 0.675523
Si Si4 0.432416 0.301089 0.674237
Si Si5 0.925534 0.715521 0.677366
Si Si6 0.429620 0.146697 0.821228
Si Si7 0.845825 0.426229 0.826752
O O1 0.258362 0.731575 0.278151
O O2 0.363052 0.649819 0.196366
O O3 0.234705 0.595681 0.211363
O O4 0.264960 0.688848 0.000000
O O5 0.228570 0.132653 0.780513
O O6 0.127416 0.223417 0.735483
O O7 0.185501 0.218140 0.000000
O O8 0.710708 0.062608 0.500000
O O9 0.636152 0.099121 0.731463
O O10 0.734954 0.000000 0.750000
O O11 0.500000 0.339800 0.750000
O O12 0.447891 0.287212 0.500000
O O13 0.419306 0.225986 0.755901
O O14 0.931339 0.721097 0.500000
O O15 0.896797 0.637553 0.728777
O O16 0.000000 0.729882 0.750000
O O17 0.500000 0.112031 0.750000
O O18 0.435552 0.150990 0.000000
O O19 0.867152 0.500000 0.750000
O O20 0.856758 0.439728 0.000000
#
# Coordination Sequence:
#
# PCOD8202483 Si02
#       7
#     8   8   8   8   8   8   8
#     4   9  18  32  50  72  99 134 172 212 256 305
#     4  10  19  34  54  77 103 131 169 214 252 298
#     4  10  22  35  50  72 101 135 174 215 258 308
#     4  10  18  28  46  70  96 128 167 215 265 307
#     4  10  21  37  57  83 110 138 169 202 243 295
#     4  10  19  32  46  68  98 131 171 214 260 310
#     4   9  19  34  51  76 108 138 171 203 242 295
#
# _framework density 17.668523
#
# number of rings (size 3 to 8) (size 9 to 14) (size 15 to 20)
#    0.000    2.286    1.429    3.429    0.000    6.286 
#    0.000    2.857    0.000    0.857    0.000    6.000 
#    0.000    0.000    0.000    0.000    0.000    0.000 
#
# Total GULP energy -694275.929010 kJ/mol
# GULP energy per Si atom -12397.784447 kJ/mol
# Density = 1.762831 g / cm^3
# Si number density = 17.668523 Si / 1000 Ang^3
#
#
#
# Elastic Constant Matrix: (Units=GPa)
#
#
# Indices 1 2 3 4 5 6 
#
# 1 144.5976 45.0651 46.9154 0.0000 0.0000 0.0000
# 2 45.0651 67.7373 31.4092 0.0000 0.0000 0.0000
# 3 46.9154 31.4092 69.6864 0.0000 0.0000 0.0000
# 4 0.0000 0.0000 0.0000 25.1862 0.0000 0.0000
# 5 0.0000 0.0000 0.0000 0.0000 27.8475 0.0000
# 6 0.0000 0.0000 0.0000 0.0000 0.0000 13.9484
#
#
#
# Elastic Compliance Matrix: (Units=1/GPa)
#
#
# Indices 1 2 3 4 5 6 
#
# 1 0.009772 -0.004362 -0.004613 0.000000 0.000000 0.000000
# 2 -0.004362 0.020611 -0.006353 0.000000 0.000000 0.000000
# 3 -0.004613 -0.006353 0.020319 0.000000 0.000000 0.000000
# 4 0.000000 0.000000 0.000000 0.039704 0.000000 0.000000
# 5 0.000000 0.000000 0.000000 0.000000 0.035910 0.000000
# 6 0.000000 0.000000 0.000000 0.000000 0.000000 0.071693
#
#
# Mechanical properties :
#
#
# Convention : Reuss Voigt Hill
#
# Bulk Modulus (GPa) = 49.88552 58.75563 54.32057
# Shear Modulus (GPa) = 21.24529 23.97186 22.60857
#
# Velocity S-wave (km/s) = 3.47138 3.68741 3.58103
# Velocity P-wave (km/s) = 6.66053 7.17328 6.92166
#
# Compressibility (1/GPa) = 0.02004590
#
# Stress axis : x y z
#
# Youngs Moduli (GPa) = 102.33441 48.51794 49.21560
#
# Poissons Ratio (x) = 0.21165 0.22701
# Poissons Ratio (y) = 0.44642 0.31266
# Poissons Ratio (z) = 0.47203 0.30823
#
# Static dielectric constant tensor:
#      x y z
#    x 3.537810 0.000000 0.000000 
#    y 0.000000 3.056350 0.000000 
#    z 0.000000 0.000000 3.301670 
# 
# 
# High freq. dielectric constant tensor:
#      x y z
#    x 1.689640 0.000000 0.000000 
#    y 0.000000 1.647210 0.000000 
#    z 0.000000 0.000000 1.692040 
# 
# From -- ./inp_files/5170.got.cif
#   From: 2010.03.12/outbox.cif.g09.slc.cpg/sg49_3_cif.got.tgz:5170.got - 2010.04.14 03:58:27.
