data_PCOD8202826
_publ_section_title
;
Structure prediction by ZEFSAII (Michael W. Deem and Ramdas Pophale) SiO2 
 PCOD8202826
Probable space group: P C C M
;
_chemical_formula_sum "Si O2"
_cell_formula_units_Z 38
_cell_length_a 16.004440
_cell_length_b 5.114642
_cell_length_c 26.129409
_cell_angle_alpha 90.000000
_cell_angle_beta 90.000000
_cell_angle_gamma 90.000000
_cell_volume 2138.874536
_symmetry_space_group_name_H-M "P C C M"
_symmetry_group_IT_number 49
_symmetry_cell_setting 'orthorhombic'
loop_
_space_group_symop_operation_xyz
x,y,z
-x,-y,z
x,-y,1/2-z
-x,y,1/2-z
-x,-y,-z
x,y,-z
-x,y,1/2+z
x,-y,1/2+z
loop_
_atom_site_type_symbol
_atom_site_label
_atom_site_fract_x
_atom_site_fract_y
_atom_site_fract_z
Si Si1 0.626268 0.868389 0.331265
Si Si2 0.500000 0.000000 0.750000
Si Si3 0.440704 0.257111 0.000000
Si Si4 0.186144 0.993441 0.808747
Si Si5 0.409707 0.375731 0.891850
Si Si6 0.905049 0.496538 0.311232
O O1 0.562094 0.814887 0.284018
O O2 0.714668 0.978049 0.312908
O O3 0.644569 0.603674 0.364164
O O4 0.584672 0.106425 0.361597
O O5 0.500000 0.500000 0.000000
O O6 0.381795 0.287708 0.949410
O O7 0.500000 0.000000 0.000000
O O8 0.141314 0.747220 0.834919
O O9 0.160036 0.000000 0.750000
O O10 0.146802 0.252253 0.834250
O O11 0.500000 0.500000 0.894457
O O12 0.901744 0.500000 0.250000
O O13 0.000000 0.500000 0.331034
#
# Coordination Sequence:
#
# PCOD8202826 Si02
#       6
#     8   2   4   8   8   8
#     4  12  23  35  50  72 103 142 181 214 240 292
#     4  12  24  38  48  68 106 158 188 206 240 276
#     4  10  20  36  58  74  92 120 167 238 281 316
#     4  10  19  31  45  68  97 131 166 208 245 286
#     4  11  21  36  52  73  93 129 178 220 266 300
#     4   9  17  30  48  66  88 123 168 208 252 299
#
# _framework density 17.766354
#
# number of rings (size 3 to 8) (size 9 to 14) (size 15 to 20)
#    0.000    1.474    3.158    4.421    0.000    4.211 
#    0.000    0.000    0.000    0.000    0.000    0.000 
#    0.000    0.000    0.000   66.316    0.000    0.000 
#
# Total GULP energy -470752.784184 kJ/mol
# GULP energy per Si atom -12388.231163 kJ/mol
# Density = 1.772592 g / cm^3
# Si number density = 17.766354 Si / 1000 Ang^3
#
#
#
# Elastic Constant Matrix: (Units=GPa)
#
#
# Indices 1 2 3 4 5 6 
#
# 1 108.6124 39.1174 22.6778 0.0000 0.0000 0.0000
# 2 39.1174 144.3086 43.4969 0.0000 0.0000 0.0000
# 3 22.6778 43.4969 69.0848 0.0000 0.0000 0.0000
# 4 0.0000 0.0000 0.0000 12.0248 0.0000 0.0000
# 5 0.0000 0.0000 0.0000 0.0000 4.9227 0.0000
# 6 0.0000 0.0000 0.0000 0.0000 0.0000 31.4300
#
#
#
# Elastic Compliance Matrix: (Units=1/GPa)
#
#
# Indices 1 2 3 4 5 6 
#
# 1 0.010428 -0.002215 -0.002028 0.000000 0.000000 0.000000
# 2 -0.002215 0.009023 -0.004954 0.000000 0.000000 0.000000
# 3 -0.002028 -0.004954 0.018260 0.000000 0.000000 0.000000
# 4 0.000000 0.000000 0.000000 0.083162 0.000000 0.000000
# 5 0.000000 0.000000 0.000000 0.000000 0.203139 0.000000
# 6 0.000000 0.000000 0.000000 0.000000 0.000000 0.031817
#
#
# Mechanical properties :
#
#
# Convention : Reuss Voigt Hill
#
# Bulk Modulus (GPa) = 51.77032 59.17668 55.47350
# Shear Modulus (GPa) = 13.13497 24.12307 18.62902
#
# Velocity S-wave (km/s) = 2.72199 3.68883 3.24165
# Velocity P-wave (km/s) = 6.25154 7.17801 6.73074
#
# Compressibility (1/GPa) = 0.01931609
#
# Stress axis : x y z
#
# Youngs Moduli (GPa) = 95.89137 110.82368 54.76477
#
# Poissons Ratio (x) = 0.24552 0.11108
# Poissons Ratio (y) = 0.21244 0.27130
# Poissons Ratio (z) = 0.19450 0.54902
#
# Static dielectric constant tensor:
#      x y z
#    x 3.115000 0.000000 0.000000 
#    y 0.000000 3.761740 0.000000 
#    z 0.000000 0.000000 3.967520 
# 
# 
# High freq. dielectric constant tensor:
#      x y z
#    x 1.666670 0.000000 0.000000 
#    y 0.000000 1.711480 0.000000 
#    z 0.000000 0.000000 1.636330 
# 
# From -- ./inp_files/23122.got.cif
#   From: 2010.03.12/outbox.cif.g09.slc.cpg/sg49_12_cif.got.tgz:23122.got - 2010.04.14 03:58:27.
