data_PCOD8202628
_publ_section_title
;
Structure prediction by ZEFSAII (Michael W. Deem and Ramdas Pophale) SiO2 
 PCOD8202628
Probable space group: P C C M
;
_chemical_formula_sum "Si O2"
_cell_formula_units_Z 64
_cell_length_a 18.506077
_cell_length_b 23.169460
_cell_length_c 8.530172
_cell_angle_alpha 90.000000
_cell_angle_beta 90.000000
_cell_angle_gamma 90.000000
_cell_volume 3657.531416
_symmetry_space_group_name_H-M "P C C M"
_symmetry_group_IT_number 49
_symmetry_cell_setting 'orthorhombic'
loop_
_space_group_symop_operation_xyz
x,y,z
-x,-y,z
x,-y,1/2-z
-x,y,1/2-z
-x,-y,-z
x,y,-z
-x,y,1/2+z
x,-y,1/2+z
loop_
_atom_site_type_symbol
_atom_site_label
_atom_site_fract_x
_atom_site_fract_y
_atom_site_fract_z
Si Si1 0.791356 0.559454 0.682669
Si Si2 0.184097 0.153454 0.180488
Si Si3 0.076973 0.063065 0.316036
Si Si4 0.074887 0.762953 0.818142
Si Si5 0.623000 0.438917 0.817295
Si Si6 0.842784 0.327970 0.682197
Si Si7 0.713095 0.751940 0.814207
Si Si8 0.424029 0.682708 0.685784
O O1 0.821059 0.500000 0.750000
O O2 0.807389 0.565578 0.500000
O O3 0.707168 0.565959 0.721176
O O4 0.835997 0.605331 0.781225
O O5 0.148671 0.100830 0.277580
O O6 0.131391 0.207033 0.202468
O O7 0.261631 0.182109 0.238879
O O8 0.188970 0.133918 0.000000
O O9 0.067866 0.059888 0.500000
O O10 0.000000 0.087701 0.250000
O O11 0.092136 0.000000 0.250000
O O12 0.089779 0.695380 0.786800
O O13 0.000000 0.783847 0.750000
O O14 0.082705 0.780897 0.000000
O O15 0.592811 0.500000 0.750000
O O16 0.586046 0.383371 0.739633
O O17 0.605742 0.437653 0.000000
O O18 0.858845 0.318138 0.500000
O O19 0.770193 0.296030 0.742068
O O20 0.635998 0.728741 0.748921
O O21 0.711264 0.753297 0.000000
O O22 0.500000 0.706049 0.750000
O O23 0.423077 0.683102 0.500000
#
# Coordination Sequence:
#
# PCOD8202628 Si02
#       8
#     8   8   8   8   8   8   8   8
#     4  10  19  30  47  70  92 116 150 192 238 290
#     4  10  19  34  53  75 100 135 173 212 250 289
#     4  11  21  34  51  76 109 149 184 218 249 290
#     4  11  21  33  48  71  98 127 161 201 243 290
#     4  10  20  33  49  70  93 123 158 200 245 300
#     4  10  18  32  51  70  91 120 153 195 244 292
#     4   8  17  32  51  70  94 125 162 201 246 293
#     4  11  21  35  51  71  97 130 163 203 252 307
#
# _framework density 17.498141
#
# number of rings (size 3 to 8) (size 9 to 14) (size 15 to 20)
#    0.000    1.875    1.250    5.625    0.000    1.250 
#    0.000    3.125    0.000    0.375    0.000    2.625 
#    0.000    0.500    0.000    5.750    0.000    1.750 
#
# Total GULP energy -792907.520570 kJ/mol
# GULP energy per Si atom -12389.180009 kJ/mol
# Density = 1.745831 g / cm^3
# Si number density = 17.498141 Si / 1000 Ang^3
#
#
#
# Elastic Constant Matrix: (Units=GPa)
#
#
# Indices 1 2 3 4 5 6 
#
# 1 66.7444 43.0571 18.0689 0.0000 0.0000 0.0000
# 2 43.0571 96.7482 23.8152 0.0000 0.0000 0.0000
# 3 18.0689 23.8152 70.6935 0.0000 0.0000 0.0000
# 4 0.0000 0.0000 0.0000 25.1412 0.0000 0.0000
# 5 0.0000 0.0000 0.0000 0.0000 21.7977 0.0000
# 6 0.0000 0.0000 0.0000 0.0000 0.0000 18.2425
#
#
#
# Elastic Compliance Matrix: (Units=1/GPa)
#
#
# Indices 1 2 3 4 5 6 
#
# 1 0.021403 -0.008918 -0.002466 0.000000 0.000000 0.000000
# 2 -0.008918 0.014987 -0.002769 0.000000 0.000000 0.000000
# 3 -0.002466 -0.002769 0.015709 0.000000 0.000000 0.000000
# 4 0.000000 0.000000 0.000000 0.039775 0.000000 0.000000
# 5 0.000000 0.000000 0.000000 0.000000 0.045876 0.000000
# 6 0.000000 0.000000 0.000000 0.000000 0.000000 0.054817
#
#
# Mechanical properties :
#
#
# Convention : Reuss Voigt Hill
#
# Bulk Modulus (GPa) = 42.03194 44.89652 43.46423
# Shear Modulus (GPa) = 21.85255 22.98593 22.41924
#
# Velocity S-wave (km/s) = 3.53774 3.62832 3.58332
# Velocity P-wave (km/s) = 6.38439 6.57773 6.48178
#
# Compressibility (1/GPa) = 0.02379143
#
# Stress axis : x y z
#
# Youngs Moduli (GPa) = 46.72134 66.72512 63.65841
#
# Poissons Ratio (x) = 0.59508 0.15699
# Poissons Ratio (y) = 0.41668 0.17629
# Poissons Ratio (z) = 0.11522 0.18478
#
# Static dielectric constant tensor:
#      x y z
#    x 3.503030 0.000000 0.000000 
#    y 0.000000 3.409570 0.000000 
#    z 0.000000 0.000000 3.210160 
# 
# 
# High freq. dielectric constant tensor:
#      x y z
#    x 1.648340 0.000000 0.000000 
#    y 0.000000 1.663310 0.000000 
#    z 0.000000 0.000000 1.680870 
# 
# From -- ./inp_files/5392.got.cif
#   From: 2010.03.12/outbox.cif.g09.slc.cpg/sg49_3_cif.got.tgz:5392.got - 2010.04.14 03:58:27.
