data_PCOD8202976
_publ_section_title
;
Structure prediction by ZEFSAII (Michael W. Deem and Ramdas Pophale) SiO2 
 PCOD8202976
Probable space group: P C C M
;
_chemical_formula_sum "Si O2"
_cell_formula_units_Z 64
_cell_length_a 19.704957
_cell_length_b 19.907109
_cell_length_c 8.419021
_cell_angle_alpha 90.000000
_cell_angle_beta 90.000000
_cell_angle_gamma 90.000000
_cell_volume 3302.518649
_symmetry_space_group_name_H-M "P C C M"
_symmetry_group_IT_number 49
_symmetry_cell_setting 'orthorhombic'
loop_
_space_group_symop_operation_xyz
x,y,z
-x,-y,z
x,-y,1/2-z
-x,y,1/2-z
-x,-y,-z
x,y,-z
-x,y,1/2+z
x,-y,1/2+z
loop_
_atom_site_type_symbol
_atom_site_label
_atom_site_fract_x
_atom_site_fract_y
_atom_site_fract_z
Si Si1 0.326865 0.064222 0.317098
Si Si2 0.073859 0.679424 0.182754
Si Si3 0.182656 0.068969 0.819028
Si Si4 0.187134 0.426225 0.316200
Si Si5 0.287938 0.677704 0.685788
Si Si6 0.568725 0.155772 0.316956
Si Si7 0.431952 0.698975 0.813039
Si Si8 0.824234 0.782427 0.813070
O O1 0.304861 0.058489 0.500000
O O2 0.262865 0.064133 0.200469
O O3 0.369405 0.130986 0.290485
O O4 0.369758 0.000000 0.250000
O O5 0.115973 0.611498 0.209063
O O6 0.108389 0.741210 0.273949
O O7 0.000000 0.665704 0.250000
O O8 0.069986 0.699970 0.000000
O O9 0.165154 0.142122 0.739477
O O10 0.148263 0.000000 0.750000
O O11 0.160045 0.070495 0.000000
O O12 0.177073 0.500000 0.250000
O O13 0.208527 0.427128 0.500000
O O14 0.245523 0.389616 0.216209
O O15 0.302641 0.686047 0.500000
O O16 0.359167 0.665528 0.777161
O O17 0.243428 0.742217 0.750239
O O18 0.500000 0.122335 0.250000
O O19 0.579171 0.136632 0.500000
O O20 0.566815 0.234846 0.294572
O O21 0.500000 0.658470 0.750000
O O22 0.438344 0.713244 0.000000
O O23 0.815271 0.789250 0.000000
#
# Coordination Sequence:
#
# PCOD8202976 Si02
#       8
#     8   8   8   8   8   8   8   8
#     4  11  21  33  47  65  89 121 160 206 259 319
#     4  10  21  36  57  84 116 149 185 222 263 313
#     4  10  19  32  50  74 102 134 171 218 270 323
#     4  10  21  37  57  85 117 152 188 224 263 313
#     4  10  19  34  56  81 109 144 183 229 277 325
#     4  11  21  34  48  65  89 120 160 207 261 321
#     4  11  21  34  52  76 104 136 175 222 273 326
#     4   9  19  34  54  78 107 142 182 224 272 324
#
# _framework density 19.379149000000002
#
# number of rings (size 3 to 8) (size 9 to 14) (size 15 to 20)
#    0.000    1.750    0.000    7.125    0.000    4.500 
#    0.000    2.500    0.000    0.750    0.000    5.250 
#    0.000    0.000    0.000    0.000    0.000    0.000 
#
# Total GULP energy -793098.661520 kJ/mol
# GULP energy per Si atom -12392.166586 kJ/mol
# Density = 1.933504 g / cm^3
# Si number density = 19.379149 Si / 1000 Ang^3
#
#
#
# Elastic Constant Matrix: (Units=GPa)
#
#
# Indices 1 2 3 4 5 6 
#
# 1 100.1735 33.3523 21.5556 0.0000 0.0000 0.0000
# 2 33.3523 118.9014 22.6292 0.0000 0.0000 0.0000
# 3 21.5556 22.6292 74.3873 0.0000 0.0000 0.0000
# 4 0.0000 0.0000 0.0000 28.3898 0.0000 0.0000
# 5 0.0000 0.0000 0.0000 0.0000 25.4740 0.0000
# 6 0.0000 0.0000 0.0000 0.0000 0.0000 15.5173
#
#
#
# Elastic Compliance Matrix: (Units=1/GPa)
#
#
# Indices 1 2 3 4 5 6 
#
# 1 0.011426 -0.002733 -0.002480 0.000000 0.000000 0.000000
# 2 -0.002733 0.009581 -0.002123 0.000000 0.000000 0.000000
# 3 -0.002480 -0.002123 0.014807 0.000000 0.000000 0.000000
# 4 0.000000 0.000000 0.000000 0.035224 0.000000 0.000000
# 5 0.000000 0.000000 0.000000 0.000000 0.039256 0.000000
# 6 0.000000 0.000000 0.000000 0.000000 0.000000 0.064444
#
#
# Mechanical properties :
#
#
# Convention : Reuss Voigt Hill
#
# Bulk Modulus (GPa) = 47.29506 49.83738 48.56622
# Shear Modulus (GPa) = 25.45083 28.27122 26.86102
#
# Velocity S-wave (km/s) = 3.62789 3.82363 3.72705
# Velocity P-wave (km/s) = 6.48127 6.72803 6.60580
#
# Compressibility (1/GPa) = 0.02114386
#
# Stress axis : x y z
#
# Youngs Moduli (GPa) = 87.51777 104.37351 67.53389
#
# Poissons Ratio (x) = 0.28527 0.16746
# Poissons Ratio (y) = 0.23920 0.14335
# Poissons Ratio (z) = 0.21701 0.22154
#
# Static dielectric constant tensor:
#      x y z
#    x 3.319530 0.000000 0.000000 
#    y 0.000000 3.704850 0.000000 
#    z 0.000000 0.000000 3.504670 
# 
# 
# High freq. dielectric constant tensor:
#      x y z
#    x 1.737110 0.000000 0.000000 
#    y 0.000000 1.740700 0.000000 
#    z 0.000000 0.000000 1.761240 
# 
# From -- ./inp_files/5990.got.cif
#   From: 2010.03.12/outbox.cif.g09.slc.cpg/sg49_3_cif.got.tgz:5990.got - 2010.04.14 03:58:27.
