data_PCOD8202172
_publ_section_title
;
Structure prediction by ZEFSAII (Michael W. Deem and Ramdas Pophale) SiO2 
 PCOD8202172
Probable space group: P C C M
;
_chemical_formula_sum "Si O2"
_cell_formula_units_Z 56
_cell_length_a 32.207754
_cell_length_b 5.196735
_cell_length_c 17.990377
_cell_angle_alpha 90.000000
_cell_angle_beta 90.000000
_cell_angle_gamma 90.000000
_cell_volume 3011.142274
_symmetry_space_group_name_H-M "P C C M"
_symmetry_group_IT_number 49
_symmetry_cell_setting 'orthorhombic'
loop_
_space_group_symop_operation_xyz
x,y,z
-x,-y,z
x,-y,1/2-z
-x,y,1/2-z
-x,-y,-z
x,y,-z
-x,y,1/2+z
x,-y,1/2+z
loop_
_atom_site_type_symbol
_atom_site_label
_atom_site_fract_x
_atom_site_fract_y
_atom_site_fract_z
Si Si1 0.822039 0.654714 0.916590
Si Si2 0.769501 0.144475 0.916244
Si Si3 0.698921 0.251127 0.200298
Si Si4 0.482112 0.248651 0.335136
Si Si5 0.392407 0.745872 0.202250
Si Si6 0.905547 0.508801 0.161839
Si Si7 0.046802 0.997375 0.838583
O O1 0.791109 0.418267 0.916429
O O2 0.859289 0.561732 0.864971
O O3 0.799337 0.913639 0.885328
O O4 0.838370 0.711358 0.000000
O O5 0.729353 0.187462 0.866684
O O6 0.755921 0.067320 0.000000
O O7 0.712251 0.500000 0.250000
O O8 0.652906 0.297550 0.164465
O O9 0.698785 0.000000 0.250000
O O10 0.500000 0.500000 0.375874
O O11 0.500000 0.247179 0.250000
O O12 0.432512 0.231502 0.349778
O O13 0.500000 0.000000 0.376865
O O14 0.403753 0.500000 0.250000
O O15 0.389254 0.000000 0.250000
O O16 0.904619 0.500000 0.250000
O O17 0.926164 0.244651 0.131439
O O18 0.933026 0.742381 0.130992
O O19 0.046127 0.000000 0.750000
O O20 0.000000 0.000000 0.869943
#
# Coordination Sequence:
#
# PCOD8202172 Si02
#       7
#     8   8   8   8   8   8   8
#     4  10  21  36  55  74  98 130 166 211 252 296
#     4  10  21  38  55  72  96 134 174 202 248 314
#     4  10  21  33  50  74 103 129 159 210 262 297
#     4  10  14  20  34  53  81 121 154 179 224 287
#     4  10  16  25  37  59  90 123 150 191 239 292
#     4  10  19  31  50  77 100 126 164 205 245 288
#     4   9  17  30  49  73 103 134 164 196 237 290
#
# _framework density 18.597593
#
# number of rings (size 3 to 8) (size 9 to 14) (size 15 to 20)
#    0.000    2.143    2.857    2.143    0.000    3.429 
#    0.000    0.000    0.000    2.571    0.000    0.000 
#    0.000    1.143    0.000    0.000    0.000    5.714 
#
# Total GULP energy -693734.184749 kJ/mol
# GULP energy per Si atom -12388.110442 kJ/mol
# Density = 1.855526 g / cm^3
# Si number density = 18.597593 Si / 1000 Ang^3
#
#
#
# Elastic Constant Matrix: (Units=GPa)
#
#
# Indices 1 2 3 4 5 6 
#
# 1 142.1061 42.5592 37.7915 0.0000 0.0000 0.0000
# 2 42.5592 150.1692 19.8546 0.0000 0.0000 0.0000
# 3 37.7915 19.8546 26.7085 0.0000 0.0000 0.0000
# 4 0.0000 0.0000 0.0000 9.0854 0.0000 0.0000
# 5 0.0000 0.0000 0.0000 0.0000 -1.1276 0.0000
# 6 0.0000 0.0000 0.0000 0.0000 0.0000 40.7233
#
#
#
# Elastic Compliance Matrix: (Units=1/GPa)
#
#
# Indices 1 2 3 4 5 6 
#
# 1 0.011483 -0.001227 -0.015336 0.000000 0.000000 0.000000
# 2 -0.001227 0.007516 -0.003852 0.000000 0.000000 0.000000
# 3 -0.015336 -0.003852 0.062004 0.000000 0.000000 0.000000
# 4 0.000000 0.000000 0.000000 0.110067 0.000000 0.000000
# 5 0.000000 0.000000 0.000000 0.000000 -0.886827 0.000000
# 6 0.000000 0.000000 0.000000 0.000000 0.000000 0.024556
#
#
# Mechanical properties :
#
#
# Convention : Reuss Voigt Hill
#
# Bulk Modulus (GPa) = 24.89132 57.71050 41.30091
# Shear Modulus (GPa) = -8.10396 24.32145 8.10874
#
# Velocity S-wave (km/s) = -2.08973 3.62024 2.09035
# Velocity P-wave (km/s) = 2.75510 6.96946 5.29924
#
# Compressibility (1/GPa) = 0.04017465
#
# Stress axis : x y z
#
# Youngs Moduli (GPa) = 87.08728 133.04874 16.12805
#
# Poissons Ratio (x) = 0.16321 0.24733
# Poissons Ratio (y) = 0.10683 0.06212
# Poissons Ratio (z) = 1.33554 0.51244
#
# Static dielectric constant tensor:
#      x y z
#    x 3.810940 0.000000 0.000000 
#    y 0.000000 4.275000 0.000000 
#    z 0.000000 0.000000 2.734120 
# 
# 
# High freq. dielectric constant tensor:
#      x y z
#    x 1.737170 0.000000 0.000000 
#    y 0.000000 1.757920 0.000000 
#    z 0.000000 0.000000 1.644390 
# 
# From -- ./inp_files/21261.got.cif
#   From: 2010.03.12/outbox.cif.g09.slc.cpg/sg49_11_cif.got.tgz:21261.got - 2010.04.14 03:58:27.
