data_PCOD8202602
_publ_section_title
;
Structure prediction by ZEFSAII (Michael W. Deem and Ramdas Pophale) SiO2 
 PCOD8202602
Probable space group: P C C M
;
_chemical_formula_sum "Si O2"
_cell_formula_units_Z 48
_cell_length_a 17.294570
_cell_length_b 18.304361
_cell_length_c 8.450645
_cell_angle_alpha 90.000000
_cell_angle_beta 90.000000
_cell_angle_gamma 90.000000
_cell_volume 2675.187330
_symmetry_space_group_name_H-M "P C C M"
_symmetry_group_IT_number 49
_symmetry_cell_setting 'orthorhombic'
loop_
_space_group_symop_operation_xyz
x,y,z
-x,-y,z
x,-y,1/2-z
-x,y,1/2-z
-x,-y,-z
x,y,-z
-x,y,1/2+z
x,-y,1/2+z
loop_
_atom_site_type_symbol
_atom_site_label
_atom_site_fract_x
_atom_site_fract_y
_atom_site_fract_z
Si Si1 0.776983 0.580760 0.685743
Si Si2 0.719399 0.919095 0.313644
Si Si3 0.310939 0.296222 0.815032
Si Si4 0.825064 0.204644 0.182328
Si Si5 0.583143 0.814462 0.312427
Si Si6 0.916102 0.325215 0.684216
O O1 0.785161 0.500000 0.750000
O O2 0.763449 0.579555 0.500000
O O3 0.702275 0.618737 0.770271
O O4 0.855629 0.623785 0.725316
O O5 0.714623 0.921482 0.500000
O O6 0.798890 0.876894 0.262698
O O7 0.643668 0.876020 0.251241
O O8 0.721558 0.000000 0.250000
O O9 0.250889 0.253608 0.703828
O O10 0.394764 0.264167 0.766674
O O11 0.294031 0.283888 0.000000
O O12 0.894887 0.239451 0.284632
O O13 0.850887 0.205551 0.000000
O O14 0.500000 0.839019 0.250000
O O15 0.582646 0.806580 0.500000
O O16 0.912501 0.342649 0.500000
O O17 0.000000 0.343514 0.750000
#
# Coordination Sequence:
#
# PCOD8202602 Si02
#       6
#     8   8   8   8   8   8
#     4  11  21  35  53  76 104 134 167 206 246 293
#     4   9  19  32  49  72 101 132 166 204 249 297
#     4  10  18  31  51  74  97 129 168 206 245 292
#     4   9  17  32  50  71  97 129 167 208 245 289
#     4  10  20  34  50  73 101 133 168 208 251 297
#     4  11  21  34  52  76 102 133 167 204 249 298
#
# _framework density 17.942667
#
# number of rings (size 3 to 8) (size 9 to 14) (size 15 to 20)
#    0.000    2.000    0.000    8.500    0.000    4.667 
#    0.000    3.333    0.000    1.000    0.000    7.000 
#    0.000    0.000    0.000    0.000    0.000    0.000 
#
# Total GULP energy -594922.927827 kJ/mol
# GULP energy per Si atom -12394.227663 kJ/mol
# Density = 1.790183 g / cm^3
# Si number density = 17.942667 Si / 1000 Ang^3
#
#
#
# Elastic Constant Matrix: (Units=GPa)
#
#
# Indices 1 2 3 4 5 6 
#
# 1 16.3121 44.8679 10.3854 0.0000 0.0000 0.0000
# 2 44.8679 121.8951 29.0157 0.0000 0.0000 0.0000
# 3 10.3854 29.0157 76.9192 0.0000 0.0000 0.0000
# 4 0.0000 0.0000 0.0000 31.2588 0.0000 0.0000
# 5 0.0000 0.0000 0.0000 0.0000 27.8291 0.0000
# 6 0.0000 0.0000 0.0000 0.0000 0.0000 30.4970
#
#
#
# Elastic Compliance Matrix: (Units=1/GPa)
#
#
# Indices 1 2 3 4 5 6 
#
# 1 -4.892666 1.805827 -0.020607 0.000000 0.000000 0.000000
# 2 1.805827 -0.657497 0.004206 0.000000 0.000000 0.000000
# 3 -0.020607 0.004206 0.014196 0.000000 0.000000 0.000000
# 4 0.000000 0.000000 0.000000 0.031991 0.000000 0.000000
# 5 0.000000 0.000000 0.000000 0.000000 0.035934 0.000000
# 6 0.000000 0.000000 0.000000 0.000000 0.000000 0.032790
#
#
# Mechanical properties :
#
#
# Convention : Reuss Voigt Hill
#
# Bulk Modulus (GPa) = -0.51096 42.62939 21.05922
# Shear Modulus (GPa) = -0.51725 26.64078 13.06177
#
# Velocity S-wave (km/s) = -0.53750 3.85746 2.70102
# Velocity P-wave (km/s) = 0.81890 6.60683 4.63571
#
# Compressibility (1/GPa) = -1.95711421
#
# Stress axis : x y z
#
# Youngs Moduli (GPa) = -0.20439 -1.52092 70.44039
#
# Poissons Ratio (x) = 2.74652 1.45153
# Poissons Ratio (y) = 0.36909 -0.29625
# Poissons Ratio (z) = -0.00421 0.00640
#
# Static dielectric constant tensor:
#      x y z
#    x 3.412240 0.000000 0.000000 
#    y 0.000000 3.154650 0.000000 
#    z 0.000000 0.000000 3.348840 
# 
# 
# High freq. dielectric constant tensor:
#      x y z
#    x 1.670110 0.000000 0.000000 
#    y 0.000000 1.685580 0.000000 
#    z 0.000000 0.000000 1.708550 
# 
# From -- ./inp_files/3721.got.cif
#   From: 2010.03.12/outbox.cif.g09.slc.cpg/sg49_2_cif.got.tgz:3721.got - 2010.04.14 03:58:27.
