data_PCOD8202460
_publ_section_title
;
Structure prediction by ZEFSAII (Michael W. Deem and Ramdas Pophale) SiO2 
 PCOD8202460
Probable space group: P C C M
;
_chemical_formula_sum "Si O2"
_cell_formula_units_Z 64
_cell_length_a 21.842817
_cell_length_b 21.582132
_cell_length_c 9.035509
_cell_angle_alpha 90.000000
_cell_angle_beta 90.000000
_cell_angle_gamma 90.000000
_cell_volume 4259.470497
_symmetry_space_group_name_H-M "P C C M"
_symmetry_group_IT_number 49
_symmetry_cell_setting 'orthorhombic'
loop_
_space_group_symop_operation_xyz
x,y,z
-x,-y,z
x,-y,1/2-z
-x,y,1/2-z
-x,-y,-z
x,y,-z
-x,y,1/2+z
x,-y,1/2+z
loop_
_atom_site_type_symbol
_atom_site_label
_atom_site_fract_x
_atom_site_fract_y
_atom_site_fract_z
Si Si1 0.647331 0.360956 0.666916
Si Si2 0.065379 0.564684 0.179514
Si Si3 0.248221 0.257066 0.837089
Si Si4 0.437673 0.935615 0.326524
Si Si5 0.731532 0.442713 0.835806
Si Si6 0.562818 0.725032 0.674009
Si Si7 0.165755 0.340256 0.337566
Si Si8 0.355626 0.821239 0.671770
O O1 0.627725 0.376583 0.500000
O O2 0.699444 0.308814 0.670768
O O3 0.671269 0.422880 0.745669
O O4 0.588304 0.338720 0.757927
O O5 0.089545 0.500000 0.250000
O O6 0.108770 0.621709 0.232197
O O7 0.000000 0.580061 0.250000
O O8 0.063253 0.558690 0.000000
O O9 0.188447 0.277425 0.743366
O O10 0.282851 0.191948 0.792872
O O11 0.220883 0.250687 0.000000
O O12 0.500000 0.909075 0.250000
O O13 0.451270 0.945196 0.500000
O O14 0.378434 0.891450 0.303879
O O15 0.419725 0.000000 0.250000
O O16 0.762509 0.500000 0.750000
O O17 0.778341 0.387019 0.843746
O O18 0.712599 0.463595 0.000000
O O19 0.500000 0.742662 0.750000
O O20 0.554823 0.717789 0.500000
O O21 0.607636 0.781031 0.710880
O O22 0.146375 0.318158 0.500000
O O23 0.368216 0.800788 0.500000
#
# Coordination Sequence:
#
# PCOD8202460 Si02
#       8
#     8   8   8   8   8   8   8   8
#     4   9  17  30  43  57  77  97 119 152 191 233
#     4  10  19  30  42  58  81 110 143 176 207 242
#     4   8  15  27  43  60  78 100 127 160 202 243
#     4  10  19  30  43  59  83 112 145 178 209 244
#     4  10  18  28  42  60  78  98 123 153 192 235
#     4  11  20  29  43  61  78  98 123 154 192 236
#     4   9  18  29  41  59  82 104 131 166 202 239
#     4   9  18  31  44  61  83 106 133 168 204 241
#
# _framework density 15.025342999999999
#
# number of rings (size 3 to 8) (size 9 to 14) (size 15 to 20)
#    0.000    2.500    0.000    4.875    0.000    6.500 
#    0.000    0.000    0.000    0.375    0.000    2.625 
#    0.000    0.000    0.000    0.000    0.000    0.625 
#
# Total GULP energy -792873.527937 kJ/mol
# GULP energy per Si atom -12388.648874 kJ/mol
# Density = 1.499114 g / cm^3
# Si number density = 15.025343 Si / 1000 Ang^3
#
#
#
# Elastic Constant Matrix: (Units=GPa)
#
#
# Indices 1 2 3 4 5 6 
#
# 1 64.6270 37.3559 34.1797 0.0000 0.0000 0.0000
# 2 37.3559 54.3717 29.2730 0.0000 0.0000 0.0000
# 3 34.1797 29.2730 105.2766 0.0000 0.0000 0.0000
# 4 0.0000 0.0000 0.0000 17.7663 0.0000 0.0000
# 5 0.0000 0.0000 0.0000 0.0000 19.9587 0.0000
# 6 0.0000 0.0000 0.0000 0.0000 0.0000 30.0148
#
#
#
# Elastic Compliance Matrix: (Units=1/GPa)
#
#
# Indices 1 2 3 4 5 6 
#
# 1 0.027210 -0.016392 -0.004276 0.000000 0.000000 0.000000
# 2 -0.016392 0.031505 -0.003438 0.000000 0.000000 0.000000
# 3 -0.004276 -0.003438 0.011843 0.000000 0.000000 0.000000
# 4 0.000000 0.000000 0.000000 0.056286 0.000000 0.000000
# 5 0.000000 0.000000 0.000000 0.000000 0.050103 0.000000
# 6 0.000000 0.000000 0.000000 0.000000 0.000000 0.033317
#
#
# Mechanical properties :
#
#
# Convention : Reuss Voigt Hill
#
# Bulk Modulus (GPa) = 44.75273 47.32138 46.03706
# Shear Modulus (GPa) = 18.80212 21.77909 20.29061
#
# Velocity S-wave (km/s) = 3.54130 3.81135 3.67880
# Velocity P-wave (km/s) = 6.82426 7.13661 6.98218
#
# Compressibility (1/GPa) = 0.02234500
#
# Stress axis : x y z
#
# Youngs Moduli (GPa) = 36.75094 31.74058 84.43704
#
# Poissons Ratio (x) = 0.52031 0.36107
# Poissons Ratio (y) = 0.60244 0.29032
# Poissons Ratio (z) = 0.15715 0.10913
#
# Static dielectric constant tensor:
#      x y z
#    x 2.843540 0.000000 0.000000 
#    y 0.000000 2.805190 0.000000 
#    z 0.000000 0.000000 3.151770 
# 
# 
# High freq. dielectric constant tensor:
#      x y z
#    x 1.543970 0.000000 0.000000 
#    y 0.000000 1.540470 0.000000 
#    z 0.000000 0.000000 1.591240 
# 
# From -- ./inp_files/6126.got.cif
#   From: 2010.03.12/outbox.cif.g09.slc.cpg/sg49_4_cif.got.tgz:6126.got - 2010.04.14 03:58:27.
