data_PCOD8202922
_publ_section_title
;
Structure prediction by ZEFSAII (Michael W. Deem and Ramdas Pophale) SiO2 
 PCOD8202922
Probable space group: P C C M
;
_chemical_formula_sum "Si O2"
_cell_formula_units_Z 34
_cell_length_a 11.993071
_cell_length_b 8.555742
_cell_length_c 17.368828
_cell_angle_alpha 90.000000
_cell_angle_beta 90.000000
_cell_angle_gamma 90.000000
_cell_volume 1782.208863
_symmetry_space_group_name_H-M "P C C M"
_symmetry_group_IT_number 49
_symmetry_cell_setting 'orthorhombic'
loop_
_space_group_symop_operation_xyz
x,y,z
-x,-y,z
x,-y,1/2-z
-x,y,1/2-z
-x,-y,-z
x,y,-z
-x,y,1/2+z
x,-y,1/2+z
loop_
_atom_site_type_symbol
_atom_site_label
_atom_site_fract_x
_atom_site_fract_y
_atom_site_fract_z
Si Si1 0.384675 0.448857 0.662556
Si Si2 0.812346 0.666933 0.838388
Si Si3 0.293021 0.142667 0.298148
Si Si4 0.000000 0.500000 0.750000
Si Si5 0.872815 0.025928 0.412118
O O1 0.500000 0.500000 0.619730
O O2 0.394668 0.500000 0.750000
O O3 0.275619 0.538097 0.628079
O O4 0.377623 0.258305 0.656391
O O5 0.767027 0.747095 0.762042
O O6 0.837950 0.792688 0.904641
O O7 0.927510 0.595160 0.810869
O O8 0.351354 0.000000 0.250000
O O9 0.203791 0.079320 0.358293
O O10 0.855538 0.973163 0.500000
O O11 0.000000 0.000000 0.385857
#
# Coordination Sequence:
#
# PCOD8202922 Si02
#       5
#     8   8   8   2   8
#     4   9  17  33  53  80 110 134 174 227 270 312
#     4  10  19  31  54  80 106 139 173 220 268 324
#     4   9  17  33  54  79 103 138 178 217 268 316
#     4  12  16  28  54  80 108 132 170 220 264 324
#     4  10  21  35  50  74 111 145 178 223 271 323
#
# _framework density 19.077451
#
# number of rings (size 3 to 8) (size 9 to 14) (size 15 to 20)
#    0.000    2.353    3.529    1.412    0.000    3.294 
#    0.000   21.765    0.000    4.235    0.000    0.000 
#    0.000    0.000    0.000    0.000    0.000    0.000 
#
# Total GULP energy -421219.170581 kJ/mol
# GULP energy per Si atom -12388.799135 kJ/mol
# Density = 1.903403 g / cm^3
# Si number density = 19.077451 Si / 1000 Ang^3
#
#
#
# Elastic Constant Matrix: (Units=GPa)
#
#
# Indices 1 2 3 4 5 6 
#
# 1 121.1873 71.7142 13.9079 0.0000 0.0000 0.0000
# 2 71.7142 149.2215 19.8311 0.0000 0.0000 0.0000
# 3 13.9079 19.8311 38.4960 0.0000 0.0000 0.0000
# 4 0.0000 0.0000 0.0000 13.0401 0.0000 0.0000
# 5 0.0000 0.0000 0.0000 0.0000 3.7280 0.0000
# 6 0.0000 0.0000 0.0000 0.0000 0.0000 14.5647
#
#
#
# Elastic Compliance Matrix: (Units=1/GPa)
#
#
# Indices 1 2 3 4 5 6 
#
# 1 0.011603 -0.005388 -0.001416 0.000000 0.000000 0.000000
# 2 -0.005388 0.009696 -0.003048 0.000000 0.000000 0.000000
# 3 -0.001416 -0.003048 0.028059 0.000000 0.000000 0.000000
# 4 0.000000 0.000000 0.000000 0.076687 0.000000 0.000000
# 5 0.000000 0.000000 0.000000 0.000000 0.268243 0.000000
# 6 0.000000 0.000000 0.000000 0.000000 0.000000 0.068659
#
#
# Mechanical properties :
#
#
# Convention : Reuss Voigt Hill
#
# Bulk Modulus (GPa) = 33.72410 57.75680 45.74045
# Shear Modulus (GPa) = 10.15157 19.83000 14.99079
#
# Velocity S-wave (km/s) = 2.30928 3.22754 2.80623
# Velocity P-wave (km/s) = 4.98259 6.65056 5.87606
#
# Compressibility (1/GPa) = 0.02965239
#
# Stress axis : x y z
#
# Youngs Moduli (GPa) = 86.18792 103.13646 35.63959
#
# Poissons Ratio (x) = 0.55568 0.05047
# Poissons Ratio (y) = 0.46437 0.10864
# Poissons Ratio (z) = 0.12206 0.31439
#
# Static dielectric constant tensor:
#      x y z
#    x 4.282780 0.000000 0.000000 
#    y 0.000000 4.182780 0.000000 
#    z 0.000000 0.000000 3.004410 
# 
# 
# High freq. dielectric constant tensor:
#      x y z
#    x 1.740090 0.000000 0.000000 
#    y 0.000000 1.758800 0.000000 
#    z 0.000000 0.000000 1.690290 
# 
# From -- ./inp_files/16787.got.cif
#   From: 2010.03.12/outbox.cif.g09.slc.cpg/sg49_9_cif.got.tgz:16787.got - 2010.04.14 03:58:27.
