data_PCOD8202198
_publ_section_title
;
Structure prediction by ZEFSAII (Michael W. Deem and Ramdas Pophale) SiO2 
 PCOD8202198
Probable space group: P C C M
;
_chemical_formula_sum "Si O2"
_cell_formula_units_Z 64
_cell_length_a 14.370169
_cell_length_b 31.255767
_cell_length_c 8.743950
_cell_angle_alpha 90.000000
_cell_angle_beta 90.000000
_cell_angle_gamma 90.000000
_cell_volume 3927.350861
_symmetry_space_group_name_H-M "P C C M"
_symmetry_group_IT_number 49
_symmetry_cell_setting 'orthorhombic'
loop_
_space_group_symop_operation_xyz
x,y,z
-x,-y,z
x,-y,1/2-z
-x,y,1/2-z
-x,-y,-z
x,y,-z
-x,y,1/2+z
x,-y,1/2+z
loop_
_atom_site_type_symbol
_atom_site_label
_atom_site_fract_x
_atom_site_fract_y
_atom_site_fract_z
Si Si1 0.719075 0.043816 0.318701
Si Si2 0.396416 0.457578 0.818921
Si Si3 0.903111 0.077727 0.819637
Si Si4 0.903550 0.823669 0.679677
Si Si5 0.599907 0.374706 0.176205
Si Si6 0.281127 0.206031 0.180842
Si Si7 0.398309 0.719991 0.822430
Si Si8 0.398578 0.124889 0.180770
O O1 0.722622 0.041345 0.500000
O O2 0.822469 0.049813 0.254943
O O3 0.653096 0.082188 0.261686
O O4 0.677458 0.000000 0.250000
O O5 0.346164 0.500000 0.750000
O O6 0.500000 0.455653 0.750000
O O7 0.345428 0.413521 0.763365
O O8 0.397864 0.460580 0.000000
O O9 0.886833 0.127065 0.773894
O O10 0.000000 0.061271 0.750000
O O11 0.903815 0.070812 0.000000
O O12 0.907511 0.817407 0.500000
O O13 0.821216 0.795325 0.748059
O O14 0.000000 0.806927 0.750000
O O15 0.500000 0.369521 0.250000
O O16 0.645935 0.327847 0.195009
O O17 0.590112 0.387835 0.000000
O O18 0.328296 0.249469 0.234693
O O19 0.341044 0.165732 0.240513
O O20 0.272401 0.205358 0.000000
O O21 0.500000 0.724278 0.750000
O O22 0.406110 0.732821 0.000000
O O23 0.500000 0.126749 0.250000
O O24 0.407022 0.125535 0.000000
#
# Coordination Sequence:
#
# PCOD8202198 Si02
#       8
#     8   8   8   8   8   8   8   8
#     4  11  23  40  57  77 102 127 158 192 229 275
#     4  10  16  22  33  49  71 101 143 191 240 286
#     4  10  20  35  57  82 105 131 154 184 224 270
#     4  10  20  34  55  80 104 128 154 186 226 275
#     4   9  16  26  38  53  78 110 148 193 240 284
#     4  11  21  35  54  76 100 127 158 194 234 278
#     4  10  20  32  46  67  94 126 162 202 245 287
#     4  10  23  39  56  75  98 125 156 195 232 271
#
# _framework density 16.295971000000002
#
# number of rings (size 3 to 8) (size 9 to 14) (size 15 to 20)
#    0.000    1.875    1.250    4.875    0.000    6.000 
#    0.000    2.500    0.000    0.000    0.000    0.000 
#    0.000    0.000    0.000    0.000    0.000    0.625 
#
# Total GULP energy -793526.527923 kJ/mol
# GULP energy per Si atom -12398.851999 kJ/mol
# Density = 1.625888 g / cm^3
# Si number density = 16.295971 Si / 1000 Ang^3
#
#
#
# Elastic Constant Matrix: (Units=GPa)
#
#
# Indices 1 2 3 4 5 6 
#
# 1 81.9296 41.9351 28.4505 0.0000 0.0000 0.0000
# 2 41.9351 115.7467 41.5425 0.0000 0.0000 0.0000
# 3 28.4505 41.5425 88.9159 0.0000 0.0000 0.0000
# 4 0.0000 0.0000 0.0000 29.6078 0.0000 0.0000
# 5 0.0000 0.0000 0.0000 0.0000 25.5257 0.0000
# 6 0.0000 0.0000 0.0000 0.0000 0.0000 8.6131
#
#
#
# Elastic Compliance Matrix: (Units=1/GPa)
#
#
# Indices 1 2 3 4 5 6 
#
# 1 0.015550 -0.004623 -0.002815 0.000000 0.000000 0.000000
# 2 -0.004623 0.011755 -0.004013 0.000000 0.000000 0.000000
# 3 -0.002815 -0.004013 0.014022 0.000000 0.000000 0.000000
# 4 0.000000 0.000000 0.000000 0.033775 0.000000 0.000000
# 5 0.000000 0.000000 0.000000 0.000000 0.039176 0.000000
# 6 0.000000 0.000000 0.000000 0.000000 0.000000 0.116102
#
#
# Mechanical properties :
#
#
# Convention : Reuss Voigt Hill
#
# Bulk Modulus (GPa) = 54.27697 56.71650 55.49674
# Shear Modulus (GPa) = 19.27351 24.39360 21.83355
#
# Velocity S-wave (km/s) = 3.44280 3.87319 3.66432
# Velocity P-wave (km/s) = 7.01306 7.40822 7.21335
#
# Compressibility (1/GPa) = 0.01842402
#
# Stress axis : x y z
#
# Youngs Moduli (GPa) = 64.31033 85.07228 71.31549
#
# Poissons Ratio (x) = 0.39330 0.20078
# Poissons Ratio (y) = 0.29732 0.28616
# Poissons Ratio (z) = 0.18106 0.34137
#
# Static dielectric constant tensor:
#      x y z
#    x 2.792050 0.000000 0.000000 
#    y 0.000000 3.800540 0.000000 
#    z 0.000000 0.000000 3.176740 
# 
# 
# High freq. dielectric constant tensor:
#      x y z
#    x 1.580180 0.000000 0.000000 
#    y 0.000000 1.631260 0.000000 
#    z 0.000000 0.000000 1.646060 
# 
# From -- ./inp_files/4549.got.cif
#   From: 2010.03.12/outbox.cif.g09.slc.cpg/sg49_3_cif.got.tgz:4549.got - 2010.04.14 03:58:27.
