data_PCOD8202317
_publ_section_title
;
Structure prediction by ZEFSAII (Michael W. Deem and Ramdas Pophale) SiO2 
 PCOD8202317
Probable space group: P C C M
;
_chemical_formula_sum "Si O2"
_cell_formula_units_Z 64
_cell_length_a 20.752361
_cell_length_b 20.699202
_cell_length_c 8.876707
_cell_angle_alpha 90.000000
_cell_angle_beta 90.000000
_cell_angle_gamma 90.000000
_cell_volume 3813.054401
_symmetry_space_group_name_H-M "P C C M"
_symmetry_group_IT_number 49
_symmetry_cell_setting 'orthorhombic'
loop_
_space_group_symop_operation_xyz
x,y,z
-x,-y,z
x,-y,1/2-z
-x,y,1/2-z
-x,-y,-z
x,y,-z
-x,y,1/2+z
x,-y,1/2+z
loop_
_atom_site_type_symbol
_atom_site_label
_atom_site_fract_x
_atom_site_fract_y
_atom_site_fract_z
Si Si1 0.421075 0.812265 0.666610
Si Si2 0.936552 0.571388 0.180466
Si Si3 0.736312 0.065175 0.830991
Si Si4 0.417241 0.936531 0.830984
Si Si5 0.269683 0.806801 0.333060
Si Si6 0.293852 0.322963 0.324516
Si Si7 0.808760 0.430957 0.822806
Si Si8 0.562567 0.316394 0.825185
O O1 0.449463 0.797464 0.500000
O O2 0.447336 0.879010 0.732480
O O3 0.345039 0.817740 0.655497
O O4 0.443228 0.759194 0.787154
O O5 0.934954 0.500000 0.250000
O O6 0.870405 0.603244 0.241359
O O7 0.000000 0.606901 0.250000
O O8 0.939481 0.570830 0.000000
O O9 0.659661 0.065117 0.832807
O O10 0.761619 0.131154 0.750995
O O11 0.762103 0.000000 0.750000
O O12 0.764030 0.065025 0.000000
O O13 0.443264 0.000000 0.750000
O O14 0.444158 0.932860 0.000000
O O15 0.239027 0.802623 0.500000
O O16 0.258347 0.738480 0.249775
O O17 0.299055 0.306373 0.500000
O O18 0.252574 0.386364 0.291527
O O19 0.366654 0.338003 0.262650
O O20 0.792882 0.500000 0.750000
O O21 0.822954 0.439233 0.000000
O O22 0.500000 0.352068 0.750000
O O23 0.557371 0.330411 0.000000
#
# Coordination Sequence:
#
# PCOD8202317 Si02
#       8
#     8   8   8   8   8   8   8   8
#     4   9  16  26  39  56  75  96 123 160 205 256
#     4  10  17  27  44  68  98 131 163 193 220 250
#     4   9  15  22  33  50  75 104 136 172 214 261
#     4   9  15  22  33  50  71  96 123 155 195 245
#     4   9  16  25  39  58  80 105 138 177 219 266
#     4   9  19  33  48  65  89 117 146 183 230 279
#     4  10  19  32  49  71  97 126 158 192 228 267
#     4  10  19  32  48  65  81 101 131 172 222 274
#
# _framework density 16.784444000000001
#
# number of rings (size 3 to 8) (size 9 to 14) (size 15 to 20)
#    0.000    2.625    0.000    4.500    0.000    7.500 
#    0.000    0.000    0.000    0.750    0.000    5.250 
#    0.000    0.000    0.000    0.000    0.000    0.625 
#
# Total GULP energy -793042.692368 kJ/mol
# GULP energy per Si atom -12391.292068 kJ/mol
# Density = 1.674624 g / cm^3
# Si number density = 16.784444 Si / 1000 Ang^3
#
#
#
# Elastic Constant Matrix: (Units=GPa)
#
#
# Indices 1 2 3 4 5 6 
#
# 1 70.1461 35.2027 30.3724 0.0000 0.0000 0.0000
# 2 35.2027 73.1228 39.5256 0.0000 0.0000 0.0000
# 3 30.3724 39.5256 113.1389 0.0000 0.0000 0.0000
# 4 0.0000 0.0000 0.0000 20.8085 0.0000 0.0000
# 5 0.0000 0.0000 0.0000 0.0000 16.7126 0.0000
# 6 0.0000 0.0000 0.0000 0.0000 0.0000 1.1285
#
#
#
# Elastic Compliance Matrix: (Units=1/GPa)
#
#
# Indices 1 2 3 4 5 6 
#
# 1 0.019306 -0.008004 -0.002386 0.000000 0.000000 0.000000
# 2 -0.008004 0.020178 -0.004900 0.000000 0.000000 0.000000
# 3 -0.002386 -0.004900 0.011191 0.000000 0.000000 0.000000
# 4 0.000000 0.000000 0.000000 0.048057 0.000000 0.000000
# 5 0.000000 0.000000 0.000000 0.000000 0.059835 0.000000
# 6 0.000000 0.000000 0.000000 0.000000 0.000000 0.886122
#
#
# Mechanical properties :
#
#
# Convention : Reuss Voigt Hill
#
# Bulk Modulus (GPa) = 49.76875 51.84547 50.80711
# Shear Modulus (GPa) = 4.62120 17.81705 11.21912
#
# Velocity S-wave (km/s) = 1.66110 3.26163 2.58819
# Velocity P-wave (km/s) = 5.77885 6.71866 6.26640
#
# Compressibility (1/GPa) = 0.02009293
#
# Stress axis : x y z
#
# Youngs Moduli (GPa) = 51.79670 49.55897 89.35486
#
# Poissons Ratio (x) = 0.39669 0.21324
# Poissons Ratio (y) = 0.41460 0.43788
# Poissons Ratio (z) = 0.12361 0.24286
#
# Static dielectric constant tensor:
#      x y z
#    x 3.278290 0.000000 0.000000 
#    y 0.000000 2.925990 0.000000 
#    z 0.000000 0.000000 3.385840 
# 
# 
# High freq. dielectric constant tensor:
#      x y z
#    x 1.602120 0.000000 0.000000 
#    y 0.000000 1.613480 0.000000 
#    z 0.000000 0.000000 1.665740 
# 
# From -- ./inp_files/6097.got.cif
#   From: 2010.03.12/outbox.cif.g09.slc.cpg/sg49_4_cif.got.tgz:6097.got - 2010.04.14 03:58:27.
