data_PCOD8202700
_publ_section_title
;
Structure prediction by ZEFSAII (Michael W. Deem and Ramdas Pophale) SiO2 
 PCOD8202700
Probable space group: P C C M
;
_chemical_formula_sum "Si O2"
_cell_formula_units_Z 48
_cell_length_a 8.818082
_cell_length_b 28.177281
_cell_length_c 9.902250
_cell_angle_alpha 90.000000
_cell_angle_beta 90.000000
_cell_angle_gamma 90.000000
_cell_volume 2460.407843
_symmetry_space_group_name_H-M "P C C M"
_symmetry_group_IT_number 49
_symmetry_cell_setting 'orthorhombic'
loop_
_space_group_symop_operation_xyz
x,y,z
-x,-y,z
x,-y,1/2-z
-x,y,1/2-z
-x,-y,-z
x,y,-z
-x,y,1/2+z
x,-y,1/2+z
loop_
_atom_site_type_symbol
_atom_site_label
_atom_site_fract_x
_atom_site_fract_y
_atom_site_fract_z
Si Si1 0.643279 0.866795 0.844181
Si Si2 0.847843 0.958266 0.838133
Si Si3 0.303870 0.287148 0.500000
Si Si4 0.673040 0.556274 0.252105
Si Si5 0.336386 0.702556 0.500000
Si Si6 0.817747 0.398144 0.500000
Si Si7 0.320223 0.766681 0.259703
Si Si8 0.176012 0.608023 0.000000
O O1 0.500000 0.876687 0.750000
O O2 0.753253 0.910783 0.829213
O O3 0.735588 0.819910 0.794626
O O4 0.590472 0.859678 0.000000
O O5 0.000000 0.950116 0.750000
O O6 0.763509 0.000000 0.750000
O O7 0.873860 0.970860 0.000000
O O8 0.482035 0.298129 0.500000
O O9 0.250274 0.254449 0.376229
O O10 0.221124 0.337148 0.500000
O O11 0.674504 0.500000 0.250000
O O12 0.500000 0.575201 0.250000
O O13 0.758413 0.579549 0.375549
O O14 0.768913 0.571449 0.125684
O O15 0.273264 0.650336 0.500000
O O16 0.269313 0.729528 0.371967
O O17 0.996085 0.391300 0.500000
O O18 0.500000 0.770271 0.250000
#
# Coordination Sequence:
#
# PCOD8202700 Si02
#       8
#     8   8   4   8   4   4   8   4
#     4  10  21  36  58  88 122 153 196 250 303 357
#     4  10  21  39  59  84 115 157 205 251 303 368
#     4  10  20  35  57  82 111 154 198 245 281 360
#     4  11  24  43  66  90 119 159 208 251 294 364
#     4  10  18  35  59  78 111 152 198 235 285 352
#     4  12  25  39  62  93 124 163 191 252 315 355
#     4   9  18  33  55  83 109 145 196 242 290 338
#     4  12  25  41  60  93 130 155 201 248 315 369
#
# _framework density 19.508962
#
# number of rings (size 3 to 8) (size 9 to 14) (size 15 to 20)
#    0.000    1.667    0.833    4.500    3.500    6.333 
#    0.000    3.333    0.000    0.000    0.000    0.000 
#    0.000    0.000    0.000    0.000    0.000    0.000 
#
# Total GULP energy -594831.966846 kJ/mol
# GULP energy per Si atom -12392.332643 kJ/mol
# Density = 1.946456 g / cm^3
# Si number density = 19.508962 Si / 1000 Ang^3
#
#
#
# Elastic Constant Matrix: (Units=GPa)
#
#
# Indices 1 2 3 4 5 6 
#
# 1 69.1580 40.8850 47.4494 0.0000 0.0000 0.0000
# 2 40.8850 137.8461 70.6016 0.0000 0.0000 0.0000
# 3 47.4494 70.6016 192.7447 0.0000 0.0000 0.0000
# 4 0.0000 0.0000 0.0000 48.2702 0.0000 0.0000
# 5 0.0000 0.0000 0.0000 0.0000 30.0144 0.0000
# 6 0.0000 0.0000 0.0000 0.0000 0.0000 60.8430
#
#
#
# Elastic Compliance Matrix: (Units=1/GPa)
#
#
# Indices 1 2 3 4 5 6 
#
# 1 0.019032 -0.003995 -0.003222 0.000000 0.000000 0.000000
# 2 -0.003995 0.009768 -0.002595 0.000000 0.000000 0.000000
# 3 -0.003222 -0.002595 0.006932 0.000000 0.000000 0.000000
# 4 0.000000 0.000000 0.000000 0.020717 0.000000 0.000000
# 5 0.000000 0.000000 0.000000 0.000000 0.033317 0.000000
# 6 0.000000 0.000000 0.000000 0.000000 0.000000 0.016436
#
#
# Mechanical properties :
#
#
# Convention : Reuss Voigt Hill
#
# Bulk Modulus (GPa) = 62.07599 79.73564 70.90582
# Shear Modulus (GPa) = 38.11155 43.87970 40.99563
#
# Velocity S-wave (km/s) = 4.42468 4.74773 4.58905
# Velocity P-wave (km/s) = 7.61525 8.42701 8.03139
#
# Compressibility (1/GPa) = 0.01610929
#
# Stress axis : x y z
#
# Youngs Moduli (GPa) = 52.54370 102.37313 144.26250
#
# Poissons Ratio (x) = 0.40894 0.46481
# Poissons Ratio (y) = 0.20989 0.37431
# Poissons Ratio (z) = 0.16930 0.26562
#
# Static dielectric constant tensor:
#      x y z
#    x 3.228750 0.000000 0.000000 
#    y 0.000000 3.918400 0.000000 
#    z 0.000000 0.000000 3.994690 
# 
# 
# High freq. dielectric constant tensor:
#      x y z
#    x 1.729310 0.000000 0.000000 
#    y 0.000000 1.783090 0.000000 
#    z 0.000000 0.000000 1.785170 
# 
# From -- ./inp_files/2192.got.cif
#   From: 2010.03.12/outbox.cif.g09.slc.cpg/sg49_2_cif.got.tgz:2192.got - 2010.04.14 03:58:27.
