data_PCOD8202557
_publ_section_title
;
Structure prediction by ZEFSAII (Michael W. Deem and Ramdas Pophale) SiO2 
 PCOD8202557
Probable space group: P C C M
;
_chemical_formula_sum "Si O2"
_cell_formula_units_Z 64
_cell_length_a 23.509115
_cell_length_b 18.894155
_cell_length_c 9.001579
_cell_angle_alpha 90.000000
_cell_angle_beta 90.000000
_cell_angle_gamma 90.000000
_cell_volume 3998.365132
_symmetry_space_group_name_H-M "P C C M"
_symmetry_group_IT_number 49
_symmetry_cell_setting 'orthorhombic'
loop_
_space_group_symop_operation_xyz
x,y,z
-x,-y,z
x,-y,1/2-z
-x,y,1/2-z
-x,-y,-z
x,y,-z
-x,y,1/2+z
x,-y,1/2+z
loop_
_atom_site_type_symbol
_atom_site_label
_atom_site_fract_x
_atom_site_fract_y
_atom_site_fract_z
Si Si1 0.743603 0.068357 0.171423
Si Si2 0.769266 0.222409 0.825829
Si Si3 0.941991 0.573695 0.175256
Si Si4 0.338567 0.710826 0.672438
Si Si5 0.614088 0.070138 0.825420
Si Si6 0.559716 0.216728 0.823451
Si Si7 0.168297 0.660783 0.673867
Si Si8 0.274306 0.571582 0.330622
O O1 0.780171 0.139009 0.204039
O O2 0.679083 0.080970 0.227948
O O3 0.771502 0.000000 0.250000
O O4 0.742857 0.050024 0.000000
O O5 0.712525 0.243932 0.740191
O O6 0.823237 0.265930 0.763286
O O7 0.760482 0.237200 0.000000
O O8 0.923471 0.500000 0.250000
O O9 0.894239 0.631937 0.208358
O O10 0.000000 0.601571 0.250000
O O11 0.950621 0.561805 0.000000
O O12 0.345510 0.731416 0.500000
O O13 0.395818 0.726087 0.762029
O O14 0.325151 0.627587 0.690675
O O15 0.578536 0.138202 0.773179
O O16 0.587781 0.000000 0.750000
O O17 0.609972 0.060445 0.000000
O O18 0.500000 0.235020 0.750000
O O19 0.556156 0.223746 0.000000
O O20 0.177883 0.676089 0.500000
O O21 0.215178 0.604430 0.731302
O O22 0.291451 0.500000 0.250000
O O23 0.264765 0.551213 0.500000
#
# Coordination Sequence:
#
# PCOD8202557 Si02
#       8
#     8   8   8   8   8   8   8   8
#     4   9  17  29  44  66  92 121 154 187 226 276
#     4  10  18  30  48  70  95 122 156 196 234 277
#     4  10  19  31  47  67  97 134 174 209 239 279
#     4  10  20  34  50  69  93 120 150 185 229 281
#     4   9  18  32  47  65  91 118 151 187 223 270
#     4  11  22  36  51  69  91 117 152 191 229 276
#     4   9  19  32  45  68  99 129 162 199 234 276
#     4   9  18  31  48  71  95 118 148 184 228 276
#
# _framework density 16.006542
#
# number of rings (size 3 to 8) (size 9 to 14) (size 15 to 20)
#    0.000    2.375    1.250    3.000    0.000    5.750 
#    0.000    1.250    0.000    0.375    0.000    2.625 
#    0.000    0.500    0.000    5.500    0.000    4.000 
#
# Total GULP energy -793563.824013 kJ/mol
# GULP energy per Si atom -12399.434750 kJ/mol
# Density = 1.597011 g / cm^3
# Si number density = 16.006542 Si / 1000 Ang^3
#
#
#
# Elastic Constant Matrix: (Units=GPa)
#
#
# Indices 1 2 3 4 5 6 
#
# 1 84.2312 49.3904 39.3511 0.0000 0.0000 0.0000
# 2 49.3904 106.6466 52.7898 0.0000 0.0000 0.0000
# 3 39.3511 52.7898 76.3015 0.0000 0.0000 0.0000
# 4 0.0000 0.0000 0.0000 30.7069 0.0000 0.0000
# 5 0.0000 0.0000 0.0000 0.0000 20.6998 0.0000
# 6 0.0000 0.0000 0.0000 0.0000 0.0000 21.8873
#
#
#
# Elastic Compliance Matrix: (Units=1/GPa)
#
#
# Indices 1 2 3 4 5 6 
#
# 1 0.017565 -0.005552 -0.005218 0.000000 0.000000 0.000000
# 2 -0.005552 0.016015 -0.008217 0.000000 0.000000 0.000000
# 3 -0.005218 -0.008217 0.021482 0.000000 0.000000 0.000000
# 4 0.000000 0.000000 0.000000 0.032566 0.000000 0.000000
# 5 0.000000 0.000000 0.000000 0.000000 0.048310 0.000000
# 6 0.000000 0.000000 0.000000 0.000000 0.000000 0.045689
#
#
# Mechanical properties :
#
#
# Convention : Reuss Voigt Hill
#
# Bulk Modulus (GPa) = 58.51744 61.13797 59.82771
# Shear Modulus (GPa) = 22.19295 23.03533 22.61414
#
# Velocity S-wave (km/s) = 3.72760 3.79769 3.76281
# Velocity P-wave (km/s) = 7.42728 7.58343 7.50576
#
# Compressibility (1/GPa) = 0.01708892
#
# Stress axis : x y z
#
# Youngs Moduli (GPa) = 56.93053 62.43955 46.55096
#
# Poissons Ratio (x) = 0.34667 0.24289
# Poissons Ratio (y) = 0.31609 0.38251
# Poissons Ratio (z) = 0.29704 0.51307
#
# Static dielectric constant tensor:
#      x y z
#    x 2.863890 0.000000 0.000000 
#    y 0.000000 3.108840 0.000000 
#    z 0.000000 0.000000 3.100120 
# 
# 
# High freq. dielectric constant tensor:
#      x y z
#    x 1.581410 0.000000 0.000000 
#    y 0.000000 1.611000 0.000000 
#    z 0.000000 0.000000 1.625570 
# 
# From -- ./inp_files/6618.got.cif
#   From: 2010.03.12/outbox.cif.g09.slc.cpg/sg49_4_cif.got.tgz:6618.got - 2010.04.14 03:58:27.
