data_PCOD8202223
_publ_section_title
;
Structure prediction by ZEFSAII (Michael W. Deem and Ramdas Pophale) SiO2 
 PCOD8202223
Probable space group: P C C M
;
_chemical_formula_sum "Si O2"
_cell_formula_units_Z 40
_cell_length_a 26.022089
_cell_length_b 9.306225
_cell_length_c 8.448184
_cell_angle_alpha 90.000000
_cell_angle_beta 90.000000
_cell_angle_gamma 90.000000
_cell_volume 2045.874882
_symmetry_space_group_name_H-M "P C C M"
_symmetry_group_IT_number 49
_symmetry_cell_setting 'orthorhombic'
loop_
_space_group_symop_operation_xyz
x,y,z
-x,-y,z
x,-y,1/2-z
-x,y,1/2-z
-x,-y,-z
x,y,-z
-x,y,1/2+z
x,-y,1/2+z
loop_
_atom_site_type_symbol
_atom_site_label
_atom_site_fract_x
_atom_site_fract_y
_atom_site_fract_z
Si Si1 0.343707 0.838872 0.187435
Si Si2 0.447853 0.161764 0.812574
Si Si3 0.238061 0.838583 0.313107
Si Si4 0.144995 0.657765 0.185568
Si Si5 0.055832 0.153263 0.814373
O O1 0.396590 0.760094 0.242608
O O2 0.293268 0.767827 0.267517
O O3 0.347433 0.000000 0.250000
O O4 0.337761 0.834907 0.000000
O O5 0.500000 0.239881 0.750000
O O6 0.449006 0.000000 0.750000
O O7 0.445935 0.164728 0.000000
O O8 0.229046 0.834097 0.500000
O O9 0.194487 0.750875 0.225260
O O10 0.235931 0.000000 0.250000
O O11 0.154682 0.500000 0.250000
O O12 0.094712 0.722366 0.266884
O O13 0.135720 0.654485 0.000000
O O14 0.000000 0.194197 0.750000
O O15 0.075457 0.000000 0.750000
O O16 0.052376 0.140384 0.000000
#
# Coordination Sequence:
#
# PCOD8202223 Si02
#       5
#     8   8   8   8   8
#     4  10  17  27  42  64  92 127 169 216 264 318
#     4  10  16  23  34  53  83 122 163 207 258 318
#     4  11  21  36  56  80 107 142 183 228 274 325
#     4  12  25  42  60  84 114 148 185 228 276 328
#     4  11  22  40  64  92 120 152 188 228 270 319
#
# _framework density 19.551537
#
# number of rings (size 3 to 8) (size 9 to 14) (size 15 to 20)
#    0.000    1.200    0.000   13.200    0.000    0.400 
#    0.000    2.000    0.000    0.000    0.000    0.000 
#    0.000    0.800    0.000    8.000    0.000    7.800 
#
# Total GULP energy -495942.861436 kJ/mol
# GULP energy per Si atom -12398.571536 kJ/mol
# Density = 1.950704 g / cm^3
# Si number density = 19.551537 Si / 1000 Ang^3
#
#
#
# Elastic Constant Matrix: (Units=GPa)
#
#
# Indices 1 2 3 4 5 6 
#
# 1 143.6098 36.0901 22.9842 0.0000 0.0000 0.0000
# 2 36.0901 47.7423 10.0410 0.0000 0.0000 0.0000
# 3 22.9842 10.0410 140.6351 0.0000 0.0000 0.0000
# 4 0.0000 0.0000 0.0000 17.6104 0.0000 0.0000
# 5 0.0000 0.0000 0.0000 0.0000 44.8495 0.0000
# 6 0.0000 0.0000 0.0000 0.0000 0.0000 -1.3124
#
#
#
# Elastic Compliance Matrix: (Units=1/GPa)
#
#
# Indices 1 2 3 4 5 6 
#
# 1 0.008725 -0.006391 -0.000970 0.000000 0.000000 0.000000
# 2 -0.006391 0.025947 -0.000808 0.000000 0.000000 0.000000
# 3 -0.000970 -0.000808 0.007327 0.000000 0.000000 0.000000
# 4 0.000000 0.000000 0.000000 0.056785 0.000000 0.000000
# 5 0.000000 0.000000 0.000000 0.000000 0.022297 0.000000
# 6 0.000000 0.000000 0.000000 0.000000 0.000000 -0.761968
#
#
# Mechanical properties :
#
#
# Convention : Reuss Voigt Hill
#
# Bulk Modulus (GPa) = 38.97010 52.24643 45.60827
# Shear Modulus (GPa) = -8.11693 29.75430 10.81869
#
# Velocity S-wave (km/s) = -2.03975 3.90531 2.35487
# Velocity P-wave (km/s) = 3.79840 6.86409 5.54723
#
# Compressibility (1/GPa) = 0.02566070
#
# Stress axis : x y z
#
# Youngs Moduli (GPa) = 114.61740 38.53985 136.48619
#
# Poissons Ratio (x) = 0.24632 0.13233
# Poissons Ratio (y) = 0.73256 0.11028
# Poissons Ratio (z) = 0.11113 0.03114
#
# Static dielectric constant tensor:
#      x y z
#    x 5.058220 0.000000 0.000000 
#    y 0.000000 3.029280 0.000000 
#    z 0.000000 0.000000 3.759150 
# 
# 
# High freq. dielectric constant tensor:
#      x y z
#    x 1.797850 0.000000 0.000000 
#    y 0.000000 1.692510 0.000000 
#    z 0.000000 0.000000 1.789240 
# 
# From -- ./inp_files/6670.got.cif
#   From: 2010.03.12/outbox.cif.g09.slc.cpg/sg49_4_cif.got.tgz:6670.got - 2010.04.14 03:58:27.
