data_PCOD8202541
_publ_section_title
;
Structure prediction by ZEFSAII (Michael W. Deem and Ramdas Pophale) SiO2 
 PCOD8202541
Probable space group: P C C M
;
_chemical_formula_sum "Si O2"
_cell_formula_units_Z 64
_cell_length_a 22.756375
_cell_length_b 17.748697
_cell_length_c 9.091637
_cell_angle_alpha 90.000000
_cell_angle_beta 90.000000
_cell_angle_gamma 90.000000
_cell_volume 3672.075860
_symmetry_space_group_name_H-M "P C C M"
_symmetry_group_IT_number 49
_symmetry_cell_setting 'orthorhombic'
loop_
_space_group_symop_operation_xyz
x,y,z
-x,-y,z
x,-y,1/2-z
-x,y,1/2-z
-x,-y,-z
x,y,-z
-x,y,1/2+z
x,-y,1/2+z
loop_
_atom_site_type_symbol
_atom_site_label
_atom_site_fract_x
_atom_site_fract_y
_atom_site_fract_z
Si Si1 0.445286 0.106796 0.339254
Si Si2 0.313837 0.077287 0.676722
Si Si3 0.937598 0.577666 0.677546
Si Si4 0.554015 0.282822 0.161985
Si Si5 0.240027 0.795651 0.664436
Si Si6 0.743052 0.431075 0.837294
Si Si7 0.664448 0.332708 0.662984
Si Si8 0.159558 0.305081 0.336863
O O1 0.500000 0.070504 0.250000
O O2 0.445993 0.068938 0.500000
O O3 0.381007 0.091835 0.267481
O O4 0.456877 0.194761 0.354375
O O5 0.310395 0.075191 0.500000
O O6 0.269603 0.141324 0.733431
O O7 0.291969 0.000000 0.750000
O O8 0.913351 0.500000 0.750000
O O9 0.941155 0.568364 0.500000
O O10 0.896411 0.648138 0.723004
O O11 0.000000 0.596163 0.750000
O O12 0.500000 0.320581 0.250000
O O13 0.613096 0.293133 0.249941
O O14 0.558400 0.319773 0.000000
O O15 0.227585 0.827519 0.500000
O O16 0.282525 0.725127 0.652808
O O17 0.178249 0.765600 0.734150
O O18 0.772989 0.500000 0.750000
O O19 0.684375 0.407192 0.749693
O O20 0.787155 0.362639 0.847189
O O21 0.725182 0.458000 0.000000
O O22 0.643123 0.355408 0.500000
O O23 0.146010 0.273248 0.500000
#
# Coordination Sequence:
#
# PCOD8202541 Si02
#       8
#     8   8   8   8   8   8   8   8
#     4   9  19  32  48  67  91 122 155 195 240 292
#     4  11  22  36  51  70  97 130 163 201 250 303
#     4  10  19  31  48  73 107 147 184 216 250 288
#     4  10  18  30  47  68  89 114 148 188 236 284
#     4  10  20  33  51  73  95 123 162 205 247 292
#     4  10  19  31  47  68  94 123 156 196 239 284
#     4  10  19  31  48  69  91 117 150 191 237 287
#     4   9  19  33  50  71  99 135 170 207 247 285
#
# _framework density 17.428833000000001
#
# number of rings (size 3 to 8) (size 9 to 14) (size 15 to 20)
#    0.000    2.125    1.250    3.000    0.000    4.250 
#    0.000    1.250    0.000    0.375    0.000    2.625 
#    0.000    0.500    0.000    5.250    0.000    2.875 
#
# Total GULP energy -793213.564187 kJ/mol
# GULP energy per Si atom -12393.961940 kJ/mol
# Density = 1.738916 g / cm^3
# Si number density = 17.428833 Si / 1000 Ang^3
#
#
#
# Elastic Constant Matrix: (Units=GPa)
#
#
# Indices 1 2 3 4 5 6 
#
# 1 75.4103 29.8706 42.1876 0.0000 0.0000 0.0000
# 2 29.8706 53.3243 35.9479 0.0000 0.0000 0.0000
# 3 42.1876 35.9479 133.8268 0.0000 0.0000 0.0000
# 4 0.0000 0.0000 0.0000 19.1075 0.0000 0.0000
# 5 0.0000 0.0000 0.0000 0.0000 16.5133 0.0000
# 6 0.0000 0.0000 0.0000 0.0000 0.0000 5.1767
#
#
#
# Elastic Compliance Matrix: (Units=1/GPa)
#
#
# Indices 1 2 3 4 5 6 
#
# 1 0.018436 -0.007827 -0.003709 0.000000 0.000000 0.000000
# 2 -0.007827 0.026223 -0.004576 0.000000 0.000000 0.000000
# 3 -0.003709 -0.004576 0.009871 0.000000 0.000000 0.000000
# 4 0.000000 0.000000 0.000000 0.052336 0.000000 0.000000
# 5 0.000000 0.000000 0.000000 0.000000 0.060557 0.000000
# 6 0.000000 0.000000 0.000000 0.000000 0.000000 0.193174
#
#
# Mechanical properties :
#
#
# Convention : Reuss Voigt Hill
#
# Bulk Modulus (GPa) = 44.83391 53.17484 49.00437
# Shear Modulus (GPa) = 12.49198 18.46319 15.47759
#
# Velocity S-wave (km/s) = 2.68011 3.25829 2.98324
# Velocity P-wave (km/s) = 5.94619 6.68814 6.32805
#
# Compressibility (1/GPa) = 0.02230455
#
# Stress axis : x y z
#
# Youngs Moduli (GPa) = 54.24099 38.13505 101.30650
#
# Poissons Ratio (x) = 0.29847 0.37579
# Poissons Ratio (y) = 0.42453 0.46363
# Poissons Ratio (z) = 0.20121 0.17452
#
# Static dielectric constant tensor:
#      x y z
#    x 3.119110 0.000000 0.000000 
#    y 0.000000 3.010330 0.000000 
#    z 0.000000 0.000000 3.046140 
# 
# 
# High freq. dielectric constant tensor:
#      x y z
#    x 1.645980 0.000000 0.000000 
#    y 0.000000 1.642030 0.000000 
#    z 0.000000 0.000000 1.693490 
# 
# From -- ./inp_files/6627.got.cif
#   From: 2010.03.12/outbox.cif.g09.slc.cpg/sg49_4_cif.got.tgz:6627.got - 2010.04.14 03:58:27.
