data_PCOD8202295
_publ_section_title
;
Structure prediction by ZEFSAII (Michael W. Deem and Ramdas Pophale) SiO2 
 PCOD8202295
Probable space group: P C C M
;
_chemical_formula_sum "Si O2"
_cell_formula_units_Z 64
_cell_length_a 14.834730
_cell_length_b 27.892050
_cell_length_c 8.846005
_cell_angle_alpha 90.000000
_cell_angle_beta 90.000000
_cell_angle_gamma 90.000000
_cell_volume 3660.220608
_symmetry_space_group_name_H-M "P C C M"
_symmetry_group_IT_number 49
_symmetry_cell_setting 'orthorhombic'
loop_
_space_group_symop_operation_xyz
x,y,z
-x,-y,z
x,-y,1/2-z
-x,y,1/2-z
-x,-y,-z
x,y,-z
-x,y,1/2+z
x,-y,1/2+z
loop_
_atom_site_type_symbol
_atom_site_label
_atom_site_fract_x
_atom_site_fract_y
_atom_site_fract_z
Si Si1 0.281848 0.548882 0.822229
Si Si2 0.900433 0.047252 0.818939
Si Si3 0.409547 0.264605 0.824472
Si Si4 0.910935 0.416669 0.175733
Si Si5 0.909234 0.308248 0.177828
Si Si6 0.407190 0.625838 0.321053
Si Si7 0.216610 0.765451 0.324264
Si Si8 0.902373 0.143415 0.679060
O O1 0.320265 0.500000 0.750000
O O2 0.175711 0.551646 0.784113
O O3 0.327040 0.594815 0.747433
O O4 0.301048 0.549242 0.000000
O O5 0.856880 0.096439 0.756868
O O6 0.000000 0.047774 0.750000
O O7 0.850427 0.000000 0.750000
O O8 0.900912 0.045497 0.000000
O O9 0.500000 0.243160 0.750000
O O10 0.391156 0.319175 0.770955
O O11 0.322957 0.231875 0.782525
O O12 0.428872 0.264113 0.000000
O O13 0.895486 0.362537 0.235984
O O14 0.000000 0.439835 0.250000
O O15 0.929192 0.415028 0.000000
O O16 0.823973 0.278014 0.230066
O O17 0.000000 0.286137 0.250000
O O18 0.918157 0.304757 0.000000
O O19 0.500000 0.606623 0.250000
O O20 0.409676 0.619361 0.500000
O O21 0.204126 0.753308 0.500000
O O22 0.167612 0.814722 0.281441
O O23 0.913950 0.135524 0.500000
O O24 0.000000 0.155578 0.750000
#
# Coordination Sequence:
#
# PCOD8202295 Si02
#       8
#     8   8   8   8   8   8   8   8
#     4  11  23  38  54  75 100 124 154 190 232 280
#     4  10  17  27  43  62  87 122 166 209 247 285
#     4   9  19  35  54  76  99 125 158 195 236 282
#     4   9  20  36  53  72  95 124 158 196 232 272
#     4  10  19  31  48  70  95 125 160 194 231 276
#     4  10  20  36  58  80 101 125 153 188 232 282
#     4  10  20  32  47  69  99 131 161 197 240 284
#     4  10  19  30  43  63  95 132 168 204 241 281
#
# _framework density 17.485285999999999
#
# number of rings (size 3 to 8) (size 9 to 14) (size 15 to 20)
#    0.000    2.125    0.000    4.875    0.000    5.000 
#    0.000    2.500    0.000    0.000    0.000    0.000 
#    0.000    0.500    0.000    5.750    0.000    1.750 
#
# Total GULP energy -793531.684355 kJ/mol
# GULP energy per Si atom -12398.932568 kJ/mol
# Density = 1.744549 g / cm^3
# Si number density = 17.485286 Si / 1000 Ang^3
#
#
#
# Elastic Constant Matrix: (Units=GPa)
#
#
# Indices 1 2 3 4 5 6 
#
# 1 88.6022 38.6906 37.7953 0.0000 0.0000 0.0000
# 2 38.6906 78.3267 36.1575 0.0000 0.0000 0.0000
# 3 37.7953 36.1575 81.5576 0.0000 0.0000 0.0000
# 4 0.0000 0.0000 0.0000 21.7245 0.0000 0.0000
# 5 0.0000 0.0000 0.0000 0.0000 27.4335 0.0000
# 6 0.0000 0.0000 0.0000 0.0000 0.0000 14.4304
#
#
#
# Elastic Compliance Matrix: (Units=1/GPa)
#
#
# Indices 1 2 3 4 5 6 
#
# 1 0.015782 -0.005557 -0.004850 0.000000 0.000000 0.000000
# 2 -0.005557 0.018009 -0.005409 0.000000 0.000000 0.000000
# 3 -0.004850 -0.005409 0.016907 0.000000 0.000000 0.000000
# 4 0.000000 0.000000 0.000000 0.046031 0.000000 0.000000
# 5 0.000000 0.000000 0.000000 0.000000 0.036452 0.000000
# 6 0.000000 0.000000 0.000000 0.000000 0.000000 0.069298
#
#
# Mechanical properties :
#
#
# Convention : Reuss Voigt Hill
#
# Bulk Modulus (GPa) = 52.44922 52.64146 52.54534
# Shear Modulus (GPa) = 20.79305 21.77389 21.28347
#
# Velocity S-wave (km/s) = 3.45218 3.53267 3.49266
# Velocity P-wave (km/s) = 6.77875 6.84187 6.81038
#
# Compressibility (1/GPa) = 0.01906606
#
# Stress axis : x y z
#
# Youngs Moduli (GPa) = 63.36402 55.52860 59.14773
#
# Poissons Ratio (x) = 0.30856 0.28687
# Poissons Ratio (y) = 0.35210 0.31992
# Poissons Ratio (z) = 0.30732 0.30035
#
# Static dielectric constant tensor:
#      x y z
#    x 3.165660 0.000000 0.000000 
#    y 0.000000 3.595230 0.000000 
#    z 0.000000 0.000000 3.281980 
# 
# 
# High freq. dielectric constant tensor:
#      x y z
#    x 1.652430 0.000000 0.000000 
#    y 0.000000 1.664420 0.000000 
#    z 0.000000 0.000000 1.686310 
# 
# From -- ./inp_files/4505.got.cif
#   From: 2010.03.12/outbox.cif.g09.slc.cpg/sg49_3_cif.got.tgz:4505.got - 2010.04.14 03:58:27.
