data_PCOD8202296
_publ_section_title
;
Structure prediction by ZEFSAII (Michael W. Deem and Ramdas Pophale) SiO2 
 PCOD8202296
Probable space group: P C C M
;
_chemical_formula_sum "Si O2"
_cell_formula_units_Z 58
_cell_length_a 12.799037
_cell_length_b 26.452386
_cell_length_c 9.168899
_cell_angle_alpha 90.000000
_cell_angle_beta 90.000000
_cell_angle_gamma 90.000000
_cell_volume 3104.268906
_symmetry_space_group_name_H-M "P C C M"
_symmetry_group_IT_number 49
_symmetry_cell_setting 'orthorhombic'
loop_
_space_group_symop_operation_xyz
x,y,z
-x,-y,z
x,-y,1/2-z
-x,y,1/2-z
-x,-y,-z
x,y,-z
-x,y,1/2+z
x,-y,1/2+z
loop_
_atom_site_type_symbol
_atom_site_label
_atom_site_fract_x
_atom_site_fract_y
_atom_site_fract_z
Si Si1 0.390559 0.646602 0.827970
Si Si2 0.593520 0.838439 0.836448
Si Si3 0.894845 0.927262 0.330136
Si Si4 0.099852 0.189875 0.668385
Si Si5 0.695531 0.754200 0.332644
Si Si6 0.500000 0.000000 0.750000
Si Si7 0.698758 0.061280 0.341451
Si Si8 0.385372 0.450888 0.177548
O O1 0.500000 0.659316 0.750000
O O2 0.314584 0.694363 0.809010
O O3 0.333100 0.600456 0.740525
O O4 0.408278 0.633706 0.000000
O O5 0.500000 0.865119 0.750000
O O6 0.613221 0.784128 0.764469
O O7 0.687976 0.878094 0.825447
O O8 0.558734 0.827606 0.000000
O O9 0.907717 0.938307 0.500000
O O10 0.878756 0.868447 0.292297
O O11 0.787949 0.955530 0.274986
O O12 0.000000 0.947541 0.250000
O O13 0.076998 0.195594 0.500000
O O14 0.192001 0.226618 0.719875
O O15 0.000000 0.211203 0.750000
O O16 0.675976 0.769281 0.500000
O O17 0.583372 0.035238 0.664097
O O18 0.745408 0.048796 0.500000
O O19 0.328542 0.500000 0.250000
O O20 0.500000 0.449063 0.250000
O O21 0.386778 0.453254 0.000000
#
# Coordination Sequence:
#
# PCOD8202296 Si02
#       8
#     8   8   8   8   8   2   8   8
#     4  10  19  30  44  64  97 135 174 216 257 303
#     4  11  22  35  53  77 106 140 178 215 254 312
#     4  10  20  37  64  90 118 146 179 223 270 325
#     4   9  18  32  51  77 105 136 170 209 256 306
#     4  10  20  34  50  73 105 140 175 213 260 312
#     4  12  26  48  66  86 118 148 184 232 276 320
#     4  11  24  41  62  88 114 144 183 223 271 325
#     4  10  17  27  43  62  88 124 172 219 264 309
#
# _framework density 18.683947
#
# number of rings (size 3 to 8) (size 9 to 14) (size 15 to 20)
#    0.000    1.793    2.069    4.345    0.000    4.966 
#    0.000    0.345    0.000    1.655    0.000    0.000 
#    0.000    0.552    0.000    6.345    0.000    1.931 
#
# Total GULP energy -718540.965841 kJ/mol
# GULP energy per Si atom -12388.637342 kJ/mol
# Density = 1.864142 g / cm^3
# Si number density = 18.683947 Si / 1000 Ang^3
#
#
#
# Elastic Constant Matrix: (Units=GPa)
#
#
# Indices 1 2 3 4 5 6 
#
# 1 101.7354 20.5431 50.2172 0.0000 0.0000 0.0000
# 2 20.5431 97.5602 42.0825 0.0000 0.0000 0.0000
# 3 50.2172 42.0825 130.7196 0.0000 0.0000 0.0000
# 4 0.0000 0.0000 0.0000 23.4578 0.0000 0.0000
# 5 0.0000 0.0000 0.0000 0.0000 28.8299 0.0000
# 6 0.0000 0.0000 0.0000 0.0000 0.0000 7.2065
#
#
#
# Elastic Compliance Matrix: (Units=1/GPa)
#
#
# Indices 1 2 3 4 5 6 
#
# 1 0.012163 -0.000634 -0.004469 0.000000 0.000000 0.000000
# 2 -0.000634 0.011936 -0.003599 0.000000 0.000000 0.000000
# 3 -0.004469 -0.003599 0.010525 0.000000 0.000000 0.000000
# 4 0.000000 0.000000 0.000000 0.042630 0.000000 0.000000
# 5 0.000000 0.000000 0.000000 0.000000 0.034686 0.000000
# 6 0.000000 0.000000 0.000000 0.000000 0.000000 0.138763
#
#
# Mechanical properties :
#
#
# Convention : Reuss Voigt Hill
#
# Bulk Modulus (GPa) = 58.06645 61.74452 59.90549
# Shear Modulus (GPa) = 18.25841 26.37702 22.31772
#
# Velocity S-wave (km/s) = 3.12945 3.76140 3.45988
# Velocity P-wave (km/s) = 6.64858 7.20991 6.93493
#
# Compressibility (1/GPa) = 0.01722165
#
# Stress axis : x y z
#
# Youngs Moduli (GPa) = 82.21599 83.78029 95.00940
#
# Poissons Ratio (x) = 0.05309 0.42456
# Poissons Ratio (y) = 0.05210 0.34195
# Poissons Ratio (z) = 0.36739 0.30154
#
# Static dielectric constant tensor:
#      x y z
#    x 2.562770 0.000000 0.000000 
#    y 0.000000 3.863760 0.000000 
#    z 0.000000 0.000000 3.498280 
# 
# 
# High freq. dielectric constant tensor:
#      x y z
#    x 1.689180 0.000000 0.000000 
#    y 0.000000 1.724600 0.000000 
#    z 0.000000 0.000000 1.737080 
# 
# From -- ./inp_files/3031.got.cif
#   From: 2010.03.12/outbox.cif.g09.slc.cpg/sg49_2_cif.got.tgz:3031.got - 2010.04.14 03:58:27.
