data_PCOD8202410
_publ_section_title
;
Structure prediction by ZEFSAII (Michael W. Deem and Ramdas Pophale) SiO2 
 PCOD8202410
Probable space group: P C C M
;
_chemical_formula_sum "Si O2"
_cell_formula_units_Z 64
_cell_length_a 25.696739
_cell_length_b 14.516660
_cell_length_c 8.638681
_cell_angle_alpha 90.000000
_cell_angle_beta 90.000000
_cell_angle_gamma 90.000000
_cell_volume 3222.494285
_symmetry_space_group_name_H-M "P C C M"
_symmetry_group_IT_number 49
_symmetry_cell_setting 'orthorhombic'
loop_
_space_group_symop_operation_xyz
x,y,z
-x,-y,z
x,-y,1/2-z
-x,y,1/2-z
-x,-y,-z
x,y,-z
-x,y,1/2+z
x,-y,1/2+z
loop_
_atom_site_type_symbol
_atom_site_label
_atom_site_fract_x
_atom_site_fract_y
_atom_site_fract_z
Si Si1 0.250661 0.288530 0.683549
Si Si2 0.557883 0.091333 0.683273
Si Si3 0.787705 0.905258 0.316657
Si Si4 0.098120 0.095805 0.183723
Si Si5 0.348484 0.399920 0.317927
Si Si6 0.443418 0.722089 0.817652
Si Si7 0.150878 0.601412 0.816767
Si Si8 0.053728 0.276819 0.316319
O O1 0.249732 0.294459 0.500000
O O2 0.248291 0.181060 0.733510
O O3 0.303533 0.333333 0.750325
O O4 0.201105 0.344389 0.749461
O O5 0.500000 0.092244 0.750000
O O6 0.557698 0.088101 0.500000
O O7 0.583021 0.186036 0.744467
O O8 0.586959 0.000000 0.750000
O O9 0.793003 0.913488 0.500000
O O10 0.844282 0.886999 0.247761
O O11 0.763207 0.000000 0.250000
O O12 0.061041 0.176686 0.241690
O O13 0.075720 0.000000 0.250000
O O14 0.099403 0.092067 0.000000
O O15 0.341247 0.500000 0.250000
O O16 0.342415 0.406417 0.500000
O O17 0.405181 0.361120 0.272834
O O18 0.500000 0.698671 0.750000
O O19 0.448493 0.736732 0.000000
O O20 0.149986 0.500000 0.750000
O O21 0.099527 0.655236 0.761554
O O22 0.153180 0.595615 0.000000
O O23 0.051904 0.267686 0.500000
O O24 0.000000 0.318259 0.250000
#
# Coordination Sequence:
#
# PCOD8202410 Si02
#       8
#     8   8   8   8   8   8   8   8
#     4   9  18  37  61  84 114 149 181 229 284 336
#     4  10  17  28  49  77 109 145 184 229 274 326
#     4  10  18  33  57  85 118 151 186 225 276 333
#     4  11  21  35  57  85 116 151 191 232 278 336
#     4  10  22  39  60  84 112 147 189 237 292 340
#     4  10  20  35  55  81 113 152 193 235 283 340
#     4  10  21  38  60  83 110 144 186 232 285 338
#     4  11  23  40  58  82 115 152 190 237 287 336
#
# _framework density 19.860392999999998
#
# number of rings (size 3 to 8) (size 9 to 14) (size 15 to 20)
#    0.000    1.875    1.250    5.625    0.000    2.750 
#    0.000    5.625    0.000    1.500    0.000    0.000 
#    0.000    0.000    0.000    0.000    0.000    0.000 
#
# Total GULP energy -793538.496723 kJ/mol
# GULP energy per Si atom -12399.039011 kJ/mol
# Density = 1.981519 g / cm^3
# Si number density = 19.860393 Si / 1000 Ang^3
#
#
#
# Elastic Constant Matrix: (Units=GPa)
#
#
# Indices 1 2 3 4 5 6 
#
# 1 117.4510 74.0362 35.7231 0.0000 0.0000 0.0000
# 2 74.0362 160.0340 41.1272 0.0000 0.0000 0.0000
# 3 35.7231 41.1272 95.3991 0.0000 0.0000 0.0000
# 4 0.0000 0.0000 0.0000 36.4537 0.0000 0.0000
# 5 0.0000 0.0000 0.0000 0.0000 -56.5704 0.0000
# 6 0.0000 0.0000 0.0000 0.0000 0.0000 35.9845
#
#
#
# Elastic Compliance Matrix: (Units=1/GPa)
#
#
# Indices 1 2 3 4 5 6 
#
# 1 0.012514 -0.005156 -0.002463 0.000000 0.000000 0.000000
# 2 -0.005156 0.009152 -0.002015 0.000000 0.000000 0.000000
# 3 -0.002463 -0.002015 0.012273 0.000000 0.000000 0.000000
# 4 0.000000 0.000000 0.000000 0.027432 0.000000 0.000000
# 5 0.000000 0.000000 0.000000 0.000000 -0.017677 0.000000
# 6 0.000000 0.000000 0.000000 0.000000 0.000000 0.027790
#
#
# Mechanical properties :
#
#
# Convention : Reuss Voigt Hill
#
# Bulk Modulus (GPa) = 68.16206 74.96191 71.56199
# Shear Modulus (GPa) = 52.27893 17.97342 35.12617
#
# Velocity S-wave (km/s) = 5.13618 3.01157 4.21010
# Velocity P-wave (km/s) = 8.34080 7.06534 7.72942
#
# Compressibility (1/GPa) = 0.01467092
#
# Stress axis : x y z
#
# Youngs Moduli (GPa) = 79.91354 109.26815 81.47920
#
# Poissons Ratio (x) = 0.56340 0.20068
# Poissons Ratio (y) = 0.41205 0.16415
# Poissons Ratio (z) = 0.19682 0.22014
#
# Static dielectric constant tensor:
#      x y z
#    x 3.612250 0.000000 0.000000 
#    y 0.000000 3.934860 0.000000 
#    z 0.000000 0.000000 3.500230 
# 
# 
# High freq. dielectric constant tensor:
#      x y z
#    x 1.755650 0.000000 0.000000 
#    y 0.000000 1.790280 0.000000 
#    z 0.000000 0.000000 1.768890 
# 
# From -- ./inp_files/6505.got.cif
#   From: 2010.03.12/outbox.cif.g09.slc.cpg/sg49_4_cif.got.tgz:6505.got - 2010.04.14 03:58:27.
