data_PCOD8202921
_publ_section_title
;
Structure prediction by ZEFSAII (Michael W. Deem and Ramdas Pophale) SiO2 
 PCOD8202921
Probable space group: P C C M
;
_chemical_formula_sum "Si O2"
_cell_formula_units_Z 64
_cell_length_a 19.531981
_cell_length_b 20.661755
_cell_length_c 8.944836
_cell_angle_alpha 90.000000
_cell_angle_beta 90.000000
_cell_angle_gamma 90.000000
_cell_volume 3609.822795
_symmetry_space_group_name_H-M "P C C M"
_symmetry_group_IT_number 49
_symmetry_cell_setting 'orthorhombic'
loop_
_space_group_symop_operation_xyz
x,y,z
-x,-y,z
x,-y,1/2-z
-x,y,1/2-z
-x,-y,-z
x,y,-z
-x,y,1/2+z
x,-y,1/2+z
loop_
_atom_site_type_symbol
_atom_site_label
_atom_site_fract_x
_atom_site_fract_y
_atom_site_fract_z
Si Si1 0.293978 0.690862 0.177313
Si Si2 0.211755 0.434688 0.325361
Si Si3 0.289366 0.934163 0.323981
Si Si4 0.068221 0.379514 0.676679
Si Si5 0.431442 0.878294 0.325307
Si Si6 0.213776 0.193986 0.172838
Si Si7 0.066881 0.241755 0.826185
Si Si8 0.430198 0.728630 0.676131
O O1 0.255479 0.626238 0.231941
O O2 0.250343 0.752407 0.227912
O O3 0.367977 0.688743 0.253771
O O4 0.302133 0.693603 0.000000
O O5 0.239162 0.500000 0.250000
O O6 0.221367 0.442654 0.500000
O O7 0.132263 0.424568 0.282472
O O8 0.288745 0.943205 0.500000
O O9 0.366086 0.918126 0.266685
O O10 0.238664 0.876606 0.275220
O O11 0.262938 0.000000 0.250000
O O12 0.058729 0.372322 0.500000
O O13 0.082108 0.309309 0.745717
O O14 0.000000 0.410503 0.750000
O O15 0.500000 0.906142 0.250000
O O16 0.441065 0.886235 0.500000
O O17 0.419263 0.803688 0.282146
O O18 0.132069 0.195413 0.196234
O O19 0.234192 0.206753 0.000000
O O20 0.000000 0.208883 0.750000
O O21 0.052063 0.254663 0.000000
O O22 0.500000 0.702716 0.750000
O O23 0.433155 0.717047 0.500000
#
# Coordination Sequence:
#
# PCOD8202921 Si02
#       8
#     8   8   8   8   8   8   8   8
#     4  11  21  35  56  83 110 139 179 227 269 314
#     4  10  23  38  53  76 109 144 182 224 267 318
#     4  10  21  37  52  74 106 140 180 221 264 316
#     4  10  19  33  50  75 108 142 179 220 260 313
#     4   9  18  32  50  72 105 140 175 215 252 306
#     4  10  20  36  56  78 106 142 180 220 269 323
#     4  10  19  31  53  80 106 138 173 218 271 320
#     4  10  19  34  55  82 111 142 177 220 270 319
#
# _framework density 17.729402
#
# number of rings (size 3 to 8) (size 9 to 14) (size 15 to 20)
#    0.000    2.000    2.500    2.250    0.000    4.500 
#    0.000    2.500    0.000    0.750    0.000    5.250 
#    0.000    0.000    0.000    0.000    0.000    0.000 
#
# Total GULP energy -793686.891933 kJ/mol
# GULP energy per Si atom -12401.357686 kJ/mol
# Density = 1.768905 g / cm^3
# Si number density = 17.729402 Si / 1000 Ang^3
#
#
#
# Elastic Constant Matrix: (Units=GPa)
#
#
# Indices 1 2 3 4 5 6 
#
# 1 118.3522 60.6438 48.8572 0.0000 0.0000 0.0000
# 2 60.6438 108.6642 41.3482 0.0000 0.0000 0.0000
# 3 48.8572 41.3482 71.2099 0.0000 0.0000 0.0000
# 4 0.0000 0.0000 0.0000 26.2105 0.0000 0.0000
# 5 0.0000 0.0000 0.0000 0.0000 29.6233 0.0000
# 6 0.0000 0.0000 0.0000 0.0000 0.0000 23.0354
#
#
#
# Elastic Compliance Matrix: (Units=1/GPa)
#
#
# Indices 1 2 3 4 5 6 
#
# 1 0.013788 -0.005257 -0.006408 0.000000 0.000000 0.000000
# 2 -0.005257 0.013817 -0.004416 0.000000 0.000000 0.000000
# 3 -0.006408 -0.004416 0.021004 0.000000 0.000000 0.000000
# 4 0.000000 0.000000 0.000000 0.038153 0.000000 0.000000
# 5 0.000000 0.000000 0.000000 0.000000 0.033757 0.000000
# 6 0.000000 0.000000 0.000000 0.000000 0.000000 0.043411
#
#
# Mechanical properties :
#
#
# Convention : Reuss Voigt Hill
#
# Bulk Modulus (GPa) = 60.80003 66.65832 63.72918
# Shear Modulus (GPa) = 24.80490 25.59898 25.20194
#
# Velocity S-wave (km/s) = 3.74449 3.80395 3.77434
# Velocity P-wave (km/s) = 7.28442 7.54802 7.41739
#
# Compressibility (1/GPa) = 0.01644736
#
# Stress axis : x y z
#
# Youngs Moduli (GPa) = 72.52647 72.37600 47.61098
#
# Poissons Ratio (x) = 0.38046 0.30508
# Poissons Ratio (y) = 0.38125 0.21026
# Poissons Ratio (z) = 0.46473 0.31962
#
# Static dielectric constant tensor:
#      x y z
#    x 3.571660 0.000000 0.000000 
#    y 0.000000 3.110300 0.000000 
#    z 0.000000 0.000000 3.271450 
# 
# 
# High freq. dielectric constant tensor:
#      x y z
#    x 1.693410 0.000000 0.000000 
#    y 0.000000 1.657730 0.000000 
#    z 0.000000 0.000000 1.690860 
# 
# From -- ./inp_files/5929.got.cif
#   From: 2010.03.12/outbox.cif.g09.slc.cpg/sg49_3_cif.got.tgz:5929.got - 2010.04.14 03:58:27.
