data_PCOD8202748
_publ_section_title
;
Structure prediction by ZEFSAII (Michael W. Deem and Ramdas Pophale) SiO2 
 PCOD8202748
Probable space group: P C C M
;
_chemical_formula_sum "Si O2"
_cell_formula_units_Z 56
_cell_length_a 21.161686
_cell_length_b 18.254462
_cell_length_c 8.803640
_cell_angle_alpha 90.000000
_cell_angle_beta 90.000000
_cell_angle_gamma 90.000000
_cell_volume 3400.803812
_symmetry_space_group_name_H-M "P C C M"
_symmetry_group_IT_number 49
_symmetry_cell_setting 'orthorhombic'
loop_
_space_group_symop_operation_xyz
x,y,z
-x,-y,z
x,-y,1/2-z
-x,y,1/2-z
-x,-y,-z
x,y,-z
-x,y,1/2+z
x,-y,1/2+z
loop_
_atom_site_type_symbol
_atom_site_label
_atom_site_fract_x
_atom_site_fract_y
_atom_site_fract_z
Si Si1 0.064560 0.830788 0.178426
Si Si2 0.741777 0.795318 0.828442
Si Si3 0.869176 0.703292 0.829420
Si Si4 0.567536 0.576819 0.819388
Si Si5 0.812328 0.079379 0.179327
Si Si6 0.674371 0.330834 0.176886
Si Si7 0.800420 0.578841 0.323591
O O1 0.077783 0.749234 0.240817
O O2 0.120249 0.886169 0.225835
O O3 0.000000 0.861642 0.250000
O O4 0.057024 0.825773 0.000000
O O5 0.804983 0.748434 0.827996
O O6 0.755096 0.872405 0.746487
O O7 0.688714 0.751347 0.734415
O O8 0.718056 0.809288 0.000000
O O9 0.857510 0.625802 0.747919
O O10 0.893034 0.688991 0.000000
O O11 0.591615 0.500000 0.750000
O O12 0.500000 0.597734 0.750000
O O13 0.615863 0.640167 0.774206
O O14 0.562642 0.569641 0.000000
O O15 0.807557 0.000000 0.250000
O O16 0.804378 0.075532 0.000000
O O17 0.733556 0.383255 0.208859
O O18 0.656725 0.328555 0.000000
O O19 0.799159 0.500000 0.250000
O O20 0.814172 0.571212 0.500000
#
# Coordination Sequence:
#
# PCOD8202748 Si02
#       7
#     8   8   8   8   8   8   8
#     4  10  20  33  49  68  90 118 153 187 222 267
#     4   9  17  30  48  69  92 120 153 189 230 276
#     4   9  17  30  47  65  87 114 146 185 229 273
#     4  11  21  33  47  65  93 130 169 206 244 283
#     4  10  20  33  49  70  97 126 153 186 228 275
#     4  10  19  31  47  68  94 124 159 197 234 276
#     4  10  19  29  44  66  91 117 148 188 233 277
#
# _framework density 16.466695000000001
#
# number of rings (size 3 to 8) (size 9 to 14) (size 15 to 20)
#    0.000    2.143    0.000    4.714    0.000    8.286 
#    0.000    1.429    0.000    0.429    0.000    3.000 
#    0.000    0.571    0.000    5.714    0.000    3.429 
#
# Total GULP energy -694501.994818 kJ/mol
# GULP energy per Si atom -12401.821336 kJ/mol
# Density = 1.642922 g / cm^3
# Si number density = 16.466695 Si / 1000 Ang^3
#
#
#
# Elastic Constant Matrix: (Units=GPa)
#
#
# Indices 1 2 3 4 5 6 
#
# 1 56.4714 47.3755 35.4692 0.0000 0.0000 0.0000
# 2 47.3755 119.7825 69.1279 0.0000 0.0000 0.0000
# 3 35.4692 69.1279 109.0165 0.0000 0.0000 0.0000
# 4 0.0000 0.0000 0.0000 31.9923 0.0000 0.0000
# 5 0.0000 0.0000 0.0000 0.0000 26.3426 0.0000
# 6 0.0000 0.0000 0.0000 0.0000 0.0000 23.3789
#
#
#
# Elastic Compliance Matrix: (Units=1/GPa)
#
#
# Indices 1 2 3 4 5 6 
#
# 1 0.027190 -0.008909 -0.003197 0.000000 0.000000 0.000000
# 2 -0.008909 0.016086 -0.007302 0.000000 0.000000 0.000000
# 3 -0.003197 -0.007302 0.014843 0.000000 0.000000 0.000000
# 4 0.000000 0.000000 0.000000 0.031258 0.000000 0.000000
# 5 0.000000 0.000000 0.000000 0.000000 0.037961 0.000000
# 6 0.000000 0.000000 0.000000 0.000000 0.000000 0.042774
#
#
# Mechanical properties :
#
#
# Convention : Reuss Voigt Hill
#
# Bulk Modulus (GPa) = 51.80358 65.46840 58.63599
# Shear Modulus (GPa) = 23.21674 25.22927 24.22300
#
# Velocity S-wave (km/s) = 3.75896 3.91850 3.83956
# Velocity P-wave (km/s) = 7.09702 7.76642 7.43925
#
# Compressibility (1/GPa) = 0.01930368
#
# Stress axis : x y z
#
# Youngs Moduli (GPa) = 36.77795 62.16637 67.37101
#
# Poissons Ratio (x) = 0.55383 0.21541
# Poissons Ratio (y) = 0.32765 0.49192
# Poissons Ratio (z) = 0.11759 0.45391
#
# Static dielectric constant tensor:
#      x y z
#    x 2.932510 0.000000 0.000000 
#    y 0.000000 2.896970 0.000000 
#    z 0.000000 0.000000 3.304820 
# 
# 
# High freq. dielectric constant tensor:
#      x y z
#    x 1.600100 0.000000 0.000000 
#    y 0.000000 1.622070 0.000000 
#    z 0.000000 0.000000 1.657200 
# 
# From -- ./inp_files/4077.got.cif
#   From: 2010.03.12/outbox.cif.g09.slc.cpg/sg49_3_cif.got.tgz:4077.got - 2010.04.14 03:58:27.
