data_PCOD8202474
_publ_section_title
;
Structure prediction by ZEFSAII (Michael W. Deem and Ramdas Pophale) SiO2 
 PCOD8202474
Probable space group: P C C M
;
_chemical_formula_sum "Si O2"
_cell_formula_units_Z 56
_cell_length_a 18.395358
_cell_length_b 21.363290
_cell_length_c 8.756482
_cell_angle_alpha 90.000000
_cell_angle_beta 90.000000
_cell_angle_gamma 90.000000
_cell_volume 3441.169298
_symmetry_space_group_name_H-M "P C C M"
_symmetry_group_IT_number 49
_symmetry_cell_setting 'orthorhombic'
loop_
_space_group_symop_operation_xyz
x,y,z
-x,-y,z
x,-y,1/2-z
-x,y,1/2-z
-x,-y,-z
x,y,-z
-x,y,1/2+z
x,-y,1/2+z
loop_
_atom_site_type_symbol
_atom_site_label
_atom_site_fract_x
_atom_site_fract_y
_atom_site_fract_z
Si Si1 0.078962 0.564571 0.317864
Si Si2 0.838760 0.686334 0.179066
Si Si3 0.288742 0.255824 0.668242
Si Si4 0.661176 0.934512 0.181557
Si Si5 0.794173 0.874502 0.328516
Si Si6 0.078869 0.190787 0.181351
Si Si7 0.422429 0.819020 0.817766
O O1 0.110677 0.500000 0.250000
O O2 0.073906 0.560295 0.500000
O O3 0.131285 0.620224 0.260201
O O4 0.000000 0.578123 0.250000
O O5 0.754530 0.694732 0.227505
O O6 0.889189 0.742786 0.241498
O O7 0.841856 0.687362 0.000000
O O8 0.292529 0.285523 0.500000
O O9 0.246237 0.191073 0.665042
O O10 0.369675 0.239303 0.728113
O O11 0.743849 0.922835 0.236491
O O12 0.605485 0.882815 0.242869
O O13 0.633957 0.000000 0.250000
O O14 0.658556 0.935586 0.000000
O O15 0.807682 0.900021 0.500000
O O16 0.870633 0.865822 0.241513
O O17 0.000000 0.181037 0.250000
O O18 0.075494 0.188331 0.000000
O O19 0.500000 0.801256 0.750000
O O20 0.424246 0.827706 0.000000
#
# Coordination Sequence:
#
# PCOD8202474 Si02
#       7
#     8   8   8   8   8   8   8
#     4  10  19  30  42  60  87 123 161 197 232 270
#     4   9  18  29  43  63  88 117 154 191 226 267
#     4   8  16  29  46  66  89 115 146 181 221 264
#     4  11  21  34  51  70  91 119 152 185 218 261
#     4   9  17  31  47  65  88 114 145 184 225 269
#     4  10  18  28  43  65  89 115 146 186 232 275
#     4  10  20  34  50  72  98 124 150 180 219 265
#
# _framework density 16.273537999999999
#
# number of rings (size 3 to 8) (size 9 to 14) (size 15 to 20)
#    0.000    2.429    0.000    4.714    0.000    6.000 
#    0.000    1.429    0.000    0.429    0.000    3.000 
#    0.000    0.571    0.000    6.286    0.000    4.571 
#
# Total GULP energy -694221.129884 kJ/mol
# GULP energy per Si atom -12396.805891 kJ/mol
# Density = 1.623650 g / cm^3
# Si number density = 16.273538 Si / 1000 Ang^3
#
#
#
# Elastic Constant Matrix: (Units=GPa)
#
#
# Indices 1 2 3 4 5 6 
#
# 1 116.1195 33.4058 32.9120 0.0000 0.0000 0.0000
# 2 33.4058 50.4143 19.0813 0.0000 0.0000 0.0000
# 3 32.9120 19.0813 80.8464 0.0000 0.0000 0.0000
# 4 0.0000 0.0000 0.0000 20.9866 0.0000 0.0000
# 5 0.0000 0.0000 0.0000 0.0000 30.2999 0.0000
# 6 0.0000 0.0000 0.0000 0.0000 0.0000 51.0226
#
#
#
# Elastic Compliance Matrix: (Units=1/GPa)
#
#
# Indices 1 2 3 4 5 6 
#
# 1 0.011312 -0.006317 -0.003114 0.000000 0.000000 0.000000
# 2 -0.006317 0.025309 -0.003402 0.000000 0.000000 0.000000
# 3 -0.003114 -0.003402 0.014440 0.000000 0.000000 0.000000
# 4 0.000000 0.000000 0.000000 0.047650 0.000000 0.000000
# 5 0.000000 0.000000 0.000000 0.000000 0.033003 0.000000
# 6 0.000000 0.000000 0.000000 0.000000 0.000000 0.019599
#
#
# Mechanical properties :
#
#
# Convention : Reuss Voigt Hill
#
# Bulk Modulus (GPa) = 39.37793 46.46428 42.92111
# Shear Modulus (GPa) = 26.96251 31.26055 29.11153
#
# Velocity S-wave (km/s) = 4.07484 4.38761 4.23411
# Velocity P-wave (km/s) = 6.81095 7.36765 7.09476
#
# Compressibility (1/GPa) = 0.02539494
#
# Stress axis : x y z
#
# Youngs Moduli (GPa) = 88.40425 39.51186 69.25329
#
# Poissons Ratio (x) = 0.24959 0.21566
# Poissons Ratio (y) = 0.55843 0.23559
# Poissons Ratio (z) = 0.27529 0.13441
#
# Static dielectric constant tensor:
#      x y z
#    x 3.216220 0.000000 0.000000 
#    y 0.000000 3.052910 0.000000 
#    z 0.000000 0.000000 3.194810 
# 
# 
# High freq. dielectric constant tensor:
#      x y z
#    x 1.617290 0.000000 0.000000 
#    y 0.000000 1.591660 0.000000 
#    z 0.000000 0.000000 1.639270 
# 
# From -- ./inp_files/5202.got.cif
#   From: 2010.03.12/outbox.cif.g09.slc.cpg/sg49_3_cif.got.tgz:5202.got - 2010.04.14 03:58:27.
