data_PCOD8202359
_publ_section_title
;
Structure prediction by ZEFSAII (Michael W. Deem and Ramdas Pophale) SiO2 
 PCOD8202359
Probable space group: P C C M
;
_chemical_formula_sum "Si O2"
_cell_formula_units_Z 64
_cell_length_a 28.319792
_cell_length_b 14.697244
_cell_length_c 8.440256
_cell_angle_alpha 90.000000
_cell_angle_beta 90.000000
_cell_angle_gamma 90.000000
_cell_volume 3513.027770
_symmetry_space_group_name_H-M "P C C M"
_symmetry_group_IT_number 49
_symmetry_cell_setting 'orthorhombic'
loop_
_space_group_symop_operation_xyz
x,y,z
-x,-y,z
x,-y,1/2-z
-x,y,1/2-z
-x,-y,-z
x,y,-z
-x,y,1/2+z
x,-y,1/2+z
loop_
_atom_site_type_symbol
_atom_site_label
_atom_site_fract_x
_atom_site_fract_y
_atom_site_fract_z
Si Si1 0.587201 0.902463 0.185429
Si Si2 0.630785 0.596521 0.687398
Si Si3 0.231150 0.781313 0.314675
Si Si4 0.853858 0.102717 0.187472
Si Si5 0.450877 0.724787 0.185659
Si Si6 0.737895 0.401680 0.188012
Si Si7 0.689522 0.904874 0.685155
Si Si8 0.952141 0.102021 0.688293
O O1 0.553063 0.829530 0.265396
O O2 0.641333 0.880639 0.226652
O O3 0.571667 0.000000 0.250000
O O4 0.579702 0.898830 0.000000
O O5 0.613233 0.500000 0.750000
O O6 0.630061 0.596097 0.500000
O O7 0.594122 0.670442 0.756931
O O8 0.684058 0.617155 0.745676
O O9 0.240605 0.793167 0.500000
O O10 0.182858 0.830145 0.268962
O O11 0.228944 0.675110 0.266895
O O12 0.273462 0.825542 0.215105
O O13 0.904972 0.144442 0.234945
O O14 0.847207 0.000000 0.250000
O O15 0.846806 0.102819 0.000000
O O16 0.500000 0.683955 0.250000
O O17 0.451064 0.714358 0.000000
O O18 0.754919 0.500000 0.250000
O O19 0.742997 0.398060 0.000000
O O20 0.678578 0.913545 0.500000
O O21 0.710620 0.000000 0.750000
O O22 0.948891 0.105661 0.500000
O O23 0.000000 0.152615 0.750000
O O24 0.954591 0.000000 0.750000
#
# Coordination Sequence:
#
# PCOD8202359 Si02
#       8
#     8   8   8   8   8   8   8   8
#     4  11  22  38  58  79 101 131 167 207 248 294
#     4   9  20  37  59  81 105 131 161 199 244 295
#     4  12  23  35  51  75 105 140 176 215 261 312
#     4  11  21  34  49  71 104 143 183 226 270 317
#     4  11  23  39  56  79 106 134 165 203 246 295
#     4  10  20  37  58  81 104 133 169 211 257 307
#     4  11  21  35  53  76 104 136 171 209 249 299
#     4  10  17  28  45  67  95 134 181 227 269 313
#
# _framework density 18.217903
#
# number of rings (size 3 to 8) (size 9 to 14) (size 15 to 20)
#    0.000    1.375    0.000    9.375    0.000    3.000 
#    0.000    2.500    0.000    0.000    0.000    0.000 
#    0.000    0.500    0.000    5.000    0.000    3.000 
#
# Total GULP energy -793711.417240 kJ/mol
# GULP energy per Si atom -12401.740894 kJ/mol
# Density = 1.817644 g / cm^3
# Si number density = 18.217903 Si / 1000 Ang^3
#
#
#
# Elastic Constant Matrix: (Units=GPa)
#
#
# Indices 1 2 3 4 5 6 
#
# 1 77.5470 45.4367 9.8843 0.0000 0.0000 0.0000
# 2 45.4367 93.3044 16.5576 0.0000 0.0000 0.0000
# 3 9.8843 16.5576 61.2353 0.0000 0.0000 0.0000
# 4 0.0000 0.0000 0.0000 28.0764 0.0000 0.0000
# 5 0.0000 0.0000 0.0000 0.0000 29.8677 0.0000
# 6 0.0000 0.0000 0.0000 0.0000 0.0000 21.0751
#
#
#
# Elastic Compliance Matrix: (Units=1/GPa)
#
#
# Indices 1 2 3 4 5 6 
#
# 1 0.018062 -0.008696 -0.000564 0.000000 0.000000 0.000000
# 2 -0.008696 0.015444 -0.002772 0.000000 0.000000 0.000000
# 3 -0.000564 -0.002772 0.017171 0.000000 0.000000 0.000000
# 4 0.000000 0.000000 0.000000 0.035617 0.000000 0.000000
# 5 0.000000 0.000000 0.000000 0.000000 0.033481 0.000000
# 6 0.000000 0.000000 0.000000 0.000000 0.000000 0.047449
#
#
# Mechanical properties :
#
#
# Convention : Reuss Voigt Hill
#
# Bulk Modulus (GPa) = 37.57571 41.76044 39.66807
# Shear Modulus (GPa) = 24.97989 26.48438 25.73214
#
# Velocity S-wave (km/s) = 3.70695 3.81695 3.76235
# Velocity P-wave (km/s) = 6.24440 6.51137 6.37928
#
# Compressibility (1/GPa) = 0.02661294
#
# Stress axis : x y z
#
# Youngs Moduli (GPa) = 55.36368 64.74922 58.23712
#
# Poissons Ratio (x) = 0.56304 0.03286
# Poissons Ratio (y) = 0.48143 0.16146
# Poissons Ratio (z) = 0.03124 0.17951
#
# Static dielectric constant tensor:
#      x y z
#    x 3.945430 0.000000 0.000000 
#    y 0.000000 2.950000 0.000000 
#    z 0.000000 0.000000 3.430600 
# 
# 
# High freq. dielectric constant tensor:
#      x y z
#    x 1.697810 0.000000 0.000000 
#    y 0.000000 1.682270 0.000000 
#    z 0.000000 0.000000 1.723790 
# 
# From -- ./inp_files/7079.got.cif
#   From: 2010.03.12/outbox.cif.g09.slc.cpg/sg49_4_cif.got.tgz:7079.got - 2010.04.14 03:58:27.
