data_PCOD8202372
_publ_section_title
;
Structure prediction by ZEFSAII (Michael W. Deem and Ramdas Pophale) SiO2 
 PCOD8202372
Probable space group: P C C M
;
_chemical_formula_sum "Si O2"
_cell_formula_units_Z 48
_cell_length_a 19.015732
_cell_length_b 15.668040
_cell_length_c 8.706106
_cell_angle_alpha 90.000000
_cell_angle_beta 90.000000
_cell_angle_gamma 90.000000
_cell_volume 2593.890689
_symmetry_space_group_name_H-M "P C C M"
_symmetry_group_IT_number 49
_symmetry_cell_setting 'orthorhombic'
loop_
_space_group_symop_operation_xyz
x,y,z
-x,-y,z
x,-y,1/2-z
-x,y,1/2-z
-x,-y,-z
x,y,-z
-x,y,1/2+z
x,-y,1/2+z
loop_
_atom_site_type_symbol
_atom_site_label
_atom_site_fract_x
_atom_site_fract_y
_atom_site_fract_z
Si Si1 0.163211 0.589534 0.678971
Si Si2 0.576641 0.269349 0.179409
Si Si3 0.327963 0.411730 0.823053
Si Si4 0.078173 0.914796 0.316888
Si Si5 0.576563 0.918518 0.678364
Si Si6 0.922841 0.741910 0.682189
O O1 0.138004 0.500000 0.750000
O O2 0.142496 0.593206 0.500000
O O3 0.245731 0.601952 0.704638
O O4 0.125412 0.662995 0.773647
O O5 0.500000 0.283527 0.250000
O O6 0.632428 0.334272 0.245332
O O7 0.608859 0.174744 0.214810
O O8 0.568231 0.284228 0.000000
O O9 0.354035 0.500000 0.750000
O O10 0.347968 0.414296 0.000000
O O11 0.078330 0.916884 0.500000
O O12 0.113187 0.827399 0.254686
O O13 0.000000 0.914020 0.250000
O O14 0.116721 0.000000 0.250000
O O15 0.500000 0.917870 0.750000
O O16 0.570841 0.934890 0.500000
O O17 0.619303 0.000000 0.750000
O O18 0.927818 0.751794 0.500000
O O19 0.000000 0.726263 0.750000
#
# Coordination Sequence:
#
# PCOD8202372 Si02
#       6
#     8   8   8   8   8   8
#     4  10  21  38  57  78 102 133 171 211 256 311
#     4  10  20  33  51  77 107 135 170 212 256 301
#     4  10  21  37  57  77 101 133 170 210 255 307
#     4  10  17  28  46  71 103 137 172 210 253 303
#     4   9  16  26  43  68  98 132 165 203 245 293
#     4  11  21  34  53  79 108 138 172 214 259 303
#
# _framework density 18.505019999999998
#
# number of rings (size 3 to 8) (size 9 to 14) (size 15 to 20)
#    0.000    2.000    0.000    7.000    0.000    4.667 
#    0.000    3.333    0.000    1.000    0.000    2.333 
#    0.000    0.000    0.000    0.000    0.000    0.000 
#
# Total GULP energy -594960.858705 kJ/mol
# GULP energy per Si atom -12395.017890 kJ/mol
# Density = 1.846290 g / cm^3
# Si number density = 18.505020 Si / 1000 Ang^3
#
#
#
# Elastic Constant Matrix: (Units=GPa)
#
#
# Indices 1 2 3 4 5 6 
#
# 1 26.2037 42.8930 32.2885 0.0000 0.0000 0.0000
# 2 42.8930 193.1167 89.2201 0.0000 0.0000 0.0000
# 3 32.2885 89.2201 160.7527 0.0000 0.0000 0.0000
# 4 0.0000 0.0000 0.0000 40.9323 0.0000 0.0000
# 5 0.0000 0.0000 0.0000 0.0000 23.1165 0.0000
# 6 0.0000 0.0000 0.0000 0.0000 0.0000 -22.2394
#
#
#
# Elastic Compliance Matrix: (Units=1/GPa)
#
#
# Indices 1 2 3 4 5 6 
#
# 1 0.065039 -0.011311 -0.006786 0.000000 0.000000 0.000000
# 2 -0.011311 0.008931 -0.002685 0.000000 0.000000 0.000000
# 3 -0.006786 -0.002685 0.009074 0.000000 0.000000 0.000000
# 4 0.000000 0.000000 0.000000 0.024431 0.000000 0.000000
# 5 0.000000 0.000000 0.000000 0.000000 0.043259 0.000000
# 6 0.000000 0.000000 0.000000 0.000000 0.000000 -0.044965
#
#
# Mechanical properties :
#
#
# Convention : Reuss Voigt Hill
#
# Bulk Modulus (GPa) = 24.10772 78.76405 51.43589
# Shear Modulus (GPa) = 31.02548 22.73999 26.88274
#
# Velocity S-wave (km/s) = 4.09907 3.50931 3.81560
# Velocity P-wave (km/s) = 5.95476 7.68611 6.87515
#
# Compressibility (1/GPa) = 0.04148048
#
# Stress axis : x y z
#
# Youngs Moduli (GPa) = 15.37544 111.97168 110.20565
#
# Poissons Ratio (x) = 1.26646 0.74786
# Poissons Ratio (y) = 0.17390 0.29589
# Poissons Ratio (z) = 0.10434 0.30064
#
# Static dielectric constant tensor:
#      x y z
#    x 2.907140 0.000000 0.000000 
#    y 0.000000 4.513610 0.000000 
#    z 0.000000 0.000000 3.605090 
# 
# 
# High freq. dielectric constant tensor:
#      x y z
#    x 1.660020 0.000000 0.000000 
#    y 0.000000 1.749690 0.000000 
#    z 0.000000 0.000000 1.741870 
# 
# From -- ./inp_files/4885.got.cif
#   From: 2010.03.12/outbox.cif.g09.slc.cpg/sg49_3_cif.got.tgz:4885.got - 2010.04.14 03:58:27.
