data_PCOD8202244
_publ_section_title
;
Structure prediction by ZEFSAII (Michael W. Deem and Ramdas Pophale) SiO2 
 PCOD8202244
Probable space group: P C C M
;
_chemical_formula_sum "Si O2"
_cell_formula_units_Z 64
_cell_length_a 17.918403
_cell_length_b 12.518328
_cell_length_c 17.982508
_cell_angle_alpha 90.000000
_cell_angle_beta 90.000000
_cell_angle_gamma 90.000000
_cell_volume 4033.628424
_symmetry_space_group_name_H-M "P C C M"
_symmetry_group_IT_number 49
_symmetry_cell_setting 'orthorhombic'
loop_
_space_group_symop_operation_xyz
x,y,z
-x,-y,z
x,-y,1/2-z
-x,y,1/2-z
-x,-y,-z
x,y,-z
-x,y,1/2+z
x,-y,1/2+z
loop_
_atom_site_type_symbol
_atom_site_label
_atom_site_fract_x
_atom_site_fract_y
_atom_site_fract_z
Si Si1 0.582229 0.952925 0.585538
Si Si2 0.315454 0.597219 0.195763
Si Si3 0.316566 0.087741 0.809173
Si Si4 0.577394 0.223600 0.791106
Si Si5 0.780587 0.278330 0.306148
Si Si6 0.915377 0.375222 0.764904
Si Si7 0.233182 0.458443 0.082501
Si Si8 0.922918 0.560347 0.418462
O O1 0.604547 0.927396 0.500000
O O2 0.644647 0.033957 0.618784
O O3 0.500000 0.000000 0.589383
O O4 0.577096 0.846531 0.634429
O O5 0.333078 0.500000 0.250000
O O6 0.392058 0.661288 0.182250
O O7 0.257766 0.680993 0.230738
O O8 0.278449 0.555736 0.119843
O O9 0.374446 0.168988 0.773067
O O10 0.241656 0.156499 0.827466
O O11 0.291303 0.000000 0.750000
O O12 0.500000 0.241377 0.750000
O O13 0.868191 0.294867 0.287243
O O14 0.752414 0.348358 0.375105
O O15 0.892885 0.500000 0.750000
O O16 0.904630 0.354091 0.853709
O O17 0.000000 0.349093 0.750000
O O18 0.144344 0.475962 0.080472
O O19 0.265843 0.446571 0.000000
O O20 0.929972 0.615663 0.500000
O O21 0.000000 0.500000 0.397633
#
# Coordination Sequence:
#
# PCOD8202244 Si02
#       8
#     8   8   8   8   8   8   8   8
#     4  10  19  32  51  74  97 117 148 204 265 301
#     4   9  18  31  46  65  94 129 158 191 228 281
#     4   9  19  32  51  70  89 119 152 202 251 295
#     4  10  18  31  52  72  90 121 159 197 237 294
#     4  10  17  30  46  67  92 124 165 198 237 298
#     4  11  16  26  45  68  95 130 168 206 244 285
#     4  10  18  28  43  65  97 132 158 191 235 285
#     4  10  17  25  39  63  95 127 159 199 240 277
#
# _framework density 15.866607999999999
#
# number of rings (size 3 to 8) (size 9 to 14) (size 15 to 20)
#    0.000    2.125    5.000    0.375    0.000    1.250 
#    0.000    0.000    0.000    0.375    0.000    3.500 
#    0.000    0.000    0.000   12.875    0.000    0.000 
#
# Total GULP energy -793019.334023 kJ/mol
# GULP energy per Si atom -12390.927094 kJ/mol
# Density = 1.583049 g / cm^3
# Si number density = 15.866608 Si / 1000 Ang^3
#
#
#
# Elastic Constant Matrix: (Units=GPa)
#
#
# Indices 1 2 3 4 5 6 
#
# 1 84.5743 50.4124 35.8833 0.0000 0.0000 0.0000
# 2 50.4124 69.1005 30.0138 0.0000 0.0000 0.0000
# 3 35.8833 30.0138 120.1180 0.0000 0.0000 0.0000
# 4 0.0000 0.0000 0.0000 8.5699 0.0000 0.0000
# 5 0.0000 0.0000 0.0000 0.0000 19.8855 0.0000
# 6 0.0000 0.0000 0.0000 0.0000 0.0000 19.6941
#
#
#
# Elastic Compliance Matrix: (Units=1/GPa)
#
#
# Indices 1 2 3 4 5 6 
#
# 1 0.021754 -0.014636 -0.002841 0.000000 0.000000 0.000000
# 2 -0.014636 0.026081 -0.002145 0.000000 0.000000 0.000000
# 3 -0.002841 -0.002145 0.009710 0.000000 0.000000 0.000000
# 4 0.000000 0.000000 0.000000 0.116687 0.000000 0.000000
# 5 0.000000 0.000000 0.000000 0.000000 0.050288 0.000000
# 6 0.000000 0.000000 0.000000 0.000000 0.000000 0.050777
#
#
# Mechanical properties :
#
#
# Convention : Reuss Voigt Hill
#
# Bulk Modulus (GPa) = 54.64422 56.26796 55.45609
# Shear Modulus (GPa) = 15.59376 20.12878 17.86127
#
# Velocity S-wave (km/s) = 3.13837 3.56564 3.35881
# Velocity P-wave (km/s) = 6.90268 7.24513 7.07598
#
# Compressibility (1/GPa) = 0.01830020
#
# Stress axis : x y z
#
# Youngs Moduli (GPa) = 45.96899 38.34190 102.98851
#
# Poissons Ratio (x) = 0.56119 0.29263
# Poissons Ratio (y) = 0.67282 0.22086
# Poissons Ratio (z) = 0.13062 0.08222
#
# Static dielectric constant tensor:
#      x y z
#    x 3.095090 0.000000 0.000000 
#    y 0.000000 2.906470 0.000000 
#    z 0.000000 0.000000 3.290890 
# 
# 
# High freq. dielectric constant tensor:
#      x y z
#    x 1.605640 0.000000 0.000000 
#    y 0.000000 1.570350 0.000000 
#    z 0.000000 0.000000 1.617610 
# 
# From -- ./inp_files/18352.got.cif
#   From: 2010.03.12/outbox.cif.g09.slc.cpg/sg49_10_cif.got.tgz:18352.got - 2010.04.14 03:58:27.
