data_PCOD8202537
_publ_section_title
;
Structure prediction by ZEFSAII (Michael W. Deem and Ramdas Pophale) SiO2 
 PCOD8202537
Probable space group: P C C M
;
_chemical_formula_sum "Si O2"
_cell_formula_units_Z 64
_cell_length_a 23.000085
_cell_length_b 18.432681
_cell_length_c 8.887810
_cell_angle_alpha 90.000000
_cell_angle_beta 90.000000
_cell_angle_gamma 90.000000
_cell_volume 3768.015755
_symmetry_space_group_name_H-M "P C C M"
_symmetry_group_IT_number 49
_symmetry_cell_setting 'orthorhombic'
loop_
_space_group_symop_operation_xyz
x,y,z
-x,-y,z
x,-y,1/2-z
-x,y,1/2-z
-x,-y,-z
x,y,-z
-x,y,1/2+z
x,-y,1/2+z
loop_
_atom_site_type_symbol
_atom_site_label
_atom_site_fract_x
_atom_site_fract_y
_atom_site_fract_z
Si Si1 0.444047 0.292765 0.826561
Si Si2 0.665396 0.324273 0.165402
Si Si3 0.440845 0.125971 0.177066
Si Si4 0.936961 0.575715 0.319997
Si Si5 0.763699 0.425395 0.830902
Si Si6 0.314859 0.926107 0.323747
Si Si7 0.248680 0.782633 0.674845
Si Si8 0.847396 0.678207 0.173652
O O1 0.500000 0.328250 0.750000
O O2 0.387733 0.336720 0.776845
O O3 0.436299 0.209698 0.775637
O O4 0.453113 0.301097 0.000000
O O5 0.697077 0.401745 0.155527
O O6 0.708984 0.262841 0.220928
O O7 0.643144 0.301049 0.000000
O O8 0.500000 0.091857 0.250000
O O9 0.380257 0.091643 0.237957
O O10 0.446543 0.115638 0.000000
O O11 0.910420 0.500000 0.250000
O O12 0.940263 0.568652 0.500000
O O13 0.900558 0.648370 0.275952
O O14 0.000000 0.587282 0.250000
O O15 0.769314 0.500000 0.750000
O O16 0.793435 0.371609 0.714130
O O17 0.792342 0.426332 0.000000
O O18 0.319875 0.937015 0.500000
O O19 0.264945 0.866071 0.287183
O O20 0.292305 0.000000 0.250000
O O21 0.263006 0.766091 0.500000
O O22 0.180004 0.759767 0.705771
O O23 0.866295 0.670971 0.000000
#
# Coordination Sequence:
#
# PCOD8202537 Si02
#       8
#     8   8   8   8   8   8   8   8
#     4  10  18  30  47  66  87 112 144 185 231 284
#     4  10  19  30  47  69  90 113 147 190 235 281
#     4   9  18  31  46  63  88 116 151 190 232 286
#     4  11  21  34  51  74 108 144 179 211 239 280
#     4  10  20  32  46  68  95 122 155 194 234 280
#     4  10  20  34  48  67  93 125 159 197 243 294
#     4   9  18  34  51  67  93 125 161 199 239 288
#     4  10  19  32  52  73  96 132 169 204 243 278
#
# _framework density 16.985067000000001
#
# number of rings (size 3 to 8) (size 9 to 14) (size 15 to 20)
#    0.000    2.125    1.250    3.375    0.000    3.750 
#    0.000    1.250    0.000    0.375    0.000    2.625 
#    0.000    0.500    0.000    5.750    0.000    1.750 
#
# Total GULP energy -792835.161539 kJ/mol
# GULP energy per Si atom -12388.049399 kJ/mol
# Density = 1.694641 g / cm^3
# Si number density = 16.985067 Si / 1000 Ang^3
#
#
#
# Elastic Constant Matrix: (Units=GPa)
#
#
# Indices 1 2 3 4 5 6 
#
# 1 86.6510 39.2973 29.4909 0.0000 0.0000 0.0000
# 2 39.2973 52.7042 12.5075 0.0000 0.0000 0.0000
# 3 29.4909 12.5075 54.7156 0.0000 0.0000 0.0000
# 4 0.0000 0.0000 0.0000 22.2191 0.0000 0.0000
# 5 0.0000 0.0000 0.0000 0.0000 26.2600 0.0000
# 6 0.0000 0.0000 0.0000 0.0000 0.0000 25.3943
#
#
#
# Elastic Compliance Matrix: (Units=1/GPa)
#
#
# Indices 1 2 3 4 5 6 
#
# 1 0.020205 -0.013197 -0.007874 0.000000 0.000000 0.000000
# 2 -0.013197 0.028682 0.000557 0.000000 0.000000 0.000000
# 3 -0.007874 0.000557 0.022393 0.000000 0.000000 0.000000
# 4 0.000000 0.000000 0.000000 0.045006 0.000000 0.000000
# 5 0.000000 0.000000 0.000000 0.000000 0.038081 0.000000
# 6 0.000000 0.000000 0.000000 0.000000 0.000000 0.039379
#
#
# Mechanical properties :
#
#
# Convention : Reuss Voigt Hill
#
# Bulk Modulus (GPa) = 33.05587 39.62912 36.34249
# Shear Modulus (GPa) = 20.42005 22.29303 21.35654
#
# Velocity S-wave (km/s) = 3.47109 3.62679 3.54979
# Velocity P-wave (km/s) = 5.96394 6.39691 6.18422
#
# Compressibility (1/GPa) = 0.03025182
#
# Stress axis : x y z
#
# Youngs Moduli (GPa) = 49.49211 34.86555 44.65708
#
# Poissons Ratio (x) = 0.46012 0.35161
# Poissons Ratio (y) = 0.65314 -0.02486
# Poissons Ratio (z) = 0.38968 -0.01941
#
# Static dielectric constant tensor:
#      x y z
#    x 3.347610 0.000000 0.000000 
#    y 0.000000 3.898800 0.000000 
#    z 0.000000 0.000000 3.293540 
# 
# 
# High freq. dielectric constant tensor:
#      x y z
#    x 1.640400 0.000000 0.000000 
#    y 0.000000 1.621310 0.000000 
#    z 0.000000 0.000000 1.668010 
# 
# From -- ./inp_files/5397.got.cif
#   From: 2010.03.12/outbox.cif.g09.slc.cpg/sg49_3_cif.got.tgz:5397.got - 2010.04.14 03:58:27.
