data_PCOD8202993
_publ_section_title
;
Structure prediction by ZEFSAII (Michael W. Deem and Ramdas Pophale) SiO2 
 PCOD8202993
Probable space group: P C C M
;
_chemical_formula_sum "Si O2"
_cell_formula_units_Z 64
_cell_length_a 14.917684
_cell_length_b 24.677768
_cell_length_c 8.826651
_cell_angle_alpha 90.000000
_cell_angle_beta 90.000000
_cell_angle_gamma 90.000000
_cell_volume 3249.400444
_symmetry_space_group_name_H-M "P C C M"
_symmetry_group_IT_number 49
_symmetry_cell_setting 'orthorhombic'
loop_
_space_group_symop_operation_xyz
x,y,z
-x,-y,z
x,-y,1/2-z
-x,y,1/2-z
-x,-y,-z
x,y,-z
-x,y,1/2+z
x,-y,1/2+z
loop_
_atom_site_type_symbol
_atom_site_label
_atom_site_fract_x
_atom_site_fract_y
_atom_site_fract_z
Si Si1 0.412414 0.762634 0.175969
Si Si2 0.090254 0.186518 0.321323
Si Si3 0.592946 0.058183 0.679615
Si Si4 0.132697 0.699265 0.325734
Si Si5 0.913169 0.590533 0.322060
Si Si6 0.333536 0.662948 0.673331
Si Si7 0.281123 0.555359 0.820759
Si Si8 0.280366 0.857632 0.825085
O O1 0.500000 0.790686 0.250000
O O2 0.403301 0.703673 0.250915
O O3 0.326550 0.799970 0.208775
O O4 0.428766 0.754688 0.000000
O O5 0.079540 0.194014 0.500000
O O6 0.103789 0.244494 0.246001
O O7 0.175108 0.147811 0.284754
O O8 0.000000 0.160008 0.250000
O O9 0.500000 0.080995 0.750000
O O10 0.582371 0.053511 0.500000
O O11 0.675737 0.097052 0.719237
O O12 0.614735 0.000000 0.750000
O O13 0.102003 0.697078 0.500000
O O14 0.083804 0.652307 0.233522
O O15 0.238269 0.691598 0.309336
O O16 0.920969 0.588600 0.500000
O O17 0.822157 0.561712 0.266463
O O18 0.000000 0.560508 0.250000
O O19 0.359626 0.652699 0.500000
O O20 0.338518 0.605557 0.758962
O O21 0.319371 0.500000 0.750000
O O22 0.289768 0.553654 0.000000
O O23 0.294446 0.874192 0.000000
#
# Coordination Sequence:
#
# PCOD8202993 Si02
#       8
#     8   8   8   8   8   8   8   8
#     4  11  22  37  58  87 121 155 189 229 285 347
#     4  11  22  36  54  79 114 156 200 246 292 343
#     4  11  22  38  63  92 126 163 204 247 294 350
#     4  10  19  32  51  74 103 141 186 232 279 335
#     4  10  20  32  47  68  97 132 173 223 280 338
#     4  10  20  35  56  80 108 142 182 228 279 339
#     4  10  21  36  54  74  98 133 177 226 280 340
#     4  10  22  39  59  86 123 162 201 246 294 343
#
# _framework density 19.695941000000001
#
# number of rings (size 3 to 8) (size 9 to 14) (size 15 to 20)
#    0.000    1.625    1.250    4.500    0.000    5.750 
#    0.000    1.250    0.000    0.750    0.000    5.250 
#    0.000    0.000    0.000    0.000    0.000    0.000 
#
# Total GULP energy -793732.691058 kJ/mol
# GULP energy per Si atom -12402.073298 kJ/mol
# Density = 1.965111 g / cm^3
# Si number density = 19.695941 Si / 1000 Ang^3
#
#
#
# Elastic Constant Matrix: (Units=GPa)
#
#
# Indices 1 2 3 4 5 6 
#
# 1 85.9315 32.2427 34.3727 0.0000 0.0000 0.0000
# 2 32.2427 85.4320 40.4104 0.0000 0.0000 0.0000
# 3 34.3727 40.4104 97.8914 0.0000 0.0000 0.0000
# 4 0.0000 0.0000 0.0000 30.8017 0.0000 0.0000
# 5 0.0000 0.0000 0.0000 0.0000 29.8241 0.0000
# 6 0.0000 0.0000 0.0000 0.0000 0.0000 16.4944
#
#
#
# Elastic Compliance Matrix: (Units=1/GPa)
#
#
# Indices 1 2 3 4 5 6 
#
# 1 0.014467 -0.003799 -0.003512 0.000000 0.000000 0.000000
# 2 -0.003799 0.015543 -0.005082 0.000000 0.000000 0.000000
# 3 -0.003512 -0.005082 0.013546 0.000000 0.000000 0.000000
# 4 0.000000 0.000000 0.000000 0.032466 0.000000 0.000000
# 5 0.000000 0.000000 0.000000 0.000000 0.033530 0.000000
# 6 0.000000 0.000000 0.000000 0.000000 0.000000 0.060627
#
#
# Mechanical properties :
#
#
# Convention : Reuss Voigt Hill
#
# Bulk Modulus (GPa) = 53.27429 53.70072 53.48751
# Shear Modulus (GPa) = 24.84819 26.23932 25.54376
#
# Velocity S-wave (km/s) = 3.55574 3.65392 3.60516
# Velocity P-wave (km/s) = 6.63060 6.71756 6.67422
#
# Compressibility (1/GPa) = 0.01877078
#
# Stress axis : x y z
#
# Youngs Moduli (GPa) = 69.12152 64.33764 73.81991
#
# Poissons Ratio (x) = 0.24442 0.25923
# Poissons Ratio (y) = 0.26259 0.37518
# Poissons Ratio (z) = 0.24273 0.32699
#
# Static dielectric constant tensor:
#      x y z
#    x 3.730850 0.000000 0.000000 
#    y 0.000000 3.369080 0.000000 
#    z 0.000000 0.000000 3.636110 
# 
# 
# High freq. dielectric constant tensor:
#      x y z
#    x 1.762350 0.000000 0.000000 
#    y 0.000000 1.746590 0.000000 
#    z 0.000000 0.000000 1.780140 
# 
# From -- ./inp_files/4394.got.cif
#   From: 2010.03.12/outbox.cif.g09.slc.cpg/sg49_3_cif.got.tgz:4394.got - 2010.04.14 03:58:27.
