data_PCOD8202894
_publ_section_title
;
Structure prediction by ZEFSAII (Michael W. Deem and Ramdas Pophale) SiO2 
 PCOD8202894
Probable space group: P C C M
;
_chemical_formula_sum "Si O2"
_cell_formula_units_Z 64
_cell_length_a 23.532788
_cell_length_b 19.040574
_cell_length_c 9.008280
_cell_angle_alpha 90.000000
_cell_angle_beta 90.000000
_cell_angle_gamma 90.000000
_cell_volume 4036.410206
_symmetry_space_group_name_H-M "P C C M"
_symmetry_group_IT_number 49
_symmetry_cell_setting 'orthorhombic'
loop_
_space_group_symop_operation_xyz
x,y,z
-x,-y,z
x,-y,1/2-z
-x,y,1/2-z
-x,-y,-z
x,y,-z
-x,y,1/2+z
x,-y,1/2+z
loop_
_atom_site_type_symbol
_atom_site_label
_atom_site_fract_x
_atom_site_fract_y
_atom_site_fract_z
Si Si1 0.115200 0.569860 0.825614
Si Si2 0.833588 0.793417 0.327972
Si Si3 0.668911 0.842883 0.172650
Si Si4 0.058882 0.713866 0.175724
Si Si5 0.244889 0.569159 0.826636
Si Si6 0.232209 0.072486 0.326470
Si Si7 0.721009 0.719773 0.675526
Si Si8 0.557701 0.927626 0.826392
O O1 0.089927 0.500000 0.750000
O O2 0.077668 0.635898 0.774667
O O3 0.180191 0.582297 0.773470
O O4 0.112125 0.559455 0.000000
O O5 0.836184 0.774285 0.500000
O O6 0.893948 0.768911 0.261128
O O7 0.821486 0.875721 0.299730
O O8 0.781440 0.748122 0.263085
O O9 0.710946 0.895523 0.257119
O O10 0.672579 0.763945 0.239214
O O11 0.605029 0.868623 0.199332
O O12 0.685172 0.842669 0.000000
O O13 0.000000 0.734732 0.250000
O O14 0.051803 0.719064 0.000000
O O15 0.271098 0.500000 0.750000
O O16 0.282959 0.637173 0.785070
O O17 0.246341 0.555670 0.000000
O O18 0.243616 0.060697 0.500000
O O19 0.215688 0.000000 0.250000
O O20 0.714800 0.733333 0.500000
O O21 0.500000 0.900172 0.750000
O O22 0.577618 0.000000 0.750000
O O23 0.547250 0.941589 0.000000
#
# Coordination Sequence:
#
# PCOD8202894 Si02
#       8
#     8   8   8   8   8   8   8   8
#     4   9  17  29  45  61  84 113 144 180 216 260
#     4   8  15  30  48  62  82 113 143 173 220 272
#     4  10  20  31  45  70  99 124 154 192 227 261
#     4  10  19  32  47  62  82 110 144 182 220 265
#     4   9  16  27  44  65  88 118 152 183 223 272
#     4  10  19  31  50  71  91 117 145 179 224 272
#     4   9  16  29  48  66  87 120 155 186 227 274
#     4  10  20  32  47  66  93 129 165 195 223 257
#
# _framework density 15.855672999999999
#
# number of rings (size 3 to 8) (size 9 to 14) (size 15 to 20)
#    0.000    2.625    1.250    2.625    0.000    4.250 
#    0.000    4.375    0.000    0.375    0.000    2.625 
#    0.000    0.500    0.000    5.500    0.000    4.000 
#
# Total GULP energy -793380.717237 kJ/mol
# GULP energy per Si atom -12396.573707 kJ/mol
# Density = 1.581958 g / cm^3
# Si number density = 15.855673 Si / 1000 Ang^3
#
#
#
# Elastic Constant Matrix: (Units=GPa)
#
#
# Indices 1 2 3 4 5 6 
#
# 1 84.7101 55.4854 40.3285 0.0000 0.0000 0.0000
# 2 55.4854 118.9633 52.2497 0.0000 0.0000 0.0000
# 3 40.3285 52.2497 67.3889 0.0000 0.0000 0.0000
# 4 0.0000 0.0000 0.0000 27.2275 0.0000 0.0000
# 5 0.0000 0.0000 0.0000 0.0000 22.3594 0.0000
# 6 0.0000 0.0000 0.0000 0.0000 0.0000 24.7521
#
#
#
# Elastic Compliance Matrix: (Units=1/GPa)
#
#
# Indices 1 2 3 4 5 6 
#
# 1 0.018832 -0.005813 -0.006763 0.000000 0.000000 0.000000
# 2 -0.005813 0.014541 -0.007796 0.000000 0.000000 0.000000
# 3 -0.006763 -0.007796 0.024931 0.000000 0.000000 0.000000
# 4 0.000000 0.000000 0.000000 0.036728 0.000000 0.000000
# 5 0.000000 0.000000 0.000000 0.000000 0.044724 0.000000
# 6 0.000000 0.000000 0.000000 0.000000 0.000000 0.040401
#
#
# Mechanical properties :
#
#
# Convention : Reuss Voigt Hill
#
# Bulk Modulus (GPa) = 56.94460 63.02107 59.98284
# Shear Modulus (GPa) = 22.05043 23.06771 22.55907
#
# Velocity S-wave (km/s) = 3.73325 3.81839 3.77606
# Velocity P-wave (km/s) = 7.38750 7.69891 7.54481
#
# Compressibility (1/GPa) = 0.01756093
#
# Stress axis : x y z
#
# Youngs Moduli (GPa) = 53.10029 68.77026 40.11133
#
# Poissons Ratio (x) = 0.39978 0.27126
# Poissons Ratio (y) = 0.30869 0.31269
# Poissons Ratio (z) = 0.35911 0.53610
#
# Static dielectric constant tensor:
#      x y z
#    x 2.859480 0.000000 0.000000 
#    y 0.000000 3.149620 0.000000 
#    z 0.000000 0.000000 2.958760 
# 
# 
# High freq. dielectric constant tensor:
#      x y z
#    x 1.576570 0.000000 0.000000 
#    y 0.000000 1.608100 0.000000 
#    z 0.000000 0.000000 1.604550 
# 
# From -- ./inp_files/6077.got.cif
#   From: 2010.03.12/outbox.cif.g09.slc.cpg/sg49_4_cif.got.tgz:6077.got - 2010.04.14 03:58:27.
