data_PCOD8202882
_publ_section_title
;
Structure prediction by ZEFSAII (Michael W. Deem and Ramdas Pophale) SiO2 
 PCOD8202882
Probable space group: P C C M
;
_chemical_formula_sum "Si O2"
_cell_formula_units_Z 58
_cell_length_a 31.908459
_cell_length_b 5.310158
_cell_length_c 18.133428
_cell_angle_alpha 90.000000
_cell_angle_beta 90.000000
_cell_angle_gamma 90.000000
_cell_volume 3072.509160
_symmetry_space_group_name_H-M "P C C M"
_symmetry_group_IT_number 49
_symmetry_cell_setting 'orthorhombic'
loop_
_space_group_symop_operation_xyz
x,y,z
-x,-y,z
x,-y,1/2-z
-x,y,1/2-z
-x,-y,-z
x,y,-z
-x,y,1/2+z
x,-y,1/2+z
loop_
_atom_site_type_symbol
_atom_site_label
_atom_site_fract_x
_atom_site_fract_y
_atom_site_fract_z
Si Si1 0.173604 0.948548 0.412010
Si Si2 0.044047 0.606035 0.171122
Si Si3 0.732025 0.969696 0.912591
Si Si4 0.594851 0.501777 0.662316
Si Si5 0.000000 0.000000 0.250000
Si Si6 0.684233 0.530570 0.587693
Si Si7 0.127668 0.447473 0.587296
Si Si8 0.452972 0.999925 0.337512
O O1 0.173614 0.944410 0.500000
O O2 0.220876 0.958099 0.380988
O O3 0.150374 0.698268 0.381529
O O4 0.150650 0.198524 0.381976
O O5 0.058293 0.500000 0.250000
O O6 0.079449 0.564224 0.110808
O O7 0.000000 0.500000 0.140912
O O8 0.032758 0.888076 0.191535
O O9 0.708786 0.717877 0.885680
O O10 0.708592 0.220610 0.883581
O O11 0.733638 0.979583 0.000000
O O12 0.600188 0.500000 0.750000
O O13 0.639508 0.519355 0.624972
O O14 0.571522 0.248550 0.634637
O O15 0.569255 0.745671 0.634760
O O16 0.678952 0.536279 0.500000
O O17 0.129203 0.451351 0.500000
O O18 0.500000 0.000000 0.370072
O O19 0.454778 0.000000 0.250000
#
# Coordination Sequence:
#
# PCOD8202882 Si02
#       8
#     8   8   8   8   2   8   8   8
#     4   9  18  32  51  76 104 130 162 205 250 299
#     4   9  20  35  54  74  99 138 175 205 240 296
#     4   9  17  31  51  73  97 130 167 199 239 289
#     4  10  19  31  49  73  98 125 159 202 252 288
#     4   8  18  36  54  70  96 136 182 202 238 288
#     4  10  19  31  51  74  97 128 166 204 238 287
#     4  10  20  33  53  80 105 128 161 210 260 293
#     4   9  17  30  49  71  95 126 166 203 237 289
#
# _framework density 18.877077
#
# number of rings (size 3 to 8) (size 9 to 14) (size 15 to 20)
#    0.000    2.759    0.000    2.069    3.862    5.241 
#    0.000    0.345    0.000    7.448    0.000    0.000 
#    0.000    0.000    0.000    0.000    0.000    0.000 
#
# Total GULP energy -718645.115522 kJ/mol
# GULP energy per Si atom -12390.433026 kJ/mol
# Density = 1.883411 g / cm^3
# Si number density = 18.877077 Si / 1000 Ang^3
#
#
#
# Elastic Constant Matrix: (Units=GPa)
#
#
# Indices 1 2 3 4 5 6 
#
# 1 185.5184 99.7832 23.3204 0.0000 0.0000 0.0000
# 2 99.7832 198.7412 19.4145 0.0000 0.0000 0.0000
# 3 23.3204 19.4145 11.6755 0.0000 0.0000 0.0000
# 4 0.0000 0.0000 0.0000 31.3500 0.0000 0.0000
# 5 0.0000 0.0000 0.0000 0.0000 185.6580 0.0000
# 6 0.0000 0.0000 0.0000 0.0000 0.0000 68.3710
#
#
#
# Elastic Compliance Matrix: (Units=1/GPa)
#
#
# Indices 1 2 3 4 5 6 
#
# 1 0.008578 -0.003144 -0.011906 0.000000 0.000000 0.000000
# 2 -0.003144 0.007160 -0.005626 0.000000 0.000000 0.000000
# 3 -0.011906 -0.005626 0.118785 0.000000 0.000000 0.000000
# 4 0.000000 0.000000 0.000000 0.031898 0.000000 0.000000
# 5 0.000000 0.000000 0.000000 0.000000 0.005386 0.000000
# 6 0.000000 0.000000 0.000000 0.000000 0.000000 0.014626
#
#
# Mechanical properties :
#
#
# Convention : Reuss Voigt Hill
#
# Bulk Modulus (GPa) = 10.73292 75.66349 43.19821
# Shear Modulus (GPa) = 19.31690 73.97027 46.64358
#
# Velocity S-wave (km/s) = 3.20238 6.26660 4.97622
# Velocity P-wave (km/s) = 4.40132 9.61923 7.48002
#
# Compressibility (1/GPa) = 0.09317128
#
# Stress axis : x y z
#
# Youngs Moduli (GPa) = 116.58093 139.67196 8.41857
#
# Poissons Ratio (x) = 0.43908 0.10023
# Poissons Ratio (y) = 0.36649 0.04737
# Poissons Ratio (z) = 1.38797 0.78583
#
# Static dielectric constant tensor:
#      x y z
#    x 3.485060 0.000000 0.000000 
#    y 0.000000 3.988150 0.000000 
#    z 0.000000 0.000000 2.740560 
# 
# 
# High freq. dielectric constant tensor:
#      x y z
#    x 1.747430 0.000000 0.000000 
#    y 0.000000 1.757540 0.000000 
#    z 0.000000 0.000000 1.672070 
# 
# From -- ./inp_files/18427.got.cif
#   From: 2010.03.12/outbox.cif.g09.slc.cpg/sg49_10_cif.got.tgz:18427.got - 2010.04.14 03:58:27.
