data_PCOD8202738
_publ_section_title
;
Structure prediction by ZEFSAII (Michael W. Deem and Ramdas Pophale) SiO2 
 PCOD8202738
Probable space group: P C C M
;
_chemical_formula_sum "Si O2"
_cell_formula_units_Z 52
_cell_length_a 11.083292
_cell_length_b 27.333381
_cell_length_c 9.892252
_cell_angle_alpha 90.000000
_cell_angle_beta 90.000000
_cell_angle_gamma 90.000000
_cell_volume 2996.796837
_symmetry_space_group_name_H-M "P C C M"
_symmetry_group_IT_number 49
_symmetry_cell_setting 'orthorhombic'
loop_
_space_group_symop_operation_xyz
x,y,z
-x,-y,z
x,-y,1/2-z
-x,y,1/2-z
-x,-y,-z
x,y,-z
-x,y,1/2+z
x,-y,1/2+z
loop_
_atom_site_type_symbol
_atom_site_label
_atom_site_fract_x
_atom_site_fract_y
_atom_site_fract_z
Si Si1 0.643587 0.885448 0.260064
Si Si2 0.645397 0.939260 0.000000
Si Si3 0.614363 0.781629 0.656147
Si Si4 0.642275 0.950763 0.500000
Si Si5 0.322734 0.543114 0.648141
Si Si6 0.280582 0.678806 0.848603
Si Si7 0.500000 0.379952 0.750000
Si Si8 0.881875 0.616851 0.160619
O O1 0.500000 0.884352 0.250000
O O2 0.685446 0.830138 0.293064
O O3 0.693143 0.922902 0.370615
O O4 0.696306 0.907199 0.122707
O O5 0.502108 0.946844 0.000000
O O6 0.696122 0.994471 0.000000
O O7 0.500000 0.770683 0.750000
O O8 0.571763 0.788692 0.500000
O O9 0.707041 0.736938 0.669257
O O10 0.353335 0.500000 0.750000
O O11 0.324746 0.519261 0.500000
O O12 0.422119 0.585744 0.651473
O O13 0.192309 0.566628 0.677537
O O14 0.411951 0.653771 0.838538
O O15 0.191517 0.661187 0.730061
O O16 0.230239 0.666969 0.000000
O O17 0.000000 0.609020 0.250000
O O18 0.905641 0.627965 0.000000
#
# Coordination Sequence:
#
# PCOD8202738 Si02
#       8
#     8   4   8   4   8   8   4   8
#     4   9  16  24  33  52  75 108 152 202 247 286
#     4   9  16  22  34  48  68 108 153 201 247 284
#     4  10  19  29  43  63  91 125 160 203 250 294
#     4   9  14  24  34  46  72 104 153 203 243 286
#     4  10  22  36  54  79 107 136 167 200 244 291
#     4  10  20  34  53  76 100 134 171 207 255 299
#     4  10  19  34  52  78 106 138 171 208 242 290
#     4  10  22  40  59  79 102 129 165 208 248 298
#
# _framework density 17.351859999999999
#
# number of rings (size 3 to 8) (size 9 to 14) (size 15 to 20)
#    0.000    2.308    1.538    1.615    3.231    7.692 
#    0.000    1.538    0.000    0.000    0.000    0.000 
#    0.000    0.000    0.000    0.000    0.000    4.615 
#
# Total GULP energy -644469.969460 kJ/mol
# GULP energy per Si atom -12393.653259 kJ/mol
# Density = 1.731237 g / cm^3
# Si number density = 17.351860 Si / 1000 Ang^3
#
#
#
# Elastic Constant Matrix: (Units=GPa)
#
#
# Indices 1 2 3 4 5 6 
#
# 1 50.4167 18.4247 24.0514 0.0000 0.0000 0.0000
# 2 18.4247 122.4031 58.5763 0.0000 0.0000 0.0000
# 3 24.0514 58.5763 140.2397 0.0000 0.0000 0.0000
# 4 0.0000 0.0000 0.0000 30.6704 0.0000 0.0000
# 5 0.0000 0.0000 0.0000 0.0000 16.7431 0.0000
# 6 0.0000 0.0000 0.0000 0.0000 0.0000 8.6440
#
#
#
# Elastic Compliance Matrix: (Units=1/GPa)
#
#
# Indices 1 2 3 4 5 6 
#
# 1 0.021942 -0.001877 -0.002979 0.000000 0.000000 0.000000
# 2 -0.001877 0.010371 -0.004010 0.000000 0.000000 0.000000
# 3 -0.002979 -0.004010 0.009316 0.000000 0.000000 0.000000
# 4 0.000000 0.000000 0.000000 0.032605 0.000000 0.000000
# 5 0.000000 0.000000 0.000000 0.000000 0.059726 0.000000
# 6 0.000000 0.000000 0.000000 0.000000 0.000000 0.115687
#
#
# Mechanical properties :
#
#
# Convention : Reuss Voigt Hill
#
# Bulk Modulus (GPa) = 41.84587 57.24049 49.54318
# Shear Modulus (GPa) = 18.15900 25.34530 21.75215
#
# Velocity S-wave (km/s) = 3.23850 3.82601 3.54445
# Velocity P-wave (km/s) = 6.17675 7.25104 6.73535
#
# Compressibility (1/GPa) = 0.02389722
#
# Stress axis : x y z
#
# Youngs Moduli (GPa) = 45.57504 96.42000 107.33665
#
# Poissons Ratio (x) = 0.18100 0.31976
# Poissons Ratio (y) = 0.08555 0.43042
# Poissons Ratio (z) = 0.13577 0.38665
#
# Static dielectric constant tensor:
#      x y z
#    x 2.732720 0.000000 0.000000 
#    y 0.000000 3.399660 0.000000 
#    z 0.000000 0.000000 3.480310 
# 
# 
# High freq. dielectric constant tensor:
#      x y z
#    x 1.599940 0.000000 0.000000 
#    y 0.000000 1.681390 0.000000 
#    z 0.000000 0.000000 1.690560 
# 
# From -- ./inp_files/3050.got.cif
#   From: 2010.03.12/outbox.cif.g09.slc.cpg/sg49_2_cif.got.tgz:3050.got - 2010.04.14 03:58:27.
