data_PCOD8202188
_publ_section_title
;
Structure prediction by ZEFSAII (Michael W. Deem and Ramdas Pophale) SiO2 
 PCOD8202188
Probable space group: P C C M
;
_chemical_formula_sum "Si O2"
_cell_formula_units_Z 32
_cell_length_a 20.988475
_cell_length_b 9.934603
_cell_length_c 8.700456
_cell_angle_alpha 90.000000
_cell_angle_beta 90.000000
_cell_angle_gamma 90.000000
_cell_volume 1814.150932
_symmetry_space_group_name_H-M "P C C M"
_symmetry_group_IT_number 49
_symmetry_cell_setting 'orthorhombic'
loop_
_space_group_symop_operation_xyz
x,y,z
-x,-y,z
x,-y,1/2-z
-x,y,1/2-z
-x,-y,-z
x,y,-z
-x,y,1/2+z
x,-y,1/2+z
loop_
_atom_site_type_symbol
_atom_site_label
_atom_site_fract_x
_atom_site_fract_y
_atom_site_fract_z
Si Si1 0.672028 0.353942 0.320769
Si Si2 0.567576 0.144354 0.683290
Si Si3 0.812050 0.353349 0.320407
Si Si4 0.936674 0.350007 0.181796
O O1 0.661377 0.500000 0.250000
O O2 0.662855 0.374516 0.500000
O O3 0.620002 0.250105 0.256607
O O4 0.742383 0.289494 0.287122
O O5 0.500000 0.192145 0.750000
O O6 0.564103 0.135898 0.500000
O O7 0.586913 0.000000 0.750000
O O8 0.807635 0.500000 0.250000
O O9 0.827315 0.361269 0.500000
O O10 0.871262 0.275404 0.237532
O O11 0.934351 0.500000 0.250000
O O12 0.000000 0.277030 0.250000
O O13 0.940754 0.352334 0.000000
#
# Coordination Sequence:
#
# PCOD8202188 Si02
#       4
#     8   8   8   8
#     4   9  19  32  48  69  95 123 155 190 232 278
#     4  10  20  35  52  72  94 122 155 191 231 276
#     4   9  15  25  38  55  80 111 143 181 222 265
#     4  10  16  22  32  49  74 108 146 182 217 261
#
# _framework density 17.639106000000002
#
# number of rings (size 3 to 8) (size 9 to 14) (size 15 to 20)
#    0.000    2.500    0.000    6.750    0.000    3.500 
#    0.000    2.500    0.000    0.000    0.000    0.000 
#    0.000    1.000    0.000   11.500    0.000    7.250 
#
# Total GULP energy -396453.512035 kJ/mol
# GULP energy per Si atom -12389.172251 kJ/mol
# Density = 1.759896 g / cm^3
# Si number density = 17.639106 Si / 1000 Ang^3
#
#
#
# Elastic Constant Matrix: (Units=GPa)
#
#
# Indices 1 2 3 4 5 6 
#
# 1 196.3958 66.5179 67.3704 0.0000 0.0000 0.0000
# 2 66.5179 46.2358 25.9074 0.0000 0.0000 0.0000
# 3 67.3704 25.9074 110.9566 0.0000 0.0000 0.0000
# 4 0.0000 0.0000 0.0000 11.4158 0.0000 0.0000
# 5 0.0000 0.0000 0.0000 0.0000 38.7230 0.0000
# 6 0.0000 0.0000 0.0000 0.0000 0.0000 3.4411
#
#
#
# Elastic Compliance Matrix: (Units=1/GPa)
#
#
# Indices 1 2 3 4 5 6 
#
# 1 0.010952 -0.013841 -0.003418 0.000000 0.000000 0.000000
# 2 -0.013841 0.042376 -0.001490 0.000000 0.000000 0.000000
# 3 -0.003418 -0.001490 0.011436 0.000000 0.000000 0.000000
# 4 0.000000 0.000000 0.000000 0.087598 0.000000 0.000000
# 5 0.000000 0.000000 0.000000 0.000000 0.025824 0.000000
# 6 0.000000 0.000000 0.000000 0.000000 0.000000 0.290602
#
#
# Mechanical properties :
#
#
# Convention : Reuss Voigt Hill
#
# Bulk Modulus (GPa) = 36.67718 74.79775 55.73747
# Shear Modulus (GPa) = 9.70164 23.63550 16.66857
#
# Velocity S-wave (km/s) = 2.34777 3.66450 3.07738
# Velocity P-wave (km/s) = 5.30920 7.77183 6.65541
#
# Compressibility (1/GPa) = 0.02726491
#
# Stress axis : x y z
#
# Youngs Moduli (GPa) = 91.30537 23.59802 87.44367
#
# Poissons Ratio (x) = 0.32663 0.29889
# Poissons Ratio (y) = 1.26379 0.13032
# Poissons Ratio (z) = 0.31209 0.03517
#
# Static dielectric constant tensor:
#      x y z
#    x 5.047520 0.000000 0.000000 
#    y 0.000000 2.738750 0.000000 
#    z 0.000000 0.000000 3.356660 
# 
# 
# High freq. dielectric constant tensor:
#      x y z
#    x 1.718120 0.000000 0.000000 
#    y 0.000000 1.599300 0.000000 
#    z 0.000000 0.000000 1.696740 
# 
# From -- ./inp_files/1658.got.cif
#   From: 2010.03.12/outbox.cif.g09.slc.cpg/sg49_1_cif.got.tgz:1658.got - 2010.04.14 03:58:27.
