data_PCOD8202042
_publ_section_title
;
Structure prediction by ZEFSAII (Michael W. Deem and Ramdas Pophale) SiO2 
 PCOD8202042
Probable space group: P N N N
;
_chemical_formula_sum "Si O2"
_cell_formula_units_Z 56
_cell_length_a 8.719109
_cell_length_b 19.631796
_cell_length_c 15.114056
_cell_angle_alpha 90.000000
_cell_angle_beta 90.000000
_cell_angle_gamma 90.000000
_cell_volume 2587.099705
_symmetry_space_group_name_H-M "P N N N"
_symmetry_group_IT_number 48
_space_group.IT_coordinate_system_code '2'
_symmetry_cell_setting 'orthorhombic'
loop_
_space_group_symop_operation_xyz
x,y,z
1/2-x,1/2-y,z
x,1/2-y,1/2-z
1/2-x,y,1/2-z
-x,-y,-z
1/2+x,1/2+y,-z
-x,1/2+y,1/2+z
1/2+x,-y,1/2+z
loop_
_atom_site_type_symbol
_atom_site_label
_atom_site_fract_x
_atom_site_fract_y
_atom_site_fract_z
Si Si1 0.930227 0.827502 0.067924
Si Si2 0.068484 0.606588 0.912736
Si Si3 0.069773 0.172498 0.567924
Si Si4 0.432062 0.750000 0.846376
Si Si5 0.931516 0.106588 0.087264
Si Si6 0.928557 0.973573 0.750000
Si Si7 0.429801 0.867723 0.250000
O O1 0.971147 0.750000 0.033956
O O2 0.750000 0.838983 0.068957
O O3 0.995486 0.832556 0.165830
O O4 0.002935 0.892606 0.012919
O O5 0.008544 0.681920 0.890653
O O6 0.250000 0.596200 0.912458
O O7 0.999356 0.555389 0.841093
O O8 0.002935 0.607394 0.012920
O O9 0.004514 0.167444 0.665830
O O10 0.250000 0.750000 0.843252
O O11 0.504655 0.750000 0.750000
O O12 0.491456 0.681920 0.890653
O O13 0.000644 0.055389 0.158907
O O14 0.750000 0.956748 0.750000
O O15 0.966220 0.052468 0.750000
O O16 0.250000 0.853119 0.250000
#
# Coordination Sequence:
#
# PCOD8202042 Si02
#       7
#     8   8   8   8   8   8   8
#     4  11  24  42  66  97 128 158 201 263 322 366
#     4  11  21  37  64  95 127 165 207 251 305 375
#     4  11  24  42  66  97 128 158 201 263 322 366
#     4   9  16  30  54  89 124 155 198 248 297 359
#     4  11  21  37  64  95 127 165 207 251 305 375
#     4  11  25  43  61  91 131 167 209 258 309 367
#     4  11  26  46  66  87 120 170 218 258 305 370
#
# _framework density 21.645861
#
# number of rings (size 3 to 8) (size 9 to 14) (size 15 to 20)
#    0.000    1.286    2.857    3.000    0.000    6.857 
#    0.000    0.714    0.000    0.000    0.000    0.000 
#    0.000    0.000    0.000    0.000    0.000    0.000 
#
# Total GULP energy -693858.592104 kJ/mol
# GULP energy per Si atom -12390.332002 kJ/mol
# Density = 2.159659 g / cm^3
# Si number density = 21.645861 Si / 1000 Ang^3
#
#
#
# Elastic Constant Matrix: (Units=GPa)
#
#
# Indices 1 2 3 4 5 6 
#
# 1 109.0766 49.8076 37.8867 0.0000 0.0000 0.0000
# 2 49.8076 66.4476 18.5152 0.0000 0.0000 0.0000
# 3 37.8867 18.5152 113.6390 0.0000 0.0000 0.0000
# 4 0.0000 0.0000 0.0000 86.5761 0.0000 0.0000
# 5 0.0000 0.0000 0.0000 0.0000 40.7186 0.0000
# 6 0.0000 0.0000 0.0000 0.0000 0.0000 54.2841
#
#
#
# Elastic Compliance Matrix: (Units=1/GPa)
#
#
# Indices 1 2 3 4 5 6 
#
# 1 0.015054 -0.010356 -0.003332 0.000000 0.000000 0.000000
# 2 -0.010356 0.022889 -0.000277 0.000000 0.000000 0.000000
# 3 -0.003332 -0.000277 0.009956 0.000000 0.000000 0.000000
# 4 0.000000 0.000000 0.000000 0.011551 0.000000 0.000000
# 5 0.000000 0.000000 0.000000 0.000000 0.024559 0.000000
# 6 0.000000 0.000000 0.000000 0.000000 0.000000 0.018422
#
#
# Mechanical properties :
#
#
# Convention : Reuss Voigt Hill
#
# Bulk Modulus (GPa) = 50.07438 55.73135 52.90286
# Shear Modulus (GPa) = 36.49263 48.51269 42.50266
#
# Velocity S-wave (km/s) = 4.11042 4.73927 4.43600
# Velocity P-wave (km/s) = 6.76100 7.46661 7.12255
#
# Compressibility (1/GPa) = 0.01997029
#
# Stress axis : x y z
#
# Youngs Moduli (GPa) = 66.42861 43.68931 100.44562
#
# Poissons Ratio (x) = 0.45243 0.33465
# Poissons Ratio (y) = 0.68791 0.02780
# Poissons Ratio (z) = 0.22131 0.01209
#
# Static dielectric constant tensor:
#      x y z
#    x 3.738380 0.000000 0.000000 
#    y 0.000000 3.745180 0.000000 
#    z 0.000000 0.000000 4.261650 
# 
# 
# High freq. dielectric constant tensor:
#      x y z
#    x 1.845900 0.000000 0.000000 
#    y 0.000000 1.845910 0.000000 
#    z 0.000000 0.000000 1.874280 
# 
# From -- ./inp_files/25624.got.cif
#   From: 2010.06.25/outbox.cif.g09.slc.cpg/sg48_13_cif.got.tgz:25624.got - 2010.06.26 18:06:46.
