data_PCOD8202057
_publ_section_title
;
Structure prediction by ZEFSAII (Michael W. Deem and Ramdas Pophale) SiO2 
 PCOD8202057
Probable space group: P N N N
;
_chemical_formula_sum "Si O2"
_cell_formula_units_Z 64
_cell_length_a 8.506418
_cell_length_b 33.197615
_cell_length_c 10.922703
_cell_angle_alpha 90.000000
_cell_angle_beta 90.000000
_cell_angle_gamma 90.000000
_cell_volume 3084.492572
_symmetry_space_group_name_H-M "P N N N"
_symmetry_group_IT_number 48
_space_group.IT_coordinate_system_code '2'
_symmetry_cell_setting 'orthorhombic'
loop_
_space_group_symop_operation_xyz
x,y,z
1/2-x,1/2-y,z
x,1/2-y,1/2-z
1/2-x,y,1/2-z
-x,-y,-z
1/2+x,1/2+y,-z
-x,1/2+y,1/2+z
1/2+x,-y,1/2+z
loop_
_atom_site_type_symbol
_atom_site_label
_atom_site_fract_x
_atom_site_fract_y
_atom_site_fract_z
Si Si1 0.065026 0.460302 0.250000
Si Si2 0.436891 0.703314 0.250000
Si Si3 0.063182 0.250000 0.384757
Si Si4 0.935323 0.415229 0.486841
Si Si5 0.435908 0.170069 0.990970
Si Si6 0.564677 0.084771 0.013159
Si Si7 0.935462 0.053079 0.750000
Si Si8 0.935908 0.670069 0.490970
O O1 0.250000 0.454236 0.250000
O O2 0.014525 0.506707 0.250000
O O3 0.000357 0.442034 0.376213
O O4 0.000358 0.442034 0.123787
O O5 0.494562 0.750000 0.250000
O O6 0.250000 0.701095 0.250000
O O7 0.511958 0.676727 0.354267
O O8 0.511958 0.676727 0.145733
O O9 0.250000 0.250000 0.395870
O O10 0.998768 0.250000 0.250000
O O11 0.994698 0.209472 0.442601
O O12 0.994698 0.290528 0.442601
O O13 0.750000 0.420150 0.487002
O O14 0.002551 0.427426 0.622652
O O15 0.983832 0.369662 0.455331
O O16 0.250000 0.165874 0.006331
O O17 0.516168 0.130338 0.044669
O O18 0.497449 0.072574 0.877348
O O19 0.750000 0.058884 0.750000
#
# Coordination Sequence:
#
# PCOD8202057 Si02
#       8
#     8   8   8   8   8   8   8   8
#     4  11  23  42  66  94 124 165 214 258 306 379
#     4  11  22  37  58  84 119 159 203 256 311 362
#     4   9  20  37  57  82 116 159 203 254 305 350
#     4  11  23  41  64  95 131 166 203 260 325 379
#     4  11  22  38  62  90 121 161 209 258 305 367
#     4  11  23  41  64  95 131 166 203 260 325 379
#     4   9  21  42  67  91 124 165 209 258 316 379
#     4  11  22  38  62  90 121 161 209 258 305 367
#
# _framework density 20.748957000000001
#
# number of rings (size 3 to 8) (size 9 to 14) (size 15 to 20)
#    0.000    1.500    1.250    3.750    1.750    1.500 
#    0.000    5.625    0.000    3.000    0.000    0.000 
#    0.000    0.000    0.000    0.000    0.000    0.000 
#
# Total GULP energy -793268.816477 kJ/mol
# GULP energy per Si atom -12394.825257 kJ/mol
# Density = 2.070173 g / cm^3
# Si number density = 20.748957 Si / 1000 Ang^3
#
#
#
# Elastic Constant Matrix: (Units=GPa)
#
#
# Indices 1 2 3 4 5 6 
#
# 1 49.6377 33.4117 28.3276 0.0000 0.0000 0.0000
# 2 33.4117 157.2893 65.2479 0.0000 0.0000 0.0000
# 3 28.3276 65.2479 157.4614 0.0000 0.0000 0.0000
# 4 0.0000 0.0000 0.0000 -3.4832 0.0000 0.0000
# 5 0.0000 0.0000 0.0000 0.0000 11.6063 0.0000
# 6 0.0000 0.0000 0.0000 0.0000 0.0000 30.2734
#
#
#
# Elastic Compliance Matrix: (Units=1/GPa)
#
#
# Indices 1 2 3 4 5 6 
#
# 1 0.024429 -0.004065 -0.002710 0.000000 0.000000 0.000000
# 2 -0.004065 0.008354 -0.002730 0.000000 0.000000 0.000000
# 3 -0.002710 -0.002730 0.007970 0.000000 0.000000 0.000000
# 4 0.000000 0.000000 0.000000 -0.287092 0.000000 0.000000
# 5 0.000000 0.000000 0.000000 0.000000 0.086160 0.000000
# 6 0.000000 0.000000 0.000000 0.000000 0.000000 0.033032
#
#
# Mechanical properties :
#
#
# Convention : Reuss Voigt Hill
#
# Bulk Modulus (GPa) = 45.99565 68.70700 57.35133
# Shear Modulus (GPa) = -49.55947 23.50603 -13.02672
#
# Velocity S-wave (km/s) = -4.89256 3.36948 -2.50836
# Velocity P-wave (km/s) = 3.11454 6.95149 4.39448
#
# Compressibility (1/GPa) = 0.02174118
#
# Stress axis : x y z
#
# Youngs Moduli (GPa) = 40.93515 119.70613 125.47449
#
# Poissons Ratio (x) = 0.48659 0.34009
# Poissons Ratio (y) = 0.16640 0.34259
# Poissons Ratio (z) = 0.11095 0.32684
#
# Static dielectric constant tensor:
#      x y z
#    x 3.534730 0.000000 0.000000 
#    y 0.000000 4.857300 0.000000 
#    z 0.000000 0.000000 3.804350 
# 
# 
# High freq. dielectric constant tensor:
#      x y z
#    x 1.792150 0.000000 0.000000 
#    y 0.000000 1.831200 0.000000 
#    z 0.000000 0.000000 1.827690 
# 
# From -- ./inp_files/19049.got.cif
#   From: 2010.06.25/outbox.cif.g09.slc.cpg/sg48_10_cif.got.tgz:19049.got - 2010.06.26 18:06:46.
