data_PCOD8202390
_publ_section_title
;
Structure prediction by ZEFSAII (Michael W. Deem and Ramdas Pophale) SiO2 
 PCOD8202390
Probable space group: P C C M
;
_chemical_formula_sum "Si O2"
_cell_formula_units_Z 48
_cell_length_a 9.161334
_cell_length_b 30.940420
_cell_length_c 8.545414
_cell_angle_alpha 90.000000
_cell_angle_beta 90.000000
_cell_angle_gamma 90.000000
_cell_volume 2422.244784
_symmetry_space_group_name_H-M "P C C M"
_symmetry_group_IT_number 49
_symmetry_cell_setting 'orthorhombic'
loop_
_space_group_symop_operation_xyz
x,y,z
-x,-y,z
x,-y,1/2-z
-x,y,1/2-z
-x,-y,-z
x,y,-z
-x,y,1/2+z
x,-y,1/2+z
loop_
_atom_site_type_symbol
_atom_site_label
_atom_site_fract_x
_atom_site_fract_y
_atom_site_fract_z
Si Si1 0.155132 0.547088 0.185172
Si Si2 0.839275 0.294732 0.684368
Si Si3 0.163026 0.956622 0.314759
Si Si4 0.659515 0.377217 0.314112
Si Si5 0.338901 0.211321 0.814081
Si Si6 0.838289 0.868057 0.684828
O O1 0.193079 0.500000 0.250000
O O2 0.282304 0.578650 0.240194
O O3 0.000000 0.563794 0.250000
O O4 0.146801 0.545242 0.000000
O O5 0.847781 0.295251 0.500000
O O6 0.760497 0.337957 0.745146
O O7 0.750522 0.253112 0.742597
O O8 0.000000 0.292464 0.750000
O O9 0.164696 0.957035 0.500000
O O10 0.234382 0.912397 0.251067
O O11 0.000000 0.956783 0.250000
O O12 0.243768 0.000000 0.250000
O O13 0.500000 0.367798 0.250000
O O14 0.657022 0.381210 0.500000
O O15 0.500000 0.217061 0.750000
O O16 0.267598 0.169818 0.735964
O O17 0.339184 0.206123 0.000000
O O18 0.848657 0.871019 0.500000
O O19 0.000000 0.859576 0.750000
#
# Coordination Sequence:
#
# PCOD8202390 Si02
#       6
#     8   8   8   8   8   8
#     4  11  22  39  62  89 119 156 198 245 292 344
#     4  10  23  40  62  88 117 150 191 236 285 340
#     4  10  17  28  47  75 109 145 184 232 283 336
#     4  11  23  40  60  88 121 157 196 240 290 346
#     4  11  23  40  59  84 114 150 190 234 285 341
#     4  11  21  35  55  82 113 149 190 237 285 338
#
# _framework density 19.816329
#
# number of rings (size 3 to 8) (size 9 to 14) (size 15 to 20)
#    0.000    1.333    0.000    9.000    0.000    5.667 
#    0.000    1.667    0.000    0.500    0.000    3.500 
#    0.000    0.000    0.000    0.000    0.000    0.000 
#
# Total GULP energy -595326.151113 kJ/mol
# GULP energy per Si atom -12402.628148 kJ/mol
# Density = 1.977123 g / cm^3
# Si number density = 19.816329 Si / 1000 Ang^3
#
#
#
# Elastic Constant Matrix: (Units=GPa)
#
#
# Indices 1 2 3 4 5 6 
#
# 1 129.2015 75.9136 44.9207 0.0000 0.0000 0.0000
# 2 75.9136 158.0929 60.1858 0.0000 0.0000 0.0000
# 3 44.9207 60.1858 150.0130 0.0000 0.0000 0.0000
# 4 0.0000 0.0000 0.0000 30.6365 0.0000 0.0000
# 5 0.0000 0.0000 0.0000 0.0000 33.4825 0.0000
# 6 0.0000 0.0000 0.0000 0.0000 0.0000 11.8769
#
#
#
# Elastic Compliance Matrix: (Units=1/GPa)
#
#
# Indices 1 2 3 4 5 6 
#
# 1 0.011022 -0.004764 -0.001389 0.000000 0.000000 0.000000
# 2 -0.004764 0.009524 -0.002395 0.000000 0.000000 0.000000
# 3 -0.001389 -0.002395 0.008043 0.000000 0.000000 0.000000
# 4 0.000000 0.000000 0.000000 0.032641 0.000000 0.000000
# 5 0.000000 0.000000 0.000000 0.000000 0.029866 0.000000
# 6 0.000000 0.000000 0.000000 0.000000 0.000000 0.084197
#
#
# Mechanical properties :
#
#
# Convention : Reuss Voigt Hill
#
# Bulk Modulus (GPa) = 87.00314 88.81641 87.90977
# Shear Modulus (GPa) = 25.48164 32.28501 28.88332
#
# Velocity S-wave (km/s) = 3.58982 4.04073 3.82193
# Velocity P-wave (km/s) = 7.82193 8.16622 7.99592
#
# Compressibility (1/GPa) = 0.01149384
#
# Stress axis : x y z
#
# Youngs Moduli (GPa) = 90.72971 104.99239 124.33314
#
# Poissons Ratio (x) = 0.50014 0.17273
# Poissons Ratio (y) = 0.43220 0.29776
# Poissons Ratio (z) = 0.12605 0.25144
#
# Static dielectric constant tensor:
#      x y z
#    x 3.365500 0.000000 0.000000 
#    y 0.000000 4.424730 0.000000 
#    z 0.000000 0.000000 3.715250 
# 
# 
# High freq. dielectric constant tensor:
#      x y z
#    x 1.751680 0.000000 0.000000 
#    y 0.000000 1.798850 0.000000 
#    z 0.000000 0.000000 1.788840 
# 
# From -- ./inp_files/2053.got.cif
#   From: 2010.03.12/outbox.cif.g09.slc.cpg/sg49_2_cif.got.tgz:2053.got - 2010.04.14 03:58:27.
