data_PCOD8202158
_publ_section_title
;
Structure prediction by ZEFSAII (Michael W. Deem and Ramdas Pophale) SiO2 
 PCOD8202158
Probable space group: P N N N
;
_chemical_formula_sum "Si O2"
_cell_formula_units_Z 34
_cell_length_a 14.258888
_cell_length_b 20.534006
_cell_length_c 4.895055
_cell_angle_alpha 90.000000
_cell_angle_beta 90.000000
_cell_angle_gamma 90.000000
_cell_volume 1433.233393
_symmetry_space_group_name_H-M "P N N N"
_symmetry_group_IT_number 48
_space_group.IT_coordinate_system_code '2'
_symmetry_cell_setting 'orthorhombic'
loop_
_space_group_symop_operation_xyz
x,y,z
1/2-x,1/2-y,z
x,1/2-y,1/2-z
1/2-x,y,1/2-z
-x,-y,-z
1/2+x,1/2+y,-z
-x,1/2+y,1/2+z
1/2+x,-y,1/2+z
loop_
_atom_site_type_symbol
_atom_site_label
_atom_site_fract_x
_atom_site_fract_y
_atom_site_fract_z
Si Si1 0.810264 0.906908 0.023086
Si Si2 0.566608 0.015357 0.253515
Si Si3 0.972885 0.815136 0.120665
Si Si4 0.091304 0.839160 0.633267
Si Si5 0.750000 0.250000 0.250000
O O1 0.750000 0.867829 0.250000
O O2 0.898885 0.861115 0.962631
O O3 0.842181 0.970631 0.195267
O O4 0.750000 0.922357 0.750000
O O5 0.607915 0.088221 0.248323
O O6 0.500000 0.000000 0.500000
O O7 0.500000 0.000000 0.000000
O O8 0.926989 0.750000 0.250000
O O9 0.027608 0.850232 0.366362
O O10 0.044641 0.796892 0.879928
O O11 0.186817 0.799427 0.564184
#
# Coordination Sequence:
#
# PCOD8202158 Si02
#       5
#     8   8   8   8   2
#     4  12  26  44  71 108 145 185 255 313 363 443
#     4  12  23  46  74 102 142 197 244 303 387 454
#     4  12  24  48  72  98 145 199 242 298 381 448
#     4  12  25  45  71 107 145 195 243 304 379 462
#     4  12  28  46  72 114 150 186 254 310 384 470
#
# _framework density 23.722583
#
# number of rings (size 3 to 8) (size 9 to 14) (size 15 to 20)
#    0.000    0.000    7.059    2.824    1.647    2.353 
#    0.000    1.176    0.000    0.000    0.000    0.000 
#    0.000    0.000    0.000    0.000    0.000    0.000 
#
# Total GULP energy -421242.020885 kJ/mol
# GULP energy per Si atom -12389.471203 kJ/mol
# Density = 2.366859 g / cm^3
# Si number density = 23.722583 Si / 1000 Ang^3
#
#
#
# Elastic Constant Matrix: (Units=GPa)
#
#
# Indices 1 2 3 4 5 6 
#
# 1 125.3151 63.1091 59.4935 0.0000 0.0000 0.0000
# 2 63.1091 158.7877 35.0409 0.0000 0.0000 0.0000
# 3 59.4935 35.0409 165.0449 0.0000 0.0000 0.0000
# 4 0.0000 0.0000 0.0000 36.0513 0.0000 0.0000
# 5 0.0000 0.0000 0.0000 0.0000 36.1867 0.0000
# 6 0.0000 0.0000 0.0000 0.0000 0.0000 31.5169
#
#
#
# Elastic Compliance Matrix: (Units=1/GPa)
#
#
# Indices 1 2 3 4 5 6 
#
# 1 0.011490 -0.003832 -0.003328 0.000000 0.000000 0.000000
# 2 -0.003832 0.007885 -0.000293 0.000000 0.000000 0.000000
# 3 -0.003328 -0.000293 0.007321 0.000000 0.000000 0.000000
# 4 0.000000 0.000000 0.000000 0.027738 0.000000 0.000000
# 5 0.000000 0.000000 0.000000 0.000000 0.027634 0.000000
# 6 0.000000 0.000000 0.000000 0.000000 0.000000 0.031729
#
#
# Mechanical properties :
#
#
# Convention : Reuss Voigt Hill
#
# Bulk Modulus (GPa) = 84.81809 84.93718 84.87764
# Shear Modulus (GPa) = 37.69782 40.18459 38.94120
#
# Velocity S-wave (km/s) = 3.99069 4.12021 4.05597
# Velocity P-wave (km/s) = 7.55420 7.64964 7.60207
#
# Compressibility (1/GPa) = 0.01178994
#
# Stress axis : x y z
#
# Youngs Moduli (GPa) = 87.03401 126.81709 136.59710
#
# Poissons Ratio (x) = 0.48598 0.45461
# Poissons Ratio (y) = 0.33352 0.04000
# Poissons Ratio (z) = 0.28966 0.03713
#
# Static dielectric constant tensor:
#      x y z
#    x 3.544510 0.000000 0.000000 
#    y 0.000000 3.770060 0.000000 
#    z 0.000000 0.000000 4.139000 
# 
# 
# High freq. dielectric constant tensor:
#      x y z
#    x 1.936790 0.000000 0.000000 
#    y 0.000000 1.954610 0.000000 
#    z 0.000000 0.000000 1.947200 
# 
# From -- ./inp_files/3225.got.cif
#   From: 2010.06.25/outbox.cif.g09.slc.cpg/sg48_2_cif.got.tgz:3225.got - 2010.06.26 18:06:46.
