data_PCOD8202783
_publ_section_title
;
Structure prediction by ZEFSAII (Michael W. Deem and Ramdas Pophale) SiO2 
 PCOD8202783
Probable space group: P C C M
;
_chemical_formula_sum "Si O2"
_cell_formula_units_Z 56
_cell_length_a 5.252977
_cell_length_b 19.322376
_cell_length_c 26.648661
_cell_angle_alpha 90.000000
_cell_angle_beta 90.000000
_cell_angle_gamma 90.000000
_cell_volume 2704.839004
_symmetry_space_group_name_H-M "P C C M"
_symmetry_group_IT_number 49
_symmetry_cell_setting 'orthorhombic'
loop_
_space_group_symop_operation_xyz
x,y,z
-x,-y,z
x,-y,1/2-z
-x,y,1/2-z
-x,-y,-z
x,y,-z
-x,y,1/2+z
x,-y,1/2+z
loop_
_atom_site_type_symbol
_atom_site_label
_atom_site_fract_x
_atom_site_fract_y
_atom_site_fract_z
Si Si1 0.879828 0.739331 0.443574
Si Si2 0.748103 0.423997 0.727953
Si Si3 0.345859 0.420822 0.111727
Si Si4 0.499022 0.158579 0.308974
Si Si5 0.618095 0.257641 0.608291
Si Si6 0.846543 0.425013 0.942591
Si Si7 0.995412 0.077209 0.309425
O O1 0.938208 0.761786 0.500000
O O2 0.608299 0.770747 0.427248
O O3 0.865002 0.657033 0.437951
O O4 0.108164 0.770943 0.409859
O O5 0.750686 0.500000 0.750000
O O6 0.500000 0.384065 0.750000
O O7 0.738360 0.433405 0.668519
O O8 0.000000 0.384932 0.750000
O O9 0.369526 0.339494 0.104794
O O10 0.623649 0.452078 0.095965
O O11 0.127823 0.452812 0.074455
O O12 0.500000 0.173319 0.250000
O O13 0.547561 0.232350 0.335734
O O14 0.730313 0.110151 0.326738
O O15 0.237204 0.122710 0.327186
O O16 0.788192 0.446897 0.000000
O O17 0.000000 0.072109 0.250000
O O18 0.000000 0.000000 0.332671
#
# Coordination Sequence:
#
# PCOD8202783 Si02
#       7
#     8   8   8   8   8   8   8
#     4   9  17  30  47  67  97 132 164 199 238 289
#     4  10  21  37  55  76  97 131 179 220 247 275
#     4  10  19  32  51  76 104 134 167 204 248 302
#     4  10  19  30  44  67 100 132 157 194 244 291
#     4  10  19  30  46  72 104 132 158 194 245 304
#     4   9  17  30  50  77 104 130 160 199 253 313
#     4   9  17  30  47  64  87 125 170 207 240 281
#
# _framework density 20.703631999999999
#
# number of rings (size 3 to 8) (size 9 to 14) (size 15 to 20)
#    0.000    2.429    0.000    3.000    0.000    5.714 
#    0.000    2.143    0.000    0.000    0.000   40.000 
#    0.000   40.000    0.000    0.000    0.000    0.000 
#
# Total GULP energy -694213.976302 kJ/mol
# GULP energy per Si atom -12396.678148 kJ/mol
# Density = 2.065651 g / cm^3
# Si number density = 20.703632 Si / 1000 Ang^3
#
#
#
# Elastic Constant Matrix: (Units=GPa)
#
#
# Indices 1 2 3 4 5 6 
#
# 1 199.7003 40.2371 74.5118 0.0000 0.0000 0.0000
# 2 40.2371 29.4194 9.4856 0.0000 0.0000 0.0000
# 3 74.5118 9.4856 130.5484 0.0000 0.0000 0.0000
# 4 0.0000 0.0000 0.0000 9.6698 0.0000 0.0000
# 5 0.0000 0.0000 0.0000 0.0000 33.1568 0.0000
# 6 0.0000 0.0000 0.0000 0.0000 0.0000 15.4152
#
#
#
# Elastic Compliance Matrix: (Units=1/GPa)
#
#
# Indices 1 2 3 4 5 6 
#
# 1 0.008698 -0.010543 -0.004199 0.000000 0.000000 0.000000
# 2 -0.010543 0.047586 0.002560 0.000000 0.000000 0.000000
# 3 -0.004199 0.002560 0.009870 0.000000 0.000000 0.000000
# 4 0.000000 0.000000 0.000000 0.103415 0.000000 0.000000
# 5 0.000000 0.000000 0.000000 0.000000 0.030160 0.000000
# 6 0.000000 0.000000 0.000000 0.000000 0.000000 0.064871
#
#
# Mechanical properties :
#
#
# Convention : Reuss Voigt Hill
#
# Bulk Modulus (GPa) = 23.92861 67.57081 45.74971
# Shear Modulus (GPa) = 16.50744 27.34391 21.92567
#
# Velocity S-wave (km/s) = 2.82675 3.63813 3.25780
# Velocity P-wave (km/s) = 4.71559 7.09620 6.02465
#
# Compressibility (1/GPa) = 0.04179097
#
# Stress axis : x y z
#
# Youngs Moduli (GPa) = 114.96371 21.01476 101.31298
#
# Poissons Ratio (x) = 0.22156 0.42538
# Poissons Ratio (y) = 1.21207 -0.25936
# Poissons Ratio (z) = 0.48269 -0.05380
#
# Static dielectric constant tensor:
#      x y z
#    x 3.553980 0.000000 0.000000 
#    y 0.000000 3.535650 0.000000 
#    z 0.000000 0.000000 1.637360 
# 
# 
# High freq. dielectric constant tensor:
#      x y z
#    x 1.846790 0.000000 0.000000 
#    y 0.000000 1.774260 0.000000 
#    z 0.000000 0.000000 1.789740 
# 
# From -- ./inp_files/21888.got.cif
#   From: 2010.03.12/outbox.cif.g09.slc.cpg/sg49_11_cif.got.tgz:21888.got - 2010.04.14 03:58:27.
