data_PCOD8202180
_publ_section_title
;
Structure prediction by ZEFSAII (Michael W. Deem and Ramdas Pophale) SiO2 
 PCOD8202180
Probable space group: P C C M
;
_chemical_formula_sum "Si O2"
_cell_formula_units_Z 56
_cell_length_a 13.795203
_cell_length_b 29.700223
_cell_length_c 8.873210
_cell_angle_alpha 90.000000
_cell_angle_beta 90.000000
_cell_angle_gamma 90.000000
_cell_volume 3635.536973
_symmetry_space_group_name_H-M "P C C M"
_symmetry_group_IT_number 49
_symmetry_cell_setting 'orthorhombic'
loop_
_space_group_symop_operation_xyz
x,y,z
-x,-y,z
x,-y,1/2-z
-x,y,1/2-z
-x,-y,-z
x,y,-z
-x,y,1/2+z
x,-y,1/2+z
loop_
_atom_site_type_symbol
_atom_site_label
_atom_site_fract_x
_atom_site_fract_y
_atom_site_fract_z
Si Si1 0.395511 0.868576 0.176433
Si Si2 0.898729 0.364501 0.821867
Si Si3 0.792159 0.546619 0.322840
Si Si4 0.399142 0.595575 0.177677
Si Si5 0.290717 0.317063 0.679045
Si Si6 0.392515 0.044404 0.179978
Si Si7 0.604049 0.769972 0.675720
O O1 0.500000 0.864236 0.250000
O O2 0.339159 0.909657 0.261912
O O3 0.347022 0.819420 0.203298
O O4 0.403935 0.880270 0.000000
O O5 0.866902 0.414600 0.770696
O O6 0.817339 0.329084 0.763244
O O7 0.000000 0.350600 0.750000
O O8 0.908633 0.362182 0.000000
O O9 0.824849 0.500000 0.250000
O O10 0.796353 0.541021 0.500000
O O11 0.683315 0.560043 0.272248
O O12 0.500000 0.580791 0.250000
O O13 0.367168 0.645217 0.235048
O O14 0.411729 0.595464 0.000000
O O15 0.288450 0.318122 0.500000
O O16 0.323337 0.268100 0.740770
O O17 0.500000 0.046132 0.250000
O O18 0.340170 0.000000 0.250000
O O19 0.394231 0.041812 0.000000
O O20 0.500000 0.764824 0.750000
O O21 0.586595 0.762349 0.500000
#
# Coordination Sequence:
#
# PCOD8202180 Si02
#       7
#     8   8   8   8   8   8   8
#     4   9  15  22  31  46  67  91 122 157 191 228
#     4   9  18  33  50  65  82 102 127 158 194 233
#     4   9  19  33  46  62  84 108 130 157 191 230
#     4   9  17  29  44  61  82 107 134 160 189 223
#     4   8  15  29  45  60  80 105 129 156 192 234
#     4  10  16  22  31  42  59  86 122 163 202 233
#     4   9  16  25  39  57  78 104 131 159 193 230
#
# _framework density 15.403502
#
# number of rings (size 3 to 8) (size 9 to 14) (size 15 to 20)
#    0.000    3.000    0.000    5.143    0.000    2.286 
#    0.000    5.714    0.000    0.000    0.000    0.000 
#    0.000    0.000    0.000    0.000    0.000    0.714 
#
# Total GULP energy -693807.304517 kJ/mol
# GULP energy per Si atom -12389.416152 kJ/mol
# Density = 1.536844 g / cm^3
# Si number density = 15.403502 Si / 1000 Ang^3
#
#
#
# Elastic Constant Matrix: (Units=GPa)
#
#
# Indices 1 2 3 4 5 6 
#
# 1 67.2517 31.5205 16.3750 0.0000 0.0000 0.0000
# 2 31.5205 134.3863 35.3690 0.0000 0.0000 0.0000
# 3 16.3750 35.3690 53.6709 0.0000 0.0000 0.0000
# 4 0.0000 0.0000 0.0000 41.6617 0.0000 0.0000
# 5 0.0000 0.0000 0.0000 0.0000 18.0175 0.0000
# 6 0.0000 0.0000 0.0000 0.0000 0.0000 9.6556
#
#
#
# Elastic Compliance Matrix: (Units=1/GPa)
#
#
# Indices 1 2 3 4 5 6 
#
# 1 0.017127 -0.003196 -0.003119 0.000000 0.000000 0.000000
# 2 -0.003196 0.009599 -0.005351 0.000000 0.000000 0.000000
# 3 -0.003119 -0.005351 0.023110 0.000000 0.000000 0.000000
# 4 0.000000 0.000000 0.000000 0.024003 0.000000 0.000000
# 5 0.000000 0.000000 0.000000 0.000000 0.055502 0.000000
# 6 0.000000 0.000000 0.000000 0.000000 0.000000 0.103567
#
#
# Mechanical properties :
#
#
# Convention : Reuss Voigt Hill
#
# Bulk Modulus (GPa) = 37.73027 46.87086 42.30056
# Shear Modulus (GPa) = 18.86263 25.33659 22.09961
#
# Velocity S-wave (km/s) = 3.50318 4.06009 3.79187
# Velocity P-wave (km/s) = 6.39615 7.24388 6.83318
#
# Compressibility (1/GPa) = 0.02650392
#
# Stress axis : x y z
#
# Youngs Moduli (GPa) = 58.38722 104.17591 43.27176
#
# Poissons Ratio (x) = 0.33297 0.13497
# Poissons Ratio (y) = 0.18662 0.23153
# Poissons Ratio (z) = 0.18212 0.55741
#
# Static dielectric constant tensor:
#      x y z
#    x 2.698020 0.000000 0.000000 
#    y 0.000000 4.013080 0.000000 
#    z 0.000000 0.000000 2.826400 
# 
# 
# High freq. dielectric constant tensor:
#      x y z
#    x 1.532390 0.000000 0.000000 
#    y 0.000000 1.604900 0.000000 
#    z 0.000000 0.000000 1.584100 
# 
# From -- ./inp_files/4492.got.cif
#   From: 2010.03.12/outbox.cif.g09.slc.cpg/sg49_3_cif.got.tgz:4492.got - 2010.04.14 03:58:27.
