data_PCOD8202749
_publ_section_title
;
Structure prediction by ZEFSAII (Michael W. Deem and Ramdas Pophale) SiO2 
 PCOD8202749
Probable space group: P C C M
;
_chemical_formula_sum "Si O2"
_cell_formula_units_Z 56
_cell_length_a 18.360014
_cell_length_b 21.016828
_cell_length_c 8.750787
_cell_angle_alpha 90.000000
_cell_angle_beta 90.000000
_cell_angle_gamma 90.000000
_cell_volume 3376.659672
_symmetry_space_group_name_H-M "P C C M"
_symmetry_group_IT_number 49
_symmetry_cell_setting 'orthorhombic'
loop_
_space_group_symop_operation_xyz
x,y,z
-x,-y,z
x,-y,1/2-z
-x,y,1/2-z
-x,-y,-z
x,y,-z
-x,y,1/2+z
x,-y,1/2+z
loop_
_atom_site_type_symbol
_atom_site_label
_atom_site_fract_x
_atom_site_fract_y
_atom_site_fract_z
Si Si1 0.205960 0.627027 0.670685
Si Si2 0.837760 0.177742 0.823623
Si Si3 0.078982 0.306717 0.320978
Si Si4 0.577481 0.316158 0.681325
Si Si5 0.076910 0.067242 0.180298
Si Si6 0.712228 0.759955 0.831288
Si Si7 0.661282 0.566514 0.681140
O O1 0.194259 0.599608 0.500000
O O2 0.128083 0.636817 0.751376
O O3 0.246457 0.693584 0.662718
O O4 0.255425 0.578518 0.766827
O O5 0.887667 0.237925 0.781045
O O6 0.862343 0.118880 0.720661
O O7 0.753160 0.192872 0.785444
O O8 0.844496 0.159127 0.000000
O O9 0.074380 0.317372 0.500000
O O10 0.000000 0.311293 0.250000
O O11 0.500000 0.297844 0.750000
O O12 0.574181 0.326781 0.500000
O O13 0.630036 0.256182 0.722189
O O14 0.606176 0.380423 0.757854
O O15 0.000000 0.089547 0.250000
O O16 0.101317 0.000000 0.250000
O O17 0.068588 0.060549 0.000000
O O18 0.712581 0.791247 0.000000
O O19 0.634141 0.500000 0.750000
O O20 0.657660 0.564886 0.500000
#
# Coordination Sequence:
#
# PCOD8202749 Si02
#       7
#     8   8   8   8   8   8   8
#     4   9  17  31  48  66  89 116 148 188 232 276
#     4  10  19  30  46  68  93 122 159 196 232 274
#     4  10  19  29  44  67  92 119 151 191 236 280
#     4  10  20  34  51  73 100 127 154 186 228 275
#     4  11  21  33  47  64  92 128 166 203 241 280
#     4   8  16  30  47  67  92 121 152 187 228 272
#     4  11  21  34  51  70  92 120 155 189 224 270
#
# _framework density 16.584437999999999
#
# number of rings (size 3 to 8) (size 9 to 14) (size 15 to 20)
#    0.000    2.143    0.000    6.000    0.000    7.143 
#    0.000    1.429    0.000    0.429    0.000    3.000 
#    0.000    0.571    0.000    6.000    0.000    3.286 
#
# Total GULP energy -694383.835531 kJ/mol
# GULP energy per Si atom -12399.711349 kJ/mol
# Density = 1.654669 g / cm^3
# Si number density = 16.584438 Si / 1000 Ang^3
#
#
#
# Elastic Constant Matrix: (Units=GPa)
#
#
# Indices 1 2 3 4 5 6 
#
# 1 120.9421 33.5050 46.3428 0.0000 0.0000 0.0000
# 2 33.5050 45.6933 29.3928 0.0000 0.0000 0.0000
# 3 46.3428 29.3928 112.3170 0.0000 0.0000 0.0000
# 4 0.0000 0.0000 0.0000 24.4889 0.0000 0.0000
# 5 0.0000 0.0000 0.0000 0.0000 30.1836 0.0000
# 6 0.0000 0.0000 0.0000 0.0000 0.0000 20.5426
#
#
#
# Elastic Compliance Matrix: (Units=1/GPa)
#
#
# Indices 1 2 3 4 5 6 
#
# 1 0.011136 -0.006265 -0.002956 0.000000 0.000000 0.000000
# 2 -0.006265 0.029839 -0.005224 0.000000 0.000000 0.000000
# 3 -0.002956 -0.005224 0.011490 0.000000 0.000000 0.000000
# 4 0.000000 0.000000 0.000000 0.040835 0.000000 0.000000
# 5 0.000000 0.000000 0.000000 0.000000 0.033131 0.000000
# 6 0.000000 0.000000 0.000000 0.000000 0.000000 0.048679
#
#
# Mechanical properties :
#
#
# Convention : Reuss Voigt Hill
#
# Bulk Modulus (GPa) = 42.41390 55.27039 48.84215
# Shear Modulus (GPa) = 23.60078 26.35716 24.97897
#
# Velocity S-wave (km/s) = 3.77645 3.99089 3.88515
# Velocity P-wave (km/s) = 6.68173 7.39157 7.04559
#
# Compressibility (1/GPa) = 0.02357717
#
# Stress axis : x y z
#
# Youngs Moduli (GPa) = 89.79522 33.51313 87.03292
#
# Poissons Ratio (x) = 0.20995 0.25723
# Poissons Ratio (y) = 0.56254 0.45465
# Poissons Ratio (z) = 0.26539 0.17507
#
# Static dielectric constant tensor:
#      x y z
#    x 3.235390 0.000000 0.000000 
#    y 0.000000 2.905460 0.000000 
#    z 0.000000 0.000000 3.289390 
# 
# 
# High freq. dielectric constant tensor:
#      x y z
#    x 1.629880 0.000000 0.000000 
#    y 0.000000 1.601860 0.000000 
#    z 0.000000 0.000000 1.658230 
# 
# From -- ./inp_files/5165.got.cif
#   From: 2010.03.12/outbox.cif.g09.slc.cpg/sg49_3_cif.got.tgz:5165.got - 2010.04.14 03:58:27.
