data_PCOD8202153
_publ_section_title
;
Structure prediction by ZEFSAII (Michael W. Deem and Ramdas Pophale) SiO2 
 PCOD8202153
Probable space group: P N N N
;
_chemical_formula_sum "Si O2"
_cell_formula_units_Z 30
_cell_length_a 10.571791
_cell_length_b 18.160856
_cell_length_c 6.847008
_cell_angle_alpha 90.000000
_cell_angle_beta 90.000000
_cell_angle_gamma 90.000000
_cell_volume 1314.576060
_symmetry_space_group_name_H-M "P N N N"
_symmetry_group_IT_number 48
_space_group.IT_coordinate_system_code '2'
_symmetry_cell_setting 'orthorhombic'
loop_
_space_group_symop_operation_xyz
x,y,z
1/2-x,1/2-y,z
x,1/2-y,1/2-z
1/2-x,y,1/2-z
-x,-y,-z
1/2+x,1/2+y,-z
-x,1/2+y,1/2+z
1/2+x,-y,1/2+z
loop_
_atom_site_type_symbol
_atom_site_label
_atom_site_fract_x
_atom_site_fract_y
_atom_site_fract_z
Si Si1 0.750000 0.750000 0.750000
Si Si2 0.383704 0.375088 0.029476
Si Si3 0.250000 0.020511 0.750000
Si Si4 0.470431 0.569808 0.623890
Si Si5 0.395629 0.663001 0.270147
O O1 0.666784 0.795512 0.593675
O O2 0.272214 0.424011 0.932218
O O3 0.507916 0.370864 0.890139
O O4 0.414811 0.412388 0.234743
O O5 0.141824 0.959847 0.754420
O O6 0.500000 0.500000 0.500000
O O7 0.440204 0.639866 0.486640
O O8 0.401020 0.750000 0.250000
O O9 0.250000 0.634867 0.250000
#
# Coordination Sequence:
#
# PCOD8202153 Si02
#       5
#     2   8   4   8   8
#     4  12  28  46  80 106 158 192 250 316 376 452
#     4  12  27  48  70 114 142 194 247 307 375 441
#     4  12  26  43  78 107 152 192 242 318 370 444
#     4  12  25  45  70 106 147 189 243 302 370 442
#     4  11  26  47  74 104 148 199 244 301 372 452
#
# _framework density 22.821047
#
# number of rings (size 3 to 8) (size 9 to 14) (size 15 to 20)
#    0.000    0.267    2.667    5.600    7.467    0.000 
#    0.000    2.667    0.000    0.000    0.000    0.000 
#    0.000    0.000    0.000    0.000    0.000    0.000 
#
# Total GULP energy -371690.532023 kJ/mol
# GULP energy per Si atom -12389.684401 kJ/mol
# Density = 2.276910 g / cm^3
# Si number density = 22.821047 Si / 1000 Ang^3
#
#
#
# Elastic Constant Matrix: (Units=GPa)
#
#
# Indices 1 2 3 4 5 6 
#
# 1 66.5290 27.0576 39.2101 0.0000 0.0000 0.0000
# 2 27.0576 123.6067 57.7709 0.0000 0.0000 0.0000
# 3 39.2101 57.7709 142.8853 0.0000 0.0000 0.0000
# 4 0.0000 0.0000 0.0000 43.8356 0.0000 0.0000
# 5 0.0000 0.0000 0.0000 0.0000 44.6687 0.0000
# 6 0.0000 0.0000 0.0000 0.0000 0.0000 42.9003
#
#
#
# Elastic Compliance Matrix: (Units=1/GPa)
#
#
# Indices 1 2 3 4 5 6 
#
# 1 0.018343 -0.002050 -0.004205 0.000000 0.000000 0.000000
# 2 -0.002050 0.010204 -0.003563 0.000000 0.000000 0.000000
# 3 -0.004205 -0.003563 0.009593 0.000000 0.000000 0.000000
# 4 0.000000 0.000000 0.000000 0.022813 0.000000 0.000000
# 5 0.000000 0.000000 0.000000 0.000000 0.022387 0.000000
# 6 0.000000 0.000000 0.000000 0.000000 0.000000 0.023310
#
#
# Mechanical properties :
#
#
# Convention : Reuss Voigt Hill
#
# Bulk Modulus (GPa) = 54.04131 64.56645 59.30388
# Shear Modulus (GPa) = 37.74896 40.21306 38.98101
#
# Velocity S-wave (km/s) = 4.07151 4.20230 4.13742
# Velocity P-wave (km/s) = 6.77014 7.20414 6.99051
#
# Compressibility (1/GPa) = 0.01850436
#
# Stress axis : x y z
#
# Youngs Moduli (GPa) = 54.51681 97.99795 104.24140
#
# Poissons Ratio (x) = 0.20091 0.43831
# Poissons Ratio (y) = 0.11177 0.37143
# Poissons Ratio (z) = 0.22923 0.34918
#
# Static dielectric constant tensor:
#      x y z
#    x 4.394750 0.000000 0.000000 
#    y 0.000000 4.056580 0.000000 
#    z 0.000000 0.000000 4.392800 
# 
# 
# High freq. dielectric constant tensor:
#      x y z
#    x 1.918860 0.000000 0.000000 
#    y 0.000000 1.910210 0.000000 
#    z 0.000000 0.000000 1.910350 
# 
# From -- ./inp_files/1829.got.cif
#   From: 2010.06.25/outbox.cif.g09.slc.cpg/sg48_1_cif.got.tgz:1829.got - 2010.06.26 18:06:46.
