data_PCOD8202215
_publ_section_title
;
Structure prediction by ZEFSAII (Michael W. Deem and Ramdas Pophale) SiO2 
 PCOD8202215
Probable space group: P C C M
;
_chemical_formula_sum "Si O2"
_cell_formula_units_Z 64
_cell_length_a 30.144304
_cell_length_b 15.258420
_cell_length_c 8.651491
_cell_angle_alpha 90.000000
_cell_angle_beta 90.000000
_cell_angle_gamma 90.000000
_cell_volume 3979.291794
_symmetry_space_group_name_H-M "P C C M"
_symmetry_group_IT_number 49
_symmetry_cell_setting 'orthorhombic'
loop_
_space_group_symop_operation_xyz
x,y,z
-x,-y,z
x,-y,1/2-z
-x,y,1/2-z
-x,-y,-z
x,y,-z
-x,y,1/2+z
x,-y,1/2+z
loop_
_atom_site_type_symbol
_atom_site_label
_atom_site_fract_x
_atom_site_fract_y
_atom_site_fract_z
Si Si1 0.391342 0.587969 0.826458
Si Si2 0.222768 0.904277 0.181808
Si Si3 0.866935 0.902563 0.183515
Si Si4 0.546560 0.906773 0.319038
Si Si5 0.713186 0.231640 0.678101
Si Si6 0.391036 0.232797 0.822395
Si Si7 0.044417 0.902139 0.816394
Si Si8 0.714152 0.588286 0.673573
O O1 0.411090 0.500000 0.750000
O O2 0.407413 0.670816 0.726996
O O3 0.338578 0.582927 0.827845
O O4 0.409914 0.596685 0.000000
O O5 0.178915 0.859048 0.258389
O O6 0.264096 0.842198 0.217951
O O7 0.232820 0.000000 0.250000
O O8 0.215569 0.913220 0.000000
O O9 0.910721 0.854485 0.254325
O O10 0.865079 0.000000 0.250000
O O11 0.870003 0.902168 0.000000
O O12 0.500000 0.873580 0.250000
O O13 0.540938 0.917418 0.500000
O O14 0.584895 0.838159 0.282558
O O15 0.560643 0.000000 0.250000
O O16 0.725745 0.217314 0.500000
O O17 0.661038 0.222438 0.707047
O O18 0.730030 0.327683 0.728992
O O19 0.403670 0.217708 0.000000
O O20 0.000000 0.854689 0.750000
O O21 0.045185 0.000000 0.750000
O O22 0.043388 0.902851 0.000000
O O23 0.733840 0.500000 0.750000
O O24 0.732797 0.596447 0.500000
#
# Coordination Sequence:
#
# PCOD8202215 Si02
#       8
#     8   8   8   8   8   8   8   8
#     4   9  16  27  45  70  98 126 153 180 214 255
#     4  11  21  33  46  60  82 115 153 190 226 267
#     4  10  17  27  40  54  73 101 138 178 220 265
#     4  11  22  38  58  77  97 120 149 183 222 266
#     4  10  20  33  48  68  93 120 151 187 223 262
#     4  10  20  34  52  74  98 122 150 184 222 261
#     4  10  16  23  34  51  72  95 127 171 221 265
#     4   9  16  27  44  66  91 118 147 181 220 262
#
# _framework density 16.083264
#
# number of rings (size 3 to 8) (size 9 to 14) (size 15 to 20)
#    0.000    2.000    0.000    8.250    0.000    5.000 
#    0.000    0.000    0.000    0.375    0.000    2.625 
#    0.000    0.000    0.000    0.000    0.000    0.625 
#
# Total GULP energy -793485.450904 kJ/mol
# GULP energy per Si atom -12398.210170 kJ/mol
# Density = 1.604666 g / cm^3
# Si number density = 16.083264 Si / 1000 Ang^3
#
#
#
# Elastic Constant Matrix: (Units=GPa)
#
#
# Indices 1 2 3 4 5 6 
#
# 1 53.9291 38.4328 36.7090 0.0000 0.0000 0.0000
# 2 38.4328 79.0594 34.0796 0.0000 0.0000 0.0000
# 3 36.7090 34.0796 139.3010 0.0000 0.0000 0.0000
# 4 0.0000 0.0000 0.0000 26.2268 0.0000 0.0000
# 5 0.0000 0.0000 0.0000 0.0000 25.4348 0.0000
# 6 0.0000 0.0000 0.0000 0.0000 0.0000 0.0919
#
#
#
# Elastic Compliance Matrix: (Units=1/GPa)
#
#
# Indices 1 2 3 4 5 6 
#
# 1 0.031260 -0.013018 -0.005053 0.000000 0.000000 0.000000
# 2 -0.013018 0.019561 -0.001355 0.000000 0.000000 0.000000
# 3 -0.005053 -0.001355 0.008842 0.000000 0.000000 0.000000
# 4 0.000000 0.000000 0.000000 0.038129 0.000000 0.000000
# 5 0.000000 0.000000 0.000000 0.000000 0.039316 0.000000
# 6 0.000000 0.000000 0.000000 0.000000 0.000000 10.879483
#
#
# Mechanical properties :
#
#
# Convention : Reuss Voigt Hill
#
# Bulk Modulus (GPa) = 48.05194 54.52581 51.28888
# Shear Modulus (GPa) = 0.45198 21.22191 10.83694
#
# Velocity S-wave (km/s) = 0.53069 3.63644 2.59859
# Velocity P-wave (km/s) = 5.50612 7.18383 6.40018
#
# Compressibility (1/GPa) = 0.02081081
#
# Stress axis : x y z
#
# Youngs Moduli (GPa) = 31.99021 51.12158 113.09988
#
# Poissons Ratio (x) = 0.66550 0.57147
# Poissons Ratio (y) = 0.41645 0.15326
# Poissons Ratio (z) = 0.16164 0.06927
#
# Static dielectric constant tensor:
#      x y z
#    x 3.456060 0.000000 0.000000 
#    y 0.000000 2.848410 0.000000 
#    z 0.000000 0.000000 3.231440 
# 
# 
# High freq. dielectric constant tensor:
#      x y z
#    x 1.596290 0.000000 0.000000 
#    y 0.000000 1.580900 0.000000 
#    z 0.000000 0.000000 1.644400 
# 
# From -- ./inp_files/7078.got.cif
#   From: 2010.03.12/outbox.cif.g09.slc.cpg/sg49_4_cif.got.tgz:7078.got - 2010.04.14 03:58:27.
