data_PCOD8202841
_publ_section_title
;
Structure prediction by ZEFSAII (Michael W. Deem and Ramdas Pophale) SiO2 
 PCOD8202841
Probable space group: P C C M
;
_chemical_formula_sum "Si O2"
_cell_formula_units_Z 56
_cell_length_a 20.676571
_cell_length_b 14.924317
_cell_length_c 9.006095
_cell_angle_alpha 90.000000
_cell_angle_beta 90.000000
_cell_angle_gamma 90.000000
_cell_volume 2779.134118
_symmetry_space_group_name_H-M "P C C M"
_symmetry_group_IT_number 49
_symmetry_cell_setting 'orthorhombic'
loop_
_space_group_symop_operation_xyz
x,y,z
-x,-y,z
x,-y,1/2-z
-x,y,1/2-z
-x,-y,-z
x,y,-z
-x,y,1/2+z
x,-y,1/2+z
loop_
_atom_site_type_symbol
_atom_site_label
_atom_site_fract_x
_atom_site_fract_y
_atom_site_fract_z
Si Si1 0.931568 0.719248 0.172776
Si Si2 0.439229 0.103790 0.334930
Si Si3 0.816320 0.595701 0.175756
Si Si4 0.562456 0.687175 0.664473
Si Si5 0.069111 0.917033 0.672813
Si Si6 0.305405 0.287272 0.175361
Si Si7 0.308400 0.914093 0.673976
O O1 0.879675 0.648319 0.233519
O O2 0.900487 0.818624 0.200035
O O3 0.000000 0.703517 0.250000
O O4 0.944633 0.705483 0.000000
O O5 0.500000 0.061554 0.250000
O O6 0.428718 0.061954 0.500000
O O7 0.449292 0.208539 0.354315
O O8 0.382363 0.079142 0.222695
O O9 0.815193 0.500000 0.250000
O O10 0.752987 0.649619 0.225925
O O11 0.818222 0.585156 0.000000
O O12 0.500000 0.645051 0.750000
O O13 0.567235 0.642995 0.500000
O O14 0.629930 0.672503 0.750742
O O15 0.062499 0.938356 0.500000
O O16 0.000000 0.913574 0.750000
O O17 0.108610 0.000000 0.750000
O O18 0.285768 0.185568 0.225749
O O19 0.317415 0.287602 0.000000
O O20 0.299092 0.925482 0.500000
O O21 0.271486 0.000000 0.750000
#
# Coordination Sequence:
#
# PCOD8202841 Si02
#       7
#     8   8   8   8   8   8   8
#     4   9  19  35  56  83 117 152 186 225 271 320
#     4   9  16  26  40  62  94 132 173 216 258 306
#     4  10  22  41  62  84 109 141 180 224 276 334
#     4   9  16  27  48  77 107 138 176 220 268 319
#     4   9  15  25  44  72 107 147 186 223 261 306
#     4   9  19  36  56  76 105 143 180 219 269 325
#     4  10  19  31  47  68  96 133 173 214 259 310
#
# _framework density 20.15016
#
# number of rings (size 3 to 8) (size 9 to 14) (size 15 to 20)
#    0.000    2.714    0.000    2.143    0.000    6.286 
#    0.000    3.571    0.000    0.429    0.000    3.000 
#    0.000    0.000    0.000    0.000    0.000    0.000 
#
# Total GULP energy -693769.977011 kJ/mol
# GULP energy per Si atom -12388.749589 kJ/mol
# Density = 2.010430 g / cm^3
# Si number density = 20.150160 Si / 1000 Ang^3
#
#
#
# Elastic Constant Matrix: (Units=GPa)
#
#
# Indices 1 2 3 4 5 6 
#
# 1 114.4160 69.5680 44.0719 0.0000 0.0000 0.0000
# 2 69.5680 139.2255 46.1754 0.0000 0.0000 0.0000
# 3 44.0719 46.1754 81.8067 0.0000 0.0000 0.0000
# 4 0.0000 0.0000 0.0000 29.9025 0.0000 0.0000
# 5 0.0000 0.0000 0.0000 0.0000 17.1560 0.0000
# 6 0.0000 0.0000 0.0000 0.0000 0.0000 -11.1536
#
#
#
# Elastic Compliance Matrix: (Units=1/GPa)
#
#
# Indices 1 2 3 4 5 6 
#
# 1 0.013694 -0.005408 -0.004325 0.000000 0.000000 0.000000
# 2 -0.005408 0.010973 -0.003280 0.000000 0.000000 0.000000
# 3 -0.004325 -0.003280 0.016405 0.000000 0.000000 0.000000
# 4 0.000000 0.000000 0.000000 0.033442 0.000000 0.000000
# 5 0.000000 0.000000 0.000000 0.000000 0.058289 0.000000
# 6 0.000000 0.000000 0.000000 0.000000 0.000000 -0.089657
#
#
# Mechanical properties :
#
#
# Convention : Reuss Voigt Hill
#
# Bulk Modulus (GPa) = 66.46231 72.78655 69.62443
# Shear Modulus (GPa) = 67.39678 18.88985 43.14332
#
# Velocity S-wave (km/s) = 5.78964 3.06511 4.63221
# Velocity P-wave (km/s) = 8.81750 6.98047 7.95221
#
# Compressibility (1/GPa) = 0.01504612
#
# Stress axis : x y z
#
# Youngs Moduli (GPa) = 73.02263 91.13390 60.95631
#
# Poissons Ratio (x) = 0.49289 0.26363
# Poissons Ratio (y) = 0.39494 0.19993
# Poissons Ratio (z) = 0.31581 0.29891
#
# Static dielectric constant tensor:
#      x y z
#    x 3.421020 0.000000 0.000000 
#    y 0.000000 4.168420 0.000000 
#    z 0.000000 0.000000 3.800820 
# 
# 
# High freq. dielectric constant tensor:
#      x y z
#    x 1.759130 0.000000 0.000000 
#    y 0.000000 1.783240 0.000000 
#    z 0.000000 0.000000 1.788220 
# 
# From -- ./inp_files/5776.got.cif
#   From: 2010.03.12/outbox.cif.g09.slc.cpg/sg49_3_cif.got.tgz:5776.got - 2010.04.14 03:58:27.
