data_PCOD8202653
_publ_section_title
;
Structure prediction by ZEFSAII (Michael W. Deem and Ramdas Pophale) SiO2 
 PCOD8202653
Probable space group: P C C M
;
_chemical_formula_sum "Si O2"
_cell_formula_units_Z 48
_cell_length_a 9.826587
_cell_length_b 17.858707
_cell_length_c 14.031500
_cell_angle_alpha 90.000000
_cell_angle_beta 90.000000
_cell_angle_gamma 90.000000
_cell_volume 2462.389872
_symmetry_space_group_name_H-M "P C C M"
_symmetry_group_IT_number 49
_symmetry_cell_setting 'orthorhombic'
loop_
_space_group_symop_operation_xyz
x,y,z
-x,-y,z
x,-y,1/2-z
-x,y,1/2-z
-x,-y,-z
x,y,-z
-x,y,1/2+z
x,-y,1/2+z
loop_
_atom_site_type_symbol
_atom_site_label
_atom_site_fract_x
_atom_site_fract_y
_atom_site_fract_z
Si Si1 0.386064 0.289495 0.608170
Si Si2 0.126852 0.838784 0.316939
Si Si3 0.894589 0.934495 0.000000
Si Si4 0.339554 0.416900 0.744227
Si Si5 0.358326 0.961400 0.000000
Si Si6 0.361088 0.132681 0.692577
Si Si7 0.707906 0.698415 0.107530
O O1 0.335641 0.282780 0.500000
O O2 0.319188 0.366396 0.648882
O O3 0.335221 0.220532 0.671640
O O4 0.548675 0.282454 0.614906
O O5 0.076148 0.884747 0.407598
O O6 0.235277 0.890572 0.259979
O O7 0.200927 0.764546 0.352701
O O8 0.000000 0.817787 0.250000
O O9 0.745477 0.969804 0.000000
O O10 0.000000 0.000000 0.000000
O O11 0.274357 0.500000 0.750000
O O12 0.500000 0.424480 0.750000
O O13 0.267201 0.376487 0.832609
O O14 0.348812 0.911121 0.906008
O O15 0.500000 0.000000 0.000000
O O16 0.500000 0.115490 0.750000
O O17 0.751457 0.681441 0.000000
#
# Coordination Sequence:
#
# PCOD8202653 Si02
#       7
#     8   8   4   8   4   8   8
#     4  10  18  32  59  89 125 163 201 245 300 356
#     4  12  25  41  68  88 115 162 208 251 304 371
#     4  12  28  50  62  86 127 158 200 258 318 368
#     4   9  17  31  53  92 133 160 198 250 299 354
#     4  12  28  40  62  96 123 153 199 262 310 367
#     4  12  22  40  64  89 123 159 204 250 308 367
#     4  10  19  35  60  88 118 163 205 244 295 360
#
# _framework density 19.493258999999998
#
# number of rings (size 3 to 8) (size 9 to 14) (size 15 to 20)
#    0.000    1.167    5.000    2.500    0.000    4.667 
#    0.000    3.333    0.000    0.500    0.000    1.167 
#    0.000    0.000    0.000    0.000    0.000    0.000 
#
# Total GULP energy -594976.348398 kJ/mol
# GULP energy per Si atom -12395.340592 kJ/mol
# Density = 1.944889 g / cm^3
# Si number density = 19.493259 Si / 1000 Ang^3
#
#
#
# Elastic Constant Matrix: (Units=GPa)
#
#
# Indices 1 2 3 4 5 6 
#
# 1 67.9938 19.2490 39.6033 0.0000 0.0000 0.0000
# 2 19.2490 113.3654 57.0170 0.0000 0.0000 0.0000
# 3 39.6033 57.0170 164.1965 0.0000 0.0000 0.0000
# 4 0.0000 0.0000 0.0000 37.4279 0.0000 0.0000
# 5 0.0000 0.0000 0.0000 0.0000 23.7607 0.0000
# 6 0.0000 0.0000 0.0000 0.0000 0.0000 19.0256
#
#
#
# Elastic Compliance Matrix: (Units=1/GPa)
#
#
# Indices 1 2 3 4 5 6 
#
# 1 0.017206 -0.001011 -0.003799 0.000000 0.000000 0.000000
# 2 -0.001011 0.010747 -0.003488 0.000000 0.000000 0.000000
# 3 -0.003799 -0.003488 0.008218 0.000000 0.000000 0.000000
# 4 0.000000 0.000000 0.000000 0.026718 0.000000 0.000000
# 5 0.000000 0.000000 0.000000 0.000000 0.042086 0.000000
# 6 0.000000 0.000000 0.000000 0.000000 0.000000 0.052561
#
#
# Mechanical properties :
#
#
# Convention : Reuss Voigt Hill
#
# Bulk Modulus (GPa) = 51.08530 64.14380 57.61455
# Shear Modulus (GPa) = 27.67679 31.35527 29.51603
#
# Velocity S-wave (km/s) = 3.77213 4.01499 3.89545
# Velocity P-wave (km/s) = 6.72573 7.38042 7.06067
#
# Compressibility (1/GPa) = 0.01957510
#
# Stress axis : x y z
#
# Youngs Moduli (GPa) = 58.11876 93.04937 121.68720
#
# Poissons Ratio (x) = 0.09406 0.46229
# Poissons Ratio (y) = 0.05875 0.42445
# Poissons Ratio (z) = 0.22079 0.32456
#
# Static dielectric constant tensor:
#      x y z
#    x 3.316180 0.000000 0.000000 
#    y 0.000000 3.782880 0.000000 
#    z 0.000000 0.000000 3.959090 
# 
# 
# High freq. dielectric constant tensor:
#      x y z
#    x 1.723870 0.000000 0.000000 
#    y 0.000000 1.757890 0.000000 
#    z 0.000000 0.000000 1.784890 
# 
# From -- ./inp_files/11904.got.cif
#   From: 2010.03.12/outbox.cif.g09.slc.cpg/sg49_6_cif.got.tgz:11904.got - 2010.04.14 03:58:27.
