data_PCOD8202538
_publ_section_title
;
Structure prediction by ZEFSAII (Michael W. Deem and Ramdas Pophale) SiO2 
 PCOD8202538
Probable space group: P C C M
;
_chemical_formula_sum "Si O2"
_cell_formula_units_Z 56
_cell_length_a 21.538118
_cell_length_b 18.431532
_cell_length_c 8.527270
_cell_angle_alpha 90.000000
_cell_angle_beta 90.000000
_cell_angle_gamma 90.000000
_cell_volume 3385.160003
_symmetry_space_group_name_H-M "P C C M"
_symmetry_group_IT_number 49
_symmetry_cell_setting 'orthorhombic'
loop_
_space_group_symop_operation_xyz
x,y,z
-x,-y,z
x,-y,1/2-z
-x,y,1/2-z
-x,-y,-z
x,y,-z
-x,y,1/2+z
x,-y,1/2+z
loop_
_atom_site_type_symbol
_atom_site_label
_atom_site_fract_x
_atom_site_fract_y
_atom_site_fract_z
Si Si1 0.133915 0.702435 0.817832
Si Si2 0.205605 0.420602 0.184655
Si Si3 0.934639 0.830105 0.814136
Si Si4 0.432374 0.422476 0.185788
Si Si5 0.752450 0.216176 0.682209
Si Si6 0.180981 0.077401 0.820247
Si Si7 0.321961 0.666670 0.814365
O O1 0.144093 0.625969 0.728420
O O2 0.076284 0.748203 0.748918
O O3 0.195517 0.749088 0.791817
O O4 0.122747 0.687106 0.000000
O O5 0.194477 0.500000 0.250000
O O6 0.266537 0.386599 0.264351
O O7 0.216223 0.422547 0.000000
O O8 0.880869 0.884274 0.749557
O O9 0.000000 0.859510 0.750000
O O10 0.934488 0.827667 0.000000
O O11 0.409302 0.500000 0.250000
O O12 0.500000 0.402971 0.250000
O O13 0.386360 0.360508 0.244035
O O14 0.434026 0.425915 0.000000
O O15 0.764675 0.236609 0.500000
O O16 0.758288 0.129144 0.704787
O O17 0.688297 0.251855 0.742512
O O18 0.196350 0.000000 0.750000
O O19 0.167228 0.064200 0.000000
O O20 0.326522 0.670567 0.000000
#
# Coordination Sequence:
#
# PCOD8202538 Si02
#       7
#     8   8   8   8   8   8   8
#     4  10  18  30  47  67  88 115 147 185 230 277
#     4  11  20  31  46  67  92 118 149 191 235 278
#     4  10  20  34  49  68  90 119 154 189 223 267
#     4  11  21  34  48  66  94 130 167 204 240 279
#     4   9  17  31  47  67  92 121 153 190 230 273
#     4   9  19  32  48  69  97 125 152 184 227 274
#     4  11  20  31  47  69  93 123 160 197 234 277
#
# _framework density 16.542793
#
# number of rings (size 3 to 8) (size 9 to 14) (size 15 to 20)
#    0.000    1.857    0.000    9.429    0.000    3.714 
#    0.000    1.429    0.000    0.429    0.000    3.000 
#    0.000    0.571    0.000    6.000    0.000    3.286 
#
# Total GULP energy -694149.365954 kJ/mol
# GULP energy per Si atom -12395.524392 kJ/mol
# Density = 1.650514 g / cm^3
# Si number density = 16.542793 Si / 1000 Ang^3
#
#
#
# Elastic Constant Matrix: (Units=GPa)
#
#
# Indices 1 2 3 4 5 6 
#
# 1 68.7578 50.7659 30.5583 0.0000 0.0000 0.0000
# 2 50.7659 124.4966 42.7986 0.0000 0.0000 0.0000
# 3 30.5583 42.7986 110.2934 0.0000 0.0000 0.0000
# 4 0.0000 0.0000 0.0000 28.2950 0.0000 0.0000
# 5 0.0000 0.0000 0.0000 0.0000 13.1549 0.0000
# 6 0.0000 0.0000 0.0000 0.0000 0.0000 17.6406
#
#
#
# Elastic Compliance Matrix: (Units=1/GPa)
#
#
# Indices 1 2 3 4 5 6 
#
# 1 0.021617 -0.007796 -0.002964 0.000000 0.000000 0.000000
# 2 -0.007796 0.012080 -0.002528 0.000000 0.000000 0.000000
# 3 -0.002964 -0.002528 0.010869 0.000000 0.000000 0.000000
# 4 0.000000 0.000000 0.000000 0.035342 0.000000 0.000000
# 5 0.000000 0.000000 0.000000 0.000000 0.076017 0.000000
# 6 0.000000 0.000000 0.000000 0.000000 0.000000 0.056687
#
#
# Mechanical properties :
#
#
# Convention : Reuss Voigt Hill
#
# Bulk Modulus (GPa) = 55.58419 61.31038 58.44728
# Shear Modulus (GPa) = 20.39277 23.77977 22.08627
#
# Velocity S-wave (km/s) = 3.51483 3.79551 3.65787
# Velocity P-wave (km/s) = 7.08133 7.50667 7.29710
#
# Compressibility (1/GPa) = 0.01799073
#
# Stress axis : x y z
#
# Youngs Moduli (GPa) = 46.25985 82.78029 92.00599
#
# Poissons Ratio (x) = 0.64533 0.27273
# Poissons Ratio (y) = 0.36063 0.23256
# Poissons Ratio (z) = 0.13712 0.20924
#
# Static dielectric constant tensor:
#      x y z
#    x 3.030090 0.000000 0.000000 
#    y 0.000000 3.433030 0.000000 
#    z 0.000000 0.000000 3.216480 
# 
# 
# High freq. dielectric constant tensor:
#      x y z
#    x 1.602120 0.000000 0.000000 
#    y 0.000000 1.627110 0.000000 
#    z 0.000000 0.000000 1.656940 
# 
# From -- ./inp_files/6571.got.cif
#   From: 2010.03.12/outbox.cif.g09.slc.cpg/sg49_4_cif.got.tgz:6571.got - 2010.04.14 03:58:27.
