data_PCOD8202850
_publ_section_title
;
Structure prediction by ZEFSAII (Michael W. Deem and Ramdas Pophale) SiO2 
 PCOD8202850
Probable space group: P C C M
;
_chemical_formula_sum "Si O2"
_cell_formula_units_Z 64
_cell_length_a 20.651487
_cell_length_b 19.957652
_cell_length_c 9.234775
_cell_angle_alpha 90.000000
_cell_angle_beta 90.000000
_cell_angle_gamma 90.000000
_cell_volume 3806.160452
_symmetry_space_group_name_H-M "P C C M"
_symmetry_group_IT_number 49
_symmetry_cell_setting 'orthorhombic'
loop_
_space_group_symop_operation_xyz
x,y,z
-x,-y,z
x,-y,1/2-z
-x,y,1/2-z
-x,-y,-z
x,y,-z
-x,y,1/2+z
x,-y,1/2+z
loop_
_atom_site_type_symbol
_atom_site_label
_atom_site_fract_x
_atom_site_fract_y
_atom_site_fract_z
Si Si1 0.764227 0.292732 0.172923
Si Si2 0.563126 0.844453 0.329990
Si Si3 0.065197 0.930020 0.825664
Si Si4 0.619588 0.707116 0.327484
Si Si5 0.189082 0.153706 0.670858
Si Si6 0.385435 0.437988 0.661044
Si Si7 0.230645 0.437804 0.661226
Si Si8 0.688583 0.929865 0.328936
O O1 0.691856 0.280359 0.232959
O O2 0.807856 0.230497 0.229244
O O3 0.791053 0.365262 0.227656
O O4 0.762396 0.295825 0.000000
O O5 0.500000 0.873336 0.250000
O O6 0.550503 0.847098 0.500000
O O7 0.574538 0.768045 0.275157
O O8 0.624660 0.888729 0.286993
O O9 0.120956 0.877854 0.783108
O O10 0.000000 0.902544 0.750000
O O11 0.083523 0.000000 0.750000
O O12 0.057239 0.938493 0.000000
O O13 0.623485 0.705611 0.500000
O O14 0.592838 0.634512 0.273145
O O15 0.196592 0.155071 0.500000
O O16 0.248851 0.110034 0.731421
O O17 0.415017 0.500000 0.750000
O O18 0.412764 0.446242 0.500000
O O19 0.308023 0.439886 0.661074
O O20 0.201186 0.500000 0.750000
O O21 0.203209 0.445926 0.500000
O O22 0.693364 0.941692 0.500000
O O23 0.685365 0.000000 0.250000
#
# Coordination Sequence:
#
# PCOD8202850 Si02
#       8
#     8   8   8   8   8   8   8   8
#     4   8  12  22  42  65  85 110 149 187 216 253
#     4  10  20  34  51  67  85 112 146 186 228 271
#     4  10  19  31  48  69  95 126 156 187 220 262
#     4   8  13  25  44  62  82 110 144 179 217 262
#     4   9  16  28  48  72  93 117 154 191 220 257
#     4   8  13  21  36  59  82 106 136 170 210 256
#     4   8  13  20  34  56  84 114 140 172 212 257
#     4  10  20  34  52  71  90 113 144 185 228 269
#
# _framework density 16.814844999999998
#
# number of rings (size 3 to 8) (size 9 to 14) (size 15 to 20)
#    0.000    3.125    1.250    2.625    0.000    0.750 
#    0.000    2.500    0.000    3.375    0.000    2.625 
#    0.000    0.500    0.000    6.250    0.000    0.250 
#
# Total GULP energy -792952.156793 kJ/mol
# GULP energy per Si atom -12389.877450 kJ/mol
# Density = 1.677657 g / cm^3
# Si number density = 16.814845 Si / 1000 Ang^3
#
#
#
# Elastic Constant Matrix: (Units=GPa)
#
#
# Indices 1 2 3 4 5 6 
#
# 1 83.4102 60.1767 26.2774 0.0000 0.0000 0.0000
# 2 60.1767 155.1313 38.9363 0.0000 0.0000 0.0000
# 3 26.2774 38.9363 37.4371 0.0000 0.0000 0.0000
# 4 0.0000 0.0000 0.0000 24.0285 0.0000 0.0000
# 5 0.0000 0.0000 0.0000 0.0000 29.1172 0.0000
# 6 0.0000 0.0000 0.0000 0.0000 0.0000 15.7616
#
#
#
# Elastic Compliance Matrix: (Units=1/GPa)
#
#
# Indices 1 2 3 4 5 6 
#
# 1 0.018000 -0.005158 -0.007270 0.000000 0.000000 0.000000
# 2 -0.005158 0.010201 -0.006989 0.000000 0.000000 0.000000
# 3 -0.007270 -0.006989 0.039084 0.000000 0.000000 0.000000
# 4 0.000000 0.000000 0.000000 0.041617 0.000000 0.000000
# 5 0.000000 0.000000 0.000000 0.000000 0.034344 0.000000
# 6 0.000000 0.000000 0.000000 0.000000 0.000000 0.063446
#
#
# Mechanical properties :
#
#
# Convention : Reuss Voigt Hill
#
# Bulk Modulus (GPa) = 35.14883 58.52881 46.83882
# Shear Modulus (GPa) = 19.60702 23.82067 21.71384
#
# Velocity S-wave (km/s) = 3.41846 3.76792 3.59743
# Velocity P-wave (km/s) = 6.04400 7.33573 6.72097
#
# Compressibility (1/GPa) = 0.02845045
#
# Stress axis : x y z
#
# Youngs Moduli (GPa) = 55.55407 98.02822 25.58604
#
# Poissons Ratio (x) = 0.50561 0.18602
# Poissons Ratio (y) = 0.28653 0.17883
# Poissons Ratio (z) = 0.40390 0.68516
#
# Static dielectric constant tensor:
#      x y z
#    x 2.905810 0.000000 0.000000 
#    y 0.000000 3.609490 0.000000 
#    z 0.000000 0.000000 2.868330 
# 
# 
# High freq. dielectric constant tensor:
#      x y z
#    x 1.605800 0.000000 0.000000 
#    y 0.000000 1.666170 0.000000 
#    z 0.000000 0.000000 1.610560 
# 
# From -- ./inp_files/6055.got.cif
#   From: 2010.03.12/outbox.cif.g09.slc.cpg/sg49_4_cif.got.tgz:6055.got - 2010.04.14 03:58:27.
