data_PCOD8202687
_publ_section_title
;
Structure prediction by ZEFSAII (Michael W. Deem and Ramdas Pophale) SiO2 
 PCOD8202687
Probable space group: P C C M
;
_chemical_formula_sum "Si O2"
_cell_formula_units_Z 48
_cell_length_a 16.819816
_cell_length_b 8.934598
_cell_length_c 17.040785
_cell_angle_alpha 90.000000
_cell_angle_beta 90.000000
_cell_angle_gamma 90.000000
_cell_volume 2560.860105
_symmetry_space_group_name_H-M "P C C M"
_symmetry_group_IT_number 49
_symmetry_cell_setting 'orthorhombic'
loop_
_space_group_symop_operation_xyz
x,y,z
-x,-y,z
x,-y,1/2-z
-x,y,1/2-z
-x,-y,-z
x,y,-z
-x,y,1/2+z
x,-y,1/2+z
loop_
_atom_site_type_symbol
_atom_site_label
_atom_site_fract_x
_atom_site_fract_y
_atom_site_fract_z
Si Si1 0.850224 0.695579 0.087338
Si Si2 0.875731 0.406750 0.170482
Si Si3 0.669266 0.325910 0.590075
Si Si4 0.993577 0.839496 0.160493
Si Si5 0.408858 0.174908 0.237921
Si Si6 0.301999 0.391098 0.322300
O O1 0.867844 0.520602 0.098527
O O2 0.758649 0.734297 0.104051
O O3 0.904258 0.785009 0.147580
O O4 0.875178 0.740930 0.000000
O O5 0.899989 0.500000 0.250000
O O6 0.939840 0.285101 0.140858
O O7 0.788814 0.330228 0.177665
O O8 0.641436 0.297326 0.500000
O O9 0.614938 0.232675 0.650709
O O10 0.670376 0.507022 0.603593
O O11 0.000000 0.876177 0.250000
O O12 0.000000 0.000000 0.115019
O O13 0.500000 0.218658 0.250000
O O14 0.359462 0.250885 0.308678
O O15 0.394169 0.000000 0.250000
O O16 0.312200 0.500000 0.250000
#
# Coordination Sequence:
#
# PCOD8202687 Si02
#       6
#     8   8   8   8   8   8
#     4  10  21  37  57  80 106 143 185 231 281 325
#     4  10  18  34  54  75 102 139 186 231 269 321
#     4   9  19  38  61  85 113 145 186 236 286 327
#     4  11  23  33  48  78 113 146 191 228 271 322
#     4  10  21  37  57  85 120 151 185 220 272 340
#     4   8  17  33  55  79 104 141 186 234 274 324
#
# _framework density 18.743701999999999
#
# number of rings (size 3 to 8) (size 9 to 14) (size 15 to 20)
#    0.000    2.333    1.667    1.500    0.000    6.000 
#    0.000    4.167    0.000    4.000    0.000    0.000 
#    0.000    0.000    0.000    0.000    0.000    0.000 
#
# Total GULP energy -594661.655743 kJ/mol
# GULP energy per Si atom -12388.784495 kJ/mol
# Density = 1.870104 g / cm^3
# Si number density = 18.743702 Si / 1000 Ang^3
#
#
#
# Elastic Constant Matrix: (Units=GPa)
#
#
# Indices 1 2 3 4 5 6 
#
# 1 127.4329 65.5370 47.2911 0.0000 0.0000 0.0000
# 2 65.5370 88.6446 31.3254 0.0000 0.0000 0.0000
# 3 47.2911 31.3254 91.4441 0.0000 0.0000 0.0000
# 4 0.0000 0.0000 0.0000 136.4375 0.0000 0.0000
# 5 0.0000 0.0000 0.0000 0.0000 18.1657 0.0000
# 6 0.0000 0.0000 0.0000 0.0000 0.0000 31.9917
#
#
#
# Elastic Compliance Matrix: (Units=1/GPa)
#
#
# Indices 1 2 3 4 5 6 
#
# 1 0.013940 -0.008827 -0.004185 0.000000 0.000000 0.000000
# 2 -0.008827 0.018424 -0.001746 0.000000 0.000000 0.000000
# 3 -0.004185 -0.001746 0.013698 0.000000 0.000000 0.000000
# 4 0.000000 0.000000 0.000000 0.007329 0.000000 0.000000
# 5 0.000000 0.000000 0.000000 0.000000 0.055049 0.000000
# 6 0.000000 0.000000 0.000000 0.000000 0.000000 0.031258
#
#
# Mechanical properties :
#
#
# Convention : Reuss Voigt Hill
#
# Bulk Modulus (GPa) = 60.44187 66.20316 63.32252
# Shear Modulus (GPa) = 28.61517 48.21019 38.41268
#
# Velocity S-wave (km/s) = 3.91148 5.07706 4.53190
# Velocity P-wave (km/s) = 7.26058 8.35258 7.82566
#
# Compressibility (1/GPa) = 0.01654482
#
# Stress axis : x y z
#
# Youngs Moduli (GPa) = 71.73471 54.27594 73.00112
#
# Poissons Ratio (x) = 0.47911 0.30554
# Poissons Ratio (y) = 0.63322 0.12749
# Poissons Ratio (z) = 0.30024 0.09479
#
# Static dielectric constant tensor:
#      x y z
#    x 3.543100 0.000000 0.000000 
#    y 0.000000 3.530830 0.000000 
#    z 0.000000 0.000000 3.524200 
# 
# 
# High freq. dielectric constant tensor:
#      x y z
#    x 1.730220 0.000000 0.000000 
#    y 0.000000 1.715890 0.000000 
#    z 0.000000 0.000000 1.712420 
# 
# From -- ./inp_files/16251.got.cif
#   From: 2010.03.12/outbox.cif.g09.slc.cpg/sg49_9_cif.got.tgz:16251.got - 2010.04.14 03:58:27.
