data_PCOD8202559
_publ_section_title
;
Structure prediction by ZEFSAII (Michael W. Deem and Ramdas Pophale) SiO2 
 PCOD8202559
Probable space group: P C C M
;
_chemical_formula_sum "Si O2"
_cell_formula_units_Z 56
_cell_length_a 18.818881
_cell_length_b 18.586241
_cell_length_c 9.041229
_cell_angle_alpha 90.000000
_cell_angle_beta 90.000000
_cell_angle_gamma 90.000000
_cell_volume 3162.371079
_symmetry_space_group_name_H-M "P C C M"
_symmetry_group_IT_number 49
_symmetry_cell_setting 'orthorhombic'
loop_
_space_group_symop_operation_xyz
x,y,z
-x,-y,z
x,-y,1/2-z
-x,y,1/2-z
-x,-y,-z
x,y,-z
-x,y,1/2+z
x,-y,1/2+z
loop_
_atom_site_type_symbol
_atom_site_label
_atom_site_fract_x
_atom_site_fract_y
_atom_site_fract_z
Si Si1 0.790438 0.661682 0.328906
Si Si2 0.710955 0.784689 0.168756
Si Si3 0.348063 0.575566 0.826684
Si Si4 0.786106 0.926877 0.828087
Si Si5 0.070700 0.853167 0.672947
Si Si6 0.928655 0.686128 0.173119
Si Si7 0.571488 0.297062 0.671648
O O1 0.810171 0.668614 0.500000
O O2 0.758499 0.737295 0.276715
O O3 0.733341 0.598940 0.299520
O O4 0.861566 0.642569 0.238279
O O5 0.724772 0.868241 0.205182
O O6 0.627974 0.767516 0.190968
O O7 0.735207 0.767488 0.000000
O O8 0.361308 0.500000 0.750000
O O9 0.401506 0.631268 0.751478
O O10 0.365720 0.571030 0.000000
O O11 0.861689 0.897594 0.767712
O O12 0.763459 0.000000 0.750000
O O13 0.792531 0.942985 0.000000
O O14 0.060620 0.863183 0.500000
O O15 0.082617 0.769793 0.712926
O O16 0.000000 0.883709 0.750000
O O17 0.000000 0.656861 0.250000
O O18 0.934325 0.671718 0.000000
O O19 0.500000 0.270115 0.750000
O O20 0.557806 0.314379 0.500000
#
# Coordination Sequence:
#
# PCOD8202559 Si02
#       7
#     8   8   8   8   8   8   8
#     4  10  19  31  51  77 102 131 171 216 256 300
#     4   9  18  35  54  72 100 135 170 208 254 306
#     4  10  21  36  54  80 112 142 174 206 243 298
#     4  10  20  34  49  70  98 132 173 214 259 307
#     4   9  18  31  46  65  95 130 167 210 254 305
#     4  10  18  30  48  71  99 132 171 217 265 310
#     4  10  20  35  58  83 108 138 168 205 251 299
#
# _framework density 17.708231000000001
#
# number of rings (size 3 to 8) (size 9 to 14) (size 15 to 20)
#    0.000    2.286    1.429    1.714    0.000    4.571 
#    0.000    2.857    0.000    0.857    0.000    6.000 
#    0.000    0.000    0.000    0.000    0.000    0.000 
#
# Total GULP energy -694494.191297 kJ/mol
# GULP energy per Si atom -12401.681987 kJ/mol
# Density = 1.766793 g / cm^3
# Si number density = 17.708231 Si / 1000 Ang^3
#
#
#
# Elastic Constant Matrix: (Units=GPa)
#
#
# Indices 1 2 3 4 5 6 
#
# 1 120.9934 39.9865 55.4076 0.0000 0.0000 0.0000
# 2 39.9865 73.5576 29.6285 0.0000 0.0000 0.0000
# 3 55.4076 29.6285 86.3259 0.0000 0.0000 0.0000
# 4 0.0000 0.0000 0.0000 25.4779 0.0000 0.0000
# 5 0.0000 0.0000 0.0000 0.0000 32.6977 0.0000
# 6 0.0000 0.0000 0.0000 0.0000 0.0000 18.2335
#
#
#
# Elastic Compliance Matrix: (Units=1/GPa)
#
#
# Indices 1 2 3 4 5 6 
#
# 1 0.012740 -0.004215 -0.006731 0.000000 0.000000 0.000000
# 2 -0.004215 0.017170 -0.003188 0.000000 0.000000 0.000000
# 3 -0.006731 -0.003188 0.016998 0.000000 0.000000 0.000000
# 4 0.000000 0.000000 0.000000 0.039250 0.000000 0.000000
# 5 0.000000 0.000000 0.000000 0.000000 0.030583 0.000000
# 6 0.000000 0.000000 0.000000 0.000000 0.000000 0.054844
#
#
# Mechanical properties :
#
#
# Convention : Reuss Voigt Hill
#
# Bulk Modulus (GPa) = 53.64246 58.99137 56.31692
# Shear Modulus (GPa) = 24.26420 25.67210 24.96815
#
# Velocity S-wave (km/s) = 3.70567 3.81166 3.75904
# Velocity P-wave (km/s) = 6.97620 7.26340 7.12125
#
# Compressibility (1/GPa) = 0.01864195
#
# Stress axis : x y z
#
# Youngs Moduli (GPa) = 78.49348 58.24145 58.83009
#
# Poissons Ratio (x) = 0.24546 0.39596
# Poissons Ratio (y) = 0.33081 0.18755
# Poissons Ratio (z) = 0.52830 0.18567
#
# Static dielectric constant tensor:
#      x y z
#    x 3.401370 0.000000 0.000000 
#    y 0.000000 3.033210 0.000000 
#    z 0.000000 0.000000 3.329840 
# 
# 
# High freq. dielectric constant tensor:
#      x y z
#    x 1.686780 0.000000 0.000000 
#    y 0.000000 1.653200 0.000000 
#    z 0.000000 0.000000 1.693840 
# 
# From -- ./inp_files/5171.got.cif
#   From: 2010.03.12/outbox.cif.g09.slc.cpg/sg49_3_cif.got.tgz:5171.got - 2010.04.14 03:58:27.
