data_PCOD8202913
_publ_section_title
;
Structure prediction by ZEFSAII (Michael W. Deem and Ramdas Pophale) SiO2 
 PCOD8202913
Probable space group: P C C M
;
_chemical_formula_sum "Si O2"
_cell_formula_units_Z 64
_cell_length_a 9.468523
_cell_length_b 16.434042
_cell_length_c 23.084516
_cell_angle_alpha 90.000000
_cell_angle_beta 90.000000
_cell_angle_gamma 90.000000
_cell_volume 3592.091613
_symmetry_space_group_name_H-M "P C C M"
_symmetry_group_IT_number 49
_symmetry_cell_setting 'orthorhombic'
loop_
_space_group_symop_operation_xyz
x,y,z
-x,-y,z
x,-y,1/2-z
-x,y,1/2-z
-x,-y,-z
x,y,-z
-x,y,1/2+z
x,-y,1/2+z
loop_
_atom_site_type_symbol
_atom_site_label
_atom_site_fract_x
_atom_site_fract_y
_atom_site_fract_z
Si Si1 0.166217 0.502405 0.563362
Si Si2 0.473193 0.089534 0.567609
Si Si3 0.170764 0.648140 0.859441
Si Si4 0.833031 0.344958 0.363618
Si Si5 0.211847 0.196860 0.567731
Si Si6 0.331851 0.403773 0.247883
Si Si7 0.025778 0.914080 0.434607
Si Si8 0.723014 0.805606 0.933826
O O1 0.236838 0.492623 0.500000
O O2 0.217690 0.430763 0.604694
O O3 0.211569 0.588528 0.589183
O O4 0.000000 0.500000 0.556883
O O5 0.505717 0.081164 0.500000
O O6 0.318030 0.122628 0.580807
O O7 0.573873 0.162466 0.590599
O O8 0.500000 0.000000 0.596366
O O9 0.236944 0.723722 0.894046
O O10 0.252377 0.642568 0.799335
O O11 0.001101 0.652962 0.849885
O O12 0.738379 0.363461 0.308059
O O13 0.788868 0.258971 0.390149
O O14 0.213407 0.222934 0.500000
O O15 0.063364 0.161233 0.590572
O O16 0.299468 0.500000 0.250000
O O17 0.500000 0.387185 0.250000
O O18 0.967693 0.925147 0.500000
O O19 0.187891 0.889266 0.432502
O O20 0.000000 0.000000 0.401532
O O21 0.717810 0.770884 0.000000
#
# Coordination Sequence:
#
# PCOD8202913 Si02
#       8
#     8   8   8   8   8   8   8   8
#     4   9  18  31  53  82 114 147 176 211 268 335
#     4   9  18  32  50  76 115 160 194 220 267 337
#     4  11  21  36  58  83 111 146 188 232 279 326
#     4  11  21  36  58  83 111 146 188 232 279 326
#     4  10  19  31  51  83 119 149 183 229 275 332
#     4  11  25  43  61  79 104 143 192 245 280 323
#     4   9  16  28  48  76 113 150 180 218 273 329
#     4  10  19  31  51  83 119 149 183 229 275 332
#
# _framework density 17.816918000000001
#
# number of rings (size 3 to 8) (size 9 to 14) (size 15 to 20)
#    0.000    2.000    2.500    1.875    1.750    4.500 
#    0.000    0.000    0.000    0.750    0.000    5.250 
#    0.000    0.000    0.000    0.000    0.000    0.000 
#
# Total GULP energy -793149.119960 kJ/mol
# GULP energy per Si atom -12392.954999 kJ/mol
# Density = 1.777637 g / cm^3
# Si number density = 17.816918 Si / 1000 Ang^3
#
#
#
# Elastic Constant Matrix: (Units=GPa)
#
#
# Indices 1 2 3 4 5 6 
#
# 1 72.6665 23.1859 33.6703 0.0000 0.0000 0.0000
# 2 23.1859 99.5858 36.3960 0.0000 0.0000 0.0000
# 3 33.6703 36.3960 89.4847 0.0000 0.0000 0.0000
# 4 0.0000 0.0000 0.0000 12.2575 0.0000 0.0000
# 5 0.0000 0.0000 0.0000 0.0000 20.1251 0.0000
# 6 0.0000 0.0000 0.0000 0.0000 0.0000 27.3470
#
#
#
# Elastic Compliance Matrix: (Units=1/GPa)
#
#
# Indices 1 2 3 4 5 6 
#
# 1 0.016968 -0.001900 -0.005612 0.000000 0.000000 0.000000
# 2 -0.001900 0.012008 -0.004169 0.000000 0.000000 0.000000
# 3 -0.005612 -0.004169 0.014982 0.000000 0.000000 0.000000
# 4 0.000000 0.000000 0.000000 0.081583 0.000000 0.000000
# 5 0.000000 0.000000 0.000000 0.000000 0.049689 0.000000
# 6 0.000000 0.000000 0.000000 0.000000 0.000000 0.036567
#
#
# Mechanical properties :
#
#
# Convention : Reuss Voigt Hill
#
# Bulk Modulus (GPa) = 48.55126 49.80459 49.17792
# Shear Modulus (GPa) = 20.65918 23.17826 21.91872
#
# Velocity S-wave (km/s) = 3.40888 3.61073 3.51125
# Velocity P-wave (km/s) = 6.54241 6.73776 6.64080
#
# Compressibility (1/GPa) = 0.02059679
#
# Stress axis : x y z
#
# Youngs Moduli (GPa) = 58.93494 83.28110 66.74518
#
# Poissons Ratio (x) = 0.15819 0.37457
# Poissons Ratio (y) = 0.11195 0.27827
# Poissons Ratio (z) = 0.33074 0.34721
#
# Static dielectric constant tensor:
#      x y z
#    x 3.279110 0.000000 0.000000 
#    y 0.000000 3.386680 0.000000 
#    z 0.000000 0.000000 3.064690 
# 
# 
# High freq. dielectric constant tensor:
#      x y z
#    x 1.690050 0.000000 0.000000 
#    y 0.000000 1.701520 0.000000 
#    z 0.000000 0.000000 1.646340 
# 
# From -- ./inp_files/22570.got.cif
#   From: 2010.03.12/outbox.cif.g09.slc.cpg/sg49_12_cif.got.tgz:22570.got - 2010.04.14 03:58:27.
