data_PCOD8202439
_publ_section_title
;
Structure prediction by ZEFSAII (Michael W. Deem and Ramdas Pophale) SiO2 
 PCOD8202439
Probable space group: P C C M
;
_chemical_formula_sum "Si O2"
_cell_formula_units_Z 64
_cell_length_a 26.429315
_cell_length_b 18.238934
_cell_length_c 8.735944
_cell_angle_alpha 90.000000
_cell_angle_beta 90.000000
_cell_angle_gamma 90.000000
_cell_volume 4211.096565
_symmetry_space_group_name_H-M "P C C M"
_symmetry_group_IT_number 49
_symmetry_cell_setting 'orthorhombic'
loop_
_space_group_symop_operation_xyz
x,y,z
-x,-y,z
x,-y,1/2-z
-x,y,1/2-z
-x,-y,-z
x,y,-z
-x,y,1/2+z
x,-y,1/2+z
loop_
_atom_site_type_symbol
_atom_site_label
_atom_site_fract_x
_atom_site_fract_y
_atom_site_fract_z
Si Si1 0.649848 0.331343 0.180084
Si Si2 0.447379 0.578386 0.180760
Si Si3 0.699462 0.202344 0.670935
Si Si4 0.200433 0.298503 0.830872
Si Si5 0.053940 0.078104 0.682298
Si Si6 0.242550 0.078404 0.681365
Si Si7 0.146185 0.157122 0.818014
Si Si8 0.253993 0.421685 0.678116
O O1 0.595727 0.363949 0.226725
O O2 0.654559 0.251487 0.257543
O O3 0.693469 0.386903 0.239845
O O4 0.655751 0.320665 0.000000
O O5 0.432671 0.500000 0.250000
O O6 0.500000 0.607552 0.250000
O O7 0.452598 0.569647 0.000000
O O8 0.684037 0.177322 0.500000
O O9 0.749163 0.251036 0.666266
O O10 0.710667 0.131443 0.774767
O O11 0.156310 0.242821 0.777192
O O12 0.207160 0.367606 0.718483
O O13 0.188751 0.329428 0.000000
O O14 0.050928 0.073140 0.500000
O O15 0.093910 0.138551 0.735388
O O16 0.000000 0.101656 0.750000
O O17 0.070998 0.000000 0.750000
O O18 0.236517 0.074694 0.500000
O O19 0.190093 0.105213 0.753981
O O20 0.256260 0.000000 0.750000
O O21 0.142987 0.145206 0.000000
O O22 0.244166 0.500000 0.750000
O O23 0.256474 0.433337 0.500000
#
# Coordination Sequence:
#
# PCOD8202439 Si02
#       8
#     8   8   8   8   8   8   8   8
#     4   9  18  30  43  60  82 112 145 178 214 256
#     4  10  19  30  43  60  84 112 146 183 220 256
#     4   9  17  29  44  62  83 109 140 175 213 254
#     4   8  16  29  43  59  82 109 138 172 209 249
#     4  11  21  33  47  64  87 115 147 183 219 254
#     4  11  20  30  44  63  88 116 146 178 211 251
#     4  10  19  32  47  64  86 114 147 180 216 257
#     4  10  18  27  41  60  84 111 142 175 210 251
#
# _framework density 15.197941999999999
#
# number of rings (size 3 to 8) (size 9 to 14) (size 15 to 20)
#    0.000    2.250    0.000    6.000    0.000    5.000 
#    0.000    0.000    0.000    0.000    0.000    0.000 
#    0.000    1.000    0.000   10.500    0.000    5.125 
#
# Total GULP energy -793499.342208 kJ/mol
# GULP energy per Si atom -12398.427222 kJ/mol
# Density = 1.516335 g / cm^3
# Si number density = 15.197942 Si / 1000 Ang^3
#
#
#
# Elastic Constant Matrix: (Units=GPa)
#
#
# Indices 1 2 3 4 5 6 
#
# 1 82.2201 52.0141 38.1127 0.0000 0.0000 0.0000
# 2 52.0141 98.8920 44.9817 0.0000 0.0000 0.0000
# 3 38.1127 44.9817 95.3889 0.0000 0.0000 0.0000
# 4 0.0000 0.0000 0.0000 27.0894 0.0000 0.0000
# 5 0.0000 0.0000 0.0000 0.0000 21.5664 0.0000
# 6 0.0000 0.0000 0.0000 0.0000 0.0000 26.4781
#
#
#
# Elastic Compliance Matrix: (Units=1/GPa)
#
#
# Indices 1 2 3 4 5 6 
#
# 1 0.019203 -0.008415 -0.003704 0.000000 0.000000 0.000000
# 2 -0.008415 0.016561 -0.004447 0.000000 0.000000 0.000000
# 3 -0.003704 -0.004447 0.014061 0.000000 0.000000 0.000000
# 4 0.000000 0.000000 0.000000 0.036915 0.000000 0.000000
# 5 0.000000 0.000000 0.000000 0.000000 0.046368 0.000000
# 6 0.000000 0.000000 0.000000 0.000000 0.000000 0.037767
#
#
# Mechanical properties :
#
#
# Convention : Reuss Voigt Hill
#
# Bulk Modulus (GPa) = 59.91188 60.74646 60.32917
# Shear Modulus (GPa) = 23.85804 24.45296 24.15550
#
# Velocity S-wave (km/s) = 3.96639 4.01554 3.99104
# Velocity P-wave (km/s) = 7.77708 7.84579 7.81151
#
# Compressibility (1/GPa) = 0.01669118
#
# Stress axis : x y z
#
# Youngs Moduli (GPa) = 52.07420 60.38238 71.12076
#
# Poissons Ratio (x) = 0.50814 0.26345
# Poissons Ratio (y) = 0.43823 0.31629
# Poissons Ratio (z) = 0.19290 0.26853
#
# Static dielectric constant tensor:
#      x y z
#    x 2.822870 0.000000 0.000000 
#    y 0.000000 2.970340 0.000000 
#    z 0.000000 0.000000 3.086050 
# 
# 
# High freq. dielectric constant tensor:
#      x y z
#    x 1.548670 0.000000 0.000000 
#    y 0.000000 1.570670 0.000000 
#    z 0.000000 0.000000 1.599670 
# 
# From -- ./inp_files/6793.got.cif
#   From: 2010.03.12/outbox.cif.g09.slc.cpg/sg49_4_cif.got.tgz:6793.got - 2010.04.14 03:58:27.
