data_PCOD8202255
_publ_section_title
;
Structure prediction by ZEFSAII (Michael W. Deem and Ramdas Pophale) SiO2 
 PCOD8202255
Probable space group: P C C M
;
_chemical_formula_sum "Si O2"
_cell_formula_units_Z 48
_cell_length_a 24.085520
_cell_length_b 13.524199
_cell_length_c 8.769950
_cell_angle_alpha 90.000000
_cell_angle_beta 90.000000
_cell_angle_gamma 90.000000
_cell_volume 2856.700409
_symmetry_space_group_name_H-M "P C C M"
_symmetry_group_IT_number 49
_symmetry_cell_setting 'orthorhombic'
loop_
_space_group_symop_operation_xyz
x,y,z
-x,-y,z
x,-y,1/2-z
-x,y,1/2-z
-x,-y,-z
x,y,-z
-x,y,1/2+z
x,-y,1/2+z
loop_
_atom_site_type_symbol
_atom_site_label
_atom_site_fract_x
_atom_site_fract_y
_atom_site_fract_z
Si Si1 0.554982 0.390375 0.181555
Si Si2 0.837867 0.899427 0.821000
Si Si3 0.117950 0.398600 0.321574
Si Si4 0.218803 0.301115 0.176107
Si Si5 0.665676 0.606848 0.820815
Si Si6 0.059259 0.799854 0.180520
O O1 0.556461 0.500000 0.250000
O O2 0.500000 0.336151 0.250000
O O3 0.612075 0.340874 0.241342
O O4 0.552271 0.391129 0.000000
O O5 0.794692 0.812100 0.780043
O O6 0.897498 0.878676 0.746157
O O7 0.813341 0.000000 0.750000
O O8 0.845749 0.911550 0.000000
O O9 0.095611 0.500000 0.250000
O O10 0.117176 0.411371 0.500000
O O11 0.180868 0.376349 0.271005
O O12 0.077650 0.310162 0.267755
O O13 0.282896 0.321201 0.214127
O O14 0.205413 0.321575 0.000000
O O15 0.678532 0.500000 0.750000
O O16 0.654552 0.594193 0.000000
O O17 0.000000 0.824916 0.250000
O O18 0.057393 0.809966 0.000000
#
# Coordination Sequence:
#
# PCOD8202255 Si02
#       6
#     8   8   8   8   8   8
#     4  10  17  26  39  57  84 121 160 196 228 261
#     4  10  20  36  55  74  94 118 146 183 230 279
#     4  10  20  32  48  68  93 123 155 187 224 266
#     4   9  19  33  49  68  93 121 152 189 229 271
#     4  10  18  28  42  64  92 124 158 191 224 262
#     4  10  21  36  52  72  94 119 150 187 225 269
#
# _framework density 16.802602
#
# number of rings (size 3 to 8) (size 9 to 14) (size 15 to 20)
#    0.000    2.167    0.000    5.500    0.000    6.000 
#    0.000    3.333    0.000    0.000    0.000    0.000 
#    0.000    0.667    0.000    7.667    0.000    2.333 
#
# Total GULP energy -595192.510922 kJ/mol
# GULP energy per Si atom -12399.843978 kJ/mol
# Density = 1.676436 g / cm^3
# Si number density = 16.802602 Si / 1000 Ang^3
#
#
#
# Elastic Constant Matrix: (Units=GPa)
#
#
# Indices 1 2 3 4 5 6 
#
# 1 118.1953 27.6606 40.4978 0.0000 0.0000 0.0000
# 2 27.6606 71.8258 24.7079 0.0000 0.0000 0.0000
# 3 40.4978 24.7079 89.2112 0.0000 0.0000 0.0000
# 4 0.0000 0.0000 0.0000 23.7738 0.0000 0.0000
# 5 0.0000 0.0000 0.0000 0.0000 26.7879 0.0000
# 6 0.0000 0.0000 0.0000 0.0000 0.0000 13.1609
#
#
#
# Elastic Compliance Matrix: (Units=1/GPa)
#
#
# Indices 1 2 3 4 5 6 
#
# 1 0.010455 -0.002646 -0.004013 0.000000 0.000000 0.000000
# 2 -0.002646 0.016058 -0.003246 0.000000 0.000000 0.000000
# 3 -0.004013 -0.003246 0.013930 0.000000 0.000000 0.000000
# 4 0.000000 0.000000 0.000000 0.042063 0.000000 0.000000
# 5 0.000000 0.000000 0.000000 0.000000 0.037330 0.000000
# 6 0.000000 0.000000 0.000000 0.000000 0.000000 0.075983
#
#
# Mechanical properties :
#
#
# Convention : Reuss Voigt Hill
#
# Bulk Modulus (GPa) = 48.46709 51.66279 50.06494
# Shear Modulus (GPa) = 22.47112 25.16891 23.82002
#
# Velocity S-wave (km/s) = 3.66096 3.87449 3.76924
# Velocity P-wave (km/s) = 6.83943 7.12946 6.98595
#
# Compressibility (1/GPa) = 0.02063256
#
# Stress axis : x y z
#
# Youngs Moduli (GPa) = 95.64975 62.27344 71.78576
#
# Poissons Ratio (x) = 0.16475 0.28810
# Poissons Ratio (y) = 0.25306 0.23305
# Poissons Ratio (z) = 0.38387 0.20217
#
# Static dielectric constant tensor:
#      x y z
#    x 3.600600 0.000000 0.000000 
#    y 0.000000 2.994960 0.000000 
#    z 0.000000 0.000000 3.253050 
# 
# 
# High freq. dielectric constant tensor:
#      x y z
#    x 1.648270 0.000000 0.000000 
#    y 0.000000 1.609580 0.000000 
#    z 0.000000 0.000000 1.665800 
# 
# From -- ./inp_files/2887.got.cif
#   From: 2010.03.12/outbox.cif.g09.slc.cpg/sg49_2_cif.got.tgz:2887.got - 2010.04.14 03:58:27.
