data_PCOD8202212
_publ_section_title
;
Structure prediction by ZEFSAII (Michael W. Deem and Ramdas Pophale) SiO2 
 PCOD8202212
Probable space group: P C C M
;
_chemical_formula_sum "Si O2"
_cell_formula_units_Z 40
_cell_length_a 15.341194
_cell_length_b 20.711467
_cell_length_c 8.611469
_cell_angle_alpha 90.000000
_cell_angle_beta 90.000000
_cell_angle_gamma 90.000000
_cell_volume 2736.196391
_symmetry_space_group_name_H-M "P C C M"
_symmetry_group_IT_number 49
_symmetry_cell_setting 'orthorhombic'
loop_
_space_group_symop_operation_xyz
x,y,z
-x,-y,z
x,-y,1/2-z
-x,y,1/2-z
-x,-y,-z
x,y,-z
-x,y,1/2+z
x,-y,1/2+z
loop_
_atom_site_type_symbol
_atom_site_label
_atom_site_fract_x
_atom_site_fract_y
_atom_site_fract_z
Si Si1 0.905073 0.675672 0.182145
Si Si2 0.097007 0.806095 0.816233
Si Si3 0.763175 0.570309 0.818107
Si Si4 0.413047 0.428102 0.316472
Si Si5 0.902571 0.935265 0.816073
O O1 0.859705 0.739027 0.260050
O O2 0.844989 0.614949 0.222023
O O3 0.000000 0.660362 0.250000
O O4 0.913454 0.688290 0.000000
O O5 0.144848 0.869753 0.744755
O O6 0.000000 0.802896 0.750000
O O7 0.097317 0.811662 0.000000
O O8 0.783456 0.500000 0.750000
O O9 0.677071 0.603766 0.742400
O O10 0.746873 0.563686 0.000000
O O11 0.411463 0.500000 0.250000
O O12 0.500000 0.392462 0.250000
O O13 0.417073 0.428151 0.500000
O O14 0.000000 0.933969 0.750000
O O15 0.855361 0.000000 0.750000
O O16 0.903293 0.937140 0.000000
#
# Coordination Sequence:
#
# PCOD8202212 Si02
#       5
#     8   8   8   8   8
#     4  10  20  32  44  57  75 102 135 171 205 239
#     4  10  17  26  39  53  70  94 125 159 195 234
#     4  10  20  32  45  61  80 101 130 166 204 242
#     4  10  17  27  44  63  83 102 122 150 190 238
#     4  10  16  23  34  50  71  92 118 152 191 230
#
# _framework density 14.618834
#
# number of rings (size 3 to 8) (size 9 to 14) (size 15 to 20)
#    0.000    2.000    0.000   11.400    0.000    3.600 
#    0.000    2.000    0.000    0.000    0.000    0.000 
#    0.000    0.000    0.000    0.000    0.000    1.000 
#
# Total GULP energy -495685.189550 kJ/mol
# GULP energy per Si atom -12392.129739 kJ/mol
# Density = 1.458556 g / cm^3
# Si number density = 14.618834 Si / 1000 Ang^3
#
#
#
# Elastic Constant Matrix: (Units=GPa)
#
#
# Indices 1 2 3 4 5 6 
#
# 1 64.5462 39.2863 39.9277 0.0000 0.0000 0.0000
# 2 39.2863 100.9716 54.5579 0.0000 0.0000 0.0000
# 3 39.9277 54.5579 145.7370 0.0000 0.0000 0.0000
# 4 0.0000 0.0000 0.0000 27.0418 0.0000 0.0000
# 5 0.0000 0.0000 0.0000 0.0000 10.9037 0.0000
# 6 0.0000 0.0000 0.0000 0.0000 0.0000 0.3060
#
#
#
# Elastic Compliance Matrix: (Units=1/GPa)
#
#
# Indices 1 2 3 4 5 6 
#
# 1 0.021620 -0.006533 -0.003478 0.000000 0.000000 0.000000
# 2 -0.006533 0.014389 -0.003597 0.000000 0.000000 0.000000
# 3 -0.003478 -0.003597 0.009161 0.000000 0.000000 0.000000
# 4 0.000000 0.000000 0.000000 0.036980 0.000000 0.000000
# 5 0.000000 0.000000 0.000000 0.000000 0.091712 0.000000
# 6 0.000000 0.000000 0.000000 0.000000 0.000000 3.267647
#
#
# Mechanical properties :
#
#
# Convention : Reuss Voigt Hill
#
# Bulk Modulus (GPa) = 55.69348 64.31097 60.00222
# Shear Modulus (GPa) = 1.43897 19.48248 10.46072
#
# Velocity S-wave (km/s) = 0.99321 3.65457 2.67791
# Velocity P-wave (km/s) = 6.28451 7.86735 7.12005
#
# Compressibility (1/GPa) = 0.01795542
#
# Stress axis : x y z
#
# Youngs Moduli (GPa) = 46.25259 69.49682 109.15884
#
# Poissons Ratio (x) = 0.45403 0.37962
# Poissons Ratio (y) = 0.30217 0.39263
# Poissons Ratio (z) = 0.16085 0.24997
#
# Static dielectric constant tensor:
#      x y z
#    x 2.942140 0.000000 0.000000 
#    y 0.000000 3.735810 0.000000 
#    z 0.000000 0.000000 3.006850 
# 
# 
# High freq. dielectric constant tensor:
#      x y z
#    x 1.502150 0.000000 0.000000 
#    y 0.000000 1.550540 0.000000 
#    z 0.000000 0.000000 1.587020 
# 
# From -- ./inp_files/4939.got.cif
#   From: 2010.03.12/outbox.cif.g09.slc.cpg/sg49_3_cif.got.tgz:4939.got - 2010.04.14 03:58:27.
