data_PCOD8202311
_publ_section_title
;
Structure prediction by ZEFSAII (Michael W. Deem and Ramdas Pophale) SiO2 
 PCOD8202311
Probable space group: P C C M
;
_chemical_formula_sum "Si O2"
_cell_formula_units_Z 58
_cell_length_a 15.956571
_cell_length_b 23.059557
_cell_length_c 8.910460
_cell_angle_alpha 90.000000
_cell_angle_beta 90.000000
_cell_angle_gamma 90.000000
_cell_volume 3278.616753
_symmetry_space_group_name_H-M "P C C M"
_symmetry_group_IT_number 49
_symmetry_cell_setting 'orthorhombic'
loop_
_space_group_symop_operation_xyz
x,y,z
-x,-y,z
x,-y,1/2-z
-x,y,1/2-z
-x,-y,-z
x,y,-z
-x,y,1/2+z
x,-y,1/2+z
loop_
_atom_site_type_symbol
_atom_site_label
_atom_site_fract_x
_atom_site_fract_y
_atom_site_fract_z
Si Si1 0.000000 0.500000 0.250000
Si Si2 0.249520 0.249159 0.833704
Si Si3 0.121561 0.596592 0.164174
Si Si4 0.408226 0.174624 0.179858
Si Si5 0.416331 0.439970 0.674636
Si Si6 0.724087 0.615468 0.835562
Si Si7 0.592154 0.943129 0.680882
Si Si8 0.916278 0.727841 0.326078
O O1 0.944377 0.455984 0.151912
O O2 0.337236 0.221781 0.774758
O O3 0.260839 0.317196 0.841048
O O4 0.167019 0.238399 0.732749
O O5 0.231347 0.224273 0.000000
O O6 0.192275 0.581098 0.286144
O O7 0.082856 0.658832 0.208799
O O8 0.163172 0.603148 0.000000
O O9 0.500000 0.190653 0.250000
O O10 0.369260 0.116198 0.254036
O O11 0.419140 0.168667 0.000000
O O12 0.388917 0.500000 0.750000
O O13 0.500000 0.415740 0.750000
O O14 0.430772 0.448687 0.500000
O O15 0.345612 0.393514 0.709427
O O16 0.697654 0.591814 0.000000
O O17 0.500000 0.944009 0.750000
O O18 0.592189 0.944261 0.500000
O O19 0.639491 0.000000 0.750000
O O20 0.922027 0.741323 0.500000
O O21 0.000000 0.753913 0.250000
#
# Coordination Sequence:
#
# PCOD8202311 Si02
#       8
#     2   8   8   8   8   8   8   8
#     4  12  22  36  52  74 104 120 160 190 240 296
#     4   9  20  36  53  74 101 133 170 209 253 301
#     4  10  22  36  51  73  98 127 157 191 239 296
#     4  10  19  32  49  73 106 141 178 218 257 299
#     4  11  22  38  57  75  94 117 151 194 240 290
#     4  10  21  38  56  74  98 128 159 198 245 295
#     4  10  17  27  44  68 100 140 182 218 255 297
#     4  10  19  34  54  73  96 127 164 206 254 306
#
# _framework density 17.690387000000001
#
# number of rings (size 3 to 8) (size 9 to 14) (size 15 to 20)
#    0.000    1.931    0.690    5.586    0.966    3.862 
#    0.000    1.379    0.000    0.000    0.000    0.000 
#    0.000    0.552    0.000    5.793    0.000    2.483 
#
# Total GULP energy -718621.493336 kJ/mol
# GULP energy per Si atom -12390.025747 kJ/mol
# Density = 1.765012 g / cm^3
# Si number density = 17.690387 Si / 1000 Ang^3
#
#
#
# Elastic Constant Matrix: (Units=GPa)
#
#
# Indices 1 2 3 4 5 6 
#
# 1 114.6634 40.8918 59.3763 0.0000 0.0000 0.0000
# 2 40.8918 48.1652 25.7542 0.0000 0.0000 0.0000
# 3 59.3763 25.7542 133.2255 0.0000 0.0000 0.0000
# 4 0.0000 0.0000 0.0000 20.2083 0.0000 0.0000
# 5 0.0000 0.0000 0.0000 0.0000 29.1314 0.0000
# 6 0.0000 0.0000 0.0000 0.0000 0.0000 14.1456
#
#
#
# Elastic Compliance Matrix: (Units=1/GPa)
#
#
# Indices 1 2 3 4 5 6 
#
# 1 0.014670 -0.009991 -0.004607 0.000000 0.000000 0.000000
# 2 -0.009991 0.029960 -0.001339 0.000000 0.000000 0.000000
# 3 -0.004607 -0.001339 0.009818 0.000000 0.000000 0.000000
# 4 0.000000 0.000000 0.000000 0.049485 0.000000 0.000000
# 5 0.000000 0.000000 0.000000 0.000000 0.034327 0.000000
# 6 0.000000 0.000000 0.000000 0.000000 0.000000 0.070693
#
#
# Mechanical properties :
#
#
# Convention : Reuss Voigt Hill
#
# Bulk Modulus (GPa) = 44.29750 60.89986 52.59868
# Shear Modulus (GPa) = 20.13277 24.03252 22.08264
#
# Velocity S-wave (km/s) = 3.37718 3.68979 3.53694
# Velocity P-wave (km/s) = 6.34838 7.25623 6.81743
#
# Compressibility (1/GPa) = 0.02257464
#
# Stress axis : x y z
#
# Youngs Moduli (GPa) = 68.16727 33.37752 101.85422
#
# Poissons Ratio (x) = 0.33349 0.46920
# Poissons Ratio (y) = 0.68108 0.13636
# Poissons Ratio (z) = 0.31402 0.04468
#
# Static dielectric constant tensor:
#      x y z
#    x 3.239740 0.000000 0.000000 
#    y 0.000000 3.575640 0.000000 
#    z 0.000000 0.000000 3.665630 
# 
# 
# High freq. dielectric constant tensor:
#      x y z
#    x 1.669050 0.000000 0.000000 
#    y 0.000000 1.650540 0.000000 
#    z 0.000000 0.000000 1.701360 
# 
# From -- ./inp_files/4268.got.cif
#   From: 2010.03.12/outbox.cif.g09.slc.cpg/sg49_3_cif.got.tgz:4268.got - 2010.04.14 03:58:27.
