data_PCOD8202879
_publ_section_title
;
Structure prediction by ZEFSAII (Michael W. Deem and Ramdas Pophale) SiO2 
 PCOD8202879
Probable space group: P C C M
;
_chemical_formula_sum "Si O2"
_cell_formula_units_Z 64
_cell_length_a 19.598475
_cell_length_b 20.253201
_cell_length_c 8.974731
_cell_angle_alpha 90.000000
_cell_angle_beta 90.000000
_cell_angle_gamma 90.000000
_cell_volume 3562.356610
_symmetry_space_group_name_H-M "P C C M"
_symmetry_group_IT_number 49
_symmetry_cell_setting 'orthorhombic'
loop_
_space_group_symop_operation_xyz
x,y,z
-x,-y,z
x,-y,1/2-z
-x,y,1/2-z
-x,-y,-z
x,y,-z
-x,y,1/2+z
x,-y,1/2+z
loop_
_atom_site_type_symbol
_atom_site_label
_atom_site_fract_x
_atom_site_fract_y
_atom_site_fract_z
Si Si1 0.426954 0.682360 0.824978
Si Si2 0.935705 0.233637 0.164185
Si Si3 0.799334 0.618588 0.169687
Si Si4 0.933816 0.391185 0.833057
Si Si5 0.428360 0.068681 0.177582
Si Si6 0.211075 0.245397 0.674601
Si Si7 0.351522 0.818087 0.171522
Si Si8 0.653923 0.566447 0.171221
O O1 0.500000 0.677917 0.750000
O O2 0.395145 0.753524 0.790798
O O3 0.377821 0.628129 0.755731
O O4 0.433560 0.669466 0.000000
O O5 0.937939 0.312463 0.167942
O O6 0.861081 0.212807 0.228212
O O7 0.000000 0.202637 0.250000
O O8 0.943881 0.205137 0.000000
O O9 0.864133 0.586335 0.252802
O O10 0.774581 0.687457 0.238783
O O11 0.735943 0.568905 0.181686
O O12 0.821133 0.631541 0.000000
O O13 0.000000 0.420998 0.750000
O O14 0.932942 0.419363 0.000000
O O15 0.500000 0.090398 0.250000
O O16 0.373059 0.123831 0.217660
O O17 0.404129 0.000000 0.250000
O O18 0.435773 0.061570 0.000000
O O19 0.205866 0.264051 0.500000
O O20 0.271839 0.194454 0.704729
O O21 0.362779 0.839260 0.000000
O O22 0.627797 0.500000 0.250000
O O23 0.629479 0.566722 0.000000
#
# Coordination Sequence:
#
# PCOD8202879 Si02
#       8
#     8   8   8   8   8   8   8   8
#     4  11  23  39  60  82 107 135 169 213 265 319
#     4   8  14  23  37  60  93 131 168 204 245 295
#     4  10  19  31  49  73 100 129 166 212 259 313
#     4   9  16  26  43  67  96 129 165 205 252 307
#     4  11  22  37  57  80 110 146 184 221 260 308
#     4   9  17  30  48  71 101 138 174 211 259 309
#     4  10  20  35  56  82 111 143 178 218 263 311
#     4  11  24  40  58  78 101 131 172 218 267 323
#
# _framework density 17.965634999999999
#
# number of rings (size 3 to 8) (size 9 to 14) (size 15 to 20)
#    0.000    2.125    1.250    4.125    0.000    7.250 
#    0.000    1.250    0.000    0.375    0.000    2.625 
#    0.000    0.500    0.000    5.750    0.000    1.875 
#
# Total GULP energy -793525.225407 kJ/mol
# GULP energy per Si atom -12398.831647 kJ/mol
# Density = 1.792474 g / cm^3
# Si number density = 17.965635 Si / 1000 Ang^3
#
#
#
# Elastic Constant Matrix: (Units=GPa)
#
#
# Indices 1 2 3 4 5 6 
#
# 1 94.6997 20.4470 45.4838 0.0000 0.0000 0.0000
# 2 20.4470 56.1847 38.6393 0.0000 0.0000 0.0000
# 3 45.4838 38.6393 120.9464 0.0000 0.0000 0.0000
# 4 0.0000 0.0000 0.0000 21.3955 0.0000 0.0000
# 5 0.0000 0.0000 0.0000 0.0000 33.7826 0.0000
# 6 0.0000 0.0000 0.0000 0.0000 0.0000 10.7178
#
#
#
# Elastic Compliance Matrix: (Units=1/GPa)
#
#
# Indices 1 2 3 4 5 6 
#
# 1 0.013021 -0.001757 -0.004336 0.000000 0.000000 0.000000
# 2 -0.001757 0.023047 -0.006702 0.000000 0.000000 0.000000
# 3 -0.004336 -0.006702 0.012040 0.000000 0.000000 0.000000
# 4 0.000000 0.000000 0.000000 0.046739 0.000000 0.000000
# 5 0.000000 0.000000 0.000000 0.000000 0.029601 0.000000
# 6 0.000000 0.000000 0.000000 0.000000 0.000000 0.093303
#
#
# Mechanical properties :
#
#
# Convention : Reuss Voigt Hill
#
# Bulk Modulus (GPa) = 44.40788 53.44124 48.92456
# Shear Modulus (GPa) = 19.93250 24.32989 22.13120
#
# Velocity S-wave (km/s) = 3.33450 3.68400 3.51360
# Velocity P-wave (km/s) = 6.29262 6.92147 6.61452
#
# Compressibility (1/GPa) = 0.02251853
#
# Stress axis : x y z
#
# Youngs Moduli (GPa) = 76.79641 43.38938 83.05825
#
# Poissons Ratio (x) = 0.07624 0.36010
# Poissons Ratio (y) = 0.13495 0.55667
# Poissons Ratio (z) = 0.33295 0.29080
#
# Static dielectric constant tensor:
#      x y z
#    x 3.595040 0.000000 0.000000 
#    y 0.000000 2.873170 0.000000 
#    z 0.000000 0.000000 3.480260 
# 
# 
# High freq. dielectric constant tensor:
#      x y z
#    x 1.709040 0.000000 0.000000 
#    y 0.000000 1.644820 0.000000 
#    z 0.000000 0.000000 1.706420 
# 
# From -- ./inp_files/5329.got.cif
#   From: 2010.03.12/outbox.cif.g09.slc.cpg/sg49_3_cif.got.tgz:5329.got - 2010.04.14 03:58:27.
