data_PCOD8202878
_publ_section_title
;
Structure prediction by ZEFSAII (Michael W. Deem and Ramdas Pophale) SiO2 
 PCOD8202878
Probable space group: P C C M
;
_chemical_formula_sum "Si O2"
_cell_formula_units_Z 64
_cell_length_a 19.005236
_cell_length_b 23.356208
_cell_length_c 8.823476
_cell_angle_alpha 90.000000
_cell_angle_beta 90.000000
_cell_angle_gamma 90.000000
_cell_volume 3916.654924
_symmetry_space_group_name_H-M "P C C M"
_symmetry_group_IT_number 49
_symmetry_cell_setting 'orthorhombic'
loop_
_space_group_symop_operation_xyz
x,y,z
-x,-y,z
x,-y,1/2-z
-x,y,1/2-z
-x,-y,-z
x,y,-z
-x,y,1/2+z
x,-y,1/2+z
loop_
_atom_site_type_symbol
_atom_site_label
_atom_site_fract_x
_atom_site_fract_y
_atom_site_fract_z
Si Si1 0.427758 0.770905 0.823159
Si Si2 0.931238 0.752203 0.824916
Si Si3 0.785812 0.060591 0.321255
Si Si4 0.708624 0.160510 0.174075
Si Si5 0.425331 0.560447 0.180400
Si Si6 0.221294 0.265597 0.825576
Si Si7 0.929034 0.117343 0.321040
Si Si8 0.354112 0.663956 0.676324
O O1 0.500000 0.792811 0.750000
O O2 0.372240 0.821881 0.797889
O O3 0.404303 0.713910 0.736107
O O4 0.436571 0.756100 0.000000
O O5 0.859576 0.717018 0.787849
O O6 0.920493 0.817125 0.765792
O O7 0.000000 0.723192 0.750000
O O8 0.947770 0.752508 0.000000
O O9 0.785611 0.055004 0.500000
O O10 0.725192 0.104903 0.273211
O O11 0.861722 0.082212 0.260912
O O12 0.767329 0.000000 0.250000
O O13 0.758126 0.213098 0.219786
O O14 0.723143 0.145879 0.000000
O O15 0.401718 0.500000 0.250000
O O16 0.500000 0.579574 0.250000
O O17 0.367175 0.606722 0.227950
O O18 0.431245 0.555696 0.000000
O O19 0.272261 0.319556 0.797438
O O20 0.226906 0.244456 0.000000
O O21 0.934206 0.113123 0.500000
O O22 0.000000 0.090490 0.250000
O O23 0.370687 0.653326 0.500000
#
# Coordination Sequence:
#
# PCOD8202878 Si02
#       8
#     8   8   8   8   8   8   8   8
#     4  10  20  33  50  74  99 123 153 190 233 280
#     4   9  16  28  44  66  92 123 157 189 230 278
#     4  11  22  36  51  68  90 118 152 190 231 280
#     4  10  20  33  50  71  93 117 150 189 231 280
#     4  11  21  34  50  69  98 134 173 208 238 278
#     4   9  17  31  49  68  95 127 159 194 235 282
#     4   9  18  31  47  65  90 119 152 188 226 272
#     4  10  19  31  49  72  99 132 165 200 239 275
#
# _framework density 16.340474
#
# number of rings (size 3 to 8) (size 9 to 14) (size 15 to 20)
#    0.000    2.125    1.250    3.375    0.000    3.750 
#    0.000    1.250    0.000    0.375    0.000    2.625 
#    0.000    0.500    0.000    5.750    0.000    1.750 
#
# Total GULP energy -793608.912439 kJ/mol
# GULP energy per Si atom -12400.139257 kJ/mol
# Density = 1.630328 g / cm^3
# Si number density = 16.340474 Si / 1000 Ang^3
#
#
#
# Elastic Constant Matrix: (Units=GPa)
#
#
# Indices 1 2 3 4 5 6 
#
# 1 120.0926 46.7126 45.7875 0.0000 0.0000 0.0000
# 2 46.7126 78.9946 37.1682 0.0000 0.0000 0.0000
# 3 45.7875 37.1682 80.9775 0.0000 0.0000 0.0000
# 4 0.0000 0.0000 0.0000 24.6059 0.0000 0.0000
# 5 0.0000 0.0000 0.0000 0.0000 26.9171 0.0000
# 6 0.0000 0.0000 0.0000 0.0000 0.0000 20.9931
#
#
#
# Elastic Compliance Matrix: (Units=1/GPa)
#
#
# Indices 1 2 3 4 5 6 
#
# 1 0.011970 -0.004966 -0.004489 0.000000 0.000000 0.000000
# 2 -0.004966 0.018207 -0.005549 0.000000 0.000000 0.000000
# 3 -0.004489 -0.005549 0.017434 0.000000 0.000000 0.000000
# 4 0.000000 0.000000 0.000000 0.040641 0.000000 0.000000
# 5 0.000000 0.000000 0.000000 0.000000 0.037151 0.000000
# 6 0.000000 0.000000 0.000000 0.000000 0.000000 0.047635
#
#
# Mechanical properties :
#
#
# Convention : Reuss Voigt Hill
#
# Bulk Modulus (GPa) = 56.80766 59.93349 58.37057
# Shear Modulus (GPa) = 23.93350 24.52966 24.23158
#
# Velocity S-wave (km/s) = 3.83126 3.87868 3.85504
# Velocity P-wave (km/s) = 7.37644 7.53767 7.45749
#
# Compressibility (1/GPa) = 0.01760326
#
# Stress axis : x y z
#
# Youngs Moduli (GPa) = 83.54144 54.92515 57.35925
#
# Poissons Ratio (x) = 0.27278 0.25747
# Poissons Ratio (y) = 0.41490 0.31826
# Poissons Ratio (z) = 0.37500 0.30476
#
# Static dielectric constant tensor:
#      x y z
#    x 3.255000 0.000000 0.000000 
#    y 0.000000 2.846070 0.000000 
#    z 0.000000 0.000000 3.156840 
# 
# 
# High freq. dielectric constant tensor:
#      x y z
#    x 1.628720 0.000000 0.000000 
#    y 0.000000 1.590580 0.000000 
#    z 0.000000 0.000000 1.641070 
# 
# From -- ./inp_files/5428.got.cif
#   From: 2010.03.12/outbox.cif.g09.slc.cpg/sg49_3_cif.got.tgz:5428.got - 2010.04.14 03:58:27.
