data_PCOD8202727
_publ_section_title
;
Structure prediction by ZEFSAII (Michael W. Deem and Ramdas Pophale) SiO2 
 PCOD8202727
Probable space group: P C C M
;
_chemical_formula_sum "Si O2"
_cell_formula_units_Z 48
_cell_length_a 23.126466
_cell_length_b 13.020131
_cell_length_c 8.895916
_cell_angle_alpha 90.000000
_cell_angle_beta 90.000000
_cell_angle_gamma 90.000000
_cell_volume 2678.645859
_symmetry_space_group_name_H-M "P C C M"
_symmetry_group_IT_number 49
_symmetry_cell_setting 'orthorhombic'
loop_
_space_group_symop_operation_xyz
x,y,z
-x,-y,z
x,-y,1/2-z
-x,y,1/2-z
-x,-y,-z
x,y,-z
-x,y,1/2+z
x,-y,1/2+z
loop_
_atom_site_type_symbol
_atom_site_label
_atom_site_fract_x
_atom_site_fract_y
_atom_site_fract_z
Si Si1 0.740727 0.108325 0.678597
Si Si2 0.436982 0.606972 0.318697
Si Si3 0.174555 0.287299 0.826841
Si Si4 0.352123 0.762403 0.832509
Si Si5 0.738877 0.411453 0.839791
Si Si6 0.059331 0.391235 0.176816
O O1 0.734721 0.099739 0.500000
O O2 0.794931 0.181334 0.727081
O O3 0.677807 0.143735 0.743041
O O4 0.756676 0.000000 0.750000
O O5 0.411654 0.500000 0.250000
O O6 0.500000 0.623549 0.250000
O O7 0.438226 0.600119 0.500000
O O8 0.401133 0.707160 0.267092
O O9 0.202779 0.384265 0.746092
O O10 0.106199 0.299853 0.793192
O O11 0.188675 0.299556 0.000000
O O12 0.301004 0.684749 0.859000
O O13 0.375282 0.795765 0.000000
O O14 0.704818 0.500000 0.750000
O O15 0.756919 0.456530 0.000000
O O16 0.077741 0.500000 0.250000
O O17 0.000000 0.350974 0.250000
O O18 0.050863 0.409200 0.000000
#
# Coordination Sequence:
#
# PCOD8202727 Si02
#       6
#     8   8   8   8   8   8
#     4  10  20  36  56  78 101 128 163 209 261 311
#     4  11  21  34  52  76 107 144 180 214 250 295
#     4   9  19  33  49  69  96 127 163 204 248 296
#     4  10  20  34  51  74 101 132 169 209 252 302
#     4  10  19  28  43  67  97 129 161 197 242 293
#     4  10  19  31  47  70  99 134 169 203 241 289
#
# _framework density 17.919502000000001
#
# number of rings (size 3 to 8) (size 9 to 14) (size 15 to 20)
#    0.000    2.000    0.000    5.500    0.000    6.667 
#    0.000    0.000    0.000    1.000    0.000    7.000 
#    0.000    0.000    0.000    0.000    0.000    0.000 
#
# Total GULP energy -594680.461173 kJ/mol
# GULP energy per Si atom -12389.176274 kJ/mol
# Density = 1.787872 g / cm^3
# Si number density = 17.919502 Si / 1000 Ang^3
#
#
#
# Elastic Constant Matrix: (Units=GPa)
#
#
# Indices 1 2 3 4 5 6 
#
# 1 90.1864 38.7770 45.9465 0.0000 0.0000 0.0000
# 2 38.7770 83.1096 48.0458 0.0000 0.0000 0.0000
# 3 45.9465 48.0458 123.9474 0.0000 0.0000 0.0000
# 4 0.0000 0.0000 0.0000 27.3040 0.0000 0.0000
# 5 0.0000 0.0000 0.0000 0.0000 44.9131 0.0000
# 6 0.0000 0.0000 0.0000 0.0000 0.0000 9.5746
#
#
#
# Elastic Compliance Matrix: (Units=1/GPa)
#
#
# Indices 1 2 3 4 5 6 
#
# 1 0.015074 -0.004901 -0.003688 0.000000 0.000000 0.000000
# 2 -0.004901 0.017101 -0.004812 0.000000 0.000000 0.000000
# 3 -0.003688 -0.004812 0.011300 0.000000 0.000000 0.000000
# 4 0.000000 0.000000 0.000000 0.036625 0.000000 0.000000
# 5 0.000000 0.000000 0.000000 0.000000 0.022265 0.000000
# 6 0.000000 0.000000 0.000000 0.000000 0.000000 0.104443
#
#
# Mechanical properties :
#
#
# Convention : Reuss Voigt Hill
#
# Bulk Modulus (GPa) = 59.97715 62.53136 61.25426
# Shear Modulus (GPa) = 20.90569 27.32326 24.11448
#
# Velocity S-wave (km/s) = 3.41932 3.90908 3.67237
# Velocity P-wave (km/s) = 7.00942 7.43949 7.22765
#
# Compressibility (1/GPa) = 0.01667302
#
# Stress axis : x y z
#
# Youngs Moduli (GPa) = 66.33726 58.47630 88.49264
#
# Poissons Ratio (x) = 0.28661 0.32637
# Poissons Ratio (y) = 0.32514 0.42582
# Poissons Ratio (z) = 0.24466 0.28139
#
# Static dielectric constant tensor:
#      x y z
#    x 3.351480 0.000000 0.000000 
#    y 0.000000 3.421670 0.000000 
#    z 0.000000 0.000000 3.832530 
# 
# 
# High freq. dielectric constant tensor:
#      x y z
#    x 1.684130 0.000000 0.000000 
#    y 0.000000 1.663970 0.000000 
#    z 0.000000 0.000000 1.716100 
# 
# From -- ./inp_files/6319.got.cif
#   From: 2010.03.12/outbox.cif.g09.slc.cpg/sg49_4_cif.got.tgz:6319.got - 2010.04.14 03:58:27.
