data_PCOD8202707
_publ_section_title
;
Structure prediction by ZEFSAII (Michael W. Deem and Ramdas Pophale) SiO2 
 PCOD8202707
Probable space group: P C C M
;
_chemical_formula_sum "Si O2"
_cell_formula_units_Z 64
_cell_length_a 11.280049
_cell_length_b 15.056698
_cell_length_c 18.531367
_cell_angle_alpha 90.000000
_cell_angle_beta 90.000000
_cell_angle_gamma 90.000000
_cell_volume 3147.372768
_symmetry_space_group_name_H-M "P C C M"
_symmetry_group_IT_number 49
_symmetry_cell_setting 'orthorhombic'
loop_
_space_group_symop_operation_xyz
x,y,z
-x,-y,z
x,-y,1/2-z
-x,y,1/2-z
-x,-y,-z
x,y,-z
-x,y,1/2+z
x,-y,1/2+z
loop_
_atom_site_type_symbol
_atom_site_label
_atom_site_fract_x
_atom_site_fract_y
_atom_site_fract_z
Si Si1 0.932250 0.321148 0.918854
Si Si2 0.861660 0.097063 0.246336
Si Si3 0.256843 0.811201 0.877432
Si Si4 0.601845 0.726660 0.085576
Si Si5 0.839332 0.266995 0.666266
Si Si6 0.179175 0.410144 0.710984
Si Si7 0.482990 0.095903 0.580741
Si Si8 0.414522 0.333909 0.317082
O O1 0.822607 0.252381 0.927542
O O2 0.893039 0.400026 0.864162
O O3 0.048532 0.273694 0.886832
O O4 0.957992 0.357788 0.000000
O O5 0.833893 0.130308 0.166874
O O6 0.820626 0.165010 0.309064
O O7 0.000000 0.086347 0.250000
O O8 0.799838 0.000000 0.250000
O O9 0.345360 0.874257 0.921975
O O10 0.333482 0.753845 0.820591
O O11 0.725249 0.699958 0.121826
O O12 0.564108 0.825342 0.113746
O O13 0.497951 0.658422 0.111723
O O14 0.611238 0.719553 0.000000
O O15 0.855789 0.328306 0.736871
O O16 0.139518 0.500000 0.750000
O O17 0.320877 0.414699 0.692675
O O18 0.529495 0.082766 0.500000
O O19 0.500000 0.000000 0.621203
O O20 0.500000 0.325246 0.250000
#
# Coordination Sequence:
#
# PCOD8202707 Si02
#       8
#     8   8   8   8   8   8   8   8
#     4  11  23  41  68  95 126 168 213 262 325 386
#     4  11  21  35  58  88 123 165 214 270 319 376
#     4  10  19  35  59  87 118 160 212 262 310 371
#     4  10  21  36  59  88 125 167 207 258 320 379
#     4  12  21  42  63  91 128 168 214 263 326 377
#     4  11  24  42  70  96 123 160 207 261 315 386
#     4   9  19  34  52  79 118 161 205 257 317 373
#     4  10  18  37  62  87 117 158 205 249 307 380
#
# _framework density 20.334420000000001
#
# number of rings (size 3 to 8) (size 9 to 14) (size 15 to 20)
#    0.000    1.500    5.000    1.125    1.750    4.250 
#    0.000    1.875    0.000    1.500    0.000    0.000 
#    0.000    0.000    0.000    0.000    0.000    0.000 
#
# Total GULP energy -793080.128856 kJ/mol
# GULP energy per Si atom -12391.877013 kJ/mol
# Density = 2.028814 g / cm^3
# Si number density = 20.334420 Si / 1000 Ang^3
#
#
#
# Elastic Constant Matrix: (Units=GPa)
#
#
# Indices 1 2 3 4 5 6 
#
# 1 96.7410 20.3537 31.3205 0.0000 0.0000 0.0000
# 2 20.3537 87.9751 38.2576 0.0000 0.0000 0.0000
# 3 31.3205 38.2576 118.7011 0.0000 0.0000 0.0000
# 4 0.0000 0.0000 0.0000 19.2119 0.0000 0.0000
# 5 0.0000 0.0000 0.0000 0.0000 29.3478 0.0000
# 6 0.0000 0.0000 0.0000 0.0000 0.0000 16.4881
#
#
#
# Elastic Compliance Matrix: (Units=1/GPa)
#
#
# Indices 1 2 3 4 5 6 
#
# 1 0.011483 -0.001557 -0.002528 0.000000 0.000000 0.000000
# 2 -0.001557 0.013431 -0.003918 0.000000 0.000000 0.000000
# 3 -0.002528 -0.003918 0.010354 0.000000 0.000000 0.000000
# 4 0.000000 0.000000 0.000000 0.052051 0.000000 0.000000
# 5 0.000000 0.000000 0.000000 0.000000 0.034074 0.000000
# 6 0.000000 0.000000 0.000000 0.000000 0.000000 0.060650
#
#
# Mechanical properties :
#
#
# Convention : Reuss Voigt Hill
#
# Bulk Modulus (GPa) = 51.91623 53.69785 52.80704
# Shear Modulus (GPa) = 24.45346 27.24193 25.84770
#
# Velocity S-wave (km/s) = 3.47156 3.66416 3.56916
# Velocity P-wave (km/s) = 6.45412 6.66079 6.55827
#
# Compressibility (1/GPa) = 0.01926180
#
# Stress axis : x y z
#
# Youngs Moduli (GPa) = 87.08539 74.45508 96.57826
#
# Poissons Ratio (x) = 0.11595 0.24415
# Poissons Ratio (y) = 0.13562 0.37838
# Poissons Ratio (z) = 0.22015 0.29171
#
# Static dielectric constant tensor:
#      x y z
#    x 3.902010 0.000000 0.000000 
#    y 0.000000 3.757220 0.000000 
#    z 0.000000 0.000000 3.597140 
# 
# 
# High freq. dielectric constant tensor:
#      x y z
#    x 1.809770 0.000000 0.000000 
#    y 0.000000 1.768550 0.000000 
#    z 0.000000 0.000000 1.783180 
# 
# From -- ./inp_files/17308.got.cif
#   From: 2010.03.12/outbox.cif.g09.slc.cpg/sg49_9_cif.got.tgz:17308.got - 2010.04.14 03:58:27.
