data_PCOD8202256
_publ_section_title
;
Structure prediction by ZEFSAII (Michael W. Deem and Ramdas Pophale) SiO2 
 PCOD8202256
Probable space group: P C C M
;
_chemical_formula_sum "Si O2"
_cell_formula_units_Z 48
_cell_length_a 24.150065
_cell_length_b 13.670537
_cell_length_c 8.721032
_cell_angle_alpha 90.000000
_cell_angle_beta 90.000000
_cell_angle_gamma 90.000000
_cell_volume 2879.199503
_symmetry_space_group_name_H-M "P C C M"
_symmetry_group_IT_number 49
_symmetry_cell_setting 'orthorhombic'
loop_
_space_group_symop_operation_xyz
x,y,z
-x,-y,z
x,-y,1/2-z
-x,y,1/2-z
-x,-y,-z
x,y,-z
-x,y,1/2+z
x,-y,1/2+z
loop_
_atom_site_type_symbol
_atom_site_label
_atom_site_fract_x
_atom_site_fract_y
_atom_site_fract_z
Si Si1 0.442140 0.714252 0.818318
Si Si2 0.054966 0.891387 0.317899
Si Si3 0.616866 0.896023 0.181146
Si Si4 0.834304 0.105887 0.179864
Si Si5 0.665246 0.601945 0.321637
Si Si6 0.280366 0.798727 0.821323
O O1 0.500000 0.677315 0.750000
O O2 0.426550 0.818992 0.749000
O O3 0.396002 0.635020 0.767982
O O4 0.445619 0.724303 0.000000
O O5 0.052231 0.892030 0.500000
O O6 0.112009 0.842466 0.258532
O O7 0.000000 0.837730 0.250000
O O8 0.056421 0.000000 0.250000
O O9 0.679866 0.869821 0.225927
O O10 0.600457 0.000000 0.250000
O O11 0.611191 0.898701 0.000000
O O12 0.782972 0.176481 0.215623
O O13 0.821484 0.000000 0.250000
O O14 0.845242 0.093537 0.000000
O O15 0.683582 0.500000 0.250000
O O16 0.665919 0.585093 0.500000
O O17 0.709044 0.686070 0.273724
O O18 0.294864 0.814651 0.000000
#
# Coordination Sequence:
#
# PCOD8202256 Si02
#       6
#     8   8   8   8   8   8
#     4  10  21  37  53  72  96 119 150 188 226 270
#     4  10  17  26  39  57  85 121 161 197 229 264
#     4  11  21  33  50  70  94 125 157 188 226 269
#     4  10  18  28  43  64  92 125 159 193 229 266
#     4   9  19  35  53  72  94 119 147 184 230 278
#     4   9  19  34  49  68  95 123 154 193 232 273
#
# _framework density 16.671301
#
# number of rings (size 3 to 8) (size 9 to 14) (size 15 to 20)
#    0.000    2.167    0.000    7.000    0.000    6.667 
#    0.000    3.333    0.000    0.000    0.000    0.000 
#    0.000    0.667    0.000    7.667    0.000    2.333 
#
# Total GULP energy -595128.280540 kJ/mol
# GULP energy per Si atom -12398.505845 kJ/mol
# Density = 1.663336 g / cm^3
# Si number density = 16.671301 Si / 1000 Ang^3
#
#
#
# Elastic Constant Matrix: (Units=GPa)
#
#
# Indices 1 2 3 4 5 6 
#
# 1 127.0418 34.2848 45.4165 0.0000 0.0000 0.0000
# 2 34.2848 80.3286 26.7241 0.0000 0.0000 0.0000
# 3 45.4165 26.7241 97.1648 0.0000 0.0000 0.0000
# 4 0.0000 0.0000 0.0000 23.2577 0.0000 0.0000
# 5 0.0000 0.0000 0.0000 0.0000 -70.7916 0.0000
# 6 0.0000 0.0000 0.0000 0.0000 0.0000 13.2459
#
#
#
# Elastic Compliance Matrix: (Units=1/GPa)
#
#
# Indices 1 2 3 4 5 6 
#
# 1 0.010070 -0.003007 -0.003880 0.000000 0.000000 0.000000
# 2 -0.003007 0.014601 -0.002610 0.000000 0.000000 0.000000
# 3 -0.003880 -0.002610 0.012823 0.000000 0.000000 0.000000
# 4 0.000000 0.000000 0.000000 0.042996 0.000000 0.000000
# 5 0.000000 0.000000 0.000000 0.000000 -0.014126 0.000000
# 6 0.000000 0.000000 0.000000 0.000000 0.000000 0.075495
#
#
# Mechanical properties :
#
#
# Convention : Reuss Voigt Hill
#
# Bulk Modulus (GPa) = 54.05523 57.48733 55.77128
# Shear Modulus (GPa) = 29.93654 6.34973 18.14314
#
# Velocity S-wave (km/s) = 4.24216 1.95373 3.30250
# Velocity P-wave (km/s) = 7.51592 6.29659 6.93311
#
# Compressibility (1/GPa) = 0.01849960
#
# Stress axis : x y z
#
# Youngs Moduli (GPa) = 99.30520 68.48983 77.98392
#
# Poissons Ratio (x) = 0.20596 0.30256
# Poissons Ratio (y) = 0.29863 0.20355
# Poissons Ratio (z) = 0.38528 0.17877
#
# Static dielectric constant tensor:
#      x y z
#    x 3.673370 0.000000 0.000000 
#    y 0.000000 3.154640 0.000000 
#    z 0.000000 0.000000 3.203190 
# 
# 
# High freq. dielectric constant tensor:
#      x y z
#    x 1.647540 0.000000 0.000000 
#    y 0.000000 1.601200 0.000000 
#    z 0.000000 0.000000 1.656440 
# 
# From -- ./inp_files/6318.got.cif
#   From: 2010.03.12/outbox.cif.g09.slc.cpg/sg49_4_cif.got.tgz:6318.got - 2010.04.14 03:58:27.
