data_PCOD8202139
_publ_section_title
;
Structure prediction by ZEFSAII (Michael W. Deem and Ramdas Pophale) SiO2 
 PCOD8202139
Probable space group: P N N N
;
_chemical_formula_sum "Si O2"
_cell_formula_units_Z 48
_cell_length_a 14.288330
_cell_length_b 16.814422
_cell_length_c 9.742799
_cell_angle_alpha 90.000000
_cell_angle_beta 90.000000
_cell_angle_gamma 90.000000
_cell_volume 2340.707560
_symmetry_space_group_name_H-M "P N N N"
_symmetry_group_IT_number 48
_space_group.IT_coordinate_system_code '2'
_symmetry_cell_setting 'orthorhombic'
loop_
_space_group_symop_operation_xyz
x,y,z
1/2-x,1/2-y,z
x,1/2-y,1/2-z
1/2-x,y,1/2-z
-x,-y,-z
1/2+x,1/2+y,-z
-x,1/2+y,1/2+z
1/2+x,-y,1/2+z
loop_
_atom_site_type_symbol
_atom_site_label
_atom_site_fract_x
_atom_site_fract_y
_atom_site_fract_z
Si Si1 0.758393 0.029407 0.904678
Si Si2 0.082741 0.436883 0.989397
Si Si3 0.785405 0.160465 0.391346
Si Si4 0.434899 0.428748 0.039349
Si Si5 0.639024 0.657150 0.229720
Si Si6 0.494381 0.837703 0.794509
O O1 0.750000 0.058780 0.750000
O O2 0.843721 0.969020 0.899194
O O3 0.765231 0.111336 0.988852
O O4 0.676150 0.982579 0.977108
O O5 0.085134 0.397409 0.839593
O O6 0.000000 0.500000 0.000000
O O7 0.073291 0.367095 0.100789
O O8 0.750000 0.250000 0.409244
O O9 0.750000 0.122748 0.250000
O O10 0.897607 0.155565 0.379998
O O11 0.498281 0.385768 0.153279
O O12 0.500000 0.500000 0.000000
O O13 0.401924 0.369591 0.917585
O O14 0.614703 0.750000 0.250000
O O15 0.750000 0.642975 0.250000
O O16 0.518427 0.750000 0.750000
#
# Coordination Sequence:
#
# PCOD8202139 Si02
#       6
#     8   8   8   8   8   8
#     4  12  26  45  67 105 142 180 235 287 354 413
#     4  12  24  45  70  99 139 186 229 290 347 419
#     4  11  24  45  73 101 137 187 234 288 350 413
#     4  12  26  42  70 104 138 180 236 291 334 424
#     4  11  25  46  70 100 138 183 235 291 354 412
#     4  12  24  44  69 101 140 182 231 281 352 419
#
# _framework density 20.506620999999999
#
# number of rings (size 3 to 8) (size 9 to 14) (size 15 to 20)
#    0.000    0.333    6.667    3.000    2.333    0.333 
#    0.000    0.833    0.000    0.000    0.000    0.000 
#    0.000    0.000    0.000    0.000    0.000    0.000 
#
# Total GULP energy -594955.881081 kJ/mol
# GULP energy per Si atom -12394.914189 kJ/mol
# Density = 2.045995 g / cm^3
# Si number density = 20.506621 Si / 1000 Ang^3
#
#
#
# Elastic Constant Matrix: (Units=GPa)
#
#
# Indices 1 2 3 4 5 6 
#
# 1 72.1811 34.8364 9.1627 0.0000 0.0000 0.0000
# 2 34.8364 126.5149 58.9841 0.0000 0.0000 0.0000
# 3 9.1627 58.9841 135.2826 0.0000 0.0000 0.0000
# 4 0.0000 0.0000 0.0000 120.6839 0.0000 0.0000
# 5 0.0000 0.0000 0.0000 0.0000 26.9258 0.0000
# 6 0.0000 0.0000 0.0000 0.0000 0.0000 44.0560
#
#
#
# Elastic Compliance Matrix: (Units=1/GPa)
#
#
# Indices 1 2 3 4 5 6 
#
# 1 0.016097 -0.004925 0.001057 0.000000 0.000000 0.000000
# 2 -0.004925 0.011428 -0.004649 0.000000 0.000000 0.000000
# 3 0.001057 -0.004649 0.009347 0.000000 0.000000 0.000000
# 4 0.000000 0.000000 0.000000 0.008286 0.000000 0.000000
# 5 0.000000 0.000000 0.000000 0.000000 0.037139 0.000000
# 6 0.000000 0.000000 0.000000 0.000000 0.000000 0.022698
#
#
# Mechanical properties :
#
#
# Convention : Reuss Voigt Hill
#
# Bulk Modulus (GPa) = 50.40843 59.99387 55.20115
# Shear Modulus (GPa) = 38.86740 53.73283 46.30011
#
# Velocity S-wave (km/s) = 4.35829 5.12441 4.75680
# Velocity P-wave (km/s) = 7.06832 8.02073 7.55954
#
# Compressibility (1/GPa) = 0.01983795
#
# Stress axis : x y z
#
# Youngs Moduli (GPa) = 62.12379 87.50533 106.98225
#
# Poissons Ratio (x) = 0.43098 -0.11310
# Poissons Ratio (y) = 0.30597 0.49736
# Poissons Ratio (z) = -0.06568 0.40682
#
# Static dielectric constant tensor:
#      x y z
#    x 3.745270 0.000000 0.000000 
#    y 0.000000 3.849920 0.000000 
#    z 0.000000 0.000000 3.799370 
# 
# 
# High freq. dielectric constant tensor:
#      x y z
#    x 1.807910 0.000000 0.000000 
#    y 0.000000 1.818350 0.000000 
#    z 0.000000 0.000000 1.813820 
# 
# From -- ./inp_files/12776.got.cif
#   From: 2010.06.25/outbox.cif.g09.slc.cpg/sg48_7_cif.got.tgz:12776.got - 2010.06.26 18:06:46.
