data_PCOD8202830
_publ_section_title
;
Structure prediction by ZEFSAII (Michael W. Deem and Ramdas Pophale) SiO2 
 PCOD8202830
Probable space group: P C C M
;
_chemical_formula_sum "Si O2"
_cell_formula_units_Z 64
_cell_length_a 20.128111
_cell_length_b 20.192035
_cell_length_c 8.753688
_cell_angle_alpha 90.000000
_cell_angle_beta 90.000000
_cell_angle_gamma 90.000000
_cell_volume 3557.739720
_symmetry_space_group_name_H-M "P C C M"
_symmetry_group_IT_number 49
_symmetry_cell_setting 'orthorhombic'
loop_
_space_group_symop_operation_xyz
x,y,z
-x,-y,z
x,-y,1/2-z
-x,y,1/2-z
-x,-y,-z
x,y,-z
-x,y,1/2+z
x,-y,1/2+z
loop_
_atom_site_type_symbol
_atom_site_label
_atom_site_fract_x
_atom_site_fract_y
_atom_site_fract_z
Si Si1 0.243068 0.384743 0.671966
Si Si2 0.066742 0.294379 0.181291
Si Si3 0.429157 0.929050 0.317215
Si Si4 0.432656 0.701056 0.680545
Si Si5 0.100090 0.432282 0.675801
Si Si6 0.386239 0.567679 0.822752
Si Si7 0.334397 0.186843 0.818558
Si Si8 0.207193 0.746708 0.678769
O O1 0.245013 0.355557 0.500000
O O2 0.179654 0.431809 0.693175
O O3 0.307462 0.428262 0.707213
O O4 0.240984 0.323732 0.788329
O O5 0.069243 0.370303 0.235089
O O6 0.131531 0.253543 0.245273
O O7 0.000000 0.261109 0.250000
O O8 0.063995 0.292174 0.000000
O O9 0.500000 0.905451 0.250000
O O10 0.434629 0.932092 0.500000
O O11 0.370792 0.879551 0.259918
O O12 0.409491 0.000000 0.250000
O O13 0.500000 0.730762 0.750000
O O14 0.437577 0.700659 0.500000
O O15 0.423046 0.627335 0.740582
O O16 0.374059 0.748740 0.739700
O O17 0.072840 0.500000 0.750000
O O18 0.077567 0.428421 0.500000
O O19 0.413006 0.500000 0.750000
O O20 0.404525 0.569433 0.000000
O O21 0.257400 0.195335 0.759105
O O22 0.334885 0.185650 0.000000
O O23 0.201051 0.755141 0.500000
#
# Coordination Sequence:
#
# PCOD8202830 Si02
#       8
#     8   8   8   8   8   8   8   8
#     4   9  18  31  47  69  94 118 150 199 251 301
#     4  10  20  33  50  69  94 125 157 196 247 303
#     4  10  19  33  52  78 113 149 181 210 243 289
#     4  11  22  37  54  72  95 124 160 206 254 302
#     4  10  19  31  46  66  91 118 154 196 245 302
#     4  11  22  35  50  69  91 120 158 203 258 311
#     4   9  18  33  55  79 103 133 170 209 247 290
#     4   9  17  32  53  74  95 125 163 201 244 294
#
# _framework density 17.988949000000002
#
# number of rings (size 3 to 8) (size 9 to 14) (size 15 to 20)
#    0.000    2.125    1.250    3.000    0.000    2.000 
#    0.000    5.625    0.000    0.000    0.000    0.000 
#    0.000    0.500    0.000    6.250    0.000    0.000 
#
# Total GULP energy -793264.114976 kJ/mol
# GULP energy per Si atom -12394.751796 kJ/mol
# Density = 1.794800 g / cm^3
# Si number density = 17.988949 Si / 1000 Ang^3
#
#
#
# Elastic Constant Matrix: (Units=GPa)
#
#
# Indices 1 2 3 4 5 6 
#
# 1 129.0128 56.4489 34.7563 0.0000 0.0000 0.0000
# 2 56.4489 88.1598 20.1528 0.0000 0.0000 0.0000
# 3 34.7563 20.1528 59.1881 0.0000 0.0000 0.0000
# 4 0.0000 0.0000 0.0000 16.9167 0.0000 0.0000
# 5 0.0000 0.0000 0.0000 0.0000 23.0025 0.0000
# 6 0.0000 0.0000 0.0000 0.0000 0.0000 19.0250
#
#
#
# Elastic Compliance Matrix: (Units=1/GPa)
#
#
# Indices 1 2 3 4 5 6 
#
# 1 0.011888 -0.006524 -0.004759 0.000000 0.000000 0.000000
# 2 -0.006524 0.015881 -0.001576 0.000000 0.000000 0.000000
# 3 -0.004759 -0.001576 0.020227 0.000000 0.000000 0.000000
# 4 0.000000 0.000000 0.000000 0.059113 0.000000 0.000000
# 5 0.000000 0.000000 0.000000 0.000000 0.043474 0.000000
# 6 0.000000 0.000000 0.000000 0.000000 0.000000 0.052562
#
#
# Mechanical properties :
#
#
# Convention : Reuss Voigt Hill
#
# Bulk Modulus (GPa) = 44.89099 55.45298 50.17199
# Shear Modulus (GPa) = 21.16052 22.78900 21.97476
#
# Velocity S-wave (km/s) = 3.43345 3.56312 3.49889
# Velocity P-wave (km/s) = 6.38178 6.91526 6.65387
#
# Compressibility (1/GPa) = 0.02227618
#
# Stress axis : x y z
#
# Youngs Moduli (GPa) = 84.11944 62.96996 49.43928
#
# Poissons Ratio (x) = 0.41081 0.23531
# Poissons Ratio (y) = 0.54878 0.07793
# Poissons Ratio (z) = 0.40036 0.09926
#
# Static dielectric constant tensor:
#      x y z
#    x 3.925360 0.000000 0.000000 
#    y 0.000000 3.124640 0.000000 
#    z 0.000000 0.000000 3.264970 
# 
# 
# High freq. dielectric constant tensor:
#      x y z
#    x 1.707980 0.000000 0.000000 
#    y 0.000000 1.650350 0.000000 
#    z 0.000000 0.000000 1.693300 
# 
# From -- ./inp_files/5995.got.cif
#   From: 2010.03.12/outbox.cif.g09.slc.cpg/sg49_3_cif.got.tgz:5995.got - 2010.04.14 03:58:27.
