data_PCOD8202717
_publ_section_title
;
Structure prediction by ZEFSAII (Michael W. Deem and Ramdas Pophale) SiO2 
 PCOD8202717
Probable space group: P C C M
;
_chemical_formula_sum "Si O2"
_cell_formula_units_Z 64
_cell_length_a 18.196779
_cell_length_b 26.814441
_cell_length_c 8.840037
_cell_angle_alpha 90.000000
_cell_angle_beta 90.000000
_cell_angle_gamma 90.000000
_cell_volume 4313.376333
_symmetry_space_group_name_H-M "P C C M"
_symmetry_group_IT_number 49
_symmetry_cell_setting 'orthorhombic'
loop_
_space_group_symop_operation_xyz
x,y,z
-x,-y,z
x,-y,1/2-z
-x,y,1/2-z
-x,-y,-z
x,y,-z
-x,y,1/2+z
x,-y,1/2+z
loop_
_atom_site_type_symbol
_atom_site_label
_atom_site_fract_x
_atom_site_fract_y
_atom_site_fract_z
Si Si1 0.799390 0.799113 0.833389
Si Si2 0.078136 0.147698 0.676290
Si Si3 0.580016 0.657239 0.677033
Si Si4 0.421356 0.158552 0.680125
Si Si5 0.832552 0.050849 0.179168
Si Si6 0.420950 0.546858 0.825393
Si Si7 0.296182 0.898000 0.669679
Si Si8 0.657016 0.252317 0.679536
O O1 0.867924 0.806647 0.721316
O O2 0.751000 0.848375 0.839236
O O3 0.743436 0.755703 0.779154
O O4 0.831086 0.787174 0.000000
O O5 0.066916 0.148865 0.500000
O O6 0.112460 0.095047 0.729506
O O7 0.000000 0.156050 0.750000
O O8 0.500000 0.663080 0.750000
O O9 0.573555 0.670387 0.500000
O O10 0.614140 0.601587 0.700413
O O11 0.636560 0.693306 0.760889
O O12 0.500000 0.147108 0.750000
O O13 0.424795 0.159463 0.500000
O O14 0.369209 0.113425 0.734744
O O15 0.394109 0.212068 0.738395
O O16 0.751102 0.059767 0.245617
O O17 0.864558 0.000000 0.250000
O O18 0.827466 0.046624 0.000000
O O19 0.376283 0.500000 0.750000
O O20 0.500000 0.548922 0.750000
O O21 0.429471 0.534811 0.000000
O O22 0.316382 0.916165 0.500000
O O23 0.644694 0.247372 0.500000
#
# Coordination Sequence:
#
# PCOD8202717 Si02
#       8
#     8   8   8   8   8   8   8   8
#     4   8  16  30  46  62  82 107 135 164 197 238
#     4  10  20  32  48  68  90 113 138 165 195 230
#     4  10  19  28  38  55  79 107 140 181 223 261
#     4  11  20  30  44  62  84 108 135 169 207 248
#     4  10  20  33  49  69  89 113 139 165 198 235
#     4   9  16  25  37  51  69  97 135 177 220 260
#     4   9  17  31  48  65  84 107 135 167 200 240
#     4  10  19  30  43  60  82 109 138 171 211 252
#
# _framework density 14.837564
#
# number of rings (size 3 to 8) (size 9 to 14) (size 15 to 20)
#    0.000    2.375    0.000    4.875    0.000    6.750 
#    0.000    1.250    0.000    0.375    0.000    2.625 
#    0.000    0.000    0.000    0.000    0.000    0.625 
#
# Total GULP energy -793281.597719 kJ/mol
# GULP energy per Si atom -12395.024964 kJ/mol
# Density = 1.480379 g / cm^3
# Si number density = 14.837564 Si / 1000 Ang^3
#
#
#
# Elastic Constant Matrix: (Units=GPa)
#
#
# Indices 1 2 3 4 5 6 
#
# 1 89.0510 36.6097 43.5361 0.0000 0.0000 0.0000
# 2 36.6097 62.0772 29.1079 0.0000 0.0000 0.0000
# 3 43.5361 29.1079 95.2957 0.0000 0.0000 0.0000
# 4 0.0000 0.0000 0.0000 20.3175 0.0000 0.0000
# 5 0.0000 0.0000 0.0000 0.0000 22.4149 0.0000
# 6 0.0000 0.0000 0.0000 0.0000 0.0000 9.5534
#
#
#
# Elastic Compliance Matrix: (Units=1/GPa)
#
#
# Indices 1 2 3 4 5 6 
#
# 1 0.016965 -0.007436 -0.005479 0.000000 0.000000 0.000000
# 2 -0.007436 0.022061 -0.003341 0.000000 0.000000 0.000000
# 3 -0.005479 -0.003341 0.014018 0.000000 0.000000 0.000000
# 4 0.000000 0.000000 0.000000 0.049219 0.000000 0.000000
# 5 0.000000 0.000000 0.000000 0.000000 0.044613 0.000000
# 6 0.000000 0.000000 0.000000 0.000000 0.000000 0.104674
#
#
# Mechanical properties :
#
#
# Convention : Reuss Voigt Hill
#
# Bulk Modulus (GPa) = 48.70793 51.65903 50.18348
# Shear Modulus (GPa) = 17.18763 19.60185 18.39474
#
# Velocity S-wave (km/s) = 3.40720 3.63863 3.52482
# Velocity P-wave (km/s) = 6.95539 7.24878 7.10360
#
# Compressibility (1/GPa) = 0.02053054
#
# Stress axis : x y z
#
# Youngs Moduli (GPa) = 58.94382 45.32878 71.33929
#
# Poissons Ratio (x) = 0.33706 0.39089
# Poissons Ratio (y) = 0.43830 0.23837
# Poissons Ratio (z) = 0.32297 0.15146
#
# Static dielectric constant tensor:
#      x y z
#    x 2.771500 0.000000 0.000000 
#    y 0.000000 3.202910 0.000000 
#    z 0.000000 0.000000 3.059510 
# 
# 
# High freq. dielectric constant tensor:
#      x y z
#    x 1.534250 0.000000 0.000000 
#    y 0.000000 1.546000 0.000000 
#    z 0.000000 0.000000 1.588990 
# 
# From -- ./inp_files/5446.got.cif
#   From: 2010.03.12/outbox.cif.g09.slc.cpg/sg49_3_cif.got.tgz:5446.got - 2010.04.14 03:58:27.
