data_PCOD8202019
_publ_section_title
;
Structure prediction by ZEFSAII (Michael W. Deem and Ramdas Pophale) SiO2 
 PCOD8202019
Probable space group: P N N N
;
_chemical_formula_sum "Si O2"
_cell_formula_units_Z 40
_cell_length_a 21.829475
_cell_length_b 7.542555
_cell_length_c 13.323369
_cell_angle_alpha 90.000000
_cell_angle_beta 90.000000
_cell_angle_gamma 90.000000
_cell_volume 2193.692916
_symmetry_space_group_name_H-M "P N N N"
_symmetry_group_IT_number 48
_space_group.IT_coordinate_system_code '2'
_symmetry_cell_setting 'orthorhombic'
loop_
_space_group_symop_operation_xyz
x,y,z
1/2-x,1/2-y,z
x,1/2-y,1/2-z
1/2-x,y,1/2-z
-x,-y,-z
1/2+x,1/2+y,-z
-x,1/2+y,1/2+z
1/2+x,-y,1/2+z
loop_
_atom_site_type_symbol
_atom_site_label
_atom_site_fract_x
_atom_site_fract_y
_atom_site_fract_z
Si Si1 0.124629 0.947570 0.045468
Si Si2 0.597548 0.250015 0.136855
Si Si3 0.249994 0.960263 0.363699
Si Si4 0.452197 0.250018 0.363196
Si Si5 0.375387 0.552491 0.454515
O O1 0.189734 0.030926 0.078858
O O2 0.115085 0.750040 0.094114
O O3 0.070513 0.074191 0.080944
O O4 0.121691 0.924648 0.923684
O O5 0.623621 0.250000 0.250000
O O6 0.524715 0.250041 0.135486
O O7 0.621677 0.075380 0.076301
O O8 0.250000 0.750000 0.366508
O O9 0.250000 0.033036 0.250000
O O10 0.189712 0.030902 0.421122
O O11 0.426751 0.250000 0.250000
O O12 0.429513 0.425915 0.419018
#
# Coordination Sequence:
#
# PCOD8202019 Si02
#       5
#     8   8   8   8   8
#     4   9  20  34  54  74 110 136 168 210 263 301
#     4   9  20  37  53  73 105 139 182 215 244 300
#     4   9  16  31  51  79 105 132 167 209 261 318
#     4  11  20  33  54  81 106 135 169 211 263 318
#     4   9  20  34  54  74 110 136 168 210 263 301
#
# _framework density 18.234093000000001
#
# number of rings (size 3 to 8) (size 9 to 14) (size 15 to 20)
#    1.200    1.400    0.000    2.400    0.000    3.200 
#    0.000    5.000    0.000    0.000    0.000    2.800 
#    0.000    0.000    0.000    0.000    0.000    0.000 
#
# Total GULP energy -495603.529732 kJ/mol
# GULP energy per Si atom -12390.088243 kJ/mol
# Density = 1.819259 g / cm^3
# Si number density = 18.234093 Si / 1000 Ang^3
#
#
#
# Elastic Constant Matrix: (Units=GPa)
#
#
# Indices 1 2 3 4 5 6 
#
# 1 82.9670 13.2145 52.9170 0.0000 0.0000 0.0000
# 2 13.2145 59.8613 26.9186 0.0000 0.0000 0.0000
# 3 52.9170 26.9186 175.0721 0.0000 0.0000 0.0000
# 4 0.0000 0.0000 0.0000 17.8285 0.0000 0.0000
# 5 0.0000 0.0000 0.0000 0.0000 32.1300 0.0000
# 6 0.0000 0.0000 0.0000 0.0000 0.0000 -4.8470
#
#
#
# Elastic Compliance Matrix: (Units=1/GPa)
#
#
# Indices 1 2 3 4 5 6 
#
# 1 0.015035 -0.001370 -0.004334 0.000000 0.000000 0.000000
# 2 -0.001370 0.018071 -0.002364 0.000000 0.000000 0.000000
# 3 -0.004334 -0.002364 0.007385 0.000000 0.000000 0.000000
# 4 0.000000 0.000000 0.000000 0.056090 0.000000 0.000000
# 5 0.000000 0.000000 0.000000 0.000000 0.031124 0.000000
# 6 0.000000 0.000000 0.000000 0.000000 0.000000 -0.206312
#
#
# Mechanical properties :
#
#
# Convention : Reuss Voigt Hill
#
# Bulk Modulus (GPa) = 41.05962 56.00005 48.52984
# Shear Modulus (GPa) = -91.99447 24.01230 -33.99109
#
# Velocity S-wave (km/s) = -7.11066 3.63284 -4.32226
# Velocity P-wave (km/s) = 6.69689 6.95522 1.32792
#
# Compressibility (1/GPa) = 0.02435483
#
# Stress axis : x y z
#
# Youngs Moduli (GPa) = 66.50958 55.33738 135.40170
#
# Poissons Ratio (x) = 0.07582 0.58682
# Poissons Ratio (y) = 0.09113 0.32014
# Poissons Ratio (z) = 0.28825 0.13084
#
# Static dielectric constant tensor:
#      x y z
#    x 3.371880 0.000000 0.000000 
#    y 0.000000 3.025700 0.000000 
#    z 0.000000 0.000000 3.489450 
# 
# 
# High freq. dielectric constant tensor:
#      x y z
#    x 1.708400 0.000000 0.000000 
#    y 0.000000 1.682870 0.000000 
#    z 0.000000 0.000000 1.695370 
# 
# From -- ./inp_files/28208.got.cif
#   From: 2010.06.25/outbox.cif.g09.slc.cpg/sg48_15_cif.got.tgz:28208.got - 2010.06.26 18:06:46.
