data_PCOD8202619
_publ_section_title
;
Structure prediction by ZEFSAII (Michael W. Deem and Ramdas Pophale) SiO2 
 PCOD8202619
Probable space group: P C C M
;
_chemical_formula_sum "Si O2"
_cell_formula_units_Z 64
_cell_length_a 18.914376
_cell_length_b 19.253737
_cell_length_c 9.516806
_cell_angle_alpha 90.000000
_cell_angle_beta 90.000000
_cell_angle_gamma 90.000000
_cell_volume 3465.758281
_symmetry_space_group_name_H-M "P C C M"
_symmetry_group_IT_number 49
_symmetry_cell_setting 'orthorhombic'
loop_
_space_group_symop_operation_xyz
x,y,z
-x,-y,z
x,-y,1/2-z
-x,y,1/2-z
-x,-y,-z
x,y,-z
-x,y,1/2+z
x,-y,1/2+z
loop_
_atom_site_type_symbol
_atom_site_label
_atom_site_fract_x
_atom_site_fract_y
_atom_site_fract_z
Si Si1 0.722503 0.567381 0.665889
Si Si2 0.712892 0.174838 0.846585
Si Si3 0.910578 0.059655 0.347675
Si Si4 0.748888 0.942616 0.151909
Si Si5 0.438854 0.222953 0.658169
Si Si6 0.567635 0.381731 0.835078
Si Si7 0.188463 0.299611 0.341105
Si Si8 0.070623 0.781292 0.329889
O O1 0.747865 0.500000 0.750000
O O2 0.725007 0.554010 0.500000
O O3 0.641806 0.584133 0.712064
O O4 0.780412 0.626159 0.706704
O O5 0.748231 0.132127 0.722957
O O6 0.629656 0.176082 0.821256
O O7 0.742084 0.252213 0.842788
O O8 0.729520 0.141134 0.000000
O O9 0.948568 0.057992 0.500000
O O10 0.829919 0.037572 0.369137
O O11 0.916823 0.137916 0.285541
O O12 0.946204 0.000000 0.250000
O O13 0.710584 0.000000 0.250000
O O14 0.710842 0.940277 0.000000
O O15 0.500000 0.188018 0.750000
O O16 0.465935 0.222636 0.500000
O O17 0.423783 0.301358 0.706612
O O18 0.500000 0.413326 0.750000
O O19 0.553612 0.392930 0.000000
O O20 0.156021 0.302726 0.500000
O O21 0.132017 0.268706 0.230696
O O22 0.066476 0.772906 0.500000
O O23 0.000000 0.756449 0.250000
#
# Coordination Sequence:
#
# PCOD8202619 Si02
#       8
#     8   8   8   8   8   8   8   8
#     4  10  21  37  56  80 111 146 184 223 271 322
#     4  10  18  31  54  78 102 138 179 223 272 317
#     4   9  19  33  50  75 110 146 180 216 254 306
#     4  10  19  32  49  75 107 139 177 221 267 317
#     4   9  17  30  48  73 104 138 177 220 267 318
#     4   9  17  31  49  73 108 147 184 221 259 314
#     4  10  20  37  59  81 107 141 179 222 269 319
#     4  11  23  39  57  83 113 144 182 223 268 318
#
# _framework density 18.466377999999999
#
# number of rings (size 3 to 8) (size 9 to 14) (size 15 to 20)
#    0.000    2.250    2.500    0.750    0.000    3.500 
#    0.000    2.500    0.000    0.750    0.000    5.250 
#    0.000    0.000    0.000    0.000    0.000    0.000 
#
# Total GULP energy -793152.427106 kJ/mol
# GULP energy per Si atom -12393.006674 kJ/mol
# Density = 1.842435 g / cm^3
# Si number density = 18.466378 Si / 1000 Ang^3
#
#
#
# Elastic Constant Matrix: (Units=GPa)
#
#
# Indices 1 2 3 4 5 6 
#
# 1 81.6617 35.4172 49.7037 0.0000 0.0000 0.0000
# 2 35.4172 91.5947 52.6835 0.0000 0.0000 0.0000
# 3 49.7037 52.6835 108.6645 0.0000 0.0000 0.0000
# 4 0.0000 0.0000 0.0000 27.6459 0.0000 0.0000
# 5 0.0000 0.0000 0.0000 0.0000 23.6528 0.0000
# 6 0.0000 0.0000 0.0000 0.0000 0.0000 -92.7073
#
#
#
# Elastic Compliance Matrix: (Units=1/GPa)
#
#
# Indices 1 2 3 4 5 6 
#
# 1 0.017548 -0.003007 -0.006568 0.000000 0.000000 0.000000
# 2 -0.003007 0.015655 -0.006214 0.000000 0.000000 0.000000
# 3 -0.006568 -0.006214 0.015220 0.000000 0.000000 0.000000
# 4 0.000000 0.000000 0.000000 0.036172 0.000000 0.000000
# 5 0.000000 0.000000 0.000000 0.000000 0.042278 0.000000
# 6 0.000000 0.000000 0.000000 0.000000 0.000000 -0.010787
#
#
# Mechanical properties :
#
#
# Convention : Reuss Voigt Hill
#
# Bulk Modulus (GPa) = 59.37354 61.94773 60.66064
# Shear Modulus (GPa) = 32.61998 1.32605 16.97302
#
# Velocity S-wave (km/s) = 4.20748 0.84832 3.03501
# Velocity P-wave (km/s) = 7.47167 5.88036 6.72326
#
# Compressibility (1/GPa) = 0.01684252
#
# Stress axis : x y z
#
# Youngs Moduli (GPa) = 56.98711 63.87795 65.70305
#
# Poissons Ratio (x) = 0.19209 0.43157
# Poissons Ratio (y) = 0.17137 0.40830
# Poissons Ratio (z) = 0.37432 0.39696
#
# Static dielectric constant tensor:
#      x y z
#    x 3.243600 0.000000 0.000000 
#    y 0.000000 3.163880 0.000000 
#    z 0.000000 0.000000 3.655030 
# 
# 
# High freq. dielectric constant tensor:
#      x y z
#    x 1.701000 0.000000 0.000000 
#    y 0.000000 1.694240 0.000000 
#    z 0.000000 0.000000 1.721920 
# 
# From -- ./inp_files/5975.got.cif
#   From: 2010.03.12/outbox.cif.g09.slc.cpg/sg49_3_cif.got.tgz:5975.got - 2010.04.14 03:58:27.
