data_PCOD8202836
_publ_section_title
;
Structure prediction by ZEFSAII (Michael W. Deem and Ramdas Pophale) SiO2 
 PCOD8202836
Probable space group: P C C M
;
_chemical_formula_sum "Si O2"
_cell_formula_units_Z 56
_cell_length_a 20.307027
_cell_length_b 15.406383
_cell_length_c 8.887901
_cell_angle_alpha 90.000000
_cell_angle_beta 90.000000
_cell_angle_gamma 90.000000
_cell_volume 2780.649469
_symmetry_space_group_name_H-M "P C C M"
_symmetry_group_IT_number 49
_symmetry_cell_setting 'orthorhombic'
loop_
_space_group_symop_operation_xyz
x,y,z
-x,-y,z
x,-y,1/2-z
-x,y,1/2-z
-x,-y,-z
x,y,-z
-x,y,1/2+z
x,-y,1/2+z
loop_
_atom_site_type_symbol
_atom_site_label
_atom_site_fract_x
_atom_site_fract_y
_atom_site_fract_z
Si Si1 0.240803 0.644067 0.832067
Si Si2 0.902037 0.586722 0.326958
Si Si3 0.934735 0.766035 0.821105
Si Si4 0.670565 0.910658 0.177623
Si Si5 0.205698 0.186213 0.823463
Si Si6 0.432152 0.236320 0.821403
Si Si7 0.384119 0.412259 0.674696
O O1 0.177084 0.583569 0.813547
O O2 0.238762 0.722342 0.715064
O O3 0.305435 0.587579 0.801638
O O4 0.242453 0.684472 0.000000
O O5 0.930374 0.500000 0.250000
O O6 0.925143 0.592250 0.500000
O O7 0.931224 0.667661 0.236554
O O8 0.869718 0.818638 0.761962
O O9 0.000000 0.810416 0.750000
O O10 0.939659 0.766919 0.000000
O O11 0.745402 0.889416 0.235234
O O12 0.623160 0.832653 0.229117
O O13 0.646385 0.000000 0.250000
O O14 0.668200 0.921439 0.000000
O O15 0.202269 0.180922 0.000000
O O16 0.500000 0.202658 0.750000
O O17 0.416097 0.330524 0.756293
O O18 0.438140 0.242562 0.000000
O O19 0.411947 0.500000 0.750000
O O20 0.404014 0.410310 0.500000
#
# Coordination Sequence:
#
# PCOD8202836 Si02
#       7
#     8   8   8   8   8   8   8
#     4   9  18  31  51  79 110 146 190 240 290 343
#     4  10  19  31  46  70 104 142 188 238 290 342
#     4  10  20  34  53  76 106 145 188 234 286 345
#     4  10  22  40  65  95 123 153 191 238 293 354
#     4   9  18  35  58  83 113 149 188 234 288 342
#     4  11  24  43  64  88 122 160 199 244 295 349
#     4  11  22  36  57  86 119 159 204 248 296 347
#
# _framework density 20.139181000000001
#
# number of rings (size 3 to 8) (size 9 to 14) (size 15 to 20)
#    0.000    2.000    1.429    2.143    0.000    4.286 
#    0.000    4.286    0.000    0.429    0.000    3.000 
#    0.000    0.000    0.000    0.000    0.000    0.000 
#
# Total GULP energy -694259.668597 kJ/mol
# GULP energy per Si atom -12397.494082 kJ/mol
# Density = 2.009334 g / cm^3
# Si number density = 20.139181 Si / 1000 Ang^3
#
#
#
# Elastic Constant Matrix: (Units=GPa)
#
#
# Indices 1 2 3 4 5 6 
#
# 1 122.0090 48.6267 47.7225 0.0000 0.0000 0.0000
# 2 48.6267 105.0027 33.0684 0.0000 0.0000 0.0000
# 3 47.7225 33.0684 62.2481 0.0000 0.0000 0.0000
# 4 0.0000 0.0000 0.0000 28.8957 0.0000 0.0000
# 5 0.0000 0.0000 0.0000 0.0000 30.4634 0.0000
# 6 0.0000 0.0000 0.0000 0.0000 0.0000 8.7562
#
#
#
# Elastic Compliance Matrix: (Units=1/GPa)
#
#
# Indices 1 2 3 4 5 6 
#
# 1 0.012622 -0.003360 -0.007892 0.000000 0.000000 0.000000
# 2 -0.003360 0.012331 -0.003975 0.000000 0.000000 0.000000
# 3 -0.007892 -0.003975 0.024227 0.000000 0.000000 0.000000
# 4 0.000000 0.000000 0.000000 0.034607 0.000000 0.000000
# 5 0.000000 0.000000 0.000000 0.000000 0.032826 0.000000
# 6 0.000000 0.000000 0.000000 0.000000 0.000000 0.114205
#
#
# Mechanical properties :
#
#
# Convention : Reuss Voigt Hill
#
# Bulk Modulus (GPa) = 53.39976 60.89946 57.14961
# Shear Modulus (GPa) = 18.69066 24.27923 21.48494
#
# Velocity S-wave (km/s) = 3.04974 3.47590 3.26977
# Velocity P-wave (km/s) = 6.24292 6.81279 6.53407
#
# Compressibility (1/GPa) = 0.01872668
#
# Stress axis : x y z
#
# Youngs Moduli (GPa) = 79.22697 81.09398 41.27696
#
# Poissons Ratio (x) = 0.27247 0.32575
# Poissons Ratio (y) = 0.26619 0.16408
# Poissons Ratio (z) = 0.62524 0.32235
#
# Static dielectric constant tensor:
#      x y z
#    x 4.172770 0.000000 0.000000 
#    y 0.000000 3.359090 0.000000 
#    z 0.000000 0.000000 3.632980 
# 
# 
# High freq. dielectric constant tensor:
#      x y z
#    x 1.801350 0.000000 0.000000 
#    y 0.000000 1.752760 0.000000 
#    z 0.000000 0.000000 1.787220 
# 
# From -- ./inp_files/4017.got.cif
#   From: 2010.03.12/outbox.cif.g09.slc.cpg/sg49_3_cif.got.tgz:4017.got - 2010.04.14 03:58:27.
