data_PCOD8202995
_publ_section_title
;
Structure prediction by ZEFSAII (Michael W. Deem and Ramdas Pophale) SiO2 
 PCOD8202995
Probable space group: P C C M
;
_chemical_formula_sum "Si O2"
_cell_formula_units_Z 52
_cell_length_a 8.514988
_cell_length_b 12.411478
_cell_length_c 27.623162
_cell_angle_alpha 90.000000
_cell_angle_beta 90.000000
_cell_angle_gamma 90.000000
_cell_volume 2919.314823
_symmetry_space_group_name_H-M "P C C M"
_symmetry_group_IT_number 49
_symmetry_cell_setting 'orthorhombic'
loop_
_space_group_symop_operation_xyz
x,y,z
-x,-y,z
x,-y,1/2-z
-x,y,1/2-z
-x,-y,-z
x,y,-z
-x,y,1/2+z
x,-y,1/2+z
loop_
_atom_site_type_symbol
_atom_site_label
_atom_site_fract_x
_atom_site_fract_y
_atom_site_fract_z
Si Si1 0.185643 0.003584 0.000000
Si Si2 0.595185 0.802444 0.000000
Si Si3 0.822723 0.370623 0.756742
Si Si4 0.389642 0.097163 0.580991
Si Si5 0.332193 0.555737 0.500000
Si Si6 0.316413 0.711610 0.857051
Si Si7 0.818486 0.517608 0.597299
Si Si8 0.392649 0.402461 0.175170
O O1 0.247161 0.946473 0.951405
O O2 0.000000 0.000000 0.000000
O O3 0.248185 0.125459 0.000000
O O4 0.493775 0.824121 0.047914
O O5 0.650563 0.681879 0.000000
O O6 0.817159 0.500000 0.750000
O O7 0.767381 0.316565 0.806465
O O8 0.699028 0.332496 0.715830
O O9 0.000000 0.328664 0.750000
O O10 0.315469 0.163158 0.626464
O O11 0.500000 0.000000 0.600356
O O12 0.500000 0.500000 0.500000
O O13 0.229885 0.522558 0.545326
O O14 0.226980 0.643448 0.898462
O O15 0.499112 0.679452 0.854442
O O16 0.733021 0.452182 0.639138
O O17 0.000000 0.500000 0.606440
O O18 0.500000 0.500000 0.197257
#
# Coordination Sequence:
#
# PCOD8202995 Si02
#       8
#     4   4   8   8   4   8   8   8
#     4   9  19  36  62  83 105 141 186 237 280 330
#     4   9  18  36  55  75 105 147 179 221 270 318
#     4  11  20  33  53  78 113 147 182 227 274 336
#     4   9  19  37  57  80 106 136 188 236 275 319
#     4  12  22  34  50  74 111 148 181 214 264 338
#     4  11  21  33  57  80 105 147 187 228 277 324
#     4  11  22  33  46  75 114 148 176 216 272 331
#     4  10  19  32  51  75 102 141 187 218 254 326
#
# _framework density 17.812398999999999
#
# number of rings (size 3 to 8) (size 9 to 14) (size 15 to 20)
#    0.000    1.692    3.077    5.769    0.000    1.846 
#    0.000    3.077    0.000    1.846    0.000    1.077 
#    0.000    0.000    0.000    0.000    0.000    0.000 
#
# Total GULP energy -644549.009768 kJ/mol
# GULP energy per Si atom -12395.173265 kJ/mol
# Density = 1.777186 g / cm^3
# Si number density = 17.812399 Si / 1000 Ang^3
#
#
#
# Elastic Constant Matrix: (Units=GPa)
#
#
# Indices 1 2 3 4 5 6 
#
# 1 154.9407 49.9618 53.6355 0.0000 0.0000 0.0000
# 2 49.9618 107.2967 62.9634 0.0000 0.0000 0.0000
# 3 53.6355 62.9634 110.9970 0.0000 0.0000 0.0000
# 4 0.0000 0.0000 0.0000 23.5810 0.0000 0.0000
# 5 0.0000 0.0000 0.0000 0.0000 -19.8461 0.0000
# 6 0.0000 0.0000 0.0000 0.0000 0.0000 11.6867
#
#
#
# Elastic Compliance Matrix: (Units=1/GPa)
#
#
# Indices 1 2 3 4 5 6 
#
# 1 0.008085 -0.002207 -0.002655 0.000000 0.000000 0.000000
# 2 -0.002207 0.014573 -0.007200 0.000000 0.000000 0.000000
# 3 -0.002655 -0.007200 0.014376 0.000000 0.000000 0.000000
# 4 0.000000 0.000000 0.000000 0.042407 0.000000 0.000000
# 5 0.000000 0.000000 0.000000 0.000000 -0.050388 0.000000
# 6 0.000000 0.000000 0.000000 0.000000 0.000000 0.085567
#
#
# Mechanical properties :
#
#
# Convention : Reuss Voigt Hill
#
# Bulk Modulus (GPa) = 77.45670 78.48397 77.97034
# Shear Modulus (GPa) = 34.95357 16.86258 25.90807
#
# Velocity S-wave (km/s) = 4.43461 3.08015 3.81792
# Velocity P-wave (km/s) = 8.35465 7.53703 7.95635
#
# Compressibility (1/GPa) = 0.01291044
#
# Stress axis : x y z
#
# Youngs Moduli (GPa) = 123.69087 68.62220 69.55830
#
# Poissons Ratio (x) = 0.15142 0.18467
# Poissons Ratio (y) = 0.27294 0.50082
# Poissons Ratio (z) = 0.32839 0.49408
#
# Static dielectric constant tensor:
#      x y z
#    x 3.727260 0.000000 0.000000 
#    y 0.000000 3.116160 0.000000 
#    z 0.000000 0.000000 3.176440 
# 
# 
# High freq. dielectric constant tensor:
#      x y z
#    x 1.701890 0.000000 0.000000 
#    y 0.000000 1.653080 0.000000 
#    z 0.000000 0.000000 1.690850 
# 
# From -- ./inp_files/24540.got.cif
#   From: 2010.03.12/outbox.cif.g09.slc.cpg/sg49_13_cif.got.tgz:24540.got - 2010.04.14 03:58:27.
