data_PCOD8202902
_publ_section_title
;
Structure prediction by ZEFSAII (Michael W. Deem and Ramdas Pophale) SiO2 
 PCOD8202902
Probable space group: P C C M
;
_chemical_formula_sum "Si O2"
_cell_formula_units_Z 40
_cell_length_a 16.735921
_cell_length_b 5.198307
_cell_length_c 24.511975
_cell_angle_alpha 90.000000
_cell_angle_beta 90.000000
_cell_angle_gamma 90.000000
_cell_volume 2132.503961
_symmetry_space_group_name_H-M "P C C M"
_symmetry_group_IT_number 49
_symmetry_cell_setting 'orthorhombic'
loop_
_space_group_symop_operation_xyz
x,y,z
-x,-y,z
x,-y,1/2-z
-x,y,1/2-z
-x,-y,-z
x,y,-z
-x,y,1/2+z
x,-y,1/2+z
loop_
_atom_site_type_symbol
_atom_site_label
_atom_site_fract_x
_atom_site_fract_y
_atom_site_fract_z
Si Si1 0.813705 0.008353 0.436118
Si Si2 0.591141 0.751584 0.226142
Si Si3 0.912306 0.478395 0.937123
Si Si4 0.418870 0.383196 0.437748
Si Si5 0.352652 0.865266 0.392792
O O1 0.786469 0.976109 0.500000
O O2 0.870187 0.251003 0.428653
O O3 0.739001 0.044282 0.395282
O O4 0.859576 0.756212 0.413368
O O5 0.634479 0.500000 0.250000
O O6 0.500000 0.752202 0.250000
O O7 0.606975 0.756150 0.162031
O O8 0.636091 0.000000 0.250000
O O9 0.000000 0.500000 0.909166
O O10 0.924745 0.407593 0.000000
O O11 0.500000 0.500000 0.413092
O O12 0.427998 0.302036 0.500000
O O13 0.354961 0.615983 0.432782
O O14 0.403119 0.117585 0.407133
#
# Coordination Sequence:
#
# PCOD8202902 Si02
#       5
#     8   8   8   8   8
#     4  10  19  31  50  78 112 148 184 221 271 328
#     4  10  23  39  58  79  98 134 191 244 294 340
#     4   9  17  30  49  75 111 152 186 214 252 319
#     4  11  24  37  53  79 110 147 189 227 276 344
#     4  12  23  37  59  78 111 148 188 243 290 333
#
# _framework density 18.757292
#
# number of rings (size 3 to 8) (size 9 to 14) (size 15 to 20)
#    0.000    1.600    0.000    5.400    8.400    5.600 
#    0.000    0.000    0.000    0.000    0.000    0.000 
#    0.000   12.000    0.000    0.000    0.000    0.000 
#
# Total GULP energy -495541.896609 kJ/mol
# GULP energy per Si atom -12388.547415 kJ/mol
# Density = 1.871460 g / cm^3
# Si number density = 18.757292 Si / 1000 Ang^3
#
#
#
# Elastic Constant Matrix: (Units=GPa)
#
#
# Indices 1 2 3 4 5 6 
#
# 1 88.6181 19.6097 44.9827 0.0000 0.0000 0.0000
# 2 19.6097 155.8160 36.6940 0.0000 0.0000 0.0000
# 3 44.9827 36.6940 59.0294 0.0000 0.0000 0.0000
# 4 0.0000 0.0000 0.0000 34.8249 0.0000 0.0000
# 5 0.0000 0.0000 0.0000 0.0000 15.5448 0.0000
# 6 0.0000 0.0000 0.0000 0.0000 0.0000 30.4528
#
#
#
# Elastic Compliance Matrix: (Units=1/GPa)
#
#
# Indices 1 2 3 4 5 6 
#
# 1 0.018582 0.001167 -0.014886 0.000000 0.000000 0.000000
# 2 0.001167 0.007592 -0.005608 0.000000 0.000000 0.000000
# 3 -0.014886 -0.005608 0.031770 0.000000 0.000000 0.000000
# 4 0.000000 0.000000 0.000000 0.028715 0.000000 0.000000
# 5 0.000000 0.000000 0.000000 0.000000 0.064330 0.000000
# 6 0.000000 0.000000 0.000000 0.000000 0.000000 0.032838
#
#
# Mechanical properties :
#
#
# Convention : Reuss Voigt Hill
#
# Bulk Modulus (GPa) = 51.84038 56.22625 54.03332
# Shear Modulus (GPa) = 21.84248 29.64299 25.74274
#
# Velocity S-wave (km/s) = 3.41615 3.97967 3.70863
# Velocity P-wave (km/s) = 6.57705 7.15247 6.87078
#
# Compressibility (1/GPa) = 0.01928998
#
# Stress axis : x y z
#
# Youngs Moduli (GPa) = 53.81511 131.72238 31.47576
#
# Poissons Ratio (x) = -0.15371 0.46854
# Poissons Ratio (y) = -0.06280 0.17653
# Poissons Ratio (z) = 0.80107 0.73875
#
# Static dielectric constant tensor:
#      x y z
#    x 3.433150 0.000000 0.000000 
#    y 0.000000 4.890040 0.000000 
#    z 0.000000 0.000000 3.060600 
# 
# 
# High freq. dielectric constant tensor:
#      x y z
#    x 1.708540 0.000000 0.000000 
#    y 0.000000 1.771220 0.000000 
#    z 0.000000 0.000000 1.673590 
# 
# From -- ./inp_files/21713.got.cif
#   From: 2010.03.12/outbox.cif.g09.slc.cpg/sg49_11_cif.got.tgz:21713.got - 2010.04.14 03:58:27.
