data_PCOD8202147
_publ_section_title
;
Structure prediction by ZEFSAII (Michael W. Deem and Ramdas Pophale) SiO2 
 PCOD8202147
Probable space group: P N N N
;
_chemical_formula_sum "Si O2"
_cell_formula_units_Z 48
_cell_length_a 8.605096
_cell_length_b 17.334367
_cell_length_c 13.954149
_cell_angle_alpha 90.000000
_cell_angle_beta 90.000000
_cell_angle_gamma 90.000000
_cell_volume 2081.455176
_symmetry_space_group_name_H-M "P N N N"
_symmetry_group_IT_number 48
_space_group.IT_coordinate_system_code '2'
_symmetry_cell_setting 'orthorhombic'
loop_
_space_group_symop_operation_xyz
x,y,z
1/2-x,1/2-y,z
x,1/2-y,1/2-z
1/2-x,y,1/2-z
-x,-y,-z
1/2+x,1/2+y,-z
-x,1/2+y,1/2+z
1/2+x,-y,1/2+z
loop_
_atom_site_type_symbol
_atom_site_label
_atom_site_fract_x
_atom_site_fract_y
_atom_site_fract_z
Si Si1 0.929701 0.235394 0.642219
Si Si2 0.147079 0.927359 0.338084
Si Si3 0.123919 0.959668 0.678091
Si Si4 0.315279 0.489101 0.997815
Si Si5 0.421658 0.161870 0.274038
Si Si6 0.367251 0.180429 0.485339
O O1 0.750000 0.250000 0.632516
O O2 0.994220 0.250000 0.750000
O O3 0.943820 0.145001 0.613873
O O4 0.018471 0.291131 0.568696
O O5 0.250000 0.894471 0.250000
O O6 0.261705 0.977836 0.401698
O O7 0.016199 0.983825 0.302972
O O8 0.250000 0.990893 0.750000
O O9 0.057222 0.876109 0.709354
O O10 0.207969 0.961089 0.575034
O O11 0.278357 0.397852 0.981231
O O12 0.500000 0.500000 0.000000
O O13 0.425948 0.250000 0.250000
O O14 0.250000 0.127036 0.250000
O O15 0.457379 0.154592 0.388178
O O16 0.250000 0.250000 0.460507
#
# Coordination Sequence:
#
# PCOD8202147 Si02
#       6
#     8   8   8   8   8   8
#     4  11  25  46  71 106 145 196 246 313 384 453
#     4  12  24  45  76 103 146 195 253 312 384 452
#     4  12  27  44  70 109 147 193 254 308 379 457
#     4  12  27  47  76 110 151 198 253 321 382 462
#     4  11  24  48  76 103 152 197 251 311 388 457
#     4  12  25  46  74 109 147 199 249 313 385 457
#
# _framework density 23.060787999999999
#
# number of rings (size 3 to 8) (size 9 to 14) (size 15 to 20)
#    0.000    0.333    3.333    7.000    4.667    0.667 
#    0.000    0.000    0.000    0.000    0.000    0.000 
#    0.000    0.000    0.000    0.000    0.000    0.000 
#
# Total GULP energy -594883.888128 kJ/mol
# GULP energy per Si atom -12393.414336 kJ/mol
# Density = 2.300830 g / cm^3
# Si number density = 23.060788 Si / 1000 Ang^3
#
#
#
# Elastic Constant Matrix: (Units=GPa)
#
#
# Indices 1 2 3 4 5 6 
#
# 1 114.1981 51.4257 66.5816 0.0000 0.0000 0.0000
# 2 51.4257 131.6497 56.6182 0.0000 0.0000 0.0000
# 3 66.5816 56.6182 145.6881 0.0000 0.0000 0.0000
# 4 0.0000 0.0000 0.0000 37.9314 0.0000 0.0000
# 5 0.0000 0.0000 0.0000 0.0000 48.1109 0.0000
# 6 0.0000 0.0000 0.0000 0.0000 0.0000 -1.1596
#
#
#
# Elastic Compliance Matrix: (Units=1/GPa)
#
#
# Indices 1 2 3 4 5 6 
#
# 1 0.012851 -0.002995 -0.004709 0.000000 0.000000 0.000000
# 2 -0.002995 0.009818 -0.002447 0.000000 0.000000 0.000000
# 3 -0.004709 -0.002447 0.009967 0.000000 0.000000 0.000000
# 4 0.000000 0.000000 0.000000 0.026363 0.000000 0.000000
# 5 0.000000 0.000000 0.000000 0.000000 0.020785 0.000000
# 6 0.000000 0.000000 0.000000 0.000000 0.000000 -0.862389
#
#
# Mechanical properties :
#
#
# Convention : Reuss Voigt Hill
#
# Bulk Modulus (GPa) = 81.07397 82.30965 81.69181
# Shear Modulus (GPa) = -6.59464 31.43723 12.42129
#
# Velocity S-wave (km/s) = -1.69289 3.69620 2.32336
# Velocity P-wave (km/s) = 5.60462 7.34751 6.53443
#
# Compressibility (1/GPa) = 0.01233442
#
# Stress axis : x y z
#
# Youngs Moduli (GPa) = 77.81542 101.85330 100.32955
#
# Poissons Ratio (x) = 0.30501 0.47248
# Poissons Ratio (y) = 0.23302 0.24550
# Poissons Ratio (z) = 0.36646 0.24923
#
# Static dielectric constant tensor:
#      x y z
#    x 3.820030 0.000000 0.000000 
#    y 0.000000 4.778690 0.000000 
#    z 0.000000 0.000000 4.630910 
# 
# 
# High freq. dielectric constant tensor:
#      x y z
#    x 1.908140 0.000000 0.000000 
#    y 0.000000 1.932170 0.000000 
#    z 0.000000 0.000000 1.915530 
# 
# From -- ./inp_files/25402.got.cif
#   From: 2010.06.25/outbox.cif.g09.slc.cpg/sg48_13_cif.got.tgz:25402.got - 2010.06.26 18:06:46.
