data_PCOD8202026
_publ_section_title
;
Structure prediction by ZEFSAII (Michael W. Deem and Ramdas Pophale) SiO2 
 PCOD8202026
Probable space group: P N N N
;
_chemical_formula_sum "Si O2"
_cell_formula_units_Z 48
_cell_length_a 21.765093
_cell_length_b 9.270596
_cell_length_c 10.613089
_cell_angle_alpha 90.000000
_cell_angle_beta 90.000000
_cell_angle_gamma 90.000000
_cell_volume 2141.460110
_symmetry_space_group_name_H-M "P N N N"
_symmetry_group_IT_number 48
_space_group.IT_coordinate_system_code '2'
_symmetry_cell_setting 'orthorhombic'
loop_
_space_group_symop_operation_xyz
x,y,z
1/2-x,1/2-y,z
x,1/2-y,1/2-z
1/2-x,y,1/2-z
-x,-y,-z
1/2+x,1/2+y,-z
-x,1/2+y,1/2+z
1/2+x,-y,1/2+z
loop_
_atom_site_type_symbol
_atom_site_label
_atom_site_fract_x
_atom_site_fract_y
_atom_site_fract_z
Si Si1 0.736021 0.595342 0.898130
Si Si2 0.026567 0.318222 0.113639
Si Si3 0.604425 0.293452 0.111478
Si Si4 0.402604 0.065915 0.473136
Si Si5 0.190787 0.836420 0.406992
Si Si6 0.570602 0.406446 0.732301
O O1 0.750000 0.750000 0.956827
O O2 0.750000 0.588592 0.750000
O O3 0.666216 0.563899 0.925943
O O4 0.781698 0.483299 0.966717
O O5 0.040032 0.250000 0.250000
O O6 0.069834 0.228758 0.014396
O O7 0.042489 0.490106 0.121243
O O8 0.955820 0.298732 0.074808
O O9 0.626663 0.250000 0.250000
O O10 0.591143 0.466986 0.099839
O O11 0.657750 0.255030 0.014657
O O12 0.440806 0.982645 0.365527
O O13 0.250000 0.750000 0.352686
O O14 0.142921 0.876685 0.295928
O O15 0.537491 0.250000 0.750000
#
# Coordination Sequence:
#
# PCOD8202026 Si02
#       6
#     8   8   8   8   8   8
#     4  11  22  35  62  98 131 154 189 252 337 406
#     4   9  22  39  64  91 125 165 208 259 325 384
#     4  11  24  42  62  85 120 175 231 256 297 370
#     4  11  20  39  62  91 126 163 201 264 318 391
#     4  12  23  38  61  92 128 157 205 256 316 381
#     4  11  20  36  62  97 128 151 194 263 339 386
#
# _framework density 22.414612999999999
#
# number of rings (size 3 to 8) (size 9 to 14) (size 15 to 20)
#    0.000    1.167    5.000    1.500    4.667    1.000 
#    0.000    0.000    0.000    1.000    0.000    0.000 
#    0.000    0.000    0.000    0.000    0.000    0.000 
#
# Total GULP energy -594785.995848 kJ/mol
# GULP energy per Si atom -12391.374914 kJ/mol
# Density = 2.236360 g / cm^3
# Si number density = 22.414613 Si / 1000 Ang^3
#
#
#
# Elastic Constant Matrix: (Units=GPa)
#
#
# Indices 1 2 3 4 5 6 
#
# 1 88.1741 32.5796 9.4360 0.0000 0.0000 0.0000
# 2 32.5796 187.9444 20.3379 0.0000 0.0000 0.0000
# 3 9.4360 20.3379 57.7103 0.0000 0.0000 0.0000
# 4 0.0000 0.0000 0.0000 -573.8168 0.0000 0.0000
# 5 0.0000 0.0000 0.0000 0.0000 17.7804 0.0000
# 6 0.0000 0.0000 0.0000 0.0000 0.0000 10.5159
#
#
#
# Elastic Compliance Matrix: (Units=1/GPa)
#
#
# Indices 1 2 3 4 5 6 
#
# 1 0.012210 -0.001976 -0.001300 0.000000 0.000000 0.000000
# 2 -0.001976 0.005851 -0.001739 0.000000 0.000000 0.000000
# 3 -0.001300 -0.001739 0.018153 0.000000 0.000000 0.000000
# 4 0.000000 0.000000 0.000000 -0.001743 0.000000 0.000000
# 5 0.000000 0.000000 0.000000 0.000000 0.056242 0.000000
# 6 0.000000 0.000000 0.000000 0.000000 0.000000 0.095094
#
#
# Mechanical properties :
#
#
# Convention : Reuss Voigt Hill
#
# Bulk Modulus (GPa) = 38.18981 50.94842 44.56911
# Shear Modulus (GPa) = 24.44186 -91.00577 -33.28195
#
# Velocity S-wave (km/s) = 3.30577 -6.37881 -3.85753
# Velocity P-wave (km/s) = 5.62545 5.61008 0.29389
#
# Compressibility (1/GPa) = 0.02618500
#
# Stress axis : x y z
#
# Youngs Moduli (GPa) = 81.89713 170.89822 55.08614
#
# Poissons Ratio (x) = 0.33769 0.07162
# Poissons Ratio (y) = 0.16183 0.09580
# Poissons Ratio (z) = 0.10648 0.29720
#
# Static dielectric constant tensor:
#      x y z
#    x 3.962110 0.000000 0.000000 
#    y 0.000000 4.879840 0.000000 
#    z 0.000000 0.000000 3.601170 
# 
# 
# High freq. dielectric constant tensor:
#      x y z
#    x 1.881550 0.000000 0.000000 
#    y 0.000000 1.908830 0.000000 
#    z 0.000000 0.000000 1.828210 
# 
# From -- ./inp_files/23270.got.cif
#   From: 2010.06.25/outbox.cif.g09.slc.cpg/sg48_12_cif.got.tgz:23270.got - 2010.06.26 18:06:46.
