data_PCOD8202794
_publ_section_title
;
Structure prediction by ZEFSAII (Michael W. Deem and Ramdas Pophale) SiO2 
 PCOD8202794
Probable space group: P C C M
;
_chemical_formula_sum "Si O2"
_cell_formula_units_Z 64
_cell_length_a 14.027809
_cell_length_b 8.979845
_cell_length_c 29.060095
_cell_angle_alpha 90.000000
_cell_angle_beta 90.000000
_cell_angle_gamma 90.000000
_cell_volume 3660.628985
_symmetry_space_group_name_H-M "P C C M"
_symmetry_group_IT_number 49
_symmetry_cell_setting 'orthorhombic'
loop_
_space_group_symop_operation_xyz
x,y,z
-x,-y,z
x,-y,1/2-z
-x,y,1/2-z
-x,-y,-z
x,y,-z
-x,y,1/2+z
x,-y,1/2+z
loop_
_atom_site_type_symbol
_atom_site_label
_atom_site_fract_x
_atom_site_fract_y
_atom_site_fract_z
Si Si1 0.892579 0.473807 0.872809
Si Si2 0.759286 0.979620 0.199864
Si Si3 0.442465 0.358651 0.586474
Si Si4 0.387155 0.178124 0.948472
Si Si5 0.597759 0.060051 0.130154
Si Si6 0.091888 0.229729 0.305280
Si Si7 0.267340 0.459744 0.947035
Si Si8 0.119225 0.710390 0.294997
O O1 0.877864 0.307617 0.853368
O O2 0.821651 0.504969 0.914511
O O3 0.872681 0.567139 0.826755
O O4 0.000000 0.500000 0.891182
O O5 0.789513 0.809926 0.191434
O O6 0.711916 0.000000 0.250000
O O7 0.684819 0.030707 0.162757
O O8 0.856421 0.072683 0.197053
O O9 0.500000 0.500000 0.608677
O O10 0.512930 0.267724 0.552910
O O11 0.407901 0.239027 0.624364
O O12 0.350932 0.419017 0.559273
O O13 0.303684 0.293752 0.934451
O O14 0.385973 0.031551 0.917070
O O15 0.371632 0.119745 0.000000
O O16 0.500000 0.000000 0.152985
O O17 0.120772 0.327151 0.259742
O O18 0.978774 0.202535 0.306023
O O19 0.233643 0.467331 0.000000
#
# Coordination Sequence:
#
# PCOD8202794 Si02
#       8
#     8   8   8   8   8   8   8   8
#     4  10  19  30  46  68  95 126 156 189 228 274
#     4  10  19  31  48  70  95 124 154 187 227 274
#     4   9  18  32  50  71  93 116 150 195 239 276
#     4   9  18  32  50  71  92 116 151 195 240 278
#     4  10  20  32  48  70  95 124 154 187 229 278
#     4   9  17  30  48  71  93 117 152 195 238 274
#     4  10  19  31  47  67  94 126 156 189 229 276
#     4   9  17  30  49  70  93 118 151 195 239 274
#
# _framework density 17.483332999999998
#
# number of rings (size 3 to 8) (size 9 to 14) (size 15 to 20)
#    0.000    2.500    0.000    2.625    0.000    7.750 
#    0.000    0.000    0.000    0.000    0.000    7.000 
#    0.000   14.000    0.000    0.000    0.000    0.000 
#
# Total GULP energy -793136.977414 kJ/mol
# GULP energy per Si atom -12392.765272 kJ/mol
# Density = 1.744354 g / cm^3
# Si number density = 17.483333 Si / 1000 Ang^3
#
#
#
# Elastic Constant Matrix: (Units=GPa)
#
#
# Indices 1 2 3 4 5 6 
#
# 1 77.8361 26.4442 54.4022 0.0000 0.0000 0.0000
# 2 26.4442 70.6147 31.3630 0.0000 0.0000 0.0000
# 3 54.4022 31.3630 79.7837 0.0000 0.0000 0.0000
# 4 0.0000 0.0000 0.0000 14.5124 0.0000 0.0000
# 5 0.0000 0.0000 0.0000 0.0000 22.8387 0.0000
# 6 0.0000 0.0000 0.0000 0.0000 0.0000 17.9782
#
#
#
# Elastic Compliance Matrix: (Units=1/GPa)
#
#
# Indices 1 2 3 4 5 6 
#
# 1 0.024813 -0.002154 -0.016073 0.000000 0.000000 0.000000
# 2 -0.002154 0.017344 -0.005349 0.000000 0.000000 0.000000
# 3 -0.016073 -0.005349 0.025596 0.000000 0.000000 0.000000
# 4 0.000000 0.000000 0.000000 0.068907 0.000000 0.000000
# 5 0.000000 0.000000 0.000000 0.000000 0.043785 0.000000
# 6 0.000000 0.000000 0.000000 0.000000 0.000000 0.055623
#
#
# Mechanical properties :
#
#
# Convention : Reuss Voigt Hill
#
# Bulk Modulus (GPa) = 48.53971 50.29479 49.41725
# Shear Modulus (GPa) = 17.23629 18.80087 18.01858
#
# Velocity S-wave (km/s) = 3.14326 3.28282 3.21380
# Velocity P-wave (km/s) = 6.40290 6.57259 6.48830
#
# Compressibility (1/GPa) = 0.02060169
#
# Stress axis : x y z
#
# Youngs Moduli (GPa) = 40.30184 57.65786 39.06845
#
# Poissons Ratio (x) = 0.12417 0.62793
# Poissons Ratio (y) = 0.08679 0.20899
# Poissons Ratio (z) = 0.64775 0.30843
#
# Static dielectric constant tensor:
#      x y z
#    x 3.180110 0.000000 0.000000 
#    y 0.000000 3.337400 0.000000 
#    z 0.000000 0.000000 3.098310 
# 
# 
# High freq. dielectric constant tensor:
#      x y z
#    x 1.667980 0.000000 0.000000 
#    y 0.000000 1.679760 0.000000 
#    z 0.000000 0.000000 1.656350 
# 
# From -- ./inp_files/23228.got.cif
#   From: 2010.03.12/outbox.cif.g09.slc.cpg/sg49_12_cif.got.tgz:23228.got - 2010.04.14 03:58:27.
