data_PCOD8202089
_publ_section_title
;
Structure prediction by ZEFSAII (Michael W. Deem and Ramdas Pophale) SiO2 
 PCOD8202089
Probable space group: P N N N
;
_chemical_formula_sum "Si O2"
_cell_formula_units_Z 32
_cell_length_a 10.380180
_cell_length_b 8.530978
_cell_length_c 14.768578
_cell_angle_alpha 90.000000
_cell_angle_beta 90.000000
_cell_angle_gamma 90.000000
_cell_volume 1307.803176
_symmetry_space_group_name_H-M "P N N N"
_symmetry_group_IT_number 48
_space_group.IT_coordinate_system_code '2'
_symmetry_cell_setting 'orthorhombic'
loop_
_space_group_symop_operation_xyz
x,y,z
1/2-x,1/2-y,z
x,1/2-y,1/2-z
1/2-x,y,1/2-z
-x,-y,-z
1/2+x,1/2+y,-z
-x,1/2+y,1/2+z
1/2+x,-y,1/2+z
loop_
_atom_site_type_symbol
_atom_site_label
_atom_site_fract_x
_atom_site_fract_y
_atom_site_fract_z
Si Si1 0.036736 0.582756 0.906709
Si Si2 0.299700 0.073378 0.612567
Si Si3 0.129037 0.134347 0.079865
Si Si4 0.541478 0.071895 0.732418
O O1 0.185374 0.553385 0.882272
O O2 0.946083 0.514236 0.827998
O O3 0.004919 0.767482 0.911936
O O4 0.000000 0.500000 0.000000
O O5 0.250000 0.250000 0.617152
O O6 0.373081 0.048215 0.517209
O O7 0.395467 0.052251 0.696322
O O8 0.250000 0.250000 0.087437
O O9 0.138099 0.005666 0.159553
O O10 0.581876 0.250000 0.750000
#
# Coordination Sequence:
#
# PCOD8202089 Si02
#       4
#     8   8   8   8
#     4  12  23  43  73 106 143 199 239 304 377 438
#     4  11  22  45  78 102 147 188 250 317 368 437
#     4  11  25  48  73 103 154 194 244 313 382 446
#     4  12  25  43  75 107 142 191 255 304 375 448
#
# _framework density 24.468516000000001
#
# number of rings (size 3 to 8) (size 9 to 14) (size 15 to 20)
#    0.000    0.500    7.500    2.250    0.000    3.000 
#    0.000    5.000    0.000    0.000    0.000    0.000 
#    0.000    0.000    0.000    0.000    0.000    0.000 
#
# Total GULP energy -396921.561529 kJ/mol
# GULP energy per Si atom -12403.798798 kJ/mol
# Density = 2.441282 g / cm^3
# Si number density = 24.468516 Si / 1000 Ang^3
#
#
#
# Elastic Constant Matrix: (Units=GPa)
#
#
# Indices 1 2 3 4 5 6 
#
# 1 78.1738 20.5353 -4.0101 0.0000 0.0000 0.0000
# 2 20.5353 110.8714 40.6914 0.0000 0.0000 0.0000
# 3 -4.0101 40.6914 171.7518 0.0000 0.0000 0.0000
# 4 0.0000 0.0000 0.0000 36.8783 0.0000 0.0000
# 5 0.0000 0.0000 0.0000 0.0000 -3.0344 0.0000
# 6 0.0000 0.0000 0.0000 0.0000 0.0000 35.4384
#
#
#
# Elastic Compliance Matrix: (Units=1/GPa)
#
#
# Indices 1 2 3 4 5 6 
#
# 1 0.013602 -0.002887 0.001002 0.000000 0.000000 0.000000
# 2 -0.002887 0.010491 -0.002553 0.000000 0.000000 0.000000
# 3 0.001002 -0.002553 0.006451 0.000000 0.000000 0.000000
# 4 0.000000 0.000000 0.000000 0.027116 0.000000 0.000000
# 5 0.000000 0.000000 0.000000 0.000000 -0.329550 0.000000
# 6 0.000000 0.000000 0.000000 0.000000 0.000000 0.028218
#
#
# Mechanical properties :
#
#
# Convention : Reuss Voigt Hill
#
# Bulk Modulus (GPa) = 46.15342 52.80337 49.47840
# Shear Modulus (GPa) = -21.97096 34.09514 6.06209
#
# Velocity S-wave (km/s) = -2.99980 3.73692 1.57572
# Velocity P-wave (km/s) = 2.62773 6.34400 4.85548
#
# Compressibility (1/GPa) = 0.02166687
#
# Stress axis : x y z
#
# Youngs Moduli (GPa) = 73.52011 95.31861 155.02463
#
# Poissons Ratio (x) = 0.27517 -0.15526
# Poissons Ratio (y) = 0.21224 0.39577
# Poissons Ratio (z) = -0.07363 0.24334
#
# Static dielectric constant tensor:
#      x y z
#    x 4.383220 0.000000 0.000000 
#    y 0.000000 4.488700 0.000000 
#    z 0.000000 0.000000 4.765820 
# 
# 
# High freq. dielectric constant tensor:
#      x y z
#    x 1.967210 0.000000 0.000000 
#    y 0.000000 1.965230 0.000000 
#    z 0.000000 0.000000 1.997490 
# 
# From -- ./inp_files/10091.got.cif
#   From: 2010.06.25/outbox.cif.g09.slc.cpg/sg48_6_cif.got.tgz:10091.got - 2010.06.26 18:06:46.
