data_PCOD8202280
_publ_section_title
;
Structure prediction by ZEFSAII (Michael W. Deem and Ramdas Pophale) SiO2 
 PCOD8202280
Probable space group: P C C M
;
_chemical_formula_sum "Si O2"
_cell_formula_units_Z 64
_cell_length_a 18.306583
_cell_length_b 26.446039
_cell_length_c 8.726931
_cell_angle_alpha 90.000000
_cell_angle_beta 90.000000
_cell_angle_gamma 90.000000
_cell_volume 4225.026772
_symmetry_space_group_name_H-M "P C C M"
_symmetry_group_IT_number 49
_symmetry_cell_setting 'orthorhombic'
loop_
_space_group_symop_operation_xyz
x,y,z
-x,-y,z
x,-y,1/2-z
-x,y,1/2-z
-x,-y,-z
x,y,-z
-x,y,1/2+z
x,-y,1/2+z
loop_
_atom_site_type_symbol
_atom_site_label
_atom_site_fract_x
_atom_site_fract_y
_atom_site_fract_z
Si Si1 0.579074 0.347094 0.678670
Si Si2 0.579819 0.152304 0.181202
Si Si3 0.418919 0.949759 0.317385
Si Si4 0.707042 0.399096 0.171746
Si Si5 0.079184 0.347789 0.181357
Si Si6 0.838197 0.448222 0.319834
Si Si7 0.662142 0.755896 0.821153
Si Si8 0.207945 0.705547 0.172889
O O1 0.500000 0.350966 0.750000
O O2 0.573732 0.356340 0.500000
O O3 0.628995 0.391716 0.747637
O O4 0.612299 0.292396 0.716995
O O5 0.500000 0.163169 0.250000
O O6 0.617089 0.102030 0.255357
O O7 0.632413 0.198386 0.220292
O O8 0.572533 0.145538 0.000000
O O9 0.500000 0.949207 0.250000
O O10 0.419013 0.951243 0.500000
O O11 0.378635 0.000000 0.250000
O O12 0.755438 0.439930 0.262011
O O13 0.748833 0.346465 0.172974
O O14 0.694580 0.418997 0.000000
O O15 0.109522 0.402512 0.234027
O O16 0.130058 0.302983 0.246300
O O17 0.000000 0.339794 0.250000
O O18 0.077015 0.343433 0.000000
O O19 0.870033 0.500000 0.250000
O O20 0.836820 0.452861 0.500000
O O21 0.745628 0.746138 0.769996
O O22 0.659904 0.769626 0.000000
O O23 0.196164 0.725444 0.000000
#
# Coordination Sequence:
#
# PCOD8202280 Si02
#       8
#     8   8   8   8   8   8   8   8
#     4  10  19  29  43  62  84 108 136 170 209 250
#     4  11  20  29  40  57  81 110 145 186 229 267
#     4  10  17  27  40  54  73 101 139 182 226 269
#     4   9  17  30  47  64  83 107 136 167 201 242
#     4  10  20  33  49  69  92 116 141 170 200 236
#     4  10  20  33  49  68  89 112 138 166 200 239
#     4  10  19  30  43  61  85 112 141 175 214 256
#     4   9  17  30  47  65  85 111 140 169 202 245
#
# _framework density 15.147831999999999
#
# number of rings (size 3 to 8) (size 9 to 14) (size 15 to 20)
#    0.000    2.125    0.000    6.000    0.000    7.250 
#    0.000    1.250    0.000    0.375    0.000    2.625 
#    0.000    0.000    0.000    0.000    0.000    0.625 
#
# Total GULP energy -793550.462248 kJ/mol
# GULP energy per Si atom -12399.225973 kJ/mol
# Density = 1.511336 g / cm^3
# Si number density = 15.147832 Si / 1000 Ang^3
#
#
#
# Elastic Constant Matrix: (Units=GPa)
#
#
# Indices 1 2 3 4 5 6 
#
# 1 97.4766 30.1538 35.5356 0.0000 0.0000 0.0000
# 2 30.1538 49.8717 23.2474 0.0000 0.0000 0.0000
# 3 35.5356 23.2474 90.3556 0.0000 0.0000 0.0000
# 4 0.0000 0.0000 0.0000 25.4097 0.0000 0.0000
# 5 0.0000 0.0000 0.0000 0.0000 24.9613 0.0000
# 6 0.0000 0.0000 0.0000 0.0000 0.0000 8.8446
#
#
#
# Elastic Compliance Matrix: (Units=1/GPa)
#
#
# Indices 1 2 3 4 5 6 
#
# 1 0.013616 -0.006518 -0.003678 0.000000 0.000000 0.000000
# 2 -0.006518 0.025904 -0.004101 0.000000 0.000000 0.000000
# 3 -0.003678 -0.004101 0.013569 0.000000 0.000000 0.000000
# 4 0.000000 0.000000 0.000000 0.039355 0.000000 0.000000
# 5 0.000000 0.000000 0.000000 0.000000 0.040062 0.000000
# 6 0.000000 0.000000 0.000000 0.000000 0.000000 0.113064
#
#
# Mechanical properties :
#
#
# Convention : Reuss Voigt Hill
#
# Bulk Modulus (GPa) = 40.82550 46.17529 43.50039
# Shear Modulus (GPa) = 17.70976 21.76092 19.73534
#
# Velocity S-wave (km/s) = 3.42296 3.79432 3.61342
# Velocity P-wave (km/s) = 6.52933 7.05302 6.79622
#
# Compressibility (1/GPa) = 0.02449449
#
# Stress axis : x y z
#
# Youngs Moduli (GPa) = 73.44268 38.60359 73.69689
#
# Poissons Ratio (x) = 0.25163 0.27105
# Poissons Ratio (y) = 0.47871 0.30226
# Poissons Ratio (z) = 0.27012 0.15833
#
# Static dielectric constant tensor:
#      x y z
#    x 2.557500 0.000000 0.000000 
#    y 0.000000 3.160570 0.000000 
#    z 0.000000 0.000000 3.093260 
# 
# 
# High freq. dielectric constant tensor:
#      x y z
#    x 1.547740 0.000000 0.000000 
#    y 0.000000 1.556560 0.000000 
#    z 0.000000 0.000000 1.604380 
# 
# From -- ./inp_files/5432.got.cif
#   From: 2010.03.12/outbox.cif.g09.slc.cpg/sg49_3_cif.got.tgz:5432.got - 2010.04.14 03:58:27.
