data_PCOD8202043
_publ_section_title
;
Structure prediction by ZEFSAII (Michael W. Deem and Ramdas Pophale) SiO2 
 PCOD8202043
Probable space group: P N N N
;
_chemical_formula_sum "Si O2"
_cell_formula_units_Z 48
_cell_length_a 28.523888
_cell_length_b 10.397225
_cell_length_c 7.739590
_cell_angle_alpha 90.000000
_cell_angle_beta 90.000000
_cell_angle_gamma 90.000000
_cell_volume 2295.324645
_symmetry_space_group_name_H-M "P N N N"
_symmetry_group_IT_number 48
_space_group.IT_coordinate_system_code '2'
_symmetry_cell_setting 'orthorhombic'
loop_
_space_group_symop_operation_xyz
x,y,z
1/2-x,1/2-y,z
x,1/2-y,1/2-z
1/2-x,y,1/2-z
-x,-y,-z
1/2+x,1/2+y,-z
-x,1/2+y,1/2+z
1/2+x,-y,1/2+z
loop_
_atom_site_type_symbol
_atom_site_label
_atom_site_fract_x
_atom_site_fract_y
_atom_site_fract_z
Si Si1 0.554805 0.993345 0.048366
Si Si2 0.053175 0.002348 0.954533
Si Si3 0.394502 0.752697 0.544673
Si Si4 0.292694 0.683865 0.935726
Si Si5 0.108389 0.259155 0.439714
Si Si6 0.250000 0.042888 0.750000
Si Si7 0.177170 0.250000 0.750000
O O1 0.561834 0.980531 0.252102
O O2 0.583622 0.118114 0.977244
O O3 0.577867 0.868108 0.967414
O O4 0.500000 0.000000 0.000000
O O5 0.073472 0.867874 0.023664
O O6 0.074203 0.119404 0.061912
O O7 0.000000 0.000000 0.000000
O O8 0.393645 0.750000 0.750000
O O9 0.342350 0.788720 0.470870
O O10 0.250000 0.750000 0.043018
O O11 0.296762 0.750000 0.750000
O O12 0.276085 0.536932 0.902645
O O13 0.132128 0.250000 0.250000
O O14 0.146501 0.288152 0.585618
O O15 0.208499 0.132572 0.677239
#
# Coordination Sequence:
#
# PCOD8202043 Si02
#       7
#     8   8   8   8   8   4   4
#     4  11  22  38  60  94 133 173 221 274 332 394
#     4  11  21  38  61  88 129 171 219 275 326 392
#     4   9  19  33  58  90 124 159 212 269 325 387
#     4   8  15  27  53  88 121 144 200 257 313 381
#     4  12  25  41  62  92 133 175 222 270 325 396
#     4   9  19  34  62  96 123 155 214 268 322 409
#     4  11  22  40  64  92 126 168 214 266 333 386
#
# _framework density 20.912074
#
# number of rings (size 3 to 8) (size 9 to 14) (size 15 to 20)
#    0.000    2.000    1.667    3.000    7.000    1.333 
#    0.000    4.167    0.000    0.000    0.000    0.000 
#   10.000    0.000    0.000    0.000    0.000    0.000 
#
# Total GULP energy -594748.635573 kJ/mol
# GULP energy per Si atom -12390.596574 kJ/mol
# Density = 2.086448 g / cm^3
# Si number density = 20.912074 Si / 1000 Ang^3
#
#
#
# Elastic Constant Matrix: (Units=GPa)
#
#
# Indices 1 2 3 4 5 6 
#
# 1 172.4760 69.9849 14.4018 0.0000 0.0000 0.0000
# 2 69.9849 166.2008 13.4110 0.0000 0.0000 0.0000
# 3 14.4018 13.4110 72.8419 0.0000 0.0000 0.0000
# 4 0.0000 0.0000 0.0000 0.5914 0.0000 0.0000
# 5 0.0000 0.0000 0.0000 0.0000 18.1247 0.0000
# 6 0.0000 0.0000 0.0000 0.0000 0.0000 41.1981
#
#
#
# Elastic Compliance Matrix: (Units=1/GPa)
#
#
# Indices 1 2 3 4 5 6 
#
# 1 0.007045 -0.002897 -0.000860 0.000000 0.000000 0.000000
# 2 -0.002897 0.007299 -0.000771 0.000000 0.000000 0.000000
# 3 -0.000860 -0.000771 0.014040 0.000000 0.000000 0.000000
# 4 0.000000 0.000000 0.000000 1.690783 0.000000 0.000000
# 5 0.000000 0.000000 0.000000 0.000000 0.055173 0.000000
# 6 0.000000 0.000000 0.000000 0.000000 0.000000 0.024273
#
#
# Mechanical properties :
#
#
# Convention : Reuss Voigt Hill
#
# Bulk Modulus (GPa) = 51.73592 67.45712 59.59652
# Shear Modulus (GPa) = 2.75617 32.89759 17.82688
#
# Velocity S-wave (km/s) = 1.14928 3.97058 2.92287
# Velocity P-wave (km/s) = 5.15311 7.30399 6.32071
#
# Compressibility (1/GPa) = 0.01932893
#
# Stress axis : x y z
#
# Youngs Moduli (GPa) = 141.93824 137.00397 71.22381
#
# Poissons Ratio (x) = 0.39695 0.06122
# Poissons Ratio (y) = 0.41124 0.05491
# Poissons Ratio (z) = 0.12200 0.10563
#
# Static dielectric constant tensor:
#      x y z
#    x 4.443290 0.000000 0.000000 
#    y 0.000000 4.074330 0.000000 
#    z 0.000000 0.000000 3.225490 
# 
# 
# High freq. dielectric constant tensor:
#      x y z
#    x 1.835680 0.000000 0.000000 
#    y 0.000000 1.838360 0.000000 
#    z 0.000000 0.000000 1.772380 
# 
# From -- ./inp_files/16394.got.cif
#   From: 2010.06.25/outbox.cif.g09.slc.cpg/sg48_9_cif.got.tgz:16394.got - 2010.06.26 18:06:46.
