data_PCOD8202015
_publ_section_title
;
Structure prediction by ZEFSAII (Michael W. Deem and Ramdas Pophale) SiO2 
 PCOD8202015
Probable space group: P N N N
;
_chemical_formula_sum "Si O2"
_cell_formula_units_Z 48
_cell_length_a 9.225020
_cell_length_b 13.415728
_cell_length_c 17.622171
_cell_angle_alpha 90.000000
_cell_angle_beta 90.000000
_cell_angle_gamma 90.000000
_cell_volume 2180.926211
_symmetry_space_group_name_H-M "P N N N"
_symmetry_group_IT_number 48
_space_group.IT_coordinate_system_code '2'
_symmetry_cell_setting 'orthorhombic'
loop_
_space_group_symop_operation_xyz
x,y,z
1/2-x,1/2-y,z
x,1/2-y,1/2-z
1/2-x,y,1/2-z
-x,-y,-z
1/2+x,1/2+y,-z
-x,1/2+y,1/2+z
1/2+x,-y,1/2+z
loop_
_atom_site_type_symbol
_atom_site_label
_atom_site_fract_x
_atom_site_fract_y
_atom_site_fract_z
Si Si1 0.054219 0.141098 0.040485
Si Si2 0.021858 0.910020 0.191708
Si Si3 0.738374 0.909211 0.667242
Si Si4 0.412459 0.737563 0.416146
Si Si5 0.315415 0.000646 0.577159
Si Si6 0.495410 0.468297 0.637861
O O1 0.154305 0.170162 0.113079
O O2 0.151305 0.053148 0.003143
O O3 0.897528 0.105230 0.071765
O O4 0.028090 0.227556 0.979936
O O5 0.878420 0.933963 0.145168
O O6 0.975587 0.918798 0.279098
O O7 0.071009 0.799271 0.163441
O O8 0.151070 0.986146 0.172578
O O9 0.750000 0.858989 0.750000
O O10 0.898164 0.936911 0.637600
O O11 0.250000 0.750000 0.446763
O O12 0.441491 0.620995 0.411547
O O13 0.147352 0.988146 0.597309
#
# Coordination Sequence:
#
# PCOD8202015 Si02
#       6
#     8   8   8   8   8   8
#     4   9  20  38  52  72 121 150 185 236 295 332
#     4   9  18  33  50  79 123 153 177 221 286 344
#     4   9  18  34  56  81 110 147 188 237 285 338
#     4  11  21  34  53  82 120 164 181 225 291 352
#     4   9  19  34  54  75 113 158 185 232 276 336
#     4  11  20  30  56  87 110 147 206 221 273 355
#
# _framework density 22.008997000000001
#
# number of rings (size 3 to 8) (size 9 to 14) (size 15 to 20)
#    0.000    2.333    1.667    2.000    0.000    4.000 
#    0.000    3.333    0.000    0.000    0.000    2.333 
#   25.000    0.000    0.000    0.000    0.000    0.000 
#
# Total GULP energy -594878.325825 kJ/mol
# GULP energy per Si atom -12393.298455 kJ/mol
# Density = 2.195890 g / cm^3
# Si number density = 22.008997 Si / 1000 Ang^3
#
#
#
# Elastic Constant Matrix: (Units=GPa)
#
#
# Indices 1 2 3 4 5 6 
#
# 1 131.1765 5.5075 49.0046 0.0000 0.0000 0.0000
# 2 5.5075 20.9013 14.5189 0.0000 0.0000 0.0000
# 3 49.0046 14.5189 127.0996 0.0000 0.0000 0.0000
# 4 0.0000 0.0000 0.0000 12.2084 0.0000 0.0000
# 5 0.0000 0.0000 0.0000 0.0000 44.6636 0.0000
# 6 0.0000 0.0000 0.0000 0.0000 0.0000 22.9374
#
#
#
# Elastic Compliance Matrix: (Units=1/GPa)
#
#
# Indices 1 2 3 4 5 6 
#
# 1 0.008906 0.000042 -0.003439 0.000000 0.000000 0.000000
# 2 0.000042 0.051968 -0.005953 0.000000 0.000000 0.000000
# 3 -0.003439 -0.005953 0.009874 0.000000 0.000000 0.000000
# 4 0.000000 0.000000 0.000000 0.081910 0.000000 0.000000
# 5 0.000000 0.000000 0.000000 0.000000 0.022390 0.000000
# 6 0.000000 0.000000 0.000000 0.000000 0.000000 0.043597
#
#
# Mechanical properties :
#
#
# Convention : Reuss Voigt Hill
#
# Bulk Modulus (GPa) = 19.21270 46.35996 32.78633
# Shear Modulus (GPa) = 19.63149 29.97166 24.80158
#
# Velocity S-wave (km/s) = 2.98984 3.69425 3.36055
# Velocity P-wave (km/s) = 4.54613 6.26949 5.47603
#
# Compressibility (1/GPa) = 0.05204890
#
# Stress axis : x y z
#
# Youngs Moduli (GPa) = 112.28184 19.24268 101.27988
#
# Poissons Ratio (x) = -0.00081 0.34827
# Poissons Ratio (y) = -0.00470 0.60288
# Poissons Ratio (z) = 0.38610 0.11454
#
# Static dielectric constant tensor:
#      x y z
#    x 3.916260 0.000000 0.000000 
#    y 0.000000 3.408130 0.000000 
#    z 0.000000 0.000000 4.205780 
# 
# 
# High freq. dielectric constant tensor:
#      x y z
#    x 1.866510 0.000000 0.000000 
#    y 0.000000 1.823220 0.000000 
#    z 0.000000 0.000000 1.874650 
# 
# From -- ./inp_files/12739.got.cif
#   From: 2010.06.25/outbox.cif.g09.slc.cpg/sg48_7_cif.got.tgz:12739.got - 2010.06.26 18:06:46.
