data_PCOD8202146
_publ_section_title
;
Structure prediction by ZEFSAII (Michael W. Deem and Ramdas Pophale) SiO2 
 PCOD8202146
Probable space group: P N N N
;
_chemical_formula_sum "Si O2"
_cell_formula_units_Z 42
_cell_length_a 8.469935
_cell_length_b 15.722777
_cell_length_c 13.636482
_cell_angle_alpha 90.000000
_cell_angle_beta 90.000000
_cell_angle_gamma 90.000000
_cell_volume 1815.982570
_symmetry_space_group_name_H-M "P N N N"
_symmetry_group_IT_number 48
_space_group.IT_coordinate_system_code '2'
_symmetry_cell_setting 'orthorhombic'
loop_
_space_group_symop_operation_xyz
x,y,z
1/2-x,1/2-y,z
x,1/2-y,1/2-z
1/2-x,y,1/2-z
-x,-y,-z
1/2+x,1/2+y,-z
-x,1/2+y,1/2+z
1/2+x,-y,1/2+z
loop_
_atom_site_type_symbol
_atom_site_label
_atom_site_fract_x
_atom_site_fract_y
_atom_site_fract_z
Si Si1 0.427932 0.778325 0.992304
Si Si2 0.930548 0.009285 0.773121
Si Si3 0.250000 0.250000 0.750000
Si Si4 0.434946 0.067370 0.923767
Si Si5 0.931026 0.158192 0.280290
Si Si6 0.900541 0.867626 0.091802
O O1 0.250000 0.750000 0.997633
O O2 0.470357 0.843391 0.079026
O O3 0.530044 0.691625 0.004371
O O4 0.457301 0.838185 0.897345
O O5 0.750000 0.030932 0.750000
O O6 0.051177 0.033026 0.685956
O O7 0.976397 0.059499 0.872444
O O8 0.958217 0.907776 0.779161
O O9 0.138191 0.191225 0.815541
O O10 0.252688 0.085000 0.950771
O O11 0.500000 0.000000 0.000000
O O12 0.990210 0.250000 0.250000
O O13 0.750000 0.141667 0.250000
#
# Coordination Sequence:
#
# PCOD8202146 Si02
#       6
#     8   8   2   8   8   8
#     4  12  24  44  74 109 142 185 249 303 364 449
#     4  12  26  46  73 109 145 192 246 307 369 446
#     4  12  20  40  70 100 132 196 230 288 384 436
#     4  12  24  44  71 105 147 190 245 304 366 445
#     4  11  24  48  72  99 147 198 238 294 377 434
#     4  12  24  45  76 102 149 195 243 305 378 438
#
# _framework density 23.127976
#
# number of rings (size 3 to 8) (size 9 to 14) (size 15 to 20)
#    0.000    0.190    7.619    2.286    0.000    1.905 
#    3.429    4.762    0.000    0.000    0.000    0.000 
#    0.000    0.000    0.000    0.000    0.000    0.000 
#
# Total GULP energy -520686.774571 kJ/mol
# GULP energy per Si atom -12397.304156 kJ/mol
# Density = 2.307534 g / cm^3
# Si number density = 23.127976 Si / 1000 Ang^3
#
#
#
# Elastic Constant Matrix: (Units=GPa)
#
#
# Indices 1 2 3 4 5 6 
#
# 1 118.6436 51.3818 18.0864 0.0000 0.0000 0.0000
# 2 51.3818 140.0238 25.8758 0.0000 0.0000 0.0000
# 3 18.0864 25.8758 61.2360 0.0000 0.0000 0.0000
# 4 0.0000 0.0000 0.0000 47.7294 0.0000 0.0000
# 5 0.0000 0.0000 0.0000 0.0000 30.7321 0.0000
# 6 0.0000 0.0000 0.0000 0.0000 0.0000 38.7122
#
#
#
# Elastic Compliance Matrix: (Units=1/GPa)
#
#
# Indices 1 2 3 4 5 6 
#
# 1 0.010154 -0.003441 -0.001545 0.000000 0.000000 0.000000
# 2 -0.003441 0.008912 -0.002750 0.000000 0.000000 0.000000
# 3 -0.001545 -0.002750 0.017949 0.000000 0.000000 0.000000
# 4 0.000000 0.000000 0.000000 0.020951 0.000000 0.000000
# 5 0.000000 0.000000 0.000000 0.000000 0.032539 0.000000
# 6 0.000000 0.000000 0.000000 0.000000 0.000000 0.025832
#
#
# Mechanical properties :
#
#
# Convention : Reuss Voigt Hill
#
# Bulk Modulus (GPa) = 46.41683 56.73239 51.57461
# Shear Modulus (GPa) = 35.97384 38.40537 37.18961
#
# Velocity S-wave (km/s) = 3.94817 4.07942 4.01433
# Velocity P-wave (km/s) = 6.39509 6.83900 6.62076
#
# Compressibility (1/GPa) = 0.02154391
#
# Stress axis : x y z
#
# Youngs Moduli (GPa) = 98.48162 112.20460 55.71464
#
# Poissons Ratio (x) = 0.38604 0.08609
# Poissons Ratio (y) = 0.33883 0.15320
# Poissons Ratio (z) = 0.15218 0.30854
#
# Static dielectric constant tensor:
#      x y z
#    x 3.996700 0.000000 0.000000 
#    y 0.000000 4.628130 0.000000 
#    z 0.000000 0.000000 2.949920 
# 
# 
# High freq. dielectric constant tensor:
#      x y z
#    x 1.905660 0.000000 0.000000 
#    y 0.000000 1.943180 0.000000 
#    z 0.000000 0.000000 1.902530 
# 
# From -- ./inp_files/25134.got.cif
#   From: 2010.06.25/outbox.cif.g09.slc.cpg/sg48_13_cif.got.tgz:25134.got - 2010.06.26 18:06:46.
