data_PCOD8202209
_publ_section_title
;
Structure prediction by ZEFSAII (Michael W. Deem and Ramdas Pophale) SiO2 
 PCOD8202209
Probable space group: P C C M
;
_chemical_formula_sum "Si O2"
_cell_formula_units_Z 40
_cell_length_a 25.871303
_cell_length_b 9.369403
_cell_length_c 8.591702
_cell_angle_alpha 90.000000
_cell_angle_beta 90.000000
_cell_angle_gamma 90.000000
_cell_volume 2082.617086
_symmetry_space_group_name_H-M "P C C M"
_symmetry_group_IT_number 49
_symmetry_cell_setting 'orthorhombic'
loop_
_space_group_symop_operation_xyz
x,y,z
-x,-y,z
x,-y,1/2-z
-x,y,1/2-z
-x,-y,-z
x,y,-z
-x,y,1/2+z
x,-y,1/2+z
loop_
_atom_site_type_symbol
_atom_site_label
_atom_site_fract_x
_atom_site_fract_y
_atom_site_fract_z
Si Si1 0.448418 0.340478 0.182705
Si Si2 0.233035 0.657872 0.181439
Si Si3 0.943981 0.651255 0.315918
Si Si4 0.347209 0.345156 0.678885
Si Si5 0.856046 0.843743 0.183273
O O1 0.446011 0.500000 0.250000
O O2 0.500000 0.263140 0.250000
O O3 0.394848 0.262076 0.235648
O O4 0.452621 0.342706 0.000000
O O5 0.229566 0.500000 0.250000
O O6 0.290757 0.726369 0.200362
O O7 0.195435 0.756900 0.279142
O O8 0.216925 0.653731 0.000000
O O9 0.924029 0.500000 0.250000
O O10 0.947070 0.640385 0.500000
O O11 0.905275 0.774425 0.265722
O O12 0.000000 0.690139 0.250000
O O13 0.341238 0.500000 0.750000
O O14 0.362661 0.358505 0.500000
O O15 0.848576 0.000000 0.250000
O O16 0.865412 0.848059 0.000000
#
# Coordination Sequence:
#
# PCOD8202209 Si02
#       5
#     8   8   8   8   8
#     4  10  16  22  33  51  81 119 160 202 252 309
#     4  10  20  35  55  79 106 140 180 224 270 320
#     4  11  22  40  64  91 119 149 185 223 265 313
#     4   9  16  26  41  62  90 123 164 209 256 308
#     4  12  25  41  59  82 112 146 183 225 272 322
#
# _framework density 19.206603000000001
#
# number of rings (size 3 to 8) (size 9 to 14) (size 15 to 20)
#    0.000    1.600    0.000    9.600    0.000    2.800 
#    0.000    2.000    0.000    0.000    0.000    0.000 
#    0.000    0.800    0.000    8.400    0.000    6.200 
#
# Total GULP energy -495820.810086 kJ/mol
# GULP energy per Si atom -12395.520252 kJ/mol
# Density = 1.916289 g / cm^3
# Si number density = 19.206603 Si / 1000 Ang^3
#
#
#
# Elastic Constant Matrix: (Units=GPa)
#
#
# Indices 1 2 3 4 5 6 
#
# 1 134.3826 44.7371 55.7180 0.0000 0.0000 0.0000
# 2 44.7371 65.2543 25.9391 0.0000 0.0000 0.0000
# 3 55.7180 25.9391 173.7489 0.0000 0.0000 0.0000
# 4 0.0000 0.0000 0.0000 22.1512 0.0000 0.0000
# 5 0.0000 0.0000 0.0000 0.0000 35.6167 0.0000
# 6 0.0000 0.0000 0.0000 0.0000 0.0000 -0.3982
#
#
#
# Elastic Compliance Matrix: (Units=1/GPa)
#
#
# Indices 1 2 3 4 5 6 
#
# 1 0.010537 -0.006252 -0.002446 0.000000 0.000000 0.000000
# 2 -0.006252 0.020001 -0.000981 0.000000 0.000000 0.000000
# 3 -0.002446 -0.000981 0.006686 0.000000 0.000000 0.000000
# 4 0.000000 0.000000 0.000000 0.045144 0.000000 0.000000
# 5 0.000000 0.000000 0.000000 0.000000 0.028077 0.000000
# 6 0.000000 0.000000 0.000000 0.000000 0.000000 -2.511285
#
#
# Mechanical properties :
#
#
# Convention : Reuss Voigt Hill
#
# Bulk Modulus (GPa) = 55.96975 69.57491 62.77233
# Shear Modulus (GPa) = -2.10480 27.94004 12.91762
#
# Velocity S-wave (km/s) = -1.04797 3.81820 2.59619
# Velocity P-wave (km/s) = 5.26686 7.46601 6.46070
#
# Compressibility (1/GPa) = 0.01786679
#
# Stress axis : x y z
#
# Youngs Moduli (GPa) = 94.90688 49.99844 149.56248
#
# Poissons Ratio (x) = 0.31257 0.36577
# Poissons Ratio (y) = 0.59332 0.14674
# Poissons Ratio (z) = 0.23210 0.04906
#
# Static dielectric constant tensor:
#      x y z
#    x 4.640420 0.000000 0.000000 
#    y 0.000000 3.056950 0.000000 
#    z 0.000000 0.000000 3.752820 
# 
# 
# High freq. dielectric constant tensor:
#      x y z
#    x 1.781680 0.000000 0.000000 
#    y 0.000000 1.677380 0.000000 
#    z 0.000000 0.000000 1.772700 
# 
# From -- ./inp_files/1927.got.cif
#   From: 2010.03.12/outbox.cif.g09.slc.cpg/sg49_1_cif.got.tgz:1927.got - 2010.04.14 03:58:27.
