data_PCOD8202551
_publ_section_title
;
Structure prediction by ZEFSAII (Michael W. Deem and Ramdas Pophale) SiO2 
 PCOD8202551
Probable space group: P C C M
;
_chemical_formula_sum "Si O2"
_cell_formula_units_Z 64
_cell_length_a 18.946460
_cell_length_b 23.406841
_cell_length_c 8.675573
_cell_angle_alpha 90.000000
_cell_angle_beta 90.000000
_cell_angle_gamma 90.000000
_cell_volume 3847.415150
_symmetry_space_group_name_H-M "P C C M"
_symmetry_group_IT_number 49
_symmetry_cell_setting 'orthorhombic'
loop_
_space_group_symop_operation_xyz
x,y,z
-x,-y,z
x,-y,1/2-z
-x,y,1/2-z
-x,-y,-z
x,y,-z
-x,y,1/2+z
x,-y,1/2+z
loop_
_atom_site_type_symbol
_atom_site_label
_atom_site_fract_x
_atom_site_fract_y
_atom_site_fract_z
Si Si1 0.213841 0.060499 0.680499
Si Si2 0.426047 0.768765 0.679697
Si Si3 0.424972 0.438655 0.182964
Si Si4 0.344975 0.336083 0.318072
Si Si5 0.072989 0.248916 0.317539
Si Si6 0.927781 0.117770 0.818192
Si Si7 0.215764 0.276328 0.818336
Si Si8 0.708315 0.839334 0.823513
O O1 0.208788 0.053858 0.500000
O O2 0.138451 0.082003 0.747549
O O3 0.274703 0.105894 0.720029
O O4 0.234864 0.000000 0.750000
O O5 0.500000 0.788667 0.750000
O O6 0.432589 0.753306 0.500000
O O7 0.399213 0.712910 0.767349
O O8 0.372632 0.821421 0.704733
O O9 0.403842 0.500000 0.250000
O O10 0.500000 0.418121 0.250000
O O11 0.365112 0.394661 0.234510
O O12 0.430128 0.442084 0.000000
O O13 0.348963 0.343998 0.500000
O O14 0.265397 0.321716 0.267154
O O15 0.074603 0.256052 0.500000
O O16 0.081131 0.183182 0.264718
O O17 0.136393 0.284904 0.242034
O O18 0.000000 0.273764 0.250000
O O19 0.000000 0.091654 0.750000
O O20 0.931715 0.113667 0.000000
O O21 0.241314 0.212812 0.773796
O O22 0.221260 0.286806 0.000000
O O23 0.721805 0.855986 0.000000
#
# Coordination Sequence:
#
# PCOD8202551 Si02
#       8
#     8   8   8   8   8   8   8   8
#     4  11  22  35  50  69  91 119 156 195 238 289
#     4  10  20  34  52  77 102 127 158 196 244 293
#     4  11  21  35  52  73 103 141 182 218 252 293
#     4  11  21  33  50  74 104 138 172 210 249 289
#     4  10  18  30  47  70  97 129 165 199 243 297
#     4   9  19  32  47  67  91 121 156 193 233 282
#     4  10  19  32  50  73  99 129 163 205 251 296
#     4   9  19  34  51  70  94 121 153 192 238 291
#
# _framework density 16.634546
#
# number of rings (size 3 to 8) (size 9 to 14) (size 15 to 20)
#    0.000    1.875    1.250    5.250    0.000    4.250 
#    0.000    1.250    0.000    0.375    0.000    2.625 
#    0.000    0.500    0.000    5.000    0.000    3.000 
#
# Total GULP energy -793815.894972 kJ/mol
# GULP energy per Si atom -12403.373359 kJ/mol
# Density = 1.659668 g / cm^3
# Si number density = 16.634546 Si / 1000 Ang^3
#
#
#
# Elastic Constant Matrix: (Units=GPa)
#
#
# Indices 1 2 3 4 5 6 
#
# 1 117.7926 45.9439 38.8710 0.0000 0.0000 0.0000
# 2 45.9439 80.9361 36.4844 0.0000 0.0000 0.0000
# 3 38.8710 36.4844 93.9328 0.0000 0.0000 0.0000
# 4 0.0000 0.0000 0.0000 22.9571 0.0000 0.0000
# 5 0.0000 0.0000 0.0000 0.0000 31.5353 0.0000
# 6 0.0000 0.0000 0.0000 0.0000 0.0000 21.7203
#
#
#
# Elastic Compliance Matrix: (Units=1/GPa)
#
#
# Indices 1 2 3 4 5 6 
#
# 1 0.011434 -0.005283 -0.002680 0.000000 0.000000 0.000000
# 2 -0.005283 0.017419 -0.004579 0.000000 0.000000 0.000000
# 3 -0.002680 -0.004579 0.013534 0.000000 0.000000 0.000000
# 4 0.000000 0.000000 0.000000 0.043559 0.000000 0.000000
# 5 0.000000 0.000000 0.000000 0.000000 0.031710 0.000000
# 6 0.000000 0.000000 0.000000 0.000000 0.000000 0.046040
#
#
# Mechanical properties :
#
#
# Convention : Reuss Voigt Hill
#
# Bulk Modulus (GPa) = 57.79553 59.47332 58.63442
# Shear Modulus (GPa) = 25.70063 26.66669 26.18366
#
# Velocity S-wave (km/s) = 3.93493 4.00821 3.97174
# Velocity P-wave (km/s) = 7.44746 7.56647 7.50720
#
# Compressibility (1/GPa) = 0.01730238
#
# Stress axis : x y z
#
# Youngs Moduli (GPa) = 87.45606 57.41012 73.89031
#
# Poissons Ratio (x) = 0.30328 0.19801
# Poissons Ratio (y) = 0.46201 0.33838
# Poissons Ratio (z) = 0.23437 0.26291
#
# Static dielectric constant tensor:
#      x y z
#    x 3.242180 0.000000 0.000000 
#    y 0.000000 2.892160 0.000000 
#    z 0.000000 0.000000 3.163350 
# 
# 
# High freq. dielectric constant tensor:
#      x y z
#    x 1.640050 0.000000 0.000000 
#    y 0.000000 1.605010 0.000000 
#    z 0.000000 0.000000 1.655910 
# 
# From -- ./inp_files/5251.got.cif
#   From: 2010.03.12/outbox.cif.g09.slc.cpg/sg49_3_cif.got.tgz:5251.got - 2010.04.14 03:58:27.
