data_PCOD8202324
_publ_section_title
;
Structure prediction by ZEFSAII (Michael W. Deem and Ramdas Pophale) SiO2 
 PCOD8202324
Probable space group: P C C M
;
_chemical_formula_sum "Si O2"
_cell_formula_units_Z 48
_cell_length_a 9.569541
_cell_length_b 30.706044
_cell_length_c 8.628139
_cell_angle_alpha 90.000000
_cell_angle_beta 90.000000
_cell_angle_gamma 90.000000
_cell_volume 2535.316065
_symmetry_space_group_name_H-M "P C C M"
_symmetry_group_IT_number 49
_symmetry_cell_setting 'orthorhombic'
loop_
_space_group_symop_operation_xyz
x,y,z
-x,-y,z
x,-y,1/2-z
-x,y,1/2-z
-x,-y,-z
x,y,-z
-x,y,1/2+z
x,-y,1/2+z
loop_
_atom_site_type_symbol
_atom_site_label
_atom_site_fract_x
_atom_site_fract_y
_atom_site_fract_z
Si Si1 0.849515 0.197561 0.183279
Si Si2 0.146451 0.290487 0.182319
Si Si3 0.347859 0.631028 0.318143
Si Si4 0.346293 0.875034 0.682896
Si Si5 0.344272 0.543460 0.183322
Si Si6 0.148805 0.953867 0.682256
O O1 0.807118 0.245771 0.237304
O O2 0.729242 0.166079 0.242503
O O3 0.000000 0.183451 0.250000
O O4 0.858550 0.195680 0.000000
O O5 0.258454 0.326935 0.224673
O O6 0.000000 0.306843 0.250000
O O7 0.132556 0.282424 0.000000
O O8 0.500000 0.639488 0.250000
O O9 0.358943 0.623072 0.500000
O O10 0.273461 0.588317 0.242156
O O11 0.500000 0.879275 0.750000
O O12 0.352126 0.868442 0.500000
O O13 0.263653 0.918557 0.729995
O O14 0.267632 0.500000 0.250000
O O15 0.500000 0.544502 0.250000
O O16 0.344877 0.541416 0.000000
O O17 0.132325 0.958338 0.500000
O O18 0.000000 0.939111 0.750000
O O19 0.198026 0.000000 0.750000
#
# Coordination Sequence:
#
# PCOD8202324 Si02
#       6
#     8   8   8   8   8   8
#     4  11  22  38  61  84 109 143 184 228 271 323
#     4  10  21  37  57  80 108 141 180 223 268 323
#     4  10  20  33  51  77 106 137 174 217 265 317
#     4  11  24  40  58  84 116 150 186 227 279 331
#     4  10  17  27  45  69 100 135 172 215 261 311
#     4  10  21  37  60  86 113 147 188 231 273 323
#
# _framework density 18.932549999999999
#
# number of rings (size 3 to 8) (size 9 to 14) (size 15 to 20)
#    0.000    1.667    0.000    8.500    0.000    7.667 
#    0.000    3.333    0.000    0.500    0.000    3.500 
#    0.000    0.000    0.000    0.000    0.000    0.000 
#
# Total GULP energy -595253.297302 kJ/mol
# GULP energy per Si atom -12401.110360 kJ/mol
# Density = 1.888946 g / cm^3
# Si number density = 18.932550 Si / 1000 Ang^3
#
#
#
# Elastic Constant Matrix: (Units=GPa)
#
#
# Indices 1 2 3 4 5 6 
#
# 1 113.9879 95.0373 60.6208 0.0000 0.0000 0.0000
# 2 95.0373 152.1052 81.8143 0.0000 0.0000 0.0000
# 3 60.6208 81.8143 143.4506 0.0000 0.0000 0.0000
# 4 0.0000 0.0000 0.0000 77.0035 0.0000 0.0000
# 5 0.0000 0.0000 0.0000 0.0000 22.8764 0.0000
# 6 0.0000 0.0000 0.0000 0.0000 0.0000 -12.3914
#
#
#
# Elastic Compliance Matrix: (Units=1/GPa)
#
#
# Indices 1 2 3 4 5 6 
#
# 1 0.018622 -0.010678 -0.001779 0.000000 0.000000 0.000000
# 2 -0.010678 0.015607 -0.004389 0.000000 0.000000 0.000000
# 3 -0.001779 -0.004389 0.010226 0.000000 0.000000 0.000000
# 4 0.000000 0.000000 0.000000 0.012986 0.000000 0.000000
# 5 0.000000 0.000000 0.000000 0.000000 0.043713 0.000000
# 6 0.000000 0.000000 0.000000 0.000000 0.000000 -0.080701
#
#
# Mechanical properties :
#
#
# Convention : Reuss Voigt Hill
#
# Bulk Modulus (GPa) = 92.91505 98.27650 95.59578
# Shear Modulus (GPa) = 86.60567 28.96913 57.78740
#
# Velocity S-wave (km/s) = 6.77079 3.91592 5.53074
# Velocity P-wave (km/s) = 10.50277 8.51278 9.55970
#
# Compressibility (1/GPa) = 0.01076252
#
# Stress axis : x y z
#
# Youngs Moduli (GPa) = 53.69942 64.07457 97.79084
#
# Poissons Ratio (x) = 0.68421 0.17401
# Poissons Ratio (y) = 0.57342 0.42916
# Poissons Ratio (z) = 0.09555 0.28119
#
# Static dielectric constant tensor:
#      x y z
#    x 3.241970 0.000000 0.000000 
#    y 0.000000 4.093010 0.000000 
#    z 0.000000 0.000000 3.588840 
# 
# 
# High freq. dielectric constant tensor:
#      x y z
#    x 1.706840 0.000000 0.000000 
#    y 0.000000 1.757630 0.000000 
#    z 0.000000 0.000000 1.758210 
# 
# From -- ./inp_files/2079.got.cif
#   From: 2010.03.12/outbox.cif.g09.slc.cpg/sg49_2_cif.got.tgz:2079.got - 2010.04.14 03:58:27.
