data_PCOD8202577
_publ_section_title
;
Structure prediction by ZEFSAII (Michael W. Deem and Ramdas Pophale) SiO2 
 PCOD8202577
Probable space group: P C C M
;
_chemical_formula_sum "Si O2"
_cell_formula_units_Z 64
_cell_length_a 25.568125
_cell_length_b 14.394676
_cell_length_c 8.754263
_cell_angle_alpha 90.000000
_cell_angle_beta 90.000000
_cell_angle_gamma 90.000000
_cell_volume 3221.961634
_symmetry_space_group_name_H-M "P C C M"
_symmetry_group_IT_number 49
_symmetry_cell_setting 'orthorhombic'
loop_
_space_group_symop_operation_xyz
x,y,z
-x,-y,z
x,-y,1/2-z
-x,y,1/2-z
-x,-y,-z
x,y,-z
-x,y,1/2+z
x,-y,1/2+z
loop_
_atom_site_type_symbol
_atom_site_label
_atom_site_fract_x
_atom_site_fract_y
_atom_site_fract_z
Si Si1 0.854900 0.711903 0.175680
Si Si2 0.356527 0.400613 0.322374
Si Si3 0.602566 0.902953 0.174304
Si Si4 0.553433 0.715512 0.826074
Si Si5 0.809859 0.902520 0.824915
Si Si6 0.944460 0.402018 0.819292
Si Si7 0.237146 0.600487 0.179319
Si Si8 0.705617 0.102093 0.180827
O O1 0.854782 0.824431 0.189603
O O2 0.902734 0.676237 0.277023
O O3 0.800305 0.672543 0.236823
O O4 0.862425 0.681525 0.000000
O O5 0.367199 0.500000 0.250000
O O6 0.367439 0.409597 0.500000
O O7 0.396112 0.326893 0.253707
O O8 0.296930 0.367227 0.291330
O O9 0.556206 0.827835 0.186057
O O10 0.652239 0.852711 0.256807
O O11 0.584733 0.000000 0.250000
O O12 0.617644 0.924888 0.000000
O O13 0.500000 0.680425 0.750000
O O14 0.553009 0.682091 0.000000
O O15 0.759332 0.854994 0.744086
O O16 0.827913 0.000000 0.750000
O O17 0.795953 0.924142 0.000000
O O18 0.925551 0.500000 0.750000
O O19 0.000000 0.372380 0.750000
O O20 0.949525 0.411545 0.000000
O O21 0.226889 0.500000 0.250000
O O22 0.224099 0.597309 0.000000
O O23 0.703871 0.000000 0.250000
O O24 0.706207 0.106486 0.000000
#
# Coordination Sequence:
#
# PCOD8202577 Si02
#       8
#     8   8   8   8   8   8   8   8
#     4  11  23  37  57  87 122 161 202 245 293 346
#     4  10  22  41  64  88 115 147 186 231 287 346
#     4  10  21  37  57  82 111 146 184 228 282 340
#     4  11  25  42  61  84 111 143 186 236 286 343
#     4  10  21  36  54  79 115 157 199 245 292 342
#     4  11  22  39  63  90 124 162 203 249 297 349
#     4  10  21  37  58  87 120 154 189 231 286 347
#     4  10  18  30  51  76 106 142 184 230 277 335
#
# _framework density 19.863674
#
# number of rings (size 3 to 8) (size 9 to 14) (size 15 to 20)
#    0.000    1.625    0.000    6.750    1.750    6.000 
#    0.000    2.500    0.000    0.375    0.000    2.625 
#    0.000    0.000    0.000    0.000    0.000    0.000 
#
# Total GULP energy -793527.944843 kJ/mol
# GULP energy per Si atom -12398.874138 kJ/mol
# Density = 1.981846 g / cm^3
# Si number density = 19.863674 Si / 1000 Ang^3
#
#
#
# Elastic Constant Matrix: (Units=GPa)
#
#
# Indices 1 2 3 4 5 6 
#
# 1 92.8048 46.8085 50.3770 0.0000 0.0000 0.0000
# 2 46.8085 71.7562 48.0480 0.0000 0.0000 0.0000
# 3 50.3770 48.0480 167.5051 0.0000 0.0000 0.0000
# 4 0.0000 0.0000 0.0000 30.1850 0.0000 0.0000
# 5 0.0000 0.0000 0.0000 0.0000 45.3233 0.0000
# 6 0.0000 0.0000 0.0000 0.0000 0.0000 28.4675
#
#
#
# Elastic Compliance Matrix: (Units=1/GPa)
#
#
# Indices 1 2 3 4 5 6 
#
# 1 0.016780 -0.009366 -0.002360 0.000000 0.000000 0.000000
# 2 -0.009366 0.022477 -0.003631 0.000000 0.000000 0.000000
# 3 -0.002360 -0.003631 0.007721 0.000000 0.000000 0.000000
# 4 0.000000 0.000000 0.000000 0.033129 0.000000 0.000000
# 5 0.000000 0.000000 0.000000 0.000000 0.022064 0.000000
# 6 0.000000 0.000000 0.000000 0.000000 0.000000 0.035128
#
#
# Mechanical properties :
#
#
# Convention : Reuss Voigt Hill
#
# Bulk Modulus (GPa) = 61.48133 69.17033 65.32583
# Shear Modulus (GPa) = 28.82945 33.25067 31.04006
#
# Velocity S-wave (km/s) = 3.81381 4.09582 3.95733
# Velocity P-wave (km/s) = 7.10017 7.56742 7.33751
#
# Compressibility (1/GPa) = 0.01626510
#
# Stress axis : x y z
#
# Youngs Moduli (GPa) = 59.59337 44.49037 129.51402
#
# Poissons Ratio (x) = 0.41670 0.30567
# Poissons Ratio (y) = 0.55815 0.47021
# Poissons Ratio (z) = 0.14065 0.16152
#
# Static dielectric constant tensor:
#      x y z
#    x 3.800310 0.000000 0.000000 
#    y 0.000000 3.628100 0.000000 
#    z 0.000000 0.000000 3.799190 
# 
# 
# High freq. dielectric constant tensor:
#      x y z
#    x 1.760110 0.000000 0.000000 
#    y 0.000000 1.768490 0.000000 
#    z 0.000000 0.000000 1.795660 
# 
# From -- ./inp_files/6558.got.cif
#   From: 2010.03.12/outbox.cif.g09.slc.cpg/sg49_4_cif.got.tgz:6558.got - 2010.04.14 03:58:27.
