data_PCOD8202249
_publ_section_title
;
Structure prediction by ZEFSAII (Michael W. Deem and Ramdas Pophale) SiO2 
 PCOD8202249
Probable space group: P C C M
;
_chemical_formula_sum "Si O2"
_cell_formula_units_Z 64
_cell_length_a 18.475472
_cell_length_b 26.815043
_cell_length_c 8.849500
_cell_angle_alpha 90.000000
_cell_angle_beta 90.000000
_cell_angle_gamma 90.000000
_cell_volume 4384.224388
_symmetry_space_group_name_H-M "P C C M"
_symmetry_group_IT_number 49
_symmetry_cell_setting 'orthorhombic'
loop_
_space_group_symop_operation_xyz
x,y,z
-x,-y,z
x,-y,1/2-z
-x,y,1/2-z
-x,-y,-z
x,y,-z
-x,y,1/2+z
x,-y,1/2+z
loop_
_atom_site_type_symbol
_atom_site_label
_atom_site_fract_x
_atom_site_fract_y
_atom_site_fract_z
Si Si1 0.580094 0.549261 0.819000
Si Si2 0.648305 0.750628 0.672681
Si Si3 0.421423 0.351363 0.320160
Si Si4 0.074418 0.852085 0.827639
Si Si5 0.218071 0.808832 0.171411
Si Si6 0.284871 0.899002 0.326366
Si Si7 0.160400 0.050605 0.322639
Si Si8 0.575636 0.155325 0.322758
O O1 0.619717 0.500000 0.750000
O O2 0.500000 0.550408 0.750000
O O3 0.616584 0.600145 0.757162
O O4 0.579317 0.547345 0.000000
O O5 0.624347 0.757741 0.500000
O O6 0.629129 0.695078 0.726018
O O7 0.735994 0.757779 0.690966
O O8 0.603604 0.791389 0.764789
O O9 0.500000 0.341316 0.250000
O O10 0.427803 0.359105 0.500000
O O11 0.131014 0.805643 0.804609
O O12 0.110783 0.903267 0.765180
O O13 0.000000 0.837820 0.750000
O O14 0.054856 0.860584 0.000000
O O15 0.247415 0.846102 0.296923
O O16 0.230832 0.830278 0.000000
O O17 0.275778 0.914172 0.500000
O O18 0.244263 0.940977 0.227558
O O19 0.369201 0.890229 0.283182
O O20 0.157801 0.044951 0.500000
O O21 0.129675 0.000000 0.250000
O O22 0.500000 0.140327 0.250000
O O23 0.566003 0.160907 0.500000
#
# Coordination Sequence:
#
# PCOD8202249 Si02
#       8
#     8   8   8   8   8   8   8   8
#     4  10  17  26  38  50  67  94 129 170 209 247
#     4   9  17  28  42  57  78 105 133 165 200 237
#     4  10  18  26  36  53  75 101 132 169 209 244
#     4   9  18  30  45  64  86 108 131 156 184 218
#     4   8  15  29  44  59  79 106 134 158 188 228
#     4   9  17  29  44  62  80 101 129 159 188 226
#     4  10  20  33  48  65  83 105 128 154 187 226
#     4  10  19  28  41  60  81 103 129 160 196 234
#
# _framework density 14.597794
#
# number of rings (size 3 to 8) (size 9 to 14) (size 15 to 20)
#    0.000    2.625    0.000    4.875    0.000    6.250 
#    0.000    1.250    0.000    0.375    0.000    2.625 
#    0.000    0.000    0.000    0.000    0.000    0.625 
#
# Total GULP energy -792875.162586 kJ/mol
# GULP energy per Si atom -12388.674415 kJ/mol
# Density = 1.456457 g / cm^3
# Si number density = 14.597794 Si / 1000 Ang^3
#
#
#
# Elastic Constant Matrix: (Units=GPa)
#
#
# Indices 1 2 3 4 5 6 
#
# 1 91.0815 31.6081 27.8626 0.0000 0.0000 0.0000
# 2 31.6081 58.2442 18.5835 0.0000 0.0000 0.0000
# 3 27.8626 18.5835 59.7395 0.0000 0.0000 0.0000
# 4 0.0000 0.0000 0.0000 18.3911 0.0000 0.0000
# 5 0.0000 0.0000 0.0000 0.0000 19.9863 0.0000
# 6 0.0000 0.0000 0.0000 0.0000 0.0000 12.0696
#
#
#
# Elastic Compliance Matrix: (Units=1/GPa)
#
#
# Indices 1 2 3 4 5 6 
#
# 1 0.014694 -0.006425 -0.004855 0.000000 0.000000 0.000000
# 2 -0.006425 0.021871 -0.003807 0.000000 0.000000 0.000000
# 3 -0.004855 -0.003807 0.020188 0.000000 0.000000 0.000000
# 4 0.000000 0.000000 0.000000 0.054374 0.000000 0.000000
# 5 0.000000 0.000000 0.000000 0.000000 0.050034 0.000000
# 6 0.000000 0.000000 0.000000 0.000000 0.000000 0.082853
#
#
# Mechanical properties :
#
#
# Convention : Reuss Voigt Hill
#
# Bulk Modulus (GPa) = 37.62329 40.57483 39.09906
# Shear Modulus (GPa) = 17.66498 18.82347 18.24423
#
# Velocity S-wave (km/s) = 3.48244 3.59482 3.53908
# Velocity P-wave (km/s) = 6.48067 6.71460 6.59867
#
# Compressibility (1/GPa) = 0.02657928
#
# Stress axis : x y z
#
# Youngs Moduli (GPa) = 68.05502 45.72366 49.53517
#
# Poissons Ratio (x) = 0.29379 0.24047
# Poissons Ratio (y) = 0.43727 0.18856
# Poissons Ratio (z) = 0.33038 0.17405
#
# Static dielectric constant tensor:
#      x y z
#    x 2.844430 0.000000 0.000000 
#    y 0.000000 3.114090 0.000000 
#    z 0.000000 0.000000 2.917120 
# 
# 
# High freq. dielectric constant tensor:
#      x y z
#    x 1.527890 0.000000 0.000000 
#    y 0.000000 1.533010 0.000000 
#    z 0.000000 0.000000 1.572240 
# 
# From -- ./inp_files/4516.got.cif
#   From: 2010.03.12/outbox.cif.g09.slc.cpg/sg49_3_cif.got.tgz:4516.got - 2010.04.14 03:58:27.
