data_PCOD8202926
_publ_section_title
;
Structure prediction by ZEFSAII (Michael W. Deem and Ramdas Pophale) SiO2 
 PCOD8202926
Probable space group: P C C M
;
_chemical_formula_sum "Si O2"
_cell_formula_units_Z 64
_cell_length_a 19.114042
_cell_length_b 23.616313
_cell_length_c 8.687187
_cell_angle_alpha 90.000000
_cell_angle_beta 90.000000
_cell_angle_gamma 90.000000
_cell_volume 3921.423998
_symmetry_space_group_name_H-M "P C C M"
_symmetry_group_IT_number 49
_symmetry_cell_setting 'orthorhombic'
loop_
_space_group_symop_operation_xyz
x,y,z
-x,-y,z
x,-y,1/2-z
-x,y,1/2-z
-x,-y,-z
x,y,-z
-x,y,1/2+z
x,-y,1/2+z
loop_
_atom_site_type_symbol
_atom_site_label
_atom_site_fract_x
_atom_site_fract_y
_atom_site_fract_z
Si Si1 0.786207 0.939937 0.317501
Si Si2 0.928523 0.884371 0.318022
Si Si3 0.425754 0.233755 0.319428
Si Si4 0.780099 0.721498 0.317675
Si Si5 0.655885 0.338542 0.318312
Si Si6 0.070674 0.243986 0.319313
Si Si7 0.294093 0.166511 0.679095
Si Si8 0.425904 0.561032 0.817038
O O1 0.783526 0.943818 0.500000
O O2 0.863493 0.921941 0.259937
O O3 0.730553 0.893626 0.251285
O O4 0.764458 0.000000 0.250000
O O5 0.932702 0.885318 0.500000
O O6 0.918641 0.820017 0.257096
O O7 0.000000 0.910552 0.250000
O O8 0.500000 0.217173 0.250000
O O9 0.431383 0.247082 0.500000
O O10 0.395421 0.288907 0.237056
O O11 0.375645 0.179595 0.287798
O O12 0.767037 0.715196 0.500000
O O13 0.736310 0.673186 0.230065
O O14 0.862226 0.717597 0.274039
O O15 0.752537 0.782060 0.255837
O O16 0.649660 0.345530 0.500000
O O17 0.634264 0.396285 0.235366
O O18 0.062288 0.242332 0.500000
O O19 0.000000 0.271261 0.250000
O O20 0.277570 0.163490 0.500000
O O21 0.406334 0.500000 0.750000
O O22 0.500000 0.582267 0.750000
O O23 0.430833 0.557917 0.000000
#
# Coordination Sequence:
#
# PCOD8202926 Si02
#       8
#     8   8   8   8   8   8   8   8
#     4  10  19  32  47  63  83 112 148 186 227 276
#     4   9  17  29  45  62  85 115 148 184 223 271
#     4  10  19  32  51  72  93 119 148 186 233 281
#     4   9  16  30  49  67  89 123 159 194 238 284
#     4  11  21  32  47  72 102 130 162 200 235 274
#     4   9  16  27  45  66  90 121 155 189 232 285
#     4   8  15  30  49  63  83 115 147 178 228 285
#     4  11  21  35  52  72 100 137 175 207 237 273
#
# _framework density 16.320602000000001
#
# number of rings (size 3 to 8) (size 9 to 14) (size 15 to 20)
#    0.000    2.375    1.250    4.125    0.000    1.250 
#    0.000    4.375    0.000    0.375    0.000    2.625 
#    0.000    0.500    0.000    5.250    0.000    2.875 
#
# Total GULP energy -793396.238779 kJ/mol
# GULP energy per Si atom -12396.816231 kJ/mol
# Density = 1.628346 g / cm^3
# Si number density = 16.320602 Si / 1000 Ang^3
#
#
#
# Elastic Constant Matrix: (Units=GPa)
#
#
# Indices 1 2 3 4 5 6 
#
# 1 118.9350 54.3891 38.7312 0.0000 0.0000 0.0000
# 2 54.3891 89.1923 32.5172 0.0000 0.0000 0.0000
# 3 38.7312 32.5172 70.3486 0.0000 0.0000 0.0000
# 4 0.0000 0.0000 0.0000 20.6372 0.0000 0.0000
# 5 0.0000 0.0000 0.0000 0.0000 23.4010 0.0000
# 6 0.0000 0.0000 0.0000 0.0000 0.0000 25.1897
#
#
#
# Elastic Compliance Matrix: (Units=1/GPa)
#
#
# Indices 1 2 3 4 5 6 
#
# 1 0.012553 -0.006176 -0.004057 0.000000 0.000000 0.000000
# 2 -0.006176 0.016523 -0.004237 0.000000 0.000000 0.000000
# 3 -0.004057 -0.004237 0.018407 0.000000 0.000000 0.000000
# 4 0.000000 0.000000 0.000000 0.048456 0.000000 0.000000
# 5 0.000000 0.000000 0.000000 0.000000 0.042733 0.000000
# 6 0.000000 0.000000 0.000000 0.000000 0.000000 0.039699
#
#
# Mechanical properties :
#
#
# Convention : Reuss Voigt Hill
#
# Bulk Modulus (GPa) = 53.92733 58.86121 56.39427
# Shear Modulus (GPa) = 23.42019 24.03480 23.72749
#
# Velocity S-wave (km/s) = 3.79226 3.84170 3.81706
# Velocity P-wave (km/s) = 7.23113 7.47142 7.35225
#
# Compressibility (1/GPa) = 0.01854347
#
# Stress axis : x y z
#
# Youngs Moduli (GPa) = 79.66043 60.52349 54.32785
#
# Poissons Ratio (x) = 0.37379 0.22039
# Poissons Ratio (y) = 0.49198 0.23018
# Poissons Ratio (z) = 0.32315 0.25643
#
# Static dielectric constant tensor:
#      x y z
#    x 3.288730 0.000000 0.000000 
#    y 0.000000 2.974300 0.000000 
#    z 0.000000 0.000000 2.967270 
# 
# 
# High freq. dielectric constant tensor:
#      x y z
#    x 1.627920 0.000000 0.000000 
#    y 0.000000 1.595770 0.000000 
#    z 0.000000 0.000000 1.621600 
# 
# From -- ./inp_files/6078.got.cif
#   From: 2010.03.12/outbox.cif.g09.slc.cpg/sg49_4_cif.got.tgz:6078.got - 2010.04.14 03:58:27.
