data_PCOD8202880
_publ_section_title
;
Structure prediction by ZEFSAII (Michael W. Deem and Ramdas Pophale) SiO2 
 PCOD8202880
Probable space group: P C C M
;
_chemical_formula_sum "Si O2"
_cell_formula_units_Z 64
_cell_length_a 16.134337
_cell_length_b 22.149995
_cell_length_c 9.203312
_cell_angle_alpha 90.000000
_cell_angle_beta 90.000000
_cell_angle_gamma 90.000000
_cell_volume 3289.038079
_symmetry_space_group_name_H-M "P C C M"
_symmetry_group_IT_number 49
_symmetry_cell_setting 'orthorhombic'
loop_
_space_group_symop_operation_xyz
x,y,z
-x,-y,z
x,-y,1/2-z
-x,y,1/2-z
-x,-y,-z
x,y,-z
-x,y,1/2+z
x,-y,1/2+z
loop_
_atom_site_type_symbol
_atom_site_label
_atom_site_fract_x
_atom_site_fract_y
_atom_site_fract_z
Si Si1 0.918254 0.856391 0.168058
Si Si2 0.712484 0.687602 0.664232
Si Si3 0.582685 0.104569 0.669500
Si Si4 0.763916 0.938912 0.827732
Si Si5 0.758998 0.556013 0.332831
Si Si6 0.078021 0.593269 0.336026
Si Si7 0.133724 0.276955 0.162398
Si Si8 0.421676 0.755710 0.667338
O O1 0.832017 0.888448 0.218570
O O2 0.912447 0.785108 0.200537
O O3 0.000000 0.881748 0.250000
O O4 0.933022 0.870224 0.000000
O O5 0.693602 0.709284 0.500000
O O6 0.701814 0.615365 0.676151
O O7 0.803161 0.709641 0.707852
O O8 0.655554 0.717730 0.782799
O O9 0.500000 0.078362 0.750000
O O10 0.569215 0.092229 0.500000
O O11 0.669784 0.076497 0.724944
O O12 0.592400 0.174734 0.705989
O O13 0.791994 0.000000 0.750000
O O14 0.763760 0.947338 0.000000
O O15 0.714225 0.500000 0.250000
O O16 0.777370 0.539516 0.500000
O O17 0.842985 0.568546 0.247432
O O18 0.078963 0.567975 0.500000
O O19 0.071771 0.666315 0.339196
O O20 0.000000 0.567128 0.250000
O O21 0.174975 0.270905 0.000000
O O22 0.500000 0.728981 0.750000
O O23 0.437159 0.745181 0.500000
#
# Coordination Sequence:
#
# PCOD8202880 Si02
#       8
#     8   8   8   8   8   8   8   8
#     4  10  21  37  56  78 105 139 181 228 277 325
#     4  10  20  33  52  79 108 137 171 213 259 309
#     4   9  19  36  58  84 113 143 174 213 262 319
#     4  10  22  39  56  76 106 143 183 225 268 317
#     4  10  21  36  52  71  97 131 174 217 255 300
#     4  10  19  31  49  73 101 131 164 205 257 313
#     4   9  18  33  53  76 103 135 169 210 264 321
#     4  10  19  33  55  82 112 141 169 204 252 310
#
# _framework density 19.458577999999999
#
# number of rings (size 3 to 8) (size 9 to 14) (size 15 to 20)
#    0.000    2.250    0.000    2.625    0.000    6.750 
#    0.000    5.000    0.000    0.375    0.000    2.625 
#    0.000    0.000    0.000    0.000    0.000    0.000 
#
# Total GULP energy -793334.128661 kJ/mol
# GULP energy per Si atom -12395.845760 kJ/mol
# Density = 1.941429 g / cm^3
# Si number density = 19.458578 Si / 1000 Ang^3
#
#
#
# Elastic Constant Matrix: (Units=GPa)
#
#
# Indices 1 2 3 4 5 6 
#
# 1 77.4958 19.0830 26.6507 0.0000 0.0000 0.0000
# 2 19.0830 62.0170 37.1041 0.0000 0.0000 0.0000
# 3 26.6507 37.1041 84.0129 0.0000 0.0000 0.0000
# 4 0.0000 0.0000 0.0000 26.7198 0.0000 0.0000
# 5 0.0000 0.0000 0.0000 0.0000 36.0284 0.0000
# 6 0.0000 0.0000 0.0000 0.0000 0.0000 8.5737
#
#
#
# Elastic Compliance Matrix: (Units=1/GPa)
#
#
# Indices 1 2 3 4 5 6 
#
# 1 0.014734 -0.002361 -0.003631 0.000000 0.000000 0.000000
# 2 -0.002361 0.022294 -0.009097 0.000000 0.000000 0.000000
# 3 -0.003631 -0.009097 0.017072 0.000000 0.000000 0.000000
# 4 0.000000 0.000000 0.000000 0.037425 0.000000 0.000000
# 5 0.000000 0.000000 0.000000 0.000000 0.027756 0.000000
# 6 0.000000 0.000000 0.000000 0.000000 0.000000 0.116635
#
#
# Mechanical properties :
#
#
# Convention : Reuss Voigt Hill
#
# Bulk Modulus (GPa) = 41.80319 43.24460 42.52390
# Shear Modulus (GPa) = 18.24354 23.64358 20.94356
#
# Velocity S-wave (km/s) = 3.06528 3.48957 3.28428
# Velocity P-wave (km/s) = 5.83590 6.20551 6.02354
#
# Compressibility (1/GPa) = 0.02392162
#
# Stress axis : x y z
#
# Youngs Moduli (GPa) = 67.86969 44.85548 58.57388
#
# Poissons Ratio (x) = 0.10592 0.21269
# Poissons Ratio (y) = 0.16026 0.53284
# Poissons Ratio (z) = 0.24644 0.40805
#
# Static dielectric constant tensor:
#      x y z
#    x 3.699690 0.000000 0.000000 
#    y 0.000000 3.649690 0.000000 
#    z 0.000000 0.000000 3.571270 
# 
# 
# High freq. dielectric constant tensor:
#      x y z
#    x 1.738940 0.000000 0.000000 
#    y 0.000000 1.755560 0.000000 
#    z 0.000000 0.000000 1.764230 
# 
# From -- ./inp_files/4293.got.cif
#   From: 2010.03.12/outbox.cif.g09.slc.cpg/sg49_3_cif.got.tgz:4293.got - 2010.04.14 03:58:27.
