data_PCOD8202895
_publ_section_title
;
Structure prediction by ZEFSAII (Michael W. Deem and Ramdas Pophale) SiO2 
 PCOD8202895
Probable space group: P C C M
;
_chemical_formula_sum "Si O2"
_cell_formula_units_Z 56
_cell_length_a 22.725490
_cell_length_b 14.869691
_cell_length_c 8.883813
_cell_angle_alpha 90.000000
_cell_angle_beta 90.000000
_cell_angle_gamma 90.000000
_cell_volume 3002.027098
_symmetry_space_group_name_H-M "P C C M"
_symmetry_group_IT_number 49
_symmetry_cell_setting 'orthorhombic'
loop_
_space_group_symop_operation_xyz
x,y,z
-x,-y,z
x,-y,1/2-z
-x,y,1/2-z
-x,-y,-z
x,y,-z
-x,y,1/2+z
x,-y,1/2+z
loop_
_atom_site_type_symbol
_atom_site_label
_atom_site_fract_x
_atom_site_fract_y
_atom_site_fract_z
Si Si1 0.212430 0.408399 0.675882
Si Si2 0.831187 0.218106 0.826765
Si Si3 0.742891 0.909444 0.823283
Si Si4 0.440304 0.723818 0.322868
Si Si5 0.061886 0.093540 0.677860
Si Si6 0.391154 0.910084 0.677142
Si Si7 0.336910 0.592851 0.679208
O O1 0.186873 0.500000 0.750000
O O2 0.223019 0.426572 0.500000
O O3 0.167029 0.325848 0.702263
O O4 0.273995 0.380915 0.751936
O O5 0.779541 0.176602 0.727335
O O6 0.893334 0.173892 0.781906
O O7 0.816453 0.197473 0.000000
O O8 0.675945 0.895081 0.769285
O O9 0.769340 0.000000 0.750000
O O10 0.747742 0.919798 0.000000
O O11 0.500000 0.686248 0.250000
O O12 0.447394 0.717798 0.500000
O O13 0.429561 0.825818 0.267700
O O14 0.384478 0.666212 0.270148
O O15 0.054615 0.079980 0.500000
O O16 0.000000 0.121660 0.750000
O O17 0.084648 0.000000 0.750000
O O18 0.393714 0.920634 0.500000
O O19 0.418007 0.000000 0.750000
O O20 0.359190 0.500000 0.750000
O O21 0.331142 0.585695 0.500000
#
# Coordination Sequence:
#
# PCOD8202895 Si02
#       7
#     8   8   8   8   8   8   8
#     4  10  20  35  55  80 107 135 168 209 256 308
#     4  10  21  34  51  77 108 138 172 214 257 301
#     4  10  19  31  50  75 104 134 167 206 253 308
#     4  10  22  37  52  71  97 127 164 206 249 298
#     4  10  20  35  53  76 107 143 180 216 252 294
#     4   9  19  35  51  70  96 128 163 203 248 297
#     4  10  20  36  56  78 103 131 163 203 252 308
#
# _framework density 18.654060999999999
#
# number of rings (size 3 to 8) (size 9 to 14) (size 15 to 20)
#    0.000    2.143    0.000    4.286    0.000    7.429 
#    0.000    2.857    0.000    0.429    0.000    3.000 
#    0.000    0.000    0.000    0.000    0.000    0.000 
#
# Total GULP energy -694438.471330 kJ/mol
# GULP energy per Si atom -12400.686988 kJ/mol
# Density = 1.861160 g / cm^3
# Si number density = 18.654061 Si / 1000 Ang^3
#
#
#
# Elastic Constant Matrix: (Units=GPa)
#
#
# Indices 1 2 3 4 5 6 
#
# 1 78.2374 59.7061 34.9515 0.0000 0.0000 0.0000
# 2 59.7061 132.0759 42.7791 0.0000 0.0000 0.0000
# 3 34.9515 42.7791 73.0978 0.0000 0.0000 0.0000
# 4 0.0000 0.0000 0.0000 27.0780 0.0000 0.0000
# 5 0.0000 0.0000 0.0000 0.0000 22.3037 0.0000
# 6 0.0000 0.0000 0.0000 0.0000 0.0000 20.5999
#
#
#
# Elastic Compliance Matrix: (Units=1/GPa)
#
#
# Indices 1 2 3 4 5 6 
#
# 1 0.021217 -0.007780 -0.005592 0.000000 0.000000 0.000000
# 2 -0.007780 0.012195 -0.003417 0.000000 0.000000 0.000000
# 3 -0.005592 -0.003417 0.018354 0.000000 0.000000 0.000000
# 4 0.000000 0.000000 0.000000 0.036930 0.000000 0.000000
# 5 0.000000 0.000000 0.000000 0.000000 0.044836 0.000000
# 6 0.000000 0.000000 0.000000 0.000000 0.000000 0.048544
#
#
# Mechanical properties :
#
#
# Convention : Reuss Voigt Hill
#
# Bulk Modulus (GPa) = 54.98042 62.03160 58.50601
# Shear Modulus (GPa) = 22.55136 23.72794 23.13965
#
# Velocity S-wave (km/s) = 3.48073 3.57038 3.52584
# Velocity P-wave (km/s) = 6.75956 7.09385 6.92872
#
# Compressibility (1/GPa) = 0.01818829
#
# Stress axis : x y z
#
# Youngs Moduli (GPa) = 47.13206 81.99903 54.48510
#
# Poissons Ratio (x) = 0.63797 0.30466
# Poissons Ratio (y) = 0.36670 0.18617
# Poissons Ratio (z) = 0.26355 0.28019
#
# Static dielectric constant tensor:
#      x y z
#    x 3.303370 0.000000 0.000000 
#    y 0.000000 3.601290 0.000000 
#    z 0.000000 0.000000 3.417000 
# 
# 
# High freq. dielectric constant tensor:
#      x y z
#    x 1.704780 0.000000 0.000000 
#    y 0.000000 1.728570 0.000000 
#    z 0.000000 0.000000 1.729650 
# 
# From -- ./inp_files/5768.got.cif
#   From: 2010.03.12/outbox.cif.g09.slc.cpg/sg49_3_cif.got.tgz:5768.got - 2010.04.14 03:58:27.
