data_PCOD8202096
_publ_section_title
;
Structure prediction by ZEFSAII (Michael W. Deem and Ramdas Pophale) SiO2 
 PCOD8202096
Probable space group: P N N N
;
_chemical_formula_sum "Si O2"
_cell_formula_units_Z 64
_cell_length_a 14.000286
_cell_length_b 23.493658
_cell_length_c 9.175015
_cell_angle_alpha 90.000000
_cell_angle_beta 90.000000
_cell_angle_gamma 90.000000
_cell_volume 3017.826952
_symmetry_space_group_name_H-M "P N N N"
_symmetry_group_IT_number 48
_space_group.IT_coordinate_system_code '2'
_symmetry_cell_setting 'orthorhombic'
loop_
_space_group_symop_operation_xyz
x,y,z
1/2-x,1/2-y,z
x,1/2-y,1/2-z
1/2-x,y,1/2-z
-x,-y,-z
1/2+x,1/2+y,-z
-x,1/2+y,1/2+z
1/2+x,-y,1/2+z
loop_
_atom_site_type_symbol
_atom_site_label
_atom_site_fract_x
_atom_site_fract_y
_atom_site_fract_z
Si Si1 0.327424 0.325299 0.008347
Si Si2 0.156212 0.041110 0.685827
Si Si3 0.562496 0.613258 0.766963
Si Si4 0.044877 0.149594 0.735432
Si Si5 0.837344 0.988785 0.639032
Si Si6 0.112349 0.298421 0.037497
Si Si7 0.353837 0.597484 0.206643
Si Si8 0.921591 0.041627 0.073541
O O1 0.378982 0.331467 0.854983
O O2 0.353239 0.376678 0.115779
O O3 0.213285 0.328380 0.996313
O O4 0.366099 0.266505 0.080166
O O5 0.250000 0.072401 0.750000
O O6 0.072312 0.087234 0.674090
O O7 0.186667 0.014875 0.530937
O O8 0.131782 0.990364 0.797123
O O9 0.582795 0.558335 0.669782
O O10 0.555848 0.669579 0.666687
O O11 0.467561 0.599379 0.858796
O O12 0.047325 0.196392 0.607092
O O13 0.936116 0.145794 0.795480
O O14 0.750000 0.979256 0.750000
O O15 0.881429 0.050871 0.670465
O O16 0.250000 0.623801 0.250000
O O17 0.348702 0.564311 0.050820
O O18 0.000000 0.000000 0.000000
#
# Coordination Sequence:
#
# PCOD8202096 Si02
#       8
#     8   8   8   8   8   8   8   8
#     4  11  23  42  61  90 131 167 202 261 317 381
#     4  12  24  37  63  95 131 168 211 253 314 384
#     4  12  22  37  63  87 128 170 212 246 309 373
#     4  12  23  38  64  92 124 167 213 259 316 377
#     4  11  23  36  59  90 129 168 205 252 304 378
#     4  11  24  39  62  95 128 163 210 256 316 385
#     4  11  24  43  64  88 127 167 214 262 315 374
#     4  12  23  42  60  92 132 174 211 260 310 374
#
# _framework density 21.207314
#
# number of rings (size 3 to 8) (size 9 to 14) (size 15 to 20)
#    0.000    0.500    5.000    4.500    3.500    3.000 
#    0.000    0.000    0.000    1.500    0.000    0.000 
#    0.000    0.000    0.000    0.000    0.000    0.000 
#
# Total GULP energy -793407.045952 kJ/mol
# GULP energy per Si atom -12396.985093 kJ/mol
# Density = 2.115905 g / cm^3
# Si number density = 21.207314 Si / 1000 Ang^3
#
#
#
# Elastic Constant Matrix: (Units=GPa)
#
#
# Indices 1 2 3 4 5 6 
#
# 1 86.2863 16.2672 25.0745 0.0000 0.0000 0.0000
# 2 16.2672 44.5725 3.4859 0.0000 0.0000 0.0000
# 3 25.0745 3.4859 114.9559 0.0000 0.0000 0.0000
# 4 0.0000 0.0000 0.0000 33.2138 0.0000 0.0000
# 5 0.0000 0.0000 0.0000 0.0000 36.5400 0.0000
# 6 0.0000 0.0000 0.0000 0.0000 0.0000 27.5885
#
#
#
# Elastic Compliance Matrix: (Units=1/GPa)
#
#
# Indices 1 2 3 4 5 6 
#
# 1 0.013261 -0.004624 -0.002752 0.000000 0.000000 0.000000
# 2 -0.004624 0.024101 0.000278 0.000000 0.000000 0.000000
# 3 -0.002752 0.000278 0.009291 0.000000 0.000000 0.000000
# 4 0.000000 0.000000 0.000000 0.030108 0.000000 0.000000
# 5 0.000000 0.000000 0.000000 0.000000 0.027367 0.000000
# 6 0.000000 0.000000 0.000000 0.000000 0.000000 0.036247
#
#
# Mechanical properties :
#
#
# Convention : Reuss Voigt Hill
#
# Bulk Modulus (GPa) = 30.81149 37.27444 34.04297
# Shear Modulus (GPa) = 30.23124 32.86759 31.54942
#
# Velocity S-wave (km/s) = 3.77969 3.94105 3.86121
# Velocity P-wave (km/s) = 5.79727 6.19060 5.99716
#
# Compressibility (1/GPa) = 0.03245542
#
# Stress axis : x y z
#
# Youngs Moduli (GPa) = 75.40931 41.49136 107.63219
#
# Poissons Ratio (x) = 0.19188 0.29623
# Poissons Ratio (y) = 0.34873 -0.02991
# Poissons Ratio (z) = 0.20755 -0.01153
#
# Static dielectric constant tensor:
#      x y z
#    x 3.729460 0.000000 0.000000 
#    y 0.000000 3.761900 0.000000 
#    z 0.000000 0.000000 4.026010 
# 
# 
# High freq. dielectric constant tensor:
#      x y z
#    x 1.806350 0.000000 0.000000 
#    y 0.000000 1.807510 0.000000 
#    z 0.000000 0.000000 1.851680 
# 
# From -- ./inp_files/13258.got.cif
#   From: 2010.06.25/outbox.cif.g09.slc.cpg/sg48_7_cif.got.tgz:13258.got - 2010.06.26 18:06:46.
