data_PCOD8202776
_publ_section_title
;
Structure prediction by ZEFSAII (Michael W. Deem and Ramdas Pophale) SiO2 
 PCOD8202776
Probable space group: P C C M
;
_chemical_formula_sum "Si O2"
_cell_formula_units_Z 64
_cell_length_a 23.420139
_cell_length_b 19.129840
_cell_length_c 9.018211
_cell_angle_alpha 90.000000
_cell_angle_beta 90.000000
_cell_angle_gamma 90.000000
_cell_volume 4040.370563
_symmetry_space_group_name_H-M "P C C M"
_symmetry_group_IT_number 49
_symmetry_cell_setting 'orthorhombic'
loop_
_space_group_symop_operation_xyz
x,y,z
-x,-y,z
x,-y,1/2-z
-x,y,1/2-z
-x,-y,-z
x,y,-z
-x,y,1/2+z
x,-y,1/2+z
loop_
_atom_site_type_symbol
_atom_site_label
_atom_site_fract_x
_atom_site_fract_y
_atom_site_fract_z
Si Si1 0.750657 0.068411 0.171297
Si Si2 0.442757 0.573491 0.825182
Si Si3 0.884052 0.929150 0.325572
Si Si4 0.775439 0.429265 0.673270
Si Si5 0.326568 0.355280 0.327328
Si Si6 0.941526 0.797307 0.173279
Si Si7 0.732968 0.218035 0.825965
Si Si8 0.833756 0.710666 0.830836
O O1 0.817142 0.079017 0.208210
O O2 0.718209 0.139032 0.228368
O O3 0.725062 0.000000 0.250000
O O4 0.740074 0.055435 0.000000
O O5 0.426994 0.500000 0.750000
O O6 0.500000 0.604280 0.750000
O O7 0.392221 0.627985 0.792202
O O8 0.452313 0.562375 0.000000
O O9 0.897145 0.930888 0.500000
O O10 0.917454 0.865990 0.250954
O O11 0.906936 0.000000 0.250000
O O12 0.796578 0.500000 0.750000
O O13 0.768533 0.442852 0.500000
O O14 0.713740 0.406629 0.734999
O O15 0.823047 0.370550 0.710199
O O16 0.312376 0.366840 0.500000
O O17 0.315402 0.274381 0.279831
O O18 0.899186 0.731511 0.197518
O O19 0.000000 0.774379 0.250000
O O20 0.950754 0.812994 0.000000
O O21 0.794344 0.239643 0.765885
O O22 0.741018 0.214980 0.000000
O O23 0.815690 0.723700 0.000000
#
# Coordination Sequence:
#
# PCOD8202776 Si02
#       8
#     8   8   8   8   8   8   8   8
#     4   9  17  27  43  65  90 119 147 176 213 262
#     4  10  19  30  44  63  89 126 162 193 222 256
#     4  10  19  32  48  68  90 117 148 180 217 260
#     4  10  19  31  48  71  94 117 144 178 222 267
#     4   9  18  30  46  68  94 122 154 189 224 261
#     4  11  22  35  50  67  87 113 145 184 222 265
#     4   9  16  29  47  67  90 117 148 182 221 266
#     4   9  19  33  48  66  89 113 141 178 220 266
#
# _framework density 15.840132000000001
#
# number of rings (size 3 to 8) (size 9 to 14) (size 15 to 20)
#    0.000    2.375    1.250    2.250    0.000    4.250 
#    0.000    1.250    0.000    0.375    0.000    2.625 
#    0.000    0.500    0.000    6.250    0.000    0.000 
#
# Total GULP energy -793419.745174 kJ/mol
# GULP energy per Si atom -12397.183518 kJ/mol
# Density = 1.580408 g / cm^3
# Si number density = 15.840132 Si / 1000 Ang^3
#
#
#
# Elastic Constant Matrix: (Units=GPa)
#
#
# Indices 1 2 3 4 5 6 
#
# 1 77.5635 56.1590 39.1820 0.0000 0.0000 0.0000
# 2 56.1590 135.4921 48.1922 0.0000 0.0000 0.0000
# 3 39.1820 48.1922 66.8504 0.0000 0.0000 0.0000
# 4 0.0000 0.0000 0.0000 24.0513 0.0000 0.0000
# 5 0.0000 0.0000 0.0000 0.0000 18.5244 0.0000
# 6 0.0000 0.0000 0.0000 0.0000 0.0000 22.6910
#
#
#
# Elastic Compliance Matrix: (Units=1/GPa)
#
#
# Indices 1 2 3 4 5 6 
#
# 1 0.021338 -0.005912 -0.008245 0.000000 0.000000 0.000000
# 2 -0.005912 0.011563 -0.004871 0.000000 0.000000 0.000000
# 3 -0.008245 -0.004871 0.023303 0.000000 0.000000 0.000000
# 4 0.000000 0.000000 0.000000 0.041578 0.000000 0.000000
# 5 0.000000 0.000000 0.000000 0.000000 0.053983 0.000000
# 6 0.000000 0.000000 0.000000 0.000000 0.000000 0.044070
#
#
# Mechanical properties :
#
#
# Convention : Reuss Voigt Hill
#
# Bulk Modulus (GPa) = 55.09960 62.99692 59.04826
# Shear Modulus (GPa) = 20.83862 22.14487 21.49175
#
# Velocity S-wave (km/s) = 3.63100 3.74307 3.68746
# Velocity P-wave (km/s) = 7.24149 7.65098 7.44905
#
# Compressibility (1/GPa) = 0.01814895
#
# Stress axis : x y z
#
# Youngs Moduli (GPa) = 46.86519 86.48039 42.91358
#
# Poissons Ratio (x) = 0.51124 0.35381
# Poissons Ratio (y) = 0.27705 0.20903
# Poissons Ratio (z) = 0.38639 0.42125
#
# Static dielectric constant tensor:
#      x y z
#    x 2.852680 0.000000 0.000000 
#    y 0.000000 3.278950 0.000000 
#    z 0.000000 0.000000 3.123450 
# 
# 
# High freq. dielectric constant tensor:
#      x y z
#    x 1.571670 0.000000 0.000000 
#    y 0.000000 1.611030 0.000000 
#    z 0.000000 0.000000 1.619960 
# 
# From -- ./inp_files/6096.got.cif
#   From: 2010.03.12/outbox.cif.g09.slc.cpg/sg49_4_cif.got.tgz:6096.got - 2010.04.14 03:58:27.
