data_PCOD8202699
_publ_section_title
;
Structure prediction by ZEFSAII (Michael W. Deem and Ramdas Pophale) SiO2 
 PCOD8202699
Probable space group: P C C M
;
_chemical_formula_sum "Si O2"
_cell_formula_units_Z 64
_cell_length_a 19.676049
_cell_length_b 20.764600
_cell_length_c 8.857912
_cell_angle_alpha 90.000000
_cell_angle_beta 90.000000
_cell_angle_gamma 90.000000
_cell_volume 3619.035359
_symmetry_space_group_name_H-M "P C C M"
_symmetry_group_IT_number 49
_symmetry_cell_setting 'orthorhombic'
loop_
_space_group_symop_operation_xyz
x,y,z
-x,-y,z
x,-y,1/2-z
-x,y,1/2-z
-x,-y,-z
x,y,-z
-x,y,1/2+z
x,-y,1/2+z
loop_
_atom_site_type_symbol
_atom_site_label
_atom_site_fract_x
_atom_site_fract_y
_atom_site_fract_z
Si Si1 0.568451 0.627927 0.677649
Si Si2 0.708821 0.566323 0.675935
Si Si3 0.787447 0.689928 0.320399
Si Si4 0.298396 0.187727 0.320995
Si Si5 0.931836 0.120006 0.177967
Si Si6 0.931949 0.267667 0.822246
Si Si7 0.570304 0.233935 0.679828
Si Si8 0.209716 0.933897 0.821852
O O1 0.500000 0.598028 0.750000
O O2 0.558372 0.640399 0.500000
O O3 0.629468 0.578780 0.709859
O O4 0.586004 0.695108 0.756848
O O5 0.732310 0.500000 0.750000
O O6 0.722648 0.560658 0.500000
O O7 0.753833 0.624649 0.744020
O O8 0.784506 0.690736 0.500000
O O9 0.745653 0.751684 0.262325
O O10 0.865522 0.693822 0.264347
O O11 0.310379 0.191401 0.500000
O O12 0.370111 0.186774 0.234753
O O13 0.260035 0.122915 0.272367
O O14 0.923331 0.193888 0.229648
O O15 0.866307 0.081423 0.237809
O O16 0.000000 0.089825 0.250000
O O17 0.937888 0.115085 0.000000
O O18 0.000000 0.298108 0.750000
O O19 0.938880 0.273008 0.000000
O O20 0.500000 0.207879 0.750000
O O21 0.565374 0.235457 0.500000
O O22 0.236097 0.000000 0.750000
O O23 0.209167 0.940693 0.000000
#
# Coordination Sequence:
#
# PCOD8202699 Si02
#       8
#     8   8   8   8   8   8   8   8
#     4  10  19  33  52  74 104 141 177 210 251 304
#     4  10  21  35  52  73 101 138 175 215 259 309
#     4   9  16  32  56  75  97 135 176 210 256 314
#     4  10  18  35  58  77 101 137 179 216 257 310
#     4   9  17  30  48  72 101 138 175 211 254 303
#     4   9  16  29  51  76 101 129 168 213 259 309
#     4  11  21  33  53  82 110 136 169 215 262 305
#     4  10  21  35  53  75 105 143 178 216 261 311
#
# _framework density 17.684270000000001
#
# number of rings (size 3 to 8) (size 9 to 14) (size 15 to 20)
#    0.000    2.250    2.500    2.250    0.000    2.500 
#    0.000    3.750    0.000    0.750    0.000    5.250 
#    0.000    0.000    0.000    0.000    0.000    0.000 
#
# Total GULP energy -793561.398279 kJ/mol
# GULP energy per Si atom -12399.396848 kJ/mol
# Density = 1.764402 g / cm^3
# Si number density = 17.684270 Si / 1000 Ang^3
#
#
#
# Elastic Constant Matrix: (Units=GPa)
#
#
# Indices 1 2 3 4 5 6 
#
# 1 134.8009 69.8696 40.4326 0.0000 0.0000 0.0000
# 2 69.8696 117.5686 32.1044 0.0000 0.0000 0.0000
# 3 40.4326 32.1044 53.0804 0.0000 0.0000 0.0000
# 4 0.0000 0.0000 0.0000 25.3885 0.0000 0.0000
# 5 0.0000 0.0000 0.0000 0.0000 28.8541 0.0000
# 6 0.0000 0.0000 0.0000 0.0000 0.0000 22.9153
#
#
#
# Elastic Compliance Matrix: (Units=1/GPa)
#
#
# Indices 1 2 3 4 5 6 
#
# 1 0.012050 -0.005576 -0.005806 0.000000 0.000000 0.000000
# 2 -0.005576 0.012768 -0.003476 0.000000 0.000000 0.000000
# 3 -0.005806 -0.003476 0.025364 0.000000 0.000000 0.000000
# 4 0.000000 0.000000 0.000000 0.039388 0.000000 0.000000
# 5 0.000000 0.000000 0.000000 0.000000 0.034657 0.000000
# 6 0.000000 0.000000 0.000000 0.000000 0.000000 0.043639
#
#
# Mechanical properties :
#
#
# Convention : Reuss Voigt Hill
#
# Bulk Modulus (GPa) = 48.85818 65.58479 57.22148
# Shear Modulus (GPa) = 24.46139 26.30114 25.38126
#
# Velocity S-wave (km/s) = 3.72321 3.86069 3.79257
# Velocity P-wave (km/s) = 6.79493 7.55250 7.18371
#
# Compressibility (1/GPa) = 0.02046740
#
# Stress axis : x y z
#
# Youngs Moduli (GPa) = 82.98869 78.31965 39.42544
#
# Poissons Ratio (x) = 0.43667 0.22892
# Poissons Ratio (y) = 0.46270 0.13702
# Poissons Ratio (z) = 0.48187 0.27220
#
# Static dielectric constant tensor:
#      x y z
#    x 3.548280 0.000000 0.000000 
#    y 0.000000 3.162210 0.000000 
#    z 0.000000 0.000000 3.069070 
# 
# 
# High freq. dielectric constant tensor:
#      x y z
#    x 1.692950 0.000000 0.000000 
#    y 0.000000 1.657290 0.000000 
#    z 0.000000 0.000000 1.667480 
# 
# From -- ./inp_files/5949.got.cif
#   From: 2010.03.12/outbox.cif.g09.slc.cpg/sg49_3_cif.got.tgz:5949.got - 2010.04.14 03:58:27.
