data_PCOD8202784
_publ_section_title
;
Structure prediction by ZEFSAII (Michael W. Deem and Ramdas Pophale) SiO2 
 PCOD8202784
Probable space group: P C C M
;
_chemical_formula_sum "Si O2"
_cell_formula_units_Z 48
_cell_length_a 13.595075
_cell_length_b 24.142276
_cell_length_c 8.507769
_cell_angle_alpha 90.000000
_cell_angle_beta 90.000000
_cell_angle_gamma 90.000000
_cell_volume 2792.386360
_symmetry_space_group_name_H-M "P C C M"
_symmetry_group_IT_number 49
_symmetry_cell_setting 'orthorhombic'
loop_
_space_group_symop_operation_xyz
x,y,z
-x,-y,z
x,-y,1/2-z
-x,y,1/2-z
-x,-y,-z
x,y,-z
-x,y,1/2+z
x,-y,1/2+z
loop_
_atom_site_type_symbol
_atom_site_label
_atom_site_fract_x
_atom_site_fract_y
_atom_site_fract_z
Si Si1 0.215328 0.221214 0.815824
Si Si2 0.104503 0.880012 0.814249
Si Si3 0.108194 0.553962 0.181848
Si Si4 0.604108 0.161006 0.185040
Si Si5 0.890297 0.676002 0.684851
Si Si6 0.713326 0.058797 0.685548
O O1 0.130236 0.178739 0.764563
O O2 0.315844 0.207889 0.724318
O O3 0.182787 0.282933 0.773572
O O4 0.234655 0.215263 0.000000
O O5 0.183750 0.926254 0.768007
O O6 0.000000 0.900416 0.750000
O O7 0.102116 0.872434 0.000000
O O8 0.167116 0.500000 0.250000
O O9 0.154014 0.614388 0.219897
O O10 0.000000 0.554279 0.250000
O O11 0.100779 0.544473 0.000000
O O12 0.500000 0.181987 0.250000
O O13 0.630941 0.103608 0.270530
O O14 0.600485 0.151003 0.000000
O O15 0.892324 0.688918 0.500000
O O16 0.000000 0.682862 0.750000
O O17 0.728429 0.057204 0.500000
O O18 0.676749 0.000000 0.750000
#
# Coordination Sequence:
#
# PCOD8202784 Si02
#       6
#     8   8   8   8   8   8
#     4  11  21  34  51  73  98 127 161 201 242 288
#     4  11  21  35  52  72  98 131 164 199 239 283
#     4   9  16  25  39  58  87 125 167 206 243 280
#     4  11  22  39  59  79 100 125 154 192 240 291
#     4  10  19  30  44  67  97 133 170 207 244 285
#     4  11  22  38  56  78 102 127 159 196 236 283
#
# _framework density 17.189598
#
# number of rings (size 3 to 8) (size 9 to 14) (size 15 to 20)
#    0.000    1.500    0.000   10.000    0.000    2.667 
#    0.000    3.333    0.000    0.000    0.000    0.000 
#    0.000    0.667    0.000    7.000    0.000    3.833 
#
# Total GULP energy -595175.170472 kJ/mol
# GULP energy per Si atom -12399.482718 kJ/mol
# Density = 1.715047 g / cm^3
# Si number density = 17.189598 Si / 1000 Ang^3
#
#
#
# Elastic Constant Matrix: (Units=GPa)
#
#
# Indices 1 2 3 4 5 6 
#
# 1 73.9940 23.3355 14.8898 0.0000 0.0000 0.0000
# 2 23.3355 112.5253 31.3860 0.0000 0.0000 0.0000
# 3 14.8898 31.3860 98.6541 0.0000 0.0000 0.0000
# 4 0.0000 0.0000 0.0000 30.8229 0.0000 0.0000
# 5 0.0000 0.0000 0.0000 0.0000 26.2413 0.0000
# 6 0.0000 0.0000 0.0000 0.0000 0.0000 5.1815
#
#
#
# Elastic Compliance Matrix: (Units=1/GPa)
#
#
# Indices 1 2 3 4 5 6 
#
# 1 0.014626 -0.002653 -0.001363 0.000000 0.000000 0.000000
# 2 -0.002653 0.010233 -0.002855 0.000000 0.000000 0.000000
# 3 -0.001363 -0.002855 0.011251 0.000000 0.000000 0.000000
# 4 0.000000 0.000000 0.000000 0.032443 0.000000 0.000000
# 5 0.000000 0.000000 0.000000 0.000000 0.038108 0.000000
# 6 0.000000 0.000000 0.000000 0.000000 0.000000 0.192995
#
#
# Mechanical properties :
#
#
# Convention : Reuss Voigt Hill
#
# Bulk Modulus (GPa) = 44.70963 47.15512 45.93237
# Shear Modulus (GPa) = 15.58340 26.81993 21.20167
#
# Velocity S-wave (km/s) = 3.01418 3.95428 3.51579
# Velocity P-wave (km/s) = 6.17899 6.95272 6.57724
#
# Compressibility (1/GPa) = 0.02236655
#
# Stress axis : x y z
#
# Youngs Moduli (GPa) = 68.37340 97.71895 88.88409
#
# Poissons Ratio (x) = 0.25922 0.12119
# Poissons Ratio (y) = 0.18138 0.25379
# Poissons Ratio (z) = 0.09323 0.27902
#
# Static dielectric constant tensor:
#      x y z
#    x 3.120200 0.000000 0.000000 
#    y 0.000000 3.990170 0.000000 
#    z 0.000000 0.000000 3.427140 
# 
# 
# High freq. dielectric constant tensor:
#      x y z
#    x 1.623110 0.000000 0.000000 
#    y 0.000000 1.666140 0.000000 
#    z 0.000000 0.000000 1.691040 
# 
# From -- ./inp_files/2910.got.cif
#   From: 2010.03.12/outbox.cif.g09.slc.cpg/sg49_2_cif.got.tgz:2910.got - 2010.04.14 03:58:27.
