data_PCOD8202072
_publ_section_title
;
Structure prediction by ZEFSAII (Michael W. Deem and Ramdas Pophale) SiO2 
 PCOD8202072
Probable space group: P N N N
;
_chemical_formula_sum "Si O2"
_cell_formula_units_Z 58
_cell_length_a 10.501060
_cell_length_b 24.917368
_cell_length_c 9.565930
_cell_angle_alpha 90.000000
_cell_angle_beta 90.000000
_cell_angle_gamma 90.000000
_cell_volume 2503.009539
_symmetry_space_group_name_H-M "P N N N"
_symmetry_group_IT_number 48
_space_group.IT_coordinate_system_code '2'
_symmetry_cell_setting 'orthorhombic'
loop_
_space_group_symop_operation_xyz
x,y,z
1/2-x,1/2-y,z
x,1/2-y,1/2-z
1/2-x,y,1/2-z
-x,-y,-z
1/2+x,1/2+y,-z
-x,1/2+y,1/2+z
1/2+x,-y,1/2+z
loop_
_atom_site_type_symbol
_atom_site_label
_atom_site_fract_x
_atom_site_fract_y
_atom_site_fract_z
Si Si1 0.788431 0.982963 0.396979
Si Si2 0.564532 0.419588 0.286400
Si Si3 0.750000 0.250000 0.250000
Si Si4 0.627208 0.497449 0.845345
Si Si5 0.919164 0.169071 0.079544
Si Si6 0.072878 0.380347 0.964128
Si Si7 0.782775 0.811719 0.904564
Si Si8 0.394955 0.619415 0.207682
O O1 0.750000 0.955986 0.250000
O O2 0.835812 0.043584 0.370108
O O3 0.665085 0.987811 0.495835
O O4 0.895712 0.944133 0.459866
O O5 0.460721 0.456697 0.214393
O O6 0.625823 0.384298 0.162757
O O7 0.509720 0.375408 0.394828
O O8 0.840619 0.217625 0.145086
O O9 0.750000 0.495287 0.750000
O O10 0.557026 0.439637 0.841629
O O11 0.068766 0.179193 0.082632
O O12 0.892432 0.162732 0.915647
O O13 0.989019 0.360802 0.832129
O O14 0.202204 0.345622 0.980340
O O15 0.750000 0.750000 0.928085
O O16 0.750000 0.832177 0.750000
O O17 0.250000 0.613833 0.250000
#
# Coordination Sequence:
#
# PCOD8202072 Si02
#       8
#     8   8   2   8   8   8   8   8
#     4  12  26  38  64 103 154 197 245 305 366 451
#     4  12  24  43  72 106 142 206 250 295 371 458
#     4  12  32  56  80 108 148 188 274 318 378 472
#     4  11  22  41  64 103 151 202 244 292 362 461
#     4  12  29  49  82 108 141 200 253 320 380 460
#     4  12  25  44  73 108 156 195 243 318 382 443
#     4  11  25  49  79 108 136 186 259 323 382 443
#     4  11  27  46  71 109 160 199 246 308 386 457
#
# _framework density 23.172104999999998
#
# number of rings (size 3 to 8) (size 9 to 14) (size 15 to 20)
#    0.000    0.414    4.138    4.552    8.690    1.103 
#    0.000    3.103    0.000    0.000    0.000    0.000 
#    0.000    0.000    0.000    0.000    0.000    0.000 
#
# Total GULP energy -719239.692617 kJ/mol
# GULP energy per Si atom -12400.684355 kJ/mol
# Density = 2.311936 g / cm^3
# Si number density = 23.172105 Si / 1000 Ang^3
#
#
#
# Elastic Constant Matrix: (Units=GPa)
#
#
# Indices 1 2 3 4 5 6 
#
# 1 94.7125 41.2032 59.2650 0.0000 0.0000 0.0000
# 2 41.2032 105.1030 51.6884 0.0000 0.0000 0.0000
# 3 59.2650 51.6884 166.2722 0.0000 0.0000 0.0000
# 4 0.0000 0.0000 0.0000 20.9365 0.0000 0.0000
# 5 0.0000 0.0000 0.0000 0.0000 39.6741 0.0000
# 6 0.0000 0.0000 0.0000 0.0000 0.0000 42.5144
#
#
#
# Elastic Compliance Matrix: (Units=1/GPa)
#
#
# Indices 1 2 3 4 5 6 
#
# 1 0.014758 -0.003776 -0.004086 0.000000 0.000000 0.000000
# 2 -0.003776 0.012198 -0.002446 0.000000 0.000000 0.000000
# 3 -0.004086 -0.002446 0.008231 0.000000 0.000000 0.000000
# 4 0.000000 0.000000 0.000000 0.047763 0.000000 0.000000
# 5 0.000000 0.000000 0.000000 0.000000 0.025205 0.000000
# 6 0.000000 0.000000 0.000000 0.000000 0.000000 0.023521
#
#
# Mechanical properties :
#
#
# Convention : Reuss Voigt Hill
#
# Bulk Modulus (GPa) = 68.63345 74.48898 71.56122
# Shear Modulus (GPa) = 31.81669 34.88708 33.35188
#
# Velocity S-wave (km/s) = 3.70950 3.88437 3.79794
# Velocity P-wave (km/s) = 6.93040 7.23419 7.08393
#
# Compressibility (1/GPa) = 0.01457016
#
# Stress axis : x y z
#
# Youngs Moduli (GPa) = 67.76020 81.98320 121.48963
#
# Poissons Ratio (x) = 0.30956 0.49646
# Poissons Ratio (y) = 0.25585 0.29716
# Poissons Ratio (z) = 0.27690 0.20053
#
# Static dielectric constant tensor:
#      x y z
#    x 4.079870 0.000000 0.000000 
#    y 0.000000 4.217360 0.000000 
#    z 0.000000 0.000000 4.765680 
# 
# 
# High freq. dielectric constant tensor:
#      x y z
#    x 1.929570 0.000000 0.000000 
#    y 0.000000 1.898440 0.000000 
#    z 0.000000 0.000000 1.930130 
# 
# From -- ./inp_files/11454.got.cif
#   From: 2010.06.25/outbox.cif.g09.slc.cpg/sg48_6_cif.got.tgz:11454.got - 2010.06.26 18:06:46.
