data_PCOD8202141
_publ_section_title
;
Structure prediction by ZEFSAII (Michael W. Deem and Ramdas Pophale) SiO2 
 PCOD8202141
Probable space group: P N N N
;
_chemical_formula_sum "Si O2"
_cell_formula_units_Z 32
_cell_length_a 8.328128
_cell_length_b 12.435622
_cell_length_c 12.495856
_cell_angle_alpha 90.000000
_cell_angle_beta 90.000000
_cell_angle_gamma 90.000000
_cell_volume 1294.138972
_symmetry_space_group_name_H-M "P N N N"
_symmetry_group_IT_number 48
_space_group.IT_coordinate_system_code '2'
_symmetry_cell_setting 'orthorhombic'
loop_
_space_group_symop_operation_xyz
x,y,z
1/2-x,1/2-y,z
x,1/2-y,1/2-z
1/2-x,y,1/2-z
-x,-y,-z
1/2+x,1/2+y,-z
-x,1/2+y,1/2+z
1/2+x,-y,1/2+z
loop_
_atom_site_type_symbol
_atom_site_label
_atom_site_fract_x
_atom_site_fract_y
_atom_site_fract_z
Si Si1 0.432578 0.581893 0.258151
Si Si2 0.594465 0.604929 0.042368
Si Si3 0.572372 0.366283 0.291466
Si Si4 0.952914 0.843583 0.484450
O O1 0.250000 0.616784 0.250000
O O2 0.550089 0.628142 0.166515
O O3 0.448327 0.452912 0.245334
O O4 0.474503 0.633339 0.370455
O O5 0.783219 0.592870 0.018267
O O6 0.549897 0.717049 0.985940
O O7 0.500000 0.500000 0.000000
O O8 0.516588 0.250000 0.250000
O O9 0.750000 0.393791 0.250000
O O10 0.566505 0.385637 0.419778
#
# Coordination Sequence:
#
# PCOD8202141 Si02
#       4
#     8   8   8   8
#     4  12  26  43  69 103 142 187 238 294 361 438
#     4  11  24  46  74 104 141 186 237 298 366 439
#     4  11  25  45  70 100 138 187 242 300 364 432
#     4  11  25  46  71 103 143 187 238 300 365 435
#
# _framework density 24.726865
#
# number of rings (size 3 to 8) (size 9 to 14) (size 15 to 20)
#    0.000    0.750    0.000    6.750    0.000   14.500 
#    0.000    0.000    0.000    0.000    0.000    0.000 
#    0.000    0.000    0.000    0.000    0.000    0.000 
#
# Total GULP energy -396503.178605 kJ/mol
# GULP energy per Si atom -12390.724331 kJ/mol
# Density = 2.467059 g / cm^3
# Si number density = 24.726865 Si / 1000 Ang^3
#
#
#
# Elastic Constant Matrix: (Units=GPa)
#
#
# Indices 1 2 3 4 5 6 
#
# 1 157.3993 50.7017 87.1478 0.0000 0.0000 0.0000
# 2 50.7017 124.7814 7.4196 0.0000 0.0000 0.0000
# 3 87.1478 7.4196 170.7901 0.0000 0.0000 0.0000
# 4 0.0000 0.0000 0.0000 8.4689 0.0000 0.0000
# 5 0.0000 0.0000 0.0000 0.0000 54.2033 0.0000
# 6 0.0000 0.0000 0.0000 0.0000 0.0000 36.4655
#
#
#
# Elastic Compliance Matrix: (Units=1/GPa)
#
#
# Indices 1 2 3 4 5 6 
#
# 1 0.010499 -0.003958 -0.005185 0.000000 0.000000 0.000000
# 2 -0.003958 0.009527 0.001606 0.000000 0.000000 0.000000
# 3 -0.005185 0.001606 0.008431 0.000000 0.000000 0.000000
# 4 0.000000 0.000000 0.000000 0.118080 0.000000 0.000000
# 5 0.000000 0.000000 0.000000 0.000000 0.018449 0.000000
# 6 0.000000 0.000000 0.000000 0.000000 0.000000 0.027423
#
#
# Mechanical properties :
#
#
# Convention : Reuss Voigt Hill
#
# Bulk Modulus (GPa) = 74.72666 82.61211 78.66939
# Shear Modulus (GPa) = 23.59106 40.34098 31.96602
#
# Velocity S-wave (km/s) = 3.09215 4.04352 3.59940
# Velocity P-wave (km/s) = 6.56010 7.43522 7.01133
#
# Compressibility (1/GPa) = 0.01338210
#
# Stress axis : x y z
#
# Youngs Moduli (GPa) = 95.24584 104.96859 118.60577
#
# Poissons Ratio (x) = 0.41544 0.61502
# Poissons Ratio (y) = 0.37696 -0.19043
# Poissons Ratio (z) = 0.49389 -0.16854
#
# Static dielectric constant tensor:
#      x y z
#    x -2.272240 0.000000 0.000000 
#    y 0.000000 4.982200 0.000000 
#    z 0.000000 0.000000 4.643260 
# 
# 
# High freq. dielectric constant tensor:
#      x y z
#    x 1.973690 0.000000 0.000000 
#    y 0.000000 2.008300 0.000000 
#    z 0.000000 0.000000 1.998800 
# 
# From -- ./inp_files/18138.got.cif
#   From: 2010.06.25/outbox.cif.g09.slc.cpg/sg48_10_cif.got.tgz:18138.got - 2010.06.26 18:06:46.
