data_PCOD8202177
_publ_section_title
;
Structure prediction by ZEFSAII (Michael W. Deem and Ramdas Pophale) SiO2 
 PCOD8202177
Probable space group: P C C M
;
_chemical_formula_sum "Si O2"
_cell_formula_units_Z 40
_cell_length_a 26.177161
_cell_length_b 9.821143
_cell_length_c 8.622917
_cell_angle_alpha 90.000000
_cell_angle_beta 90.000000
_cell_angle_gamma 90.000000
_cell_volume 2216.862640
_symmetry_space_group_name_H-M "P C C M"
_symmetry_group_IT_number 49
_symmetry_cell_setting 'orthorhombic'
loop_
_space_group_symop_operation_xyz
x,y,z
-x,-y,z
x,-y,1/2-z
-x,y,1/2-z
-x,-y,-z
x,y,-z
-x,y,1/2+z
x,-y,1/2+z
loop_
_atom_site_type_symbol
_atom_site_label
_atom_site_fract_x
_atom_site_fract_y
_atom_site_fract_z
Si Si1 0.551146 0.347963 0.816399
Si Si2 0.945723 0.854824 0.182529
Si Si3 0.865907 0.650098 0.680372
Si Si4 0.753079 0.647416 0.678633
Si Si5 0.346794 0.651987 0.317285
O O1 0.552364 0.500000 0.750000
O O2 0.500000 0.274161 0.750000
O O3 0.603097 0.274200 0.756449
O O4 0.549318 0.349285 0.000000
O O5 0.903810 0.744461 0.225329
O O6 0.000000 0.807490 0.250000
O O7 0.928846 0.000000 0.250000
O O8 0.950709 0.868061 0.000000
O O9 0.869555 0.500000 0.750000
O O10 0.881193 0.644561 0.500000
O O11 0.808850 0.715723 0.699565
O O12 0.759522 0.500000 0.750000
O O13 0.737481 0.635265 0.500000
O O14 0.706366 0.726624 0.766377
O O15 0.342906 0.500000 0.250000
O O16 0.352995 0.650781 0.500000
#
# Coordination Sequence:
#
# PCOD8202177 Si02
#       5
#     8   8   8   8   8
#     4  10  16  22  29  39  57  83 121 167 215 261
#     4  11  22  38  58  78 102 131 164 199 239 287
#     4  10  20  34  52  76 103 130 163 202 245 288
#     4   9  16  26  40  58  82 110 141 180 224 271
#     4  10  16  22  32  46  66  94 130 170 215 265
#
# _framework density 18.043516
#
# number of rings (size 3 to 8) (size 9 to 14) (size 15 to 20)
#    0.000    2.000    0.000   10.200    0.000    2.800 
#    0.000    2.000    0.000    0.000    0.000    0.000 
#    0.000    0.000    0.000    0.000    0.000    1.000 
#
# Total GULP energy -495638.073543 kJ/mol
# GULP energy per Si atom -12390.951839 kJ/mol
# Density = 1.800245 g / cm^3
# Si number density = 18.043516 Si / 1000 Ang^3
#
#
#
# Elastic Constant Matrix: (Units=GPa)
#
#
# Indices 1 2 3 4 5 6 
#
# 1 160.2379 41.1048 69.6554 0.0000 0.0000 0.0000
# 2 41.1048 29.6999 22.5688 0.0000 0.0000 0.0000
# 3 69.6554 22.5688 180.1963 0.0000 0.0000 0.0000
# 4 0.0000 0.0000 0.0000 14.7495 0.0000 0.0000
# 5 0.0000 0.0000 0.0000 0.0000 34.8077 0.0000
# 6 0.0000 0.0000 0.0000 0.0000 0.0000 -3.1532
#
#
#
# Elastic Compliance Matrix: (Units=1/GPa)
#
#
# Indices 1 2 3 4 5 6 
#
# 1 0.010605 -0.012778 -0.002499 0.000000 0.000000 0.000000
# 2 -0.012778 0.052609 -0.001650 0.000000 0.000000 0.000000
# 3 -0.002499 -0.001650 0.006722 0.000000 0.000000 0.000000
# 4 0.000000 0.000000 0.000000 0.067799 0.000000 0.000000
# 5 0.000000 0.000000 0.000000 0.000000 0.028729 0.000000
# 6 0.000000 0.000000 0.000000 0.000000 0.000000 -0.317134
#
#
# Mechanical properties :
#
#
# Convention : Reuss Voigt Hill
#
# Bulk Modulus (GPa) = 27.71446 70.75466 49.23456
# Shear Modulus (GPa) = -47.71516 25.06779 -11.32368
#
# Velocity S-wave (km/s) = -5.14800 3.73137 -2.50787
# Velocity P-wave (km/s) = 4.46573 7.60675 4.35430
#
# Compressibility (1/GPa) = 0.03608225
#
# Stress axis : x y z
#
# Youngs Moduli (GPa) = 94.29551 19.00821 148.76361
#
# Poissons Ratio (x) = 0.24289 0.37175
# Poissons Ratio (y) = 1.20494 0.24539
# Poissons Ratio (z) = 0.23564 0.03135
#
# Static dielectric constant tensor:
#      x y z
#    x 4.962520 0.000000 0.000000 
#    y 0.000000 2.575860 0.000000 
#    z 0.000000 0.000000 3.522980 
# 
# 
# High freq. dielectric constant tensor:
#      x y z
#    x 1.738250 0.000000 0.000000 
#    y 0.000000 1.597240 0.000000 
#    z 0.000000 0.000000 1.725330 
# 
# From -- ./inp_files/6675.got.cif
#   From: 2010.03.12/outbox.cif.g09.slc.cpg/sg49_4_cif.got.tgz:6675.got - 2010.04.14 03:58:27.
