data_PCOD8202360
_publ_section_title
;
Structure prediction by ZEFSAII (Michael W. Deem and Ramdas Pophale) SiO2 
 PCOD8202360
Probable space group: P C C M
;
_chemical_formula_sum "Si O2"
_cell_formula_units_Z 58
_cell_length_a 26.562910
_cell_length_b 12.910178
_cell_length_c 8.699524
_cell_angle_alpha 90.000000
_cell_angle_beta 90.000000
_cell_angle_gamma 90.000000
_cell_volume 2983.344262
_symmetry_space_group_name_H-M "P C C M"
_symmetry_group_IT_number 49
_symmetry_cell_setting 'orthorhombic'
loop_
_space_group_symop_operation_xyz
x,y,z
-x,-y,z
x,-y,1/2-z
-x,y,1/2-z
-x,-y,-z
x,y,-z
-x,y,1/2+z
x,-y,1/2+z
loop_
_atom_site_type_symbol
_atom_site_label
_atom_site_fract_x
_atom_site_fract_y
_atom_site_fract_z
Si Si1 0.576288 0.394651 0.178875
Si Si2 0.153109 0.884996 0.683886
Si Si3 0.249605 0.214237 0.318874
Si Si4 0.500000 0.000000 0.750000
Si Si5 0.949747 0.884826 0.684014
Si Si6 0.562708 0.196724 0.665230
Si Si7 0.686381 0.604683 0.817805
Si Si8 0.334692 0.900811 0.675001
O O1 0.551864 0.500000 0.250000
O O2 0.545338 0.286914 0.215420
O O3 0.632039 0.378278 0.242909
O O4 0.577886 0.411855 0.000000
O O5 0.153125 0.889627 0.500000
O O6 0.195480 0.808369 0.746977
O O7 0.101060 0.834530 0.747415
O O8 0.161792 0.000000 0.750000
O O9 0.245391 0.235106 0.500000
O O10 0.273682 0.309114 0.227976
O O11 0.286711 0.118982 0.283699
O O12 0.536019 0.082974 0.664272
O O13 0.949277 0.883899 0.500000
O O14 0.000000 0.827494 0.750000
O O15 0.950440 0.000000 0.750000
O O16 0.551397 0.245503 0.500000
O O17 0.622868 0.186870 0.685249
O O18 0.709994 0.500000 0.750000
O O19 0.680275 0.600601 0.000000
O O20 0.316795 0.916997 0.500000
O O21 0.361187 0.000000 0.750000
#
# Coordination Sequence:
#
# PCOD8202360 Si02
#       8
#     8   8   8   2   8   8   8   8
#     4  11  22  39  66  94 122 152 188 233 282 339
#     4  11  21  34  49  71 105 146 189 236 285 335
#     4  12  23  36  53  78 110 147 187 228 278 335
#     4  12  26  48  70  94 122 156 196 240 292 336
#     4  10  17  28  45  67  95 135 185 236 285 335
#     4  11  24  42  65  91 121 152 190 234 283 339
#     4  11  21  36  57  84 114 145 182 225 274 330
#     4  11  22  37  56  80 112 148 188 229 272 332
#
# _framework density 19.441269999999999
#
# number of rings (size 3 to 8) (size 9 to 14) (size 15 to 20)
#    0.000    0.966    2.069    9.310    0.000    1.655 
#    0.000    0.345    0.000    1.655    0.000    0.000 
#    0.000    0.552    0.000    5.517    0.000    3.310 
#
# Total GULP energy -718561.025046 kJ/mol
# GULP energy per Si atom -12388.983190 kJ/mol
# Density = 1.939702 g / cm^3
# Si number density = 19.441270 Si / 1000 Ang^3
#
#
#
# Elastic Constant Matrix: (Units=GPa)
#
#
# Indices 1 2 3 4 5 6 
#
# 1 108.4605 11.6468 42.4502 0.0000 0.0000 0.0000
# 2 11.6468 103.9273 40.7160 0.0000 0.0000 0.0000
# 3 42.4502 40.7160 177.6016 0.0000 0.0000 0.0000
# 4 0.0000 0.0000 0.0000 28.5702 0.0000 0.0000
# 5 0.0000 0.0000 0.0000 0.0000 63.0751 0.0000
# 6 0.0000 0.0000 0.0000 0.0000 0.0000 606.7935
#
#
#
# Elastic Compliance Matrix: (Units=1/GPa)
#
#
# Indices 1 2 3 4 5 6 
#
# 1 0.010176 -0.000206 -0.002385 0.000000 0.000000 0.000000
# 2 -0.000206 0.010576 -0.002375 0.000000 0.000000 0.000000
# 3 -0.002385 -0.002375 0.006745 0.000000 0.000000 0.000000
# 4 0.000000 0.000000 0.000000 0.035002 0.000000 0.000000
# 5 0.000000 0.000000 0.000000 0.000000 0.015854 0.000000
# 6 0.000000 0.000000 0.000000 0.000000 0.000000 0.001648
#
#
# Mechanical properties :
#
#
# Convention : Reuss Voigt Hill
#
# Bulk Modulus (GPa) = 56.93457 64.40171 60.66814
# Shear Modulus (GPa) = 52.19903 159.36617 105.78260
#
# Velocity S-wave (km/s) = 5.18728 9.06372 7.38441
# Velocity P-wave (km/s) = 8.07627 11.94709 10.19704
#
# Compressibility (1/GPa) = 0.01756402
#
# Stress axis : x y z
#
# Youngs Moduli (GPa) = 98.27525 94.55572 148.25418
#
# Poissons Ratio (x) = 0.01948 0.35357
# Poissons Ratio (y) = 0.02024 0.35215
# Poissons Ratio (z) = 0.23438 0.22460
#
# Static dielectric constant tensor:
#      x y z
#    x 4.084160 0.000000 0.000000 
#    y 0.000000 3.550020 0.000000 
#    z 0.000000 0.000000 3.786110 
# 
# 
# High freq. dielectric constant tensor:
#      x y z
#    x 1.753710 0.000000 0.000000 
#    y 0.000000 1.733570 0.000000 
#    z 0.000000 0.000000 1.775370 
# 
# From -- ./inp_files/6979.got.cif
#   From: 2010.03.12/outbox.cif.g09.slc.cpg/sg49_4_cif.got.tgz:6979.got - 2010.04.14 03:58:27.
