data_PCOD8202392
_publ_section_title
;
Structure prediction by ZEFSAII (Michael W. Deem and Ramdas Pophale) SiO2 
 PCOD8202392
Probable space group: P C C M
;
_chemical_formula_sum "Si O2"
_cell_formula_units_Z 40
_cell_length_a 25.590800
_cell_length_b 9.185238
_cell_length_c 8.581244
_cell_angle_alpha 90.000000
_cell_angle_beta 90.000000
_cell_angle_gamma 90.000000
_cell_volume 2017.086522
_symmetry_space_group_name_H-M "P C C M"
_symmetry_group_IT_number 49
_symmetry_cell_setting 'orthorhombic'
loop_
_space_group_symop_operation_xyz
x,y,z
-x,-y,z
x,-y,1/2-z
-x,y,1/2-z
-x,-y,-z
x,y,-z
-x,y,1/2+z
x,-y,1/2+z
loop_
_atom_site_type_symbol
_atom_site_label
_atom_site_fract_x
_atom_site_fract_y
_atom_site_fract_z
Si Si1 0.341425 0.160062 0.183212
Si Si2 0.854424 0.155904 0.819219
Si Si3 0.751598 0.658403 0.318743
Si Si4 0.943617 0.654186 0.183473
Si Si5 0.552285 0.162370 0.184314
O O1 0.293860 0.263852 0.223666
O O2 0.393976 0.234334 0.254843
O O3 0.330397 0.000000 0.250000
O O4 0.348359 0.146200 0.000000
O O5 0.805035 0.257380 0.790106
O O6 0.903979 0.219363 0.729171
O O7 0.840231 0.000000 0.750000
O O8 0.868526 0.142721 0.000000
O O9 0.759905 0.500000 0.250000
O O10 0.736450 0.652477 0.500000
O O11 0.923688 0.500000 0.250000
O O12 0.000000 0.696064 0.250000
O O13 0.947667 0.640135 0.000000
O O14 0.500000 0.242742 0.250000
O O15 0.552767 0.000000 0.250000
O O16 0.550711 0.163071 0.000000
#
# Coordination Sequence:
#
# PCOD8202392 Si02
#       5
#     8   8   8   8   8
#     4  11  21  35  56  83 115 150 190 237 287 339
#     4  11  24  41  62  89 120 153 193 239 290 342
#     4  11  24  41  61  85 114 150 191 236 286 344
#     4  11  22  39  63  90 122 158 198 239 285 339
#     4  10  17  28  47  75 110 146 186 231 282 337
#
# _framework density 19.830584000000002
#
# number of rings (size 3 to 8) (size 9 to 14) (size 15 to 20)
#    0.000    1.200    0.000   10.200    0.000    6.800 
#    0.000    2.000    0.000    0.600    0.000    4.200 
#    0.000    0.000    0.000    0.000    0.000    0.000 
#
# Total GULP energy -496121.271295 kJ/mol
# GULP energy per Si atom -12403.031782 kJ/mol
# Density = 1.978545 g / cm^3
# Si number density = 19.830584 Si / 1000 Ang^3
#
#
#
# Elastic Constant Matrix: (Units=GPa)
#
#
# Indices 1 2 3 4 5 6 
#
# 1 113.7828 44.0948 65.9434 0.0000 0.0000 0.0000
# 2 44.0948 95.4766 48.2004 0.0000 0.0000 0.0000
# 3 65.9434 48.2004 191.6222 0.0000 0.0000 0.0000
# 4 0.0000 0.0000 0.0000 29.1389 0.0000 0.0000
# 5 0.0000 0.0000 0.0000 0.0000 38.6090 0.0000
# 6 0.0000 0.0000 0.0000 0.0000 0.0000 10.8936
#
#
#
# Elastic Compliance Matrix: (Units=1/GPa)
#
#
# Indices 1 2 3 4 5 6 
#
# 1 0.012193 -0.004024 -0.003184 0.000000 0.000000 0.000000
# 2 -0.004024 0.013325 -0.001967 0.000000 0.000000 0.000000
# 3 -0.003184 -0.001967 0.006809 0.000000 0.000000 0.000000
# 4 0.000000 0.000000 0.000000 0.034318 0.000000 0.000000
# 5 0.000000 0.000000 0.000000 0.000000 0.025901 0.000000
# 6 0.000000 0.000000 0.000000 0.000000 0.000000 0.091797
#
#
# Mechanical properties :
#
#
# Convention : Reuss Voigt Hill
#
# Bulk Modulus (GPa) = 71.54215 79.70653 75.62434
# Shear Modulus (GPa) = 24.11344 31.90447 28.00896
#
# Velocity S-wave (km/s) = 3.49086 4.01540 3.76228
# Velocity P-wave (km/s) = 7.23900 7.85996 7.55586
#
# Compressibility (1/GPa) = 0.01397777
#
# Stress axis : x y z
#
# Youngs Moduli (GPa) = 82.01162 75.04550 146.86251
#
# Poissons Ratio (x) = 0.30198 0.46760
# Poissons Ratio (y) = 0.33001 0.28888
# Poissons Ratio (z) = 0.26112 0.14762
#
# Static dielectric constant tensor:
#      x y z
#    x 4.264530 0.000000 0.000000 
#    y 0.000000 3.325980 0.000000 
#    z 0.000000 0.000000 3.802440 
# 
# 
# High freq. dielectric constant tensor:
#      x y z
#    x 1.797100 0.000000 0.000000 
#    y 0.000000 1.743990 0.000000 
#    z 0.000000 0.000000 1.797300 
# 
# From -- ./inp_files/1917.got.cif
#   From: 2010.03.12/outbox.cif.g09.slc.cpg/sg49_1_cif.got.tgz:1917.got - 2010.04.14 03:58:27.
