data_PCOD8202224
_publ_section_title
;
Structure prediction by ZEFSAII (Michael W. Deem and Ramdas Pophale) SiO2 
 PCOD8202224
Probable space group: P C C M
;
_chemical_formula_sum "Si O2"
_cell_formula_units_Z 48
_cell_length_a 31.034590
_cell_length_b 9.192968
_cell_length_c 8.442992
_cell_angle_alpha 90.000000
_cell_angle_beta 90.000000
_cell_angle_gamma 90.000000
_cell_volume 2408.785556
_symmetry_space_group_name_H-M "P C C M"
_symmetry_group_IT_number 49
_symmetry_cell_setting 'orthorhombic'
loop_
_space_group_symop_operation_xyz
x,y,z
-x,-y,z
x,-y,1/2-z
-x,y,1/2-z
-x,-y,-z
x,y,-z
-x,y,1/2+z
x,-y,1/2+z
loop_
_atom_site_type_symbol
_atom_site_label
_atom_site_fract_x
_atom_site_fract_y
_atom_site_fract_z
Si Si1 0.203058 0.838906 0.686130
Si Si2 0.124044 0.661685 0.812262
Si Si3 0.456501 0.336592 0.314208
Si Si4 0.718340 0.339545 0.185137
Si Si5 0.047747 0.843360 0.310967
Si Si6 0.630373 0.337217 0.314079
O O1 0.212213 0.837135 0.500000
O O2 0.158691 0.759424 0.723071
O O3 0.241781 0.761993 0.776849
O O4 0.198900 0.000000 0.750000
O O5 0.129699 0.500000 0.750000
O O6 0.077058 0.718657 0.764594
O O7 0.130994 0.668389 0.000000
O O8 0.455499 0.500000 0.250000
O O9 0.500000 0.257680 0.250000
O O10 0.458167 0.337522 0.500000
O O11 0.412386 0.257448 0.256348
O O12 0.727909 0.500000 0.250000
O O13 0.675322 0.264486 0.259834
O O14 0.711105 0.352239 0.000000
O O15 0.049460 0.838710 0.500000
O O16 0.000000 0.812051 0.250000
O O17 0.064082 0.000000 0.250000
O O18 0.632628 0.500000 0.250000
O O19 0.626181 0.335524 0.500000
#
# Coordination Sequence:
#
# PCOD8202224 Si02
#       6
#     8   8   8   8   8   8
#     4  12  25  43  63  87 115 149 188 233 283 339
#     4  12  25  43  64  91 122 157 196 241 289 341
#     4  10  16  23  34  53  83 123 167 213 262 320
#     4  11  21  36  56  81 110 145 184 229 279 335
#     4  11  22  40  64  93 125 163 203 245 290 341
#     4  10  17  27  42  64  93 130 172 218 268 325
#
# _framework density 19.927053999999998
#
# number of rings (size 3 to 8) (size 9 to 14) (size 15 to 20)
#    0.000    1.000    0.000   13.000    0.000    0.333 
#    0.000    1.667    0.000    0.000    0.000    0.000 
#    0.000    0.667    0.000    6.667    0.000    6.500 
#
# Total GULP energy -595214.791930 kJ/mol
# GULP energy per Si atom -12400.308165 kJ/mol
# Density = 1.988170 g / cm^3
# Si number density = 19.927054 Si / 1000 Ang^3
#
#
#
# Elastic Constant Matrix: (Units=GPa)
#
#
# Indices 1 2 3 4 5 6 
#
# 1 122.1265 41.7436 18.5037 0.0000 0.0000 0.0000
# 2 41.7436 82.1935 16.8162 0.0000 0.0000 0.0000
# 3 18.5037 16.8162 149.0383 0.0000 0.0000 0.0000
# 4 0.0000 0.0000 0.0000 22.7396 0.0000 0.0000
# 5 0.0000 0.0000 0.0000 0.0000 43.0372 0.0000
# 6 0.0000 0.0000 0.0000 0.0000 0.0000 4.4181
#
#
#
# Elastic Compliance Matrix: (Units=1/GPa)
#
#
# Indices 1 2 3 4 5 6 
#
# 1 0.009976 -0.004927 -0.000683 0.000000 0.000000 0.000000
# 2 -0.004927 0.014887 -0.001068 0.000000 0.000000 0.000000
# 3 -0.000683 -0.001068 0.006915 0.000000 0.000000 0.000000
# 4 0.000000 0.000000 0.000000 0.043976 0.000000 0.000000
# 5 0.000000 0.000000 0.000000 0.000000 0.023236 0.000000
# 6 0.000000 0.000000 0.000000 0.000000 0.000000 0.226342
#
#
# Mechanical properties :
#
#
# Convention : Reuss Voigt Hill
#
# Bulk Modulus (GPa) = 54.28028 56.38727 55.33378
# Shear Modulus (GPa) = 14.50003 32.45863 23.47933
#
# Velocity S-wave (km/s) = 2.70043 4.04031 3.43631
# Velocity P-wave (km/s) = 6.08455 7.07981 6.60097
#
# Compressibility (1/GPa) = 0.01842290
#
# Stress axis : x y z
#
# Youngs Moduli (GPa) = 100.24439 67.17256 144.61422
#
# Poissons Ratio (x) = 0.33094 0.09872
# Poissons Ratio (y) = 0.49387 0.15446
# Poissons Ratio (z) = 0.06843 0.07174
#
# Static dielectric constant tensor:
#      x y z
#    x 4.964050 0.000000 0.000000 
#    y 0.000000 3.221030 0.000000 
#    z 0.000000 0.000000 3.833510 
# 
# 
# High freq. dielectric constant tensor:
#      x y z
#    x 1.810170 0.000000 0.000000 
#    y 0.000000 1.724660 0.000000 
#    z 0.000000 0.000000 1.805430 
# 
# From -- ./inp_files/6891.got.cif
#   From: 2010.03.12/outbox.cif.g09.slc.cpg/sg49_4_cif.got.tgz:6891.got - 2010.04.14 03:58:27.
