data_PCOD8202406
_publ_section_title
;
Structure prediction by ZEFSAII (Michael W. Deem and Ramdas Pophale) SiO2 
 PCOD8202406
Probable space group: P C C M
;
_chemical_formula_sum "Si O2"
_cell_formula_units_Z 64
_cell_length_a 28.453633
_cell_length_b 13.709772
_cell_length_c 8.727425
_cell_angle_alpha 90.000000
_cell_angle_beta 90.000000
_cell_angle_gamma 90.000000
_cell_volume 3404.505838
_symmetry_space_group_name_H-M "P C C M"
_symmetry_group_IT_number 49
_symmetry_cell_setting 'orthorhombic'
loop_
_space_group_symop_operation_xyz
x,y,z
-x,-y,z
x,-y,1/2-z
-x,y,1/2-z
-x,-y,-z
x,y,-z
-x,y,1/2+z
x,-y,1/2+z
loop_
_atom_site_type_symbol
_atom_site_label
_atom_site_fract_x
_atom_site_fract_y
_atom_site_fract_z
Si Si1 0.275253 0.794937 0.821087
Si Si2 0.188887 0.101379 0.179492
Si Si3 0.357787 0.102536 0.176641
Si Si4 0.552034 0.404458 0.181449
Si Si5 0.135665 0.295443 0.180179
Si Si6 0.050031 0.603979 0.181980
Si Si7 0.222625 0.399014 0.680110
Si Si8 0.549778 0.209978 0.677304
O O1 0.239628 0.871466 0.745767
O O2 0.327173 0.812848 0.755644
O O3 0.261174 0.683706 0.782656
O O4 0.274599 0.814796 0.000000
O O5 0.151528 0.185643 0.221417
O O6 0.170625 0.000000 0.250000
O O7 0.194276 0.088959 0.000000
O O8 0.413218 0.122970 0.199796
O O9 0.344899 0.000000 0.250000
O O10 0.344193 0.099551 0.000000
O O11 0.578623 0.500000 0.250000
O O12 0.500000 0.402963 0.250000
O O13 0.574180 0.303327 0.239800
O O14 0.551952 0.410221 0.000000
O O15 0.087109 0.313977 0.268106
O O16 0.173803 0.372814 0.238755
O O17 0.128685 0.310194 0.000000
O O18 0.065958 0.500000 0.250000
O O19 0.000000 0.635561 0.250000
O O20 0.046718 0.596427 0.000000
O O21 0.241823 0.500000 0.750000
O O22 0.213731 0.409275 0.500000
O O23 0.500000 0.178540 0.750000
O O24 0.541121 0.235176 0.500000
#
# Coordination Sequence:
#
# PCOD8202406 Si02
#       8
#     8   8   8   8   8   8   8   8
#     4  10  21  37  57  80 108 140 177 215 258 310
#     4  10  20  34  55  80 108 139 175 221 270 318
#     4  11  24  40  59  80 105 136 172 213 260 311
#     4  10  17  28  49  75 103 133 164 201 242 289
#     4  10  20  34  52  77 108 144 183 224 270 320
#     4  11  21  34  52  75 106 143 183 228 273 323
#     4  10  20  34  54  81 111 145 179 216 261 313
#     4  10  21  37  56  80 107 137 172 213 257 305
#
# _framework density 18.798617
#
# number of rings (size 3 to 8) (size 9 to 14) (size 15 to 20)
#    0.000    1.750    0.000    6.750    0.000    5.250 
#    0.000    1.875    0.000    1.875    0.000    2.625 
#    0.000    0.000    0.000    0.000    0.000    0.000 
#
# Total GULP energy -793707.682647 kJ/mol
# GULP energy per Si atom -12401.682541 kJ/mol
# Density = 1.875583 g / cm^3
# Si number density = 18.798617 Si / 1000 Ang^3
#
#
#
# Elastic Constant Matrix: (Units=GPa)
#
#
# Indices 1 2 3 4 5 6 
#
# 1 98.5648 48.7707 50.4582 0.0000 0.0000 0.0000
# 2 48.7707 113.9657 55.4013 0.0000 0.0000 0.0000
# 3 50.4582 55.4013 139.3056 0.0000 0.0000 0.0000
# 4 0.0000 0.0000 0.0000 29.6284 0.0000 0.0000
# 5 0.0000 0.0000 0.0000 0.0000 26.1741 0.0000
# 6 0.0000 0.0000 0.0000 0.0000 0.0000 24.3513
#
#
#
# Elastic Compliance Matrix: (Units=1/GPa)
#
#
# Indices 1 2 3 4 5 6 
#
# 1 0.014020 -0.004377 -0.003337 0.000000 0.000000 0.000000
# 2 -0.004377 0.012244 -0.003284 0.000000 0.000000 0.000000
# 3 -0.003337 -0.003284 0.009693 0.000000 0.000000 0.000000
# 4 0.000000 0.000000 0.000000 0.033751 0.000000 0.000000
# 5 0.000000 0.000000 0.000000 0.000000 0.038206 0.000000
# 6 0.000000 0.000000 0.000000 0.000000 0.000000 0.041066
#
#
# Mechanical properties :
#
#
# Convention : Reuss Voigt Hill
#
# Bulk Modulus (GPa) = 71.63219 73.45518 72.54368
# Shear Modulus (GPa) = 28.46877 29.17783 28.82330
#
# Velocity S-wave (km/s) = 3.89576 3.94398 3.91994
# Velocity P-wave (km/s) = 7.64354 7.73948 7.69166
#
# Compressibility (1/GPa) = 0.01396020
#
# Stress axis : x y z
#
# Youngs Moduli (GPa) = 71.32622 81.67102 103.16394
#
# Poissons Ratio (x) = 0.35751 0.34430
# Poissons Ratio (y) = 0.31222 0.33878
# Poissons Ratio (z) = 0.23804 0.26820
#
# Static dielectric constant tensor:
#      x y z
#    x 3.220610 0.000000 0.000000 
#    y 0.000000 3.811780 0.000000 
#    z 0.000000 0.000000 3.586940 
# 
# 
# High freq. dielectric constant tensor:
#      x y z
#    x 1.706080 0.000000 0.000000 
#    y 0.000000 1.731540 0.000000 
#    z 0.000000 0.000000 1.751980 
# 
# From -- ./inp_files/3083.got.cif
#   From: 2010.03.12/outbox.cif.g09.slc.cpg/sg49_2_cif.got.tgz:3083.got - 2010.04.14 03:58:27.
