data_PCOD8202643
_publ_section_title
;
Structure prediction by ZEFSAII (Michael W. Deem and Ramdas Pophale) SiO2 
 PCOD8202643
Probable space group: P C C M
;
_chemical_formula_sum "Si O2"
_cell_formula_units_Z 64
_cell_length_a 25.565489
_cell_length_b 14.583271
_cell_length_c 8.588536
_cell_angle_alpha 90.000000
_cell_angle_beta 90.000000
_cell_angle_gamma 90.000000
_cell_volume 3202.050602
_symmetry_space_group_name_H-M "P C C M"
_symmetry_group_IT_number 49
_symmetry_cell_setting 'orthorhombic'
loop_
_space_group_symop_operation_xyz
x,y,z
-x,-y,z
x,-y,1/2-z
-x,y,1/2-z
-x,-y,-z
x,y,-z
-x,y,1/2+z
x,-y,1/2+z
loop_
_atom_site_type_symbol
_atom_site_label
_atom_site_fract_x
_atom_site_fract_y
_atom_site_fract_z
Si Si1 0.150265 0.225849 0.816551
Si Si2 0.358632 0.098578 0.682966
Si Si3 0.055136 0.098897 0.816322
Si Si4 0.294268 0.601584 0.315126
Si Si5 0.187625 0.399909 0.683264
Si Si6 0.598780 0.398564 0.816017
Si Si7 0.238440 0.900894 0.816611
Si Si8 0.553352 0.226734 0.683637
O O1 0.099670 0.169193 0.763064
O O2 0.144356 0.325055 0.732237
O O3 0.202634 0.174348 0.764290
O O4 0.151700 0.241104 0.000000
O O5 0.368397 0.098595 0.500000
O O6 0.298627 0.123221 0.724083
O O7 0.396012 0.172022 0.761778
O O8 0.373666 0.000000 0.750000
O O9 0.000000 0.134298 0.750000
O O10 0.070197 0.000000 0.750000
O O11 0.051008 0.090857 0.000000
O O12 0.291026 0.500000 0.250000
O O13 0.298820 0.604112 0.500000
O O14 0.240400 0.646046 0.256261
O O15 0.345874 0.645863 0.239705
O O16 0.173458 0.500000 0.750000
O O17 0.193516 0.409464 0.500000
O O18 0.589592 0.500000 0.750000
O O19 0.555013 0.330448 0.750438
O O20 0.596684 0.403223 0.000000
O O21 0.223311 0.000000 0.750000
O O22 0.228387 0.900914 0.000000
O O23 0.500000 0.181431 0.750000
O O24 0.551214 0.228515 0.500000
#
# Coordination Sequence:
#
# PCOD8202643 Si02
#       8
#     8   8   8   8   8   8   8   8
#     4  11  23  37  57  88 123 161 205 249 299 355
#     4  10  22  42  65  90 119 152 192 239 293 354
#     4  10  21  37  60  88 122 162 204 253 301 355
#     4  10  18  32  53  79 110 147 189 235 284 341
#     4  11  22  37  56  81 117 159 202 249 299 351
#     4  11  22  39  61  87 118 152 192 237 290 352
#     4  10  21  37  59  88 123 158 194 236 292 354
#     4  12  26  44  64  88 115 149 193 243 297 352
#
# _framework density 19.987192
#
# number of rings (size 3 to 8) (size 9 to 14) (size 15 to 20)
#    0.000    1.375    0.000    8.250    1.750    5.000 
#    0.000    2.500    0.000    0.375    0.000    2.625 
#    0.000    0.000    0.000    0.000    0.000    0.000 
#
# Total GULP energy -793672.062527 kJ/mol
# GULP energy per Si atom -12401.125977 kJ/mol
# Density = 1.994170 g / cm^3
# Si number density = 19.987192 Si / 1000 Ang^3
#
#
#
# Elastic Constant Matrix: (Units=GPa)
#
#
# Indices 1 2 3 4 5 6 
#
# 1 97.4351 62.1075 42.9525 0.0000 0.0000 0.0000
# 2 62.1075 110.9303 42.1558 0.0000 0.0000 0.0000
# 3 42.9525 42.1558 137.2613 0.0000 0.0000 0.0000
# 4 0.0000 0.0000 0.0000 36.3689 0.0000 0.0000
# 5 0.0000 0.0000 0.0000 0.0000 29.5812 0.0000
# 6 0.0000 0.0000 0.0000 0.0000 0.0000 29.7899
#
#
#
# Elastic Compliance Matrix: (Units=1/GPa)
#
#
# Indices 1 2 3 4 5 6 
#
# 1 0.016786 -0.008380 -0.002679 0.000000 0.000000 0.000000
# 2 -0.008380 0.014389 -0.001797 0.000000 0.000000 0.000000
# 3 -0.002679 -0.001797 0.008676 0.000000 0.000000 0.000000
# 4 0.000000 0.000000 0.000000 0.027496 0.000000 0.000000
# 5 0.000000 0.000000 0.000000 0.000000 0.033805 0.000000
# 6 0.000000 0.000000 0.000000 0.000000 0.000000 0.033568
#
#
# Mechanical properties :
#
#
# Convention : Reuss Voigt Hill
#
# Bulk Modulus (GPa) = 70.72721 71.11760 70.92240
# Shear Modulus (GPa) = 30.27637 32.37538 31.32588
#
# Velocity S-wave (km/s) = 3.89625 4.02905 3.96321
# Velocity P-wave (km/s) = 7.46352 7.56988 7.51689
#
# Compressibility (1/GPa) = 0.01413883
#
# Stress axis : x y z
#
# Youngs Moduli (GPa) = 59.57410 69.49615 115.26575
#
# Poissons Ratio (x) = 0.58237 0.30880
# Poissons Ratio (y) = 0.49923 0.20713
# Poissons Ratio (z) = 0.15960 0.12488
#
# Static dielectric constant tensor:
#      x y z
#    x 4.595560 0.000000 0.000000 
#    y 0.000000 3.664470 0.000000 
#    z 0.000000 0.000000 3.752730 
# 
# 
# High freq. dielectric constant tensor:
#      x y z
#    x 1.769840 0.000000 0.000000 
#    y 0.000000 1.778600 0.000000 
#    z 0.000000 0.000000 1.799200 
# 
# From -- ./inp_files/6509.got.cif
#   From: 2010.03.12/outbox.cif.g09.slc.cpg/sg49_4_cif.got.tgz:6509.got - 2010.04.14 03:58:27.
