data_PCOD8202125
_publ_section_title
;
Structure prediction by ZEFSAII (Michael W. Deem and Ramdas Pophale) SiO2 
 PCOD8202125
Probable space group: P N N N
;
_chemical_formula_sum "Si O2"
_cell_formula_units_Z 64
_cell_length_a 23.183737
_cell_length_b 14.204779
_cell_length_c 9.334734
_cell_angle_alpha 90.000000
_cell_angle_beta 90.000000
_cell_angle_gamma 90.000000
_cell_volume 3074.113298
_symmetry_space_group_name_H-M "P N N N"
_symmetry_group_IT_number 48
_space_group.IT_coordinate_system_code '2'
_symmetry_cell_setting 'orthorhombic'
loop_
_space_group_symop_operation_xyz
x,y,z
1/2-x,1/2-y,z
x,1/2-y,1/2-z
1/2-x,y,1/2-z
-x,-y,-z
1/2+x,1/2+y,-z
-x,1/2+y,1/2+z
1/2+x,-y,1/2+z
loop_
_atom_site_type_symbol
_atom_site_label
_atom_site_fract_x
_atom_site_fract_y
_atom_site_fract_z
Si Si1 0.391700 0.570343 0.228858
Si Si2 0.847735 0.042134 0.260727
Si Si3 0.676889 0.330600 0.994081
Si Si4 0.301828 0.617410 0.463737
Si Si5 0.958561 0.345839 0.204860
Si Si6 0.542976 0.922559 0.565058
Si Si7 0.498975 0.599729 0.421539
Si Si8 0.899812 0.646447 0.285759
O O1 0.377035 0.645482 0.105867
O O2 0.338208 0.566636 0.339169
O O3 0.403182 0.471149 0.148984
O O4 0.449560 0.605209 0.302925
O O5 0.806152 0.050133 0.397708
O O6 0.913891 0.068070 0.299691
O O7 0.849187 0.932795 0.211049
O O8 0.825019 0.114067 0.142462
O O9 0.672918 0.218561 0.013640
O O10 0.735883 0.365507 0.916010
O O11 0.925724 0.250000 0.250000
O O12 0.009325 0.361776 0.318630
O O13 0.985717 0.327019 0.048347
O O14 0.567364 0.856384 0.438466
O O15 0.500000 0.000000 0.500000
O O16 0.500000 0.500000 0.500000
O O17 0.558364 0.624280 0.346601
O O18 0.873951 0.750000 0.250000
#
# Coordination Sequence:
#
# PCOD8202125 Si02
#       8
#     8   8   8   8   8   8   8   8
#     4  12  21  37  62  87 129 169 201 247 302 363
#     4  12  22  40  64  88 123 162 208 257 310 368
#     4  11  24  41  62  91 128 159 205 253 311 376
#     4  11  24  41  62  93 124 164 202 253 311 379
#     4  12  23  37  60  90 125 162 206 248 300 369
#     4  12  21  41  59  87 128 166 203 248 297 365
#     4  12  21  40  59  87 128 166 203 249 295 364
#     4  12  25  41  62  90 124 164 209 254 308 366
#
# _framework density 20.819011
#
# number of rings (size 3 to 8) (size 9 to 14) (size 15 to 20)
#    0.000    0.250    7.500    3.000    0.000    3.000 
#    2.250    0.000    0.000    1.500    0.000    0.000 
#    3.750    0.000    0.000    0.000    0.000    0.000 
#
# Total GULP energy -793476.898995 kJ/mol
# GULP energy per Si atom -12398.076547 kJ/mol
# Density = 2.077163 g / cm^3
# Si number density = 20.819011 Si / 1000 Ang^3
#
#
#
# Elastic Constant Matrix: (Units=GPa)
#
#
# Indices 1 2 3 4 5 6 
#
# 1 49.5226 18.9220 5.5238 0.0000 0.0000 0.0000
# 2 18.9220 101.4910 23.2026 0.0000 0.0000 0.0000
# 3 5.5238 23.2026 92.1900 0.0000 0.0000 0.0000
# 4 0.0000 0.0000 0.0000 34.4453 0.0000 0.0000
# 5 0.0000 0.0000 0.0000 0.0000 33.6462 0.0000
# 6 0.0000 0.0000 0.0000 0.0000 0.0000 26.2457
#
#
#
# Elastic Compliance Matrix: (Units=1/GPa)
#
#
# Indices 1 2 3 4 5 6 
#
# 1 0.021749 -0.003986 -0.000300 0.000000 0.000000 0.000000
# 2 -0.003986 0.011185 -0.002576 0.000000 0.000000 0.000000
# 3 -0.000300 -0.002576 0.011514 0.000000 0.000000 0.000000
# 4 0.000000 0.000000 0.000000 0.029032 0.000000 0.000000
# 5 0.000000 0.000000 0.000000 0.000000 0.029721 0.000000
# 6 0.000000 0.000000 0.000000 0.000000 0.000000 0.038101
#
#
# Mechanical properties :
#
#
# Convention : Reuss Voigt Hill
#
# Bulk Modulus (GPa) = 32.54877 37.61114 35.07996
# Shear Modulus (GPa) = 30.25382 31.90446 31.07914
#
# Velocity S-wave (km/s) = 3.81620 3.91892 3.86790
# Velocity P-wave (km/s) = 5.92334 6.21146 6.06911
#
# Compressibility (1/GPa) = 0.03072313
#
# Stress axis : x y z
#
# Youngs Moduli (GPa) = 45.97829 89.40306 86.85426
#
# Poissons Ratio (x) = 0.35640 0.02604
# Poissons Ratio (y) = 0.18329 0.22376
# Poissons Ratio (z) = 0.01379 0.23033
#
# Static dielectric constant tensor:
#      x y z
#    x 3.691970 0.000000 0.000000 
#    y 0.000000 3.607880 0.000000 
#    z 0.000000 0.000000 2.484050 
# 
# 
# High freq. dielectric constant tensor:
#      x y z
#    x 1.790370 0.000000 0.000000 
#    y 0.000000 1.796150 0.000000 
#    z 0.000000 0.000000 1.840800 
# 
# From -- ./inp_files/16047.got.cif
#   From: 2010.06.25/outbox.cif.g09.slc.cpg/sg48_9_cif.got.tgz:16047.got - 2010.06.26 18:06:46.
