data_PCOD8202625
_publ_section_title
;
Structure prediction by ZEFSAII (Michael W. Deem and Ramdas Pophale) SiO2 
 PCOD8202625
Probable space group: P C C M
;
_chemical_formula_sum "Si O2"
_cell_formula_units_Z 64
_cell_length_a 18.417264
_cell_length_b 22.853717
_cell_length_c 8.875039
_cell_angle_alpha 90.000000
_cell_angle_beta 90.000000
_cell_angle_gamma 90.000000
_cell_volume 3735.530002
_symmetry_space_group_name_H-M "P C C M"
_symmetry_group_IT_number 49
_symmetry_cell_setting 'orthorhombic'
loop_
_space_group_symop_operation_xyz
x,y,z
-x,-y,z
x,-y,1/2-z
-x,y,1/2-z
-x,-y,-z
x,y,-z
-x,y,1/2+z
x,-y,1/2+z
loop_
_atom_site_type_symbol
_atom_site_label
_atom_site_fract_x
_atom_site_fract_y
_atom_site_fract_z
Si Si1 0.777953 0.443175 0.822745
Si Si2 0.190100 0.157513 0.334797
Si Si3 0.076582 0.063225 0.318043
Si Si4 0.066720 0.748077 0.166296
Si Si5 0.621356 0.440908 0.678680
Si Si6 0.840040 0.336511 0.670820
Si Si7 0.712798 0.757149 0.829688
Si Si8 0.425817 0.687025 0.679163
O O1 0.816276 0.500000 0.750000
O O2 0.702467 0.434436 0.737446
O O3 0.828687 0.388739 0.787367
O O4 0.765348 0.450272 0.000000
O O5 0.218217 0.139206 0.500000
O O6 0.144808 0.103285 0.263250
O O7 0.133831 0.209602 0.347914
O O8 0.260626 0.181628 0.245698
O O9 0.070609 0.062397 0.500000
O O10 0.000000 0.086534 0.250000
O O11 0.093204 0.000000 0.250000
O O12 0.086349 0.693464 0.272855
O O13 0.000000 0.780369 0.250000
O O14 0.043637 0.727006 0.000000
O O15 0.585033 0.500000 0.750000
O O16 0.621658 0.447933 0.500000
O O17 0.581785 0.381076 0.729486
O O18 0.848832 0.359139 0.500000
O O19 0.773590 0.291970 0.682764
O O20 0.639583 0.728469 0.758485
O O21 0.696760 0.774727 0.000000
O O22 0.500000 0.711599 0.750000
O O23 0.427819 0.690715 0.500000
#
# Coordination Sequence:
#
# PCOD8202625 Si02
#       8
#     8   8   8   8   8   8   8   8
#     4  11  20  30  47  69  89 113 147 187 232 283
#     4   9  19  32  48  71  98 128 167 207 238 275
#     4  10  19  31  47  71 105 142 178 210 239 279
#     4  10  19  31  46  69  95 122 156 192 235 280
#     4  10  19  33  48  66  92 119 155 195 237 290
#     4  10  18  32  50  67  90 117 147 191 237 279
#     4   9  18  33  50  68  93 122 158 199 241 286
#     4  10  21  35  49  68  95 126 159 198 243 297
#
# _framework density 17.132777000000001
#
# number of rings (size 3 to 8) (size 9 to 14) (size 15 to 20)
#    0.000    2.125    1.250    4.125    0.000    3.750 
#    0.000    1.250    0.000    0.375    0.000    2.625 
#    0.000    0.500    0.000    5.500    0.000    4.000 
#
# Total GULP energy -793059.641997 kJ/mol
# GULP energy per Si atom -12391.556906 kJ/mol
# Density = 1.709378 g / cm^3
# Si number density = 17.132777 Si / 1000 Ang^3
#
#
#
# Elastic Constant Matrix: (Units=GPa)
#
#
# Indices 1 2 3 4 5 6 
#
# 1 69.0627 39.0173 32.1520 0.0000 0.0000 0.0000
# 2 39.0173 80.9180 31.3412 0.0000 0.0000 0.0000
# 3 32.1520 31.3412 77.8026 0.0000 0.0000 0.0000
# 4 0.0000 0.0000 0.0000 23.5704 0.0000 0.0000
# 5 0.0000 0.0000 0.0000 0.0000 24.6069 0.0000
# 6 0.0000 0.0000 0.0000 0.0000 0.0000 23.9673
#
#
#
# Elastic Compliance Matrix: (Units=1/GPa)
#
#
# Indices 1 2 3 4 5 6 
#
# 1 0.021821 -0.008328 -0.005663 0.000000 0.000000 0.000000
# 2 -0.008328 0.017822 -0.003737 0.000000 0.000000 0.000000
# 3 -0.005663 -0.003737 0.016699 0.000000 0.000000 0.000000
# 4 0.000000 0.000000 0.000000 0.042426 0.000000 0.000000
# 5 0.000000 0.000000 0.000000 0.000000 0.040639 0.000000
# 6 0.000000 0.000000 0.000000 0.000000 0.000000 0.041723
#
#
# Mechanical properties :
#
#
# Convention : Reuss Voigt Hill
#
# Bulk Modulus (GPa) = 47.88256 48.08937 47.98596
# Shear Modulus (GPa) = 22.36656 22.78045 22.57351
#
# Velocity S-wave (km/s) = 3.61707 3.65038 3.63376
# Velocity P-wave (km/s) = 6.74187 6.77470 6.75831
#
# Compressibility (1/GPa) = 0.02088443
#
# Stress axis : x y z
#
# Youngs Moduli (GPa) = 45.82737 56.11178 59.88524
#
# Poissons Ratio (x) = 0.46733 0.33911
# Poissons Ratio (y) = 0.38167 0.22381
# Poissons Ratio (z) = 0.25950 0.20971
#
# Static dielectric constant tensor:
#      x y z
#    x 3.107380 0.000000 0.000000 
#    y 0.000000 3.253190 0.000000 
#    z 0.000000 0.000000 3.389670 
# 
# 
# High freq. dielectric constant tensor:
#      x y z
#    x 1.634670 0.000000 0.000000 
#    y 0.000000 1.639650 0.000000 
#    z 0.000000 0.000000 1.670170 
# 
# From -- ./inp_files/5389.got.cif
#   From: 2010.03.12/outbox.cif.g09.slc.cpg/sg49_3_cif.got.tgz:5389.got - 2010.04.14 03:58:27.
