data_PCOD8202080
_publ_section_title
;
Structure prediction by ZEFSAII (Michael W. Deem and Ramdas Pophale) SiO2 
 PCOD8202080
Probable space group: P N N N
;
_chemical_formula_sum "Si O2"
_cell_formula_units_Z 40
_cell_length_a 11.188519
_cell_length_b 15.035944
_cell_length_c 9.583474
_cell_angle_alpha 90.000000
_cell_angle_beta 90.000000
_cell_angle_gamma 90.000000
_cell_volume 1612.227305
_symmetry_space_group_name_H-M "P N N N"
_symmetry_group_IT_number 48
_space_group.IT_coordinate_system_code '2'
_symmetry_cell_setting 'orthorhombic'
loop_
_space_group_symop_operation_xyz
x,y,z
1/2-x,1/2-y,z
x,1/2-y,1/2-z
1/2-x,y,1/2-z
-x,-y,-z
1/2+x,1/2+y,-z
-x,1/2+y,1/2+z
1/2+x,-y,1/2+z
loop_
_atom_site_type_symbol
_atom_site_label
_atom_site_fract_x
_atom_site_fract_y
_atom_site_fract_z
Si Si1 0.880550 0.069365 0.256060
Si Si2 0.481477 0.110577 0.506647
Si Si3 0.279061 0.107167 0.896380
Si Si4 0.005867 0.184694 0.464622
Si Si5 0.880621 0.354631 0.769734
O O1 0.750000 0.117759 0.250000
O O2 0.943013 0.047781 0.102859
O O3 0.976879 0.137275 0.319371
O O4 0.852228 0.981552 0.348587
O O5 0.340238 0.089117 0.512807
O O6 0.514777 0.210394 0.456692
O O7 0.531373 0.096545 0.663025
O O8 0.250000 0.157773 0.750000
O O9 0.356755 0.170692 0.993408
O O10 0.922904 0.130061 0.572851
O O11 0.881694 0.250000 0.750000
O O12 0.750000 0.396352 0.750000
#
# Coordination Sequence:
#
# PCOD8202080 Si02
#       5
#     8   8   8   8   8
#     4  11  26  44  67 100 145 186 228 296 370 432
#     4  11  23  42  72 100 134 188 240 291 352 430
#     4  11  24  44  69  99 144 185 233 290 368 429
#     4  11  22  42  69 102 136 180 242 298 350 423
#     4   9  18  34  62  98 131 171 228 290 345 405
#
# _framework density 24.810396000000001
#
# number of rings (size 3 to 8) (size 9 to 14) (size 15 to 20)
#    0.000    1.400    2.000    3.000    0.000    8.000 
#    3.600    2.000    0.000    0.000    0.000    0.000 
#    0.000    0.000    0.000    0.000    0.000    0.000 
#
# Total GULP energy -495663.879621 kJ/mol
# GULP energy per Si atom -12391.596991 kJ/mol
# Density = 2.475393 g / cm^3
# Si number density = 24.810396 Si / 1000 Ang^3
#
#
#
# Elastic Constant Matrix: (Units=GPa)
#
#
# Indices 1 2 3 4 5 6 
#
# 1 145.6102 0.9368 21.9301 0.0000 0.0000 0.0000
# 2 0.9368 59.4833 -0.7382 0.0000 0.0000 0.0000
# 3 21.9301 -0.7382 81.6719 0.0000 0.0000 0.0000
# 4 0.0000 0.0000 0.0000 18.5559 0.0000 0.0000
# 5 0.0000 0.0000 0.0000 0.0000 57.7660 0.0000
# 6 0.0000 0.0000 0.0000 0.0000 0.0000 19.2054
#
#
#
# Elastic Compliance Matrix: (Units=1/GPa)
#
#
# Indices 1 2 3 4 5 6 
#
# 1 0.007158 -0.000137 -0.001923 0.000000 0.000000 0.000000
# 2 -0.000137 0.016816 0.000189 0.000000 0.000000 0.000000
# 3 -0.001923 0.000189 0.012762 0.000000 0.000000 0.000000
# 4 0.000000 0.000000 0.000000 0.053891 0.000000 0.000000
# 5 0.000000 0.000000 0.000000 0.000000 0.017311 0.000000
# 6 0.000000 0.000000 0.000000 0.000000 0.000000 0.052069
#
#
# Mechanical properties :
#
#
# Convention : Reuss Voigt Hill
#
# Bulk Modulus (GPa) = 30.30862 36.78030 33.54446
# Shear Modulus (GPa) = 28.61261 36.74789 32.68025
#
# Velocity S-wave (km/s) = 3.39964 3.85275 3.63326
# Velocity P-wave (km/s) = 5.25858 5.88628 5.58126
#
# Compressibility (1/GPa) = 0.03299391
#
# Stress axis : x y z
#
# Youngs Moduli (GPa) = 139.69997 59.46736 78.35600
#
# Poissons Ratio (x) = 0.00812 0.15070
# Poissons Ratio (y) = 0.01908 -0.01478
# Poissons Ratio (z) = 0.26869 -0.01122
#
# Static dielectric constant tensor:
#      x y z
#    x 4.703500 0.000000 0.000000 
#    y 0.000000 4.231570 0.000000 
#    z 0.000000 0.000000 4.479410 
# 
# 
# High freq. dielectric constant tensor:
#      x y z
#    x 1.997090 0.000000 0.000000 
#    y 0.000000 1.985570 0.000000 
#    z 0.000000 0.000000 1.980630 
# 
# From -- ./inp_files/10683.got.cif
#   From: 2010.06.25/outbox.cif.g09.slc.cpg/sg48_6_cif.got.tgz:10683.got - 2010.06.26 18:06:46.
