data_PCOD8202904
_publ_section_title
;
Structure prediction by ZEFSAII (Michael W. Deem and Ramdas Pophale) SiO2 
 PCOD8202904
Probable space group: P C C M
;
_chemical_formula_sum "Si O2"
_cell_formula_units_Z 56
_cell_length_a 30.927042
_cell_length_b 5.123683
_cell_length_c 16.687856
_cell_angle_alpha 90.000000
_cell_angle_beta 90.000000
_cell_angle_gamma 90.000000
_cell_volume 2644.363658
_symmetry_space_group_name_H-M "P C C M"
_symmetry_group_IT_number 49
_symmetry_cell_setting 'orthorhombic'
loop_
_space_group_symop_operation_xyz
x,y,z
-x,-y,z
x,-y,1/2-z
-x,y,1/2-z
-x,-y,-z
x,y,-z
-x,y,1/2+z
x,-y,1/2+z
loop_
_atom_site_type_symbol
_atom_site_label
_atom_site_fract_x
_atom_site_fract_y
_atom_site_fract_z
Si Si1 0.253699 0.451469 0.091807
Si Si2 0.402605 0.005625 0.656386
Si Si3 0.162656 0.580043 0.659626
Si Si4 0.451023 0.501655 0.345840
Si Si5 0.691219 0.059753 0.091391
Si Si6 0.025504 0.749560 0.095124
Si Si7 0.880388 0.903430 0.407275
O O1 0.213335 0.369253 0.146945
O O2 0.276635 0.714879 0.124394
O O3 0.287288 0.219605 0.099556
O O4 0.238174 0.487645 0.000000
O O5 0.428100 0.247240 0.618041
O O6 0.352043 0.043563 0.642177
O O7 0.411009 0.000000 0.750000
O O8 0.423407 0.744216 0.619132
O O9 0.152151 0.500000 0.750000
O O10 0.152648 0.334779 0.602178
O O11 0.134898 0.838569 0.639838
O O12 0.500000 0.500000 0.377930
O O13 0.450428 0.500000 0.250000
O O14 0.679455 0.127731 0.000000
O O15 0.074282 0.789176 0.126935
O O16 0.000000 0.500000 0.131729
O O17 0.026640 0.722251 0.000000
O O18 0.000000 0.000000 0.124775
O O19 0.884295 0.985711 0.500000
#
# Coordination Sequence:
#
# PCOD8202904 Si02
#       7
#     8   8   8   8   8   8   8
#     4  10  21  38  58  79 106 147 194 232 279 347
#     4  10  19  31  51  76 101 133 173 218 269 325
#     4  12  25  40  60  90 125 158 197 252 308 353
#     4   9  17  30  49  74 102 133 172 216 261 316
#     4  10  21  36  55  78 106 140 179 228 280 335
#     4   9  17  31  55  88 118 146 193 249 285 321
#     4  11  22  39  64  90 121 163 205 246 298 362
#
# _framework density 21.177116999999999
#
# number of rings (size 3 to 8) (size 9 to 14) (size 15 to 20)
#    0.000    1.857    0.000    4.714    0.000    6.286 
#    0.000    0.000    0.000    9.000    0.000    0.000 
#    0.000    0.000    0.000    0.000    0.000    0.571 
#
# Total GULP energy -694384.751249 kJ/mol
# GULP energy per Si atom -12399.727701 kJ/mol
# Density = 2.112892 g / cm^3
# Si number density = 21.177117 Si / 1000 Ang^3
#
#
#
# Elastic Constant Matrix: (Units=GPa)
#
#
# Indices 1 2 3 4 5 6 
#
# 1 135.5605 62.7280 27.9370 0.0000 0.0000 0.0000
# 2 62.7280 170.3640 25.9872 0.0000 0.0000 0.0000
# 3 27.9370 25.9872 29.1050 0.0000 0.0000 0.0000
# 4 0.0000 0.0000 0.0000 15.9101 0.0000 0.0000
# 5 0.0000 0.0000 0.0000 0.0000 21.4873 0.0000
# 6 0.0000 0.0000 0.0000 0.0000 0.0000 43.7205
#
#
#
# Elastic Compliance Matrix: (Units=1/GPa)
#
#
# Indices 1 2 3 4 5 6 
#
# 1 0.010097 -0.002592 -0.007377 0.000000 0.000000 0.000000
# 2 -0.002592 0.007461 -0.004173 0.000000 0.000000 0.000000
# 3 -0.007377 -0.004173 0.045165 0.000000 0.000000 0.000000
# 4 0.000000 0.000000 0.000000 0.062853 0.000000 0.000000
# 5 0.000000 0.000000 0.000000 0.000000 0.046539 0.000000
# 6 0.000000 0.000000 0.000000 0.000000 0.000000 0.022873
#
#
# Mechanical properties :
#
#
# Convention : Reuss Voigt Hill
#
# Bulk Modulus (GPa) = 29.03775 63.14821 46.09298
# Shear Modulus (GPa) = 21.29911 30.78208 26.04060
#
# Velocity S-wave (km/s) = 3.17481 3.81669 3.51045
# Velocity P-wave (km/s) = 5.21353 7.02187 6.18415
#
# Compressibility (1/GPa) = 0.03443793
#
# Stress axis : x y z
#
# Youngs Moduli (GPa) = 99.04372 134.03259 22.14088
#
# Poissons Ratio (x) = 0.34745 0.16333
# Poissons Ratio (y) = 0.25675 0.09240
# Poissons Ratio (z) = 0.73062 0.55937
#
# Static dielectric constant tensor:
#      x y z
#    x 3.906980 0.000000 0.000000 
#    y 0.000000 4.134520 0.000000 
#    z 0.000000 0.000000 3.364010 
# 
# 
# High freq. dielectric constant tensor:
#      x y z
#    x 1.843620 0.000000 0.000000 
#    y 0.000000 1.851570 0.000000 
#    z 0.000000 0.000000 1.783520 
# 
# From -- ./inp_files/14631.got.cif
#   From: 2010.03.12/outbox.cif.g09.slc.cpg/sg49_8_cif.got.tgz:14631.got - 2010.04.14 03:58:27.
