data_PCOD8202272
_publ_section_title
;
Structure prediction by ZEFSAII (Michael W. Deem and Ramdas Pophale) SiO2 
 PCOD8202272
Probable space group: P C C M
;
_chemical_formula_sum "Si O2"
_cell_formula_units_Z 64
_cell_length_a 18.446419
_cell_length_b 26.386275
_cell_length_c 8.794012
_cell_angle_alpha 90.000000
_cell_angle_beta 90.000000
_cell_angle_gamma 90.000000
_cell_volume 4280.329551
_symmetry_space_group_name_H-M "P C C M"
_symmetry_group_IT_number 49
_symmetry_cell_setting 'orthorhombic'
loop_
_space_group_symop_operation_xyz
x,y,z
-x,-y,z
x,-y,1/2-z
-x,y,1/2-z
-x,-y,-z
x,y,-z
-x,y,1/2+z
x,-y,1/2+z
loop_
_atom_site_type_symbol
_atom_site_label
_atom_site_fract_x
_atom_site_fract_y
_atom_site_fract_z
Si Si1 0.780809 0.193398 0.671615
Si Si2 0.152401 0.052835 0.679468
Si Si3 0.578552 0.348440 0.179209
Si Si4 0.580312 0.449833 0.681590
Si Si5 0.705585 0.105112 0.826071
Si Si6 0.422855 0.848951 0.324207
Si Si7 0.073909 0.852167 0.325602
Si Si8 0.347441 0.742830 0.327199
O O1 0.761922 0.172890 0.500000
O O2 0.749452 0.156775 0.799394
O O3 0.867959 0.194254 0.691622
O O4 0.739701 0.247429 0.690428
O O5 0.140117 0.052710 0.500000
O O6 0.238020 0.060609 0.719652
O O7 0.103006 0.096798 0.748985
O O8 0.126575 0.000000 0.750000
O O9 0.500000 0.336951 0.250000
O O10 0.616236 0.397877 0.257187
O O11 0.630408 0.301058 0.211550
O O12 0.570581 0.357200 0.000000
O O13 0.620124 0.500000 0.750000
O O14 0.500000 0.448800 0.750000
O O15 0.579872 0.451783 0.500000
O O16 0.631544 0.106136 0.729236
O O17 0.682339 0.101099 0.000000
O O18 0.500000 0.856532 0.250000
O O19 0.434633 0.855189 0.500000
O O20 0.390076 0.794058 0.282107
O O21 0.058753 0.864837 0.500000
O O22 0.000000 0.833159 0.250000
O O23 0.366646 0.726688 0.500000
#
# Coordination Sequence:
#
# PCOD8202272 Si02
#       8
#     8   8   8   8   8   8   8   8
#     4   8  16  30  46  61  81 109 137 162 194 236
#     4  10  20  33  49  68  87 109 134 162 195 235
#     4  11  20  28  38  55  78 106 139 177 218 254
#     4  10  17  27  40  53  71  98 134 176 217 257
#     4   9  17  29  45  63  82 103 131 162 195 236
#     4  10  19  29  43  61  82 106 133 165 204 245
#     4  10  19  32  49  69  91 113 136 164 194 230
#     4   9  17  29  42  58  79 105 135 167 203 243
#
# _framework density 14.952120000000001
#
# number of rings (size 3 to 8) (size 9 to 14) (size 15 to 20)
#    0.000    2.375    0.000    6.000    0.000    5.750 
#    0.000    1.250    0.000    0.375    0.000    2.625 
#    0.000    0.000    0.000    0.000    0.000    0.625 
#
# Total GULP energy -793075.330765 kJ/mol
# GULP energy per Si atom -12391.802043 kJ/mol
# Density = 1.491809 g / cm^3
# Si number density = 14.952120 Si / 1000 Ang^3
#
#
#
# Elastic Constant Matrix: (Units=GPa)
#
#
# Indices 1 2 3 4 5 6 
#
# 1 92.4429 26.6839 34.8300 0.0000 0.0000 0.0000
# 2 26.6839 48.1219 25.2157 0.0000 0.0000 0.0000
# 3 34.8300 25.2157 87.2255 0.0000 0.0000 0.0000
# 4 0.0000 0.0000 0.0000 20.5830 0.0000 0.0000
# 5 0.0000 0.0000 0.0000 0.0000 21.8299 0.0000
# 6 0.0000 0.0000 0.0000 0.0000 0.0000 9.2969
#
#
#
# Elastic Compliance Matrix: (Units=1/GPa)
#
#
# Indices 1 2 3 4 5 6 
#
# 1 0.013933 -0.005669 -0.003925 0.000000 0.000000 0.000000
# 2 -0.005669 0.026797 -0.005483 0.000000 0.000000 0.000000
# 3 -0.003925 -0.005483 0.014617 0.000000 0.000000 0.000000
# 4 0.000000 0.000000 0.000000 0.048584 0.000000 0.000000
# 5 0.000000 0.000000 0.000000 0.000000 0.045809 0.000000
# 6 0.000000 0.000000 0.000000 0.000000 0.000000 0.107563
#
#
# Mechanical properties :
#
#
# Convention : Reuss Voigt Hill
#
# Bulk Modulus (GPa) = 39.69343 44.58328 42.13835
# Shear Modulus (GPa) = 16.90028 19.74600 18.32314
#
# Velocity S-wave (km/s) = 3.36563 3.63797 3.50445
# Velocity P-wave (km/s) = 6.45817 6.89409 6.67969
#
# Compressibility (1/GPa) = 0.02519309
#
# Stress axis : x y z
#
# Youngs Moduli (GPa) = 71.77412 37.31726 68.41505
#
# Poissons Ratio (x) = 0.21156 0.26850
# Poissons Ratio (y) = 0.40691 0.37511
# Poissons Ratio (z) = 0.28168 0.20461
#
# Static dielectric constant tensor:
#      x y z
#    x 2.867390 0.000000 0.000000 
#    y 0.000000 3.052910 0.000000 
#    z 0.000000 0.000000 2.998250 
# 
# 
# High freq. dielectric constant tensor:
#      x y z
#    x 1.545020 0.000000 0.000000 
#    y 0.000000 1.541110 0.000000 
#    z 0.000000 0.000000 1.591220 
# 
# From -- ./inp_files/6140.got.cif
#   From: 2010.03.12/outbox.cif.g09.slc.cpg/sg49_4_cif.got.tgz:6140.got - 2010.04.14 03:58:27.
