data_PCOD8202210
_publ_section_title
;
Structure prediction by ZEFSAII (Michael W. Deem and Ramdas Pophale) SiO2 
 PCOD8202210
Probable space group: P C C M
;
_chemical_formula_sum "Si O2"
_cell_formula_units_Z 56
_cell_length_a 29.478171
_cell_length_b 13.548099
_cell_length_c 8.699293
_cell_angle_alpha 90.000000
_cell_angle_beta 90.000000
_cell_angle_gamma 90.000000
_cell_volume 3474.264301
_symmetry_space_group_name_H-M "P C C M"
_symmetry_group_IT_number 49
_symmetry_cell_setting 'orthorhombic'
loop_
_space_group_symop_operation_xyz
x,y,z
-x,-y,z
x,-y,1/2-z
-x,y,1/2-z
-x,-y,-z
x,y,-z
-x,y,1/2+z
x,-y,1/2+z
loop_
_atom_site_type_symbol
_atom_site_label
_atom_site_fract_x
_atom_site_fract_y
_atom_site_fract_z
Si Si1 0.320833 0.699092 0.321994
Si Si2 0.367138 0.100985 0.180495
Si Si3 0.226549 0.392831 0.819332
Si Si4 0.864283 0.390405 0.817353
Si Si5 0.548583 0.799382 0.317999
Si Si6 0.954690 0.610034 0.817007
Si Si7 0.596220 0.398064 0.820034
O O1 0.331295 0.679819 0.500000
O O2 0.332086 0.811766 0.275968
O O3 0.268559 0.678726 0.282421
O O4 0.352071 0.623180 0.228609
O O5 0.416109 0.120809 0.254801
O O6 0.347105 0.000000 0.250000
O O7 0.373193 0.090330 0.000000
O O8 0.237088 0.500000 0.750000
O O9 0.182656 0.340687 0.739512
O O10 0.217540 0.404256 0.000000
O O11 0.861787 0.500000 0.750000
O O12 0.908850 0.336397 0.745111
O O13 0.868100 0.390566 0.000000
O O14 0.500000 0.825305 0.250000
O O15 0.547219 0.806455 0.500000
O O16 0.563831 0.690343 0.261825
O O17 0.953794 0.500000 0.750000
O O18 0.000000 0.663450 0.750000
O O19 0.955866 0.609058 0.000000
O O20 0.578152 0.500000 0.750000
O O21 0.594296 0.408411 0.000000
#
# Coordination Sequence:
#
# PCOD8202210 Si02
#       7
#     8   8   8   8   8   8   8
#     4   9  19  33  49  67  89 114 143 176 213 254
#     4  10  20  36  55  74  93 114 139 173 212 255
#     4  10  18  28  41  60  84 112 142 175 212 251
#     4  10  17  25  35  50  72 101 136 175 215 254
#     4  10  21  36  52  72  94 118 145 176 209 248
#     4  10  16  23  33  46  65  93 131 176 219 257
#     4  10  20  32  48  68  92 119 148 177 209 246
#
# _framework density 16.118521000000001
#
# number of rings (size 3 to 8) (size 9 to 14) (size 15 to 20)
#    0.000    2.143    0.000    6.857    0.000    5.143 
#    0.000    2.857    0.000    0.000    0.000    0.000 
#    0.000    0.000    0.000    0.000    0.000    0.714 
#
# Total GULP energy -694275.207029 kJ/mol
# GULP energy per Si atom -12397.771554 kJ/mol
# Density = 1.608183 g / cm^3
# Si number density = 16.118521 Si / 1000 Ang^3
#
#
#
# Elastic Constant Matrix: (Units=GPa)
#
#
# Indices 1 2 3 4 5 6 
#
# 1 124.9765 24.1463 42.6030 0.0000 0.0000 0.0000
# 2 24.1463 58.7360 19.5111 0.0000 0.0000 0.0000
# 3 42.6030 19.5111 98.2363 0.0000 0.0000 0.0000
# 4 0.0000 0.0000 0.0000 19.2968 0.0000 0.0000
# 5 0.0000 0.0000 0.0000 0.0000 24.5322 0.0000
# 6 0.0000 0.0000 0.0000 0.0000 0.0000 8.6223
#
#
#
# Elastic Compliance Matrix: (Units=1/GPa)
#
#
# Indices 1 2 3 4 5 6 
#
# 1 0.009802 -0.002803 -0.003694 0.000000 0.000000 0.000000
# 2 -0.002803 0.019029 -0.002564 0.000000 0.000000 0.000000
# 3 -0.003694 -0.002564 0.012291 0.000000 0.000000 0.000000
# 4 0.000000 0.000000 0.000000 0.051822 0.000000 0.000000
# 5 0.000000 0.000000 0.000000 0.000000 0.040763 0.000000
# 6 0.000000 0.000000 0.000000 0.000000 0.000000 0.115978
#
#
# Mechanical properties :
#
#
# Convention : Reuss Voigt Hill
#
# Bulk Modulus (GPa) = 43.47736 50.49661 46.98699
# Shear Modulus (GPa) = 18.15052 23.53618 20.84335
#
# Velocity S-wave (km/s) = 3.35933 3.82539 3.59991
# Velocity P-wave (km/s) = 6.48683 7.13497 6.81861
#
# Compressibility (1/GPa) = 0.02300048
#
# Stress axis : x y z
#
# Youngs Moduli (GPa) = 102.01621 52.55089 81.36033
#
# Poissons Ratio (x) = 0.14727 0.30058
# Poissons Ratio (y) = 0.28590 0.20861
# Poissons Ratio (z) = 0.37689 0.13474
#
# Static dielectric constant tensor:
#      x y z
#    x 3.858200 0.000000 0.000000 
#    y 0.000000 2.757320 0.000000 
#    z 0.000000 0.000000 3.152150 
# 
# 
# High freq. dielectric constant tensor:
#      x y z
#    x 1.628770 0.000000 0.000000 
#    y 0.000000 1.560200 0.000000 
#    z 0.000000 0.000000 1.639610 
# 
# From -- ./inp_files/7024.got.cif
#   From: 2010.03.12/outbox.cif.g09.slc.cpg/sg49_4_cif.got.tgz:7024.got - 2010.04.14 03:58:27.
