data_PCOD8202176
_publ_section_title
;
Structure prediction by ZEFSAII (Michael W. Deem and Ramdas Pophale) SiO2 
 PCOD8202176
Probable space group: P C C M
;
_chemical_formula_sum "Si O2"
_cell_formula_units_Z 28
_cell_length_a 25.526896
_cell_length_b 12.412508
_cell_length_c 5.366926
_cell_angle_alpha 90.000000
_cell_angle_beta 90.000000
_cell_angle_gamma 90.000000
_cell_volume 1700.525535
_symmetry_space_group_name_H-M "P C C M"
_symmetry_group_IT_number 49
_symmetry_cell_setting 'orthorhombic'
loop_
_space_group_symop_operation_xyz
x,y,z
-x,-y,z
x,-y,1/2-z
-x,y,1/2-z
-x,-y,-z
x,y,-z
-x,y,1/2+z
x,-y,1/2+z
loop_
_atom_site_type_symbol
_atom_site_label
_atom_site_fract_x
_atom_site_fract_y
_atom_site_fract_z
Si Si1 0.856800 0.378673 0.500000
Si Si2 0.966818 0.290594 0.500000
Si Si3 0.521727 0.379105 0.500000
Si Si4 0.645791 0.378771 0.500000
Si Si5 0.813357 0.619743 0.500000
Si Si6 0.310709 0.619707 0.000000
Si Si7 0.058660 0.044895 0.000000
O O1 0.919735 0.376165 0.500000
O O2 0.837589 0.500899 0.500000
O O3 0.834029 0.320423 0.749600
O O4 0.940885 0.173155 0.500000
O O5 0.000000 0.308949 0.250000
O O6 0.500000 0.500000 0.500000
O O7 0.500000 0.320389 0.250000
O O8 0.583760 0.376891 0.500000
O O9 0.668227 0.320547 0.749741
O O10 0.665949 0.500451 0.500000
O O11 0.751328 0.614522 0.500000
O O12 0.087267 0.000000 0.750000
O O13 0.000000 0.000000 0.000000
#
# Coordination Sequence:
#
# PCOD8202176 Si02
#       7
#     4   4   4   4   4   4   4
#     4  10  20  32  46  59  76 101 124 152 181 235
#     4  12  21  32  47  67  84  98 125 148 174 212
#     4  10  16  22  28  39  66  91 100 130 184 238
#     4  10  16  22  33  53  60  77 121 150 180 222
#     4  10  19  35  44  54  76 102 128 155 207 222
#     4  10  16  25  41  50  60  82 117 165 180 214
#     4  10  16  30  48  66  83 102 116 141 173 210
#
# _framework density 16.465499000000001
#
# number of rings (size 3 to 8) (size 9 to 14) (size 15 to 20)
#    0.000    1.714    2.857    9.429    0.000    0.000 
#    0.000    8.571    0.000    0.000    0.000    0.000 
#    0.000    0.000    0.000    0.000    0.000    0.000 
#
# Total GULP energy -346910.313313 kJ/mol
# GULP energy per Si atom -12389.654047 kJ/mol
# Density = 1.642802 g / cm^3
# Si number density = 16.465499 Si / 1000 Ang^3
#
#
#
# Elastic Constant Matrix: (Units=GPa)
#
#
# Indices 1 2 3 4 5 6 
#
# 1 149.4573 18.8014 77.3545 0.0000 0.0000 0.0000
# 2 18.8014 7.7108 8.2908 0.0000 0.0000 0.0000
# 3 77.3545 8.2908 228.4690 0.0000 0.0000 0.0000
# 4 0.0000 0.0000 0.0000 5.7320 0.0000 0.0000
# 5 0.0000 0.0000 0.0000 0.0000 27.2749 0.0000
# 6 0.0000 0.0000 0.0000 0.0000 0.0000 1.1277
#
#
#
# Elastic Compliance Matrix: (Units=1/GPa)
#
#
# Indices 1 2 3 4 5 6 
#
# 1 0.011268 -0.024323 -0.002933 0.000000 0.000000 0.000000
# 2 -0.024323 0.187456 0.001433 0.000000 0.000000 0.000000
# 3 -0.002933 0.001433 0.005318 0.000000 0.000000 0.000000
# 4 0.000000 0.000000 0.000000 0.174460 0.000000 0.000000
# 5 0.000000 0.000000 0.000000 0.000000 0.036664 0.000000
# 6 0.000000 0.000000 0.000000 0.000000 0.000000 0.886728
#
#
# Mechanical properties :
#
#
# Convention : Reuss Voigt Hill
#
# Bulk Modulus (GPa) = 6.56185 66.05893 36.31039
# Shear Modulus (GPa) = 3.56039 25.57294 14.56667
#
# Velocity S-wave (km/s) = 1.47208 3.94524 2.97758
# Velocity P-wave (km/s) = 2.62359 7.80769 5.82422
#
# Compressibility (1/GPa) = 0.15239614
#
# Stress axis : x y z
#
# Youngs Moduli (GPa) = 88.74308 5.33460 188.04470
#
# Poissons Ratio (x) = 0.12975 0.55146
# Poissons Ratio (y) = 2.15850 -0.26942
# Poissons Ratio (z) = 0.26025 -0.00764
#
# Static dielectric constant tensor:
#      x y z
#    x 3.175070 0.000000 0.000000 
#    y 0.000000 2.419140 0.000000 
#    z 0.000000 0.000000 -99.238350 
# 
# 
# High freq. dielectric constant tensor:
#      x y z
#    x 1.628650 0.000000 0.000000 
#    y 0.000000 1.522180 0.000000 
#    z 0.000000 0.000000 1.689680 
# 
# From -- ./inp_files/653.got.cif
#   From: 2010.03.12/outbox.cif.g09.slc.cpg/sg49_1_cif.got.tgz:653.got - 2010.04.14 03:58:27.
