data_PCOD8202169
_publ_section_title
;
Structure prediction by ZEFSAII (Michael W. Deem and Ramdas Pophale) SiO2 
 PCOD8202169
Probable space group: P N N N
;
_chemical_formula_sum "Si O2"
_cell_formula_units_Z 34
_cell_length_a 17.838935
_cell_length_b 5.503213
_cell_length_c 13.657811
_cell_angle_alpha 90.000000
_cell_angle_beta 90.000000
_cell_angle_gamma 90.000000
_cell_volume 1340.807233
_symmetry_space_group_name_H-M "P N N N"
_symmetry_group_IT_number 48
_space_group.IT_coordinate_system_code '2'
_symmetry_cell_setting 'orthorhombic'
loop_
_space_group_symop_operation_xyz
x,y,z
1/2-x,1/2-y,z
x,1/2-y,1/2-z
1/2-x,y,1/2-z
-x,-y,-z
1/2+x,1/2+y,-z
-x,1/2+y,1/2+z
1/2+x,-y,1/2+z
loop_
_atom_site_type_symbol
_atom_site_label
_atom_site_fract_x
_atom_site_fract_y
_atom_site_fract_z
Si Si1 0.250000 0.250000 0.750000
Si Si2 0.472490 0.250000 0.750000
Si Si3 0.332418 0.287848 0.072163
Si Si4 0.825463 0.394234 0.393219
Si Si5 0.060943 0.250000 0.250000
Si Si6 0.426549 0.017104 0.931531
O O1 0.188034 0.394463 0.686297
O O2 0.515831 0.503459 0.728971
O O3 0.429952 0.249029 0.644425
O O4 0.250000 0.250000 0.116295
O O5 0.389671 0.325921 0.158743
O O6 0.334514 0.524794 0.005183
O O7 0.356461 0.062341 0.003776
O O8 0.750000 0.250000 0.380133
O O9 0.900846 0.228053 0.372568
O O10 0.500000 0.000000 0.000000
#
# Coordination Sequence:
#
# PCOD8202169 Si02
#       6
#     2   4   8   8   4   8
#     4  12  26  50  76 128 182 214 288 360 458 516
#     4  12  30  53  82 124 165 232 278 360 437 520
#     4  12  26  51  80 121 160 224 281 358 420 513
#     4  12  26  49  80 123 171 223 281 356 440 525
#     4  12  29  54  82 118 169 224 298 342 429 508
#     4  12  27  53  83 116 172 221 283 354 433 523
#
# _framework density 25.357856000000002
#
# number of rings (size 3 to 8) (size 9 to 14) (size 15 to 20)
#    0.000    0.000    5.882    2.118    3.294    7.529 
#    0.000    1.176    0.000    0.000    0.000    0.000 
#    0.000    0.000    0.000    0.000    0.000    0.000 
#
# Total GULP energy -421199.836891 kJ/mol
# GULP energy per Si atom -12388.230497 kJ/mol
# Density = 2.530014 g / cm^3
# Si number density = 25.357856 Si / 1000 Ang^3
#
#
#
# Elastic Constant Matrix: (Units=GPa)
#
#
# Indices 1 2 3 4 5 6 
#
# 1 126.5823 51.6483 35.3498 0.0000 0.0000 0.0000
# 2 51.6483 123.8422 30.7434 0.0000 0.0000 0.0000
# 3 35.3498 30.7434 132.9038 0.0000 0.0000 0.0000
# 4 0.0000 0.0000 0.0000 38.2705 0.0000 0.0000
# 5 0.0000 0.0000 0.0000 0.0000 78.8463 0.0000
# 6 0.0000 0.0000 0.0000 0.0000 0.0000 43.7096
#
#
#
# Elastic Compliance Matrix: (Units=1/GPa)
#
#
# Indices 1 2 3 4 5 6 
#
# 1 0.009902 -0.003688 -0.001781 0.000000 0.000000 0.000000
# 2 -0.003688 0.009940 -0.001319 0.000000 0.000000 0.000000
# 3 -0.001781 -0.001319 0.008303 0.000000 0.000000 0.000000
# 4 0.000000 0.000000 0.000000 0.026130 0.000000 0.000000
# 5 0.000000 0.000000 0.000000 0.000000 0.012683 0.000000
# 6 0.000000 0.000000 0.000000 0.000000 0.000000 0.022878
#
#
# Mechanical properties :
#
#
# Convention : Reuss Voigt Hill
#
# Bulk Modulus (GPa) = 68.62827 68.75681 68.69254
# Shear Modulus (GPa) = 46.18244 49.87106 48.02675
#
# Velocity S-wave (km/s) = 4.27221 4.43955 4.35669
# Velocity P-wave (km/s) = 7.17345 7.31115 7.24263
#
# Compressibility (1/GPa) = 0.01457125
#
# Stress axis : x y z
#
# Youngs Moduli (GPa) = 100.99102 100.60373 120.44023
#
# Poissons Ratio (x) = 0.37098 0.21447
# Poissons Ratio (y) = 0.37241 0.15880
# Poissons Ratio (z) = 0.17984 0.13265
#
# Static dielectric constant tensor:
#      x y z
#    x 4.888640 0.000000 0.000000 
#    y 0.000000 14.325400 0.000000 
#    z 0.000000 0.000000 5.230230 
# 
# 
# High freq. dielectric constant tensor:
#      x y z
#    x 2.037360 0.000000 0.000000 
#    y 0.000000 2.017620 0.000000 
#    z 0.000000 0.000000 2.023850 
# 
# From -- ./inp_files/3134.got.cif
#   From: 2010.06.25/outbox.cif.g09.slc.cpg/sg48_2_cif.got.tgz:3134.got - 2010.06.26 18:06:46.
