data_PCOD8202945
_publ_section_title
;
Structure prediction by ZEFSAII (Michael W. Deem and Ramdas Pophale) SiO2 
 PCOD8202945
Probable space group: P C C M
;
_chemical_formula_sum "Si O2"
_cell_formula_units_Z 64
_cell_length_a 28.028987
_cell_length_b 14.861867
_cell_length_c 8.946135
_cell_angle_alpha 90.000000
_cell_angle_beta 90.000000
_cell_angle_gamma 90.000000
_cell_volume 3726.629522
_symmetry_space_group_name_H-M "P C C M"
_symmetry_group_IT_number 49
_symmetry_cell_setting 'orthorhombic'
loop_
_space_group_symop_operation_xyz
x,y,z
-x,-y,z
x,-y,1/2-z
-x,y,1/2-z
-x,-y,-z
x,y,-z
-x,y,1/2+z
x,-y,1/2+z
loop_
_atom_site_type_symbol
_atom_site_label
_atom_site_fract_x
_atom_site_fract_y
_atom_site_fract_z
Si Si1 0.238881 0.405403 0.177447
Si Si2 0.803766 0.091785 0.676447
Si Si3 0.085565 0.088701 0.826134
Si Si4 0.951832 0.276222 0.676861
Si Si5 0.266193 0.773359 0.821920
Si Si6 0.129665 0.408741 0.824980
Si Si7 0.649901 0.095861 0.173658
Si Si8 0.544657 0.903322 0.325574
O O1 0.254896 0.500000 0.250000
O O2 0.270198 0.326082 0.250915
O O3 0.183829 0.384741 0.219499
O O4 0.247227 0.408915 0.000000
O O5 0.793426 0.090783 0.500000
O O6 0.859204 0.102344 0.714474
O O7 0.779393 0.177189 0.752480
O O8 0.783568 0.000000 0.750000
O O9 0.056161 0.174261 0.767622
O O10 0.064225 0.000000 0.750000
O O11 0.078941 0.076032 0.000000
O O12 0.956583 0.282338 0.500000
O O13 0.905950 0.331743 0.732668
O O14 0.000000 0.314760 0.750000
O O15 0.312845 0.829223 0.771385
O O16 0.261367 0.766192 0.000000
O O17 0.112393 0.500000 0.750000
O O18 0.125559 0.422217 0.000000
O O19 0.597123 0.137917 0.206231
O O20 0.659250 0.000000 0.250000
O O21 0.656406 0.076131 0.000000
O O22 0.500000 0.848474 0.250000
O O23 0.534379 0.911535 0.500000
O O24 0.545625 0.000000 0.250000
#
# Coordination Sequence:
#
# PCOD8202945 Si02
#       8
#     8   8   8   8   8   8   8   8
#     4  10  20  36  56  76  96 122 155 194 235 280
#     4  10  19  32  49  70  95 125 159 196 234 277
#     4   9  19  35  52  68  90 119 153 190 228 268
#     4  10  21  36  51  70  95 121 147 180 222 270
#     4  11  21  32  47  70  99 131 162 195 236 284
#     4   9  19  36  56  75  96 119 146 180 223 272
#     4   9  19  31  43  63  96 133 168 203 241 282
#     4   9  15  25  40  59  84 120 164 207 244 279
#
# _framework density 17.173696
#
# number of rings (size 3 to 8) (size 9 to 14) (size 15 to 20)
#    0.000    2.375    0.000    3.000    0.000    7.000 
#    0.000    3.750    0.000    0.000    0.000    0.000 
#    0.000    0.500    0.000    5.750    0.000    1.750 
#
# Total GULP energy -793426.085898 kJ/mol
# GULP energy per Si atom -12397.282592 kJ/mol
# Density = 1.713461 g / cm^3
# Si number density = 17.173696 Si / 1000 Ang^3
#
#
#
# Elastic Constant Matrix: (Units=GPa)
#
#
# Indices 1 2 3 4 5 6 
#
# 1 78.1295 46.4545 33.0532 0.0000 0.0000 0.0000
# 2 46.4545 107.8383 37.2939 0.0000 0.0000 0.0000
# 3 33.0532 37.2939 60.6509 0.0000 0.0000 0.0000
# 4 0.0000 0.0000 0.0000 29.8004 0.0000 0.0000
# 5 0.0000 0.0000 0.0000 0.0000 16.3448 0.0000
# 6 0.0000 0.0000 0.0000 0.0000 0.0000 20.1953
#
#
#
# Elastic Compliance Matrix: (Units=1/GPa)
#
#
# Indices 1 2 3 4 5 6 
#
# 1 0.019203 -0.005910 -0.006831 0.000000 0.000000 0.000000
# 2 -0.005910 0.013596 -0.005140 0.000000 0.000000 0.000000
# 3 -0.006831 -0.005140 0.023371 0.000000 0.000000 0.000000
# 4 0.000000 0.000000 0.000000 0.033557 0.000000 0.000000
# 5 0.000000 0.000000 0.000000 0.000000 0.061181 0.000000
# 6 0.000000 0.000000 0.000000 0.000000 0.000000 0.049517
#
#
# Mechanical properties :
#
#
# Convention : Reuss Voigt Hill
#
# Bulk Modulus (GPa) = 48.99795 53.35800 51.17797
# Shear Modulus (GPa) = 20.57699 21.92258 21.24978
#
# Velocity S-wave (km/s) = 3.46521 3.57672 3.52141
# Velocity P-wave (km/s) = 6.67855 6.94221 6.81166
#
# Compressibility (1/GPa) = 0.02040902
#
# Stress axis : x y z
#
# Youngs Moduli (GPa) = 52.07471 73.54864 42.78803
#
# Poissons Ratio (x) = 0.43466 0.29230
# Poissons Ratio (y) = 0.30775 0.21992
# Poissons Ratio (z) = 0.35574 0.37802
#
# Static dielectric constant tensor:
#      x y z
#    x 3.807730 0.000000 0.000000 
#    y 0.000000 3.208260 0.000000 
#    z 0.000000 0.000000 3.217680 
# 
# 
# High freq. dielectric constant tensor:
#      x y z
#    x 1.654410 0.000000 0.000000 
#    y 0.000000 1.641830 0.000000 
#    z 0.000000 0.000000 1.669020 
# 
# From -- ./inp_files/7073.got.cif
#   From: 2010.03.12/outbox.cif.g09.slc.cpg/sg49_4_cif.got.tgz:7073.got - 2010.04.14 03:58:27.
