data_PCOD8202857
_publ_section_title
;
Structure prediction by ZEFSAII (Michael W. Deem and Ramdas Pophale) SiO2 
 PCOD8202857
Probable space group: P C C M
;
_chemical_formula_sum "Si O2"
_cell_formula_units_Z 48
_cell_length_a 17.588057
_cell_length_b 17.929533
_cell_length_c 8.907227
_cell_angle_alpha 90.000000
_cell_angle_beta 90.000000
_cell_angle_gamma 90.000000
_cell_volume 2808.855274
_symmetry_space_group_name_H-M "P C C M"
_symmetry_group_IT_number 49
_symmetry_cell_setting 'orthorhombic'
loop_
_space_group_symop_operation_xyz
x,y,z
-x,-y,z
x,-y,1/2-z
-x,y,1/2-z
-x,-y,-z
x,y,-z
-x,y,1/2+z
x,-y,1/2+z
loop_
_atom_site_type_symbol
_atom_site_label
_atom_site_fract_x
_atom_site_fract_y
_atom_site_fract_z
Si Si1 0.689630 0.313735 0.164460
Si Si2 0.078309 0.078377 0.675690
Si Si3 0.076198 0.674037 0.326101
Si Si4 0.176874 0.430576 0.664966
Si Si5 0.181870 0.785520 0.826457
Si Si6 0.418106 0.423040 0.178574
O O1 0.762968 0.365270 0.157080
O O2 0.726757 0.231481 0.202959
O O3 0.631654 0.349143 0.284575
O O4 0.649537 0.311460 0.000000
O O5 0.062133 0.067909 0.500000
O O6 0.152896 0.130267 0.702009
O O7 0.000000 0.110357 0.750000
O O8 0.099659 0.000000 0.750000
O O9 0.063023 0.662757 0.500000
O O10 0.102223 0.595566 0.254806
O O11 0.138082 0.736804 0.295031
O O12 0.000000 0.702719 0.250000
O O13 0.214901 0.500000 0.750000
O O14 0.151594 0.455854 0.500000
O O15 0.163125 0.762882 0.000000
O O16 0.384090 0.500000 0.250000
O O17 0.500000 0.408897 0.250000
O O18 0.423262 0.432603 0.000000
#
# Coordination Sequence:
#
# PCOD8202857 Si02
#       6
#     8   8   8   8   8   8
#     4   9  18  33  50  68  92 120 151 189 230 276
#     4  10  19  31  48  71  98 129 162 198 240 284
#     4  11  21  32  46  62  82 110 147 189 233 277
#     4  10  20  33  47  63  84 111 146 187 231 275
#     4   9  19  34  50  68  92 122 155 191 233 279
#     4  11  21  33  50  72  98 128 161 196 236 281
#
# _framework density 17.088812000000001
#
# number of rings (size 3 to 8) (size 9 to 14) (size 15 to 20)
#    0.000    2.000    0.000    7.000    0.000    7.667 
#    0.000    1.667    0.000    0.000    0.000    0.000 
#    0.000    0.667    0.000    7.667    0.000    2.333 
#
# Total GULP energy -594678.822379 kJ/mol
# GULP energy per Si atom -12389.142133 kJ/mol
# Density = 1.704992 g / cm^3
# Si number density = 17.088812 Si / 1000 Ang^3
#
#
#
# Elastic Constant Matrix: (Units=GPa)
#
#
# Indices 1 2 3 4 5 6 
#
# 1 65.7720 33.4789 36.6730 0.0000 0.0000 0.0000
# 2 33.4789 78.1539 33.5671 0.0000 0.0000 0.0000
# 3 36.6730 33.5671 136.9623 0.0000 0.0000 0.0000
# 4 0.0000 0.0000 0.0000 15.8806 0.0000 0.0000
# 5 0.0000 0.0000 0.0000 0.0000 20.9738 0.0000
# 6 0.0000 0.0000 0.0000 0.0000 0.0000 30.6454
#
#
#
# Elastic Compliance Matrix: (Units=1/GPa)
#
#
# Indices 1 2 3 4 5 6 
#
# 1 0.021108 -0.007393 -0.003840 0.000000 0.000000 0.000000
# 2 -0.007393 0.016890 -0.002160 0.000000 0.000000 0.000000
# 3 -0.003840 -0.002160 0.008859 0.000000 0.000000 0.000000
# 4 0.000000 0.000000 0.000000 0.062970 0.000000 0.000000
# 5 0.000000 0.000000 0.000000 0.000000 0.047678 0.000000
# 6 0.000000 0.000000 0.000000 0.000000 0.000000 0.032631
#
#
# Mechanical properties :
#
#
# Convention : Reuss Voigt Hill
#
# Bulk Modulus (GPa) = 49.82247 54.25848 52.04047
# Shear Modulus (GPa) = 22.36008 25.31124 23.83566
#
# Velocity S-wave (km/s) = 3.62119 3.85276 3.73877
# Velocity P-wave (km/s) = 6.83391 7.18411 7.01120
#
# Compressibility (1/GPa) = 0.02007127
#
# Stress axis : x y z
#
# Youngs Moduli (GPa) = 47.37476 59.20721 112.88145
#
# Poissons Ratio (x) = 0.43771 0.43347
# Poissons Ratio (y) = 0.35024 0.24381
# Poissons Ratio (z) = 0.18192 0.12788
#
# Static dielectric constant tensor:
#      x y z
#    x 3.129510 0.000000 0.000000 
#    y 0.000000 3.257380 0.000000 
#    z 0.000000 0.000000 3.348820 
# 
# 
# High freq. dielectric constant tensor:
#      x y z
#    x 1.630950 0.000000 0.000000 
#    y 0.000000 1.632890 0.000000 
#    z 0.000000 0.000000 1.674010 
# 
# From -- ./inp_files/4974.got.cif
#   From: 2010.03.12/outbox.cif.g09.slc.cpg/sg49_3_cif.got.tgz:4974.got - 2010.04.14 03:58:27.
