data_PCOD8202087
_publ_section_title
;
Structure prediction by ZEFSAII (Michael W. Deem and Ramdas Pophale) SiO2 
 PCOD8202087
Probable space group: P N N N
;
_chemical_formula_sum "Si O2"
_cell_formula_units_Z 64
_cell_length_a 14.749562
_cell_length_b 17.786446
_cell_length_c 12.192869
_cell_angle_alpha 90.000000
_cell_angle_beta 90.000000
_cell_angle_gamma 90.000000
_cell_volume 3198.705151
_symmetry_space_group_name_H-M "P N N N"
_symmetry_group_IT_number 48
_space_group.IT_coordinate_system_code '2'
_symmetry_cell_setting 'orthorhombic'
loop_
_space_group_symop_operation_xyz
x,y,z
1/2-x,1/2-y,z
x,1/2-y,1/2-z
1/2-x,y,1/2-z
-x,-y,-z
1/2+x,1/2+y,-z
-x,1/2+y,1/2+z
1/2+x,-y,1/2+z
loop_
_atom_site_type_symbol
_atom_site_label
_atom_site_fract_x
_atom_site_fract_y
_atom_site_fract_z
Si Si1 0.357026 0.756250 0.877732
Si Si2 0.857026 0.743750 0.877732
Si Si3 0.660272 0.473537 0.820241
Si Si4 1.000000 0.877525 0.558708
Si Si5 0.000000 0.037854 0.665815
Si Si6 0.160272 0.026463 0.820241
Si Si7 0.601918 0.101243 0.469638
Si Si8 0.898082 0.898757 0.969638
O O1 0.250000 0.750000 0.901086
O O2 0.378953 0.750000 0.750000
O O3 0.406636 0.831556 0.920260
O O4 0.401768 0.688801 0.944637
O O5 0.750000 0.750000 0.901086
O O6 0.878952 0.750000 0.750000
O O7 0.906636 0.668444 0.920260
O O8 0.901768 0.811199 0.944637
O O9 0.750000 0.474431 0.750000
O O10 0.586259 0.442348 0.737681
O O11 0.640412 0.557833 0.863185
O O12 0.664627 0.417688 0.925132
O O13 1.000000 0.905291 0.434829
O O14 0.000000 0.949934 0.636167
O O15 0.086259 0.057652 0.737681
O O16 0.250000 0.025569 0.750000
O O17 0.140412 0.942167 0.863185
O O18 0.164627 0.082312 0.925132
O O19 0.500000 0.072913 0.494988
#
# Coordination Sequence:
#
# PCOD8202087 Si02
#       8
#     8   8   8   8   8   8   8   8
#     4  11  25  41  64  95 129 165 214 267 329 381
#     4  11  25  41  64  95 129 165 214 267 329 381
#     4  11  24  40  68  95 129 169 218 265 321 383
#     4  11  25  41  65  94 134 168 210 273 320 385
#     4  11  24  42  65  97 132 168 218 267 329 376
#     4  11  24  40  68  95 129 169 218 265 321 383
#     4  11  22  44  67  92 128 173 218 265 318 391
#     4  11  22  44  67  92 128 173 218 265 318 391
#
# _framework density 20.008095999999998
#
# number of rings (size 3 to 8) (size 9 to 14) (size 15 to 20)
#    0.000    1.000    3.750    2.625   10.500    2.000 
#    0.000    2.500    0.000    0.000    0.000    0.000 
#    0.000    0.000    0.000    0.000    0.000    0.000 
#
# Total GULP energy -793572.307409 kJ/mol
# GULP energy per Si atom -12399.567303 kJ/mol
# Density = 1.996256 g / cm^3
# Si number density = 20.008096 Si / 1000 Ang^3
#
#
#
# Elastic Constant Matrix: (Units=GPa)
#
#
# Indices 1 2 3 4 5 6 
#
# 1 142.7708 28.7684 58.3463 0.0000 0.0000 0.0000
# 2 28.7684 112.2167 48.5589 0.0000 0.0000 0.0000
# 3 58.3463 48.5589 130.1486 0.0000 0.0000 0.0000
# 4 0.0000 0.0000 0.0000 27.1701 0.0000 0.0000
# 5 0.0000 0.0000 0.0000 0.0000 35.9376 0.0000
# 6 0.0000 0.0000 0.0000 0.0000 0.0000 23.1812
#
#
#
# Elastic Compliance Matrix: (Units=1/GPa)
#
#
# Indices 1 2 3 4 5 6 
#
# 1 0.008614 -0.000641 -0.003623 0.000000 0.000000 0.000000
# 2 -0.000641 0.010675 -0.003696 0.000000 0.000000 0.000000
# 3 -0.003623 -0.003696 0.010686 0.000000 0.000000 0.000000
# 4 0.000000 0.000000 0.000000 0.036805 0.000000 0.000000
# 5 0.000000 0.000000 0.000000 0.000000 0.027826 0.000000
# 6 0.000000 0.000000 0.000000 0.000000 0.000000 0.043138
#
#
# Mechanical properties :
#
#
# Convention : Reuss Voigt Hill
#
# Bulk Modulus (GPa) = 71.13764 72.94259 72.04012
# Shear Modulus (GPa) = 31.57606 33.88861 32.73234
#
# Velocity S-wave (km/s) = 3.97692 4.11998 4.04908
# Velocity P-wave (km/s) = 7.53123 7.69207 7.61208
#
# Compressibility (1/GPa) = 0.01405725
#
# Stress axis : x y z
#
# Youngs Moduli (GPa) = 116.09327 93.67905 93.57722
#
# Poissons Ratio (x) = 0.06002 0.33899
# Poissons Ratio (y) = 0.07438 0.34582
# Poissons Ratio (z) = 0.42055 0.34620
#
# Static dielectric constant tensor:
#      x y z
#    x 3.680140 0.000000 0.000000 
#    y 0.000000 3.520310 0.000000 
#    z 0.000000 0.000000 3.692370 
# 
# 
# High freq. dielectric constant tensor:
#      x y z
#    x 1.790730 0.000000 0.000000 
#    y 0.000000 1.774560 0.000000 
#    z 0.000000 0.000000 1.789650 
# 
# From -- ./inp_files/21548.got.cif
#   From: 2010.06.25/outbox.cif.g09.slc.cpg/sg48_11_cif.got.tgz:21548.got - 2010.06.26 18:06:46.
