data_PCOD8202375
_publ_section_title
;
Structure prediction by ZEFSAII (Michael W. Deem and Ramdas Pophale) SiO2 
 PCOD8202375
Probable space group: P C C M
;
_chemical_formula_sum "Si O2"
_cell_formula_units_Z 48
_cell_length_a 30.201682
_cell_length_b 9.616853
_cell_length_c 8.557145
_cell_angle_alpha 90.000000
_cell_angle_beta 90.000000
_cell_angle_gamma 90.000000
_cell_volume 2485.381145
_symmetry_space_group_name_H-M "P C C M"
_symmetry_group_IT_number 49
_symmetry_cell_setting 'orthorhombic'
loop_
_space_group_symop_operation_xyz
x,y,z
-x,-y,z
x,-y,1/2-z
-x,y,1/2-z
-x,-y,-z
x,y,-z
-x,y,1/2+z
x,-y,1/2+z
loop_
_atom_site_type_symbol
_atom_site_label
_atom_site_fract_x
_atom_site_fract_y
_atom_site_fract_z
Si Si1 0.544390 0.155388 0.815618
Si Si2 0.121866 0.154170 0.815697
Si Si3 0.048124 0.647901 0.184820
Si Si4 0.633816 0.847595 0.183055
Si Si5 0.807093 0.350919 0.181418
Si Si6 0.296029 0.647983 0.180916
O O1 0.500000 0.231497 0.750000
O O2 0.589920 0.226639 0.756543
O O3 0.545297 0.000000 0.750000
O O4 0.542628 0.155405 0.000000
O O5 0.080926 0.231263 0.735953
O O6 0.167343 0.231764 0.774334
O O7 0.124629 0.000000 0.750000
O O8 0.114876 0.150733 0.000000
O O9 0.065119 0.500000 0.250000
O O10 0.000000 0.685147 0.250000
O O11 0.045885 0.638183 0.000000
O O12 0.677308 0.761937 0.223537
O O13 0.641112 0.000000 0.250000
O O14 0.626989 0.857524 0.000000
O O15 0.820633 0.500000 0.250000
O O16 0.755503 0.320868 0.206653
O O17 0.820560 0.347654 0.000000
O O18 0.309258 0.500000 0.250000
O O19 0.309190 0.653314 0.000000
#
# Coordination Sequence:
#
# PCOD8202375 Si02
#       6
#     8   8   8   8   8   8
#     4  10  17  28  46  71 103 138 178 223 272 325
#     4  12  25  41  60  86 119 154 191 234 286 338
#     4  11  22  40  64  91 120 154 196 238 281 330
#     4  11  21  34  53  79 110 144 183 228 278 329
#     4  10  21  39  62  86 112 146 188 232 277 330
#     4  10  21  38  59  83 111 145 185 228 277 332
#
# _framework density 19.312932
#
# number of rings (size 3 to 8) (size 9 to 14) (size 15 to 20)
#    0.000    1.333    0.000    9.500    0.000    3.000 
#    0.000    1.667    0.000    0.500    0.000    3.500 
#    0.000    0.000    0.000    0.000    0.000    0.000 
#
# Total GULP energy -595331.535504 kJ/mol
# GULP energy per Si atom -12402.740323 kJ/mol
# Density = 1.926897 g / cm^3
# Si number density = 19.312932 Si / 1000 Ang^3
#
#
#
# Elastic Constant Matrix: (Units=GPa)
#
#
# Indices 1 2 3 4 5 6 
#
# 1 104.7484 63.2803 52.5660 0.0000 0.0000 0.0000
# 2 63.2803 108.9337 48.3597 0.0000 0.0000 0.0000
# 3 52.5660 48.3597 181.6485 0.0000 0.0000 0.0000
# 4 0.0000 0.0000 0.0000 32.9396 0.0000 0.0000
# 5 0.0000 0.0000 0.0000 0.0000 38.9238 0.0000
# 6 0.0000 0.0000 0.0000 0.0000 0.0000 -85.4378
#
#
#
# Elastic Compliance Matrix: (Units=1/GPa)
#
#
# Indices 1 2 3 4 5 6 
#
# 1 0.015564 -0.007986 -0.002378 0.000000 0.000000 0.000000
# 2 -0.007986 0.014508 -0.001551 0.000000 0.000000 0.000000
# 3 -0.002378 -0.001551 0.006606 0.000000 0.000000 0.000000
# 4 0.000000 0.000000 0.000000 0.030359 0.000000 0.000000
# 5 0.000000 0.000000 0.000000 0.000000 0.025691 0.000000
# 6 0.000000 0.000000 0.000000 0.000000 0.000000 -0.011704
#
#
# Mechanical properties :
#
#
# Convention : Reuss Voigt Hill
#
# Bulk Modulus (GPa) = 77.83339 80.41584 79.12461
# Shear Modulus (GPa) = 45.81414 12.69343 29.25378
#
# Velocity S-wave (km/s) = 4.87581 2.56647 3.89617
# Velocity P-wave (km/s) = 8.49039 7.10712 7.82936
#
# Compressibility (1/GPa) = 0.01284796
#
# Stress axis : x y z
#
# Youngs Moduli (GPa) = 64.24927 68.92954 151.37022
#
# Poissons Ratio (x) = 0.55045 0.35997
# Poissons Ratio (y) = 0.51308 0.23483
# Poissons Ratio (z) = 0.15279 0.10693
#
# Static dielectric constant tensor:
#      x y z
#    x 4.042540 0.000000 0.000000 
#    y 0.000000 3.338480 0.000000 
#    z 0.000000 0.000000 3.740340 
# 
# 
# High freq. dielectric constant tensor:
#      x y z
#    x 1.771360 0.000000 0.000000 
#    y 0.000000 1.724120 0.000000 
#    z 0.000000 0.000000 1.777280 
# 
# From -- ./inp_files/6883.got.cif
#   From: 2010.03.12/outbox.cif.g09.slc.cpg/sg49_4_cif.got.tgz:6883.got - 2010.04.14 03:58:27.
