data_PCOD8202814
_publ_section_title
;
Structure prediction by ZEFSAII (Michael W. Deem and Ramdas Pophale) SiO2 
 PCOD8202814
Probable space group: P C C M
;
_chemical_formula_sum "Si O2"
_cell_formula_units_Z 40
_cell_length_a 11.864727
_cell_length_b 9.204502
_cell_length_c 17.463417
_cell_angle_alpha 90.000000
_cell_angle_beta 90.000000
_cell_angle_gamma 90.000000
_cell_volume 1907.160620
_symmetry_space_group_name_H-M "P C C M"
_symmetry_group_IT_number 49
_symmetry_cell_setting 'orthorhombic'
loop_
_space_group_symop_operation_xyz
x,y,z
-x,-y,z
x,-y,1/2-z
-x,y,1/2-z
-x,-y,-z
x,y,-z
-x,y,1/2+z
x,-y,1/2+z
loop_
_atom_site_type_symbol
_atom_site_label
_atom_site_fract_x
_atom_site_fract_y
_atom_site_fract_z
Si Si1 0.122012 0.068493 0.326768
Si Si2 0.331887 0.987865 0.084660
Si Si3 0.414322 0.754698 0.683424
Si Si4 0.220930 0.360596 0.711662
Si Si5 0.400190 0.657671 0.912255
O O1 0.125735 0.243946 0.314130
O O2 0.174514 0.000000 0.250000
O O3 0.198885 0.025752 0.398019
O O4 0.000000 0.000000 0.342060
O O5 0.392699 0.095580 0.141098
O O6 0.388628 0.831697 0.091691
O O7 0.344529 0.052098 0.000000
O O8 0.500000 0.792749 0.750000
O O9 0.299621 0.696353 0.719503
O O10 0.474279 0.634427 0.625776
O O11 0.159382 0.500000 0.750000
O O12 0.298310 0.408261 0.638651
O O13 0.394900 0.599565 0.000000
#
# Coordination Sequence:
#
# PCOD8202814 Si02
#       5
#     8   8   8   8   8
#     4  10  20  37  61  83 106 138 191 245 288 345
#     4  10  19  32  53  84 116 148 191 242 292 330
#     4  10  19  30  51  80 117 159 195 227 274 323
#     4  10  21  37  57  82 116 152 188 228 284 340
#     4   9  19  32  51  81 119 157 192 231 271 328
#
# _framework density 20.973587999999999
#
# number of rings (size 3 to 8) (size 9 to 14) (size 15 to 20)
#    0.000    2.200    2.000    1.200    0.000    9.600 
#    0.000    5.000    0.000    0.000    0.000    1.400 
#    0.000    0.000    0.000    0.000    0.000    0.000 
#
# Total GULP energy -495687.153687 kJ/mol
# GULP energy per Si atom -12392.178842 kJ/mol
# Density = 2.092585 g / cm^3
# Si number density = 20.973588 Si / 1000 Ang^3
#
#
#
# Elastic Constant Matrix: (Units=GPa)
#
#
# Indices 1 2 3 4 5 6 
#
# 1 91.3557 21.0288 6.9942 0.0000 0.0000 0.0000
# 2 21.0288 49.0285 -1.9309 0.0000 0.0000 0.0000
# 3 6.9942 -1.9309 95.3586 0.0000 0.0000 0.0000
# 4 0.0000 0.0000 0.0000 17.4843 0.0000 0.0000
# 5 0.0000 0.0000 0.0000 0.0000 16.6062 0.0000
# 6 0.0000 0.0000 0.0000 0.0000 0.0000 17.8329
#
#
#
# Elastic Compliance Matrix: (Units=1/GPa)
#
#
# Indices 1 2 3 4 5 6 
#
# 1 0.012241 -0.005290 -0.001005 0.000000 0.000000 0.000000
# 2 -0.005290 0.022699 0.000848 0.000000 0.000000 0.000000
# 3 -0.001005 0.000848 0.010578 0.000000 0.000000 0.000000
# 4 0.000000 0.000000 0.000000 0.057194 0.000000 0.000000
# 5 0.000000 0.000000 0.000000 0.000000 0.060218 0.000000
# 6 0.000000 0.000000 0.000000 0.000000 0.000000 0.056076
#
#
# Mechanical properties :
#
#
# Convention : Reuss Voigt Hill
#
# Bulk Modulus (GPa) = 28.88278 31.99190 30.43734
# Shear Modulus (GPa) = 20.70903 24.36141 22.53522
#
# Velocity S-wave (km/s) = 3.14568 3.41182 3.28145
# Velocity P-wave (km/s) = 5.19564 5.55042 5.37596
#
# Compressibility (1/GPa) = 0.03462271
#
# Stress axis : x y z
#
# Youngs Moduli (GPa) = 81.69402 44.05576 94.53936
#
# Poissons Ratio (x) = 0.23305 0.09501
# Poissons Ratio (y) = 0.43214 -0.08013
# Poissons Ratio (z) = 0.08210 -0.03734
#
# Static dielectric constant tensor:
#      x y z
#    x 3.493230 0.000000 0.000000 
#    y 0.000000 3.754470 0.000000 
#    z 0.000000 0.000000 4.281720 
# 
# 
# High freq. dielectric constant tensor:
#      x y z
#    x 1.792770 0.000000 0.000000 
#    y 0.000000 1.820870 0.000000 
#    z 0.000000 0.000000 1.826750 
# 
# From -- ./inp_files/15962.got.cif
#   From: 2010.03.12/outbox.cif.g09.slc.cpg/sg49_8_cif.got.tgz:15962.got - 2010.04.14 03:58:27.
