data_PCOD8202683
_publ_section_title
;
Structure prediction by ZEFSAII (Michael W. Deem and Ramdas Pophale) SiO2 
 PCOD8202683
Probable space group: P C C M
;
_chemical_formula_sum "Si O2"
_cell_formula_units_Z 58
_cell_length_a 13.592657
_cell_length_b 11.610742
_cell_length_c 19.088009
_cell_angle_alpha 90.000000
_cell_angle_beta 90.000000
_cell_angle_gamma 90.000000
_cell_volume 3012.485491
_symmetry_space_group_name_H-M "P C C M"
_symmetry_group_IT_number 49
_symmetry_cell_setting 'orthorhombic'
loop_
_space_group_symop_operation_xyz
x,y,z
-x,-y,z
x,-y,1/2-z
-x,y,1/2-z
-x,-y,-z
x,y,-z
-x,y,1/2+z
x,-y,1/2+z
loop_
_atom_site_type_symbol
_atom_site_label
_atom_site_fract_x
_atom_site_fract_y
_atom_site_fract_z
Si Si1 0.721417 0.988397 0.331251
Si Si2 0.744518 0.358372 0.081492
Si Si3 0.123980 0.802949 0.825771
Si Si4 0.088455 0.713783 0.680059
Si Si5 0.586977 0.822316 0.418879
Si Si6 0.000000 0.500000 0.250000
Si Si7 0.764303 0.614532 0.921693
Si Si8 0.638079 0.820445 0.079192
O O1 0.830309 0.930104 0.340598
O O2 0.640146 0.911111 0.368565
O O3 0.694360 0.000000 0.250000
O O4 0.713608 0.111336 0.369834
O O5 0.826156 0.289717 0.124141
O O6 0.636025 0.303547 0.092392
O O7 0.744699 0.488818 0.111413
O O8 0.774014 0.353432 0.000000
O O9 0.146607 0.774002 0.744248
O O10 0.006641 0.793021 0.838468
O O11 0.156405 0.698589 0.613583
O O12 0.063343 0.582757 0.700718
O O13 0.598158 0.860255 0.500000
O O14 0.474096 0.825890 0.395173
O O15 0.662811 0.684898 0.918838
O O16 0.802974 0.596800 0.000000
O O17 0.649594 0.868710 0.000000
#
# Coordination Sequence:
#
# PCOD8202683 Si02
#       8
#     8   8   8   8   8   2   8   8
#     4  11  21  35  55  78 101 129 172 224 265 300
#     4   9  18  33  54  81 107 131 167 214 260 307
#     4   9  20  35  54  75  99 136 174 213 260 307
#     4  10  18  34  52  75 105 136 176 212 256 317
#     4   9  19  36  56  77 103 136 172 210 258 314
#     4   8  16  28  54  76  94 130 168 210 260 310
#     4  10  20  33  51  77 108 138 169 209 255 304
#     4  10  21  36  53  74 104 141 173 205 254 315
#
# _framework density 19.253205000000001
#
# number of rings (size 3 to 8) (size 9 to 14) (size 15 to 20)
#    0.000    2.483    0.000    3.310    0.000    3.862 
#    0.000    9.310    0.000    1.655    0.000    3.862 
#    0.000    0.000    0.000    0.000    0.000    0.000 
#
# Total GULP energy -718772.116147 kJ/mol
# GULP energy per Si atom -12392.622692 kJ/mol
# Density = 1.920938 g / cm^3
# Si number density = 19.253205 Si / 1000 Ang^3
#
#
#
# Elastic Constant Matrix: (Units=GPa)
#
#
# Indices 1 2 3 4 5 6 
#
# 1 82.8327 45.6673 36.7407 0.0000 0.0000 0.0000
# 2 45.6673 89.4977 39.1229 0.0000 0.0000 0.0000
# 3 36.7407 39.1229 73.9022 0.0000 0.0000 0.0000
# 4 0.0000 0.0000 0.0000 20.4086 0.0000 0.0000
# 5 0.0000 0.0000 0.0000 0.0000 382.1040 0.0000
# 6 0.0000 0.0000 0.0000 0.0000 0.0000 25.6083
#
#
#
# Elastic Compliance Matrix: (Units=1/GPa)
#
#
# Indices 1 2 3 4 5 6 
#
# 1 0.018324 -0.006984 -0.005412 0.000000 0.000000 0.000000
# 2 -0.006984 0.017200 -0.005633 0.000000 0.000000 0.000000
# 3 -0.005412 -0.005633 0.019204 0.000000 0.000000 0.000000
# 4 0.000000 0.000000 0.000000 0.048999 0.000000 0.000000
# 5 0.000000 0.000000 0.000000 0.000000 0.002617 0.000000
# 6 0.000000 0.000000 0.000000 0.000000 0.000000 0.039050
#
#
# Mechanical properties :
#
#
# Convention : Reuss Voigt Hill
#
# Bulk Modulus (GPa) = 53.56615 54.36604 53.96609
# Shear Modulus (GPa) = 26.64179 93.93762 60.28970
#
# Velocity S-wave (km/s) = 3.72393 6.99261 5.60197
# Velocity P-wave (km/s) = 6.80974 9.66924 8.36261
#
# Compressibility (1/GPa) = 0.01866850
#
# Stress axis : x y z
#
# Youngs Moduli (GPa) = 54.57457 58.14110 52.07151
#
# Poissons Ratio (x) = 0.40605 0.28183
# Poissons Ratio (y) = 0.38114 0.29333
# Poissons Ratio (z) = 0.29538 0.32752
#
# Static dielectric constant tensor:
#      x y z
#    x 3.437470 0.000000 0.000000 
#    y 0.000000 3.730740 0.000000 
#    z 0.000000 0.000000 3.536040 
# 
# 
# High freq. dielectric constant tensor:
#      x y z
#    x 1.738610 0.000000 0.000000 
#    y 0.000000 1.756710 0.000000 
#    z 0.000000 0.000000 1.744450 
# 
# From -- ./inp_files/17909.got.cif
#   From: 2010.03.12/outbox.cif.g09.slc.cpg/sg49_9_cif.got.tgz:17909.got - 2010.04.14 03:58:27.
