data_PCOD8202193
_publ_section_title
;
Structure prediction by ZEFSAII (Michael W. Deem and Ramdas Pophale) SiO2 
 PCOD8202193
Probable space group: P C C M
;
_chemical_formula_sum "Si O2"
_cell_formula_units_Z 64
_cell_length_a 29.907721
_cell_length_b 15.370156
_cell_length_c 8.798278
_cell_angle_alpha 90.000000
_cell_angle_beta 90.000000
_cell_angle_gamma 90.000000
_cell_volume 4044.448189
_symmetry_space_group_name_H-M "P C C M"
_symmetry_group_IT_number 49
_symmetry_cell_setting 'orthorhombic'
loop_
_space_group_symop_operation_xyz
x,y,z
-x,-y,z
x,-y,1/2-z
-x,y,1/2-z
-x,-y,-z
x,y,-z
-x,y,1/2+z
x,-y,1/2+z
loop_
_atom_site_type_symbol
_atom_site_label
_atom_site_fract_x
_atom_site_fract_y
_atom_site_fract_z
Si Si1 0.211395 0.737788 0.325767
Si Si2 0.788346 0.913663 0.670438
Si Si3 0.047222 0.591938 0.819779
Si Si4 0.105205 0.086901 0.328398
Si Si5 0.630855 0.406257 0.823272
Si Si6 0.544238 0.596686 0.180642
Si Si7 0.894104 0.736424 0.175024
Si Si8 0.729354 0.406028 0.823911
O O1 0.225486 0.736013 0.500000
O O2 0.228990 0.828554 0.257576
O O3 0.158674 0.728342 0.303230
O O4 0.233994 0.657727 0.242585
O O5 0.769594 0.910232 0.500000
O O6 0.841581 0.916843 0.671482
O O7 0.768870 0.000000 0.750000
O O8 0.062331 0.500000 0.750000
O O9 0.084244 0.662354 0.777820
O O10 0.000000 0.621544 0.750000
O O11 0.042923 0.583116 0.000000
O O12 0.086762 0.093138 0.500000
O O13 0.088573 0.170048 0.233213
O O14 0.085725 0.000000 0.250000
O O15 0.635403 0.500000 0.750000
O O16 0.590071 0.355448 0.737375
O O17 0.679771 0.363379 0.798840
O O18 0.618484 0.414214 0.000000
O O19 0.546060 0.500000 0.250000
O O20 0.500000 0.643684 0.250000
O O21 0.541411 0.595212 0.000000
O O22 0.908295 0.725345 0.000000
O O23 0.734500 0.500000 0.750000
O O24 0.739148 0.418919 0.000000
#
# Coordination Sequence:
#
# PCOD8202193 Si02
#       8
#     8   8   8   8   8   8   8   8
#     4  10  20  32  47  67  92 119 150 185 220 258
#     4   9  16  27  44  65  90 116 145 179 218 260
#     4  11  22  38  58  77  96 119 147 181 220 264
#     4   9  16  27  45  70  97 125 151 178 212 253
#     4   9  16  26  38  52  70  97 134 174 215 259
#     4  10  16  22  33  49  69  92 122 166 215 259
#     4  10  20  34  51  73  97 121 149 183 219 257
#     4  10  20  32  45  59  81 114 151 188 224 263
#
# _framework density 15.824161999999999
#
# number of rings (size 3 to 8) (size 9 to 14) (size 15 to 20)
#    0.000    2.250    0.000    6.000    0.000    6.500 
#    0.000    0.000    0.000    0.375    0.000    2.625 
#    0.000    0.000    0.000    0.000    0.000    0.625 
#
# Total GULP energy -793336.432656 kJ/mol
# GULP energy per Si atom -12395.881760 kJ/mol
# Density = 1.578815 g / cm^3
# Si number density = 15.824162 Si / 1000 Ang^3
#
#
#
# Elastic Constant Matrix: (Units=GPa)
#
#
# Indices 1 2 3 4 5 6 
#
# 1 38.8566 35.7695 38.6390 0.0000 0.0000 0.0000
# 2 35.7695 92.0207 50.2138 0.0000 0.0000 0.0000
# 3 38.6390 50.2138 144.8488 0.0000 0.0000 0.0000
# 4 0.0000 0.0000 0.0000 27.4175 0.0000 0.0000
# 5 0.0000 0.0000 0.0000 0.0000 22.1817 0.0000
# 6 0.0000 0.0000 0.0000 0.0000 0.0000 -0.1868
#
#
#
# Elastic Compliance Matrix: (Units=1/GPa)
#
#
# Indices 1 2 3 4 5 6 
#
# 1 0.045788 -0.013731 -0.007454 0.000000 0.000000 0.000000
# 2 -0.013731 0.017520 -0.002411 0.000000 0.000000 0.000000
# 3 -0.007454 -0.002411 0.009728 0.000000 0.000000 0.000000
# 4 0.000000 0.000000 0.000000 0.036473 0.000000 0.000000
# 5 0.000000 0.000000 0.000000 0.000000 0.045082 0.000000
# 6 0.000000 0.000000 0.000000 0.000000 0.000000 -5.353750
#
#
# Mechanical properties :
#
#
# Convention : Reuss Voigt Hill
#
# Bulk Modulus (GPa) = 38.69310 58.33009 48.51159
# Shear Modulus (GPa) = -0.97213 19.95606 9.49197
#
# Velocity S-wave (km/s) = -0.78464 3.55507 2.45182
# Velocity P-wave (km/s) = 4.86663 7.33436 6.22402
#
# Compressibility (1/GPa) = 0.02584440
#
# Stress axis : x y z
#
# Youngs Moduli (GPa) = 21.83982 57.07788 102.79683
#
# Poissons Ratio (x) = 0.78372 0.76627
# Poissons Ratio (y) = 0.29988 0.24782
# Poissons Ratio (z) = 0.16280 0.13760
#
# Static dielectric constant tensor:
#      x y z
#    x 3.352930 0.000000 0.000000 
#    y 0.000000 2.823990 0.000000 
#    z 0.000000 0.000000 3.240830 
# 
# 
# High freq. dielectric constant tensor:
#      x y z
#    x 1.584960 0.000000 0.000000 
#    y 0.000000 1.572160 0.000000 
#    z 0.000000 0.000000 1.633920 
# 
# From -- ./inp_files/7070.got.cif
#   From: 2010.03.12/outbox.cif.g09.slc.cpg/sg49_4_cif.got.tgz:7070.got - 2010.04.14 03:58:27.
