data_PCOD8202928
_publ_section_title
;
Structure prediction by ZEFSAII (Michael W. Deem and Ramdas Pophale) SiO2 
 PCOD8202928
Probable space group: P C C M
;
_chemical_formula_sum "Si O2"
_cell_formula_units_Z 64
_cell_length_a 30.751546
_cell_length_b 14.400793
_cell_length_c 8.929736
_cell_angle_alpha 90.000000
_cell_angle_beta 90.000000
_cell_angle_gamma 90.000000
_cell_volume 3954.503658
_symmetry_space_group_name_H-M "P C C M"
_symmetry_group_IT_number 49
_symmetry_cell_setting 'orthorhombic'
loop_
_space_group_symop_operation_xyz
x,y,z
-x,-y,z
x,-y,1/2-z
-x,y,1/2-z
-x,-y,-z
x,y,-z
-x,y,1/2+z
x,-y,1/2+z
loop_
_atom_site_type_symbol
_atom_site_label
_atom_site_fract_x
_atom_site_fract_y
_atom_site_fract_z
Si Si1 0.881137 0.787930 0.824639
Si Si2 0.046145 0.903436 0.821299
Si Si3 0.204243 0.099091 0.175834
Si Si4 0.363116 0.900129 0.174340
Si Si5 0.288254 0.211355 0.822833
Si Si6 0.459483 0.099422 0.673440
Si Si7 0.253073 0.407013 0.823571
Si Si8 0.154405 0.591820 0.674995
O O1 0.920296 0.823386 0.722247
O O2 0.837406 0.840936 0.778324
O O3 0.875207 0.679877 0.784218
O O4 0.891695 0.802485 0.000000
O O5 0.000000 0.876737 0.750000
O O6 0.062909 0.000000 0.750000
O O7 0.042214 0.912997 0.000000
O O8 0.247226 0.151337 0.233383
O O9 0.200620 0.000000 0.250000
O O10 0.206430 0.085298 0.000000
O O11 0.331263 0.824369 0.242828
O O12 0.411621 0.857310 0.199614
O O13 0.356381 0.000000 0.250000
O O14 0.353233 0.914247 0.000000
O O15 0.281322 0.318179 0.774179
O O16 0.293761 0.202450 0.000000
O O17 0.500000 0.156210 0.750000
O O18 0.470023 0.089073 0.500000
O O19 0.457940 0.000000 0.750000
O O20 0.272989 0.500000 0.750000
O O21 0.203611 0.391312 0.767275
O O22 0.254340 0.419016 0.000000
O O23 0.134009 0.500000 0.750000
O O24 0.155125 0.575241 0.500000
#
# Coordination Sequence:
#
# PCOD8202928 Si02
#       8
#     8   8   8   8   8   8   8   8
#     4  10  19  34  53  73 100 130 159 197 240 279
#     4  11  22  37  56  78 102 129 161 196 236 283
#     4  10  20  32  45  64  93 127 161 194 229 269
#     4  10  20  31  43  63  91 125 162 198 237 281
#     4  10  19  32  47  64  92 128 162 195 233 279
#     4   9  16  26  41  60  83 112 151 196 238 279
#     4   9  17  31  49  69  92 122 158 198 240 279
#     4   9  17  31  51  73  99 127 157 196 240 282
#
# _framework density 16.184079000000001
#
# number of rings (size 3 to 8) (size 9 to 14) (size 15 to 20)
#    0.000    2.250    1.250    3.375    0.000    5.500 
#    0.000    0.000    0.000    0.375    0.000    2.625 
#    0.000    0.500    0.000    5.500    0.000    4.000 
#
# Total GULP energy -793423.667290 kJ/mol
# GULP energy per Si atom -12397.244801 kJ/mol
# Density = 1.614724 g / cm^3
# Si number density = 16.184079 Si / 1000 Ang^3
#
#
#
# Elastic Constant Matrix: (Units=GPa)
#
#
# Indices 1 2 3 4 5 6 
#
# 1 102.8770 57.3619 49.1813 0.0000 0.0000 0.0000
# 2 57.3619 114.7758 47.8112 0.0000 0.0000 0.0000
# 3 49.1813 47.8112 73.5639 0.0000 0.0000 0.0000
# 4 0.0000 0.0000 0.0000 27.3741 0.0000 0.0000
# 5 0.0000 0.0000 0.0000 0.0000 27.4916 0.0000
# 6 0.0000 0.0000 0.0000 0.0000 0.0000 8.4037
#
#
#
# Elastic Compliance Matrix: (Units=1/GPa)
#
#
# Indices 1 2 3 4 5 6 
#
# 1 0.016054 -0.004871 -0.007567 0.000000 0.000000 0.000000
# 2 -0.004871 0.013425 -0.005469 0.000000 0.000000 0.000000
# 3 -0.007567 -0.005469 0.022207 0.000000 0.000000 0.000000
# 4 0.000000 0.000000 0.000000 0.036531 0.000000 0.000000
# 5 0.000000 0.000000 0.000000 0.000000 0.036375 0.000000
# 6 0.000000 0.000000 0.000000 0.000000 0.000000 0.118996
#
#
# Mechanical properties :
#
#
# Convention : Reuss Voigt Hill
#
# Bulk Modulus (GPa) = 63.00358 66.65839 64.83099
# Shear Modulus (GPa) = 17.56288 21.77805 19.67046
#
# Velocity S-wave (km/s) = 3.29780 3.67228 3.49007
# Velocity P-wave (km/s) = 7.31536 7.69792 7.50908
#
# Compressibility (1/GPa) = 0.01587211
#
# Stress axis : x y z
#
# Youngs Moduli (GPa) = 62.29039 74.48674 45.03125
#
# Poissons Ratio (x) = 0.36284 0.34075
# Poissons Ratio (y) = 0.30343 0.24627
# Poissons Ratio (z) = 0.47135 0.40735
#
# Static dielectric constant tensor:
#      x y z
#    x 3.431440 0.000000 0.000000 
#    y 0.000000 2.974660 0.000000 
#    z 0.000000 0.000000 3.046680 
# 
# 
# High freq. dielectric constant tensor:
#      x y z
#    x 1.615610 0.000000 0.000000 
#    y 0.000000 1.601380 0.000000 
#    z 0.000000 0.000000 1.626290 
# 
# From -- ./inp_files/7055.got.cif
#   From: 2010.03.12/outbox.cif.g09.slc.cpg/sg49_4_cif.got.tgz:7055.got - 2010.04.14 03:58:27.
