data_PCOD8202946
_publ_section_title
;
Structure prediction by ZEFSAII (Michael W. Deem and Ramdas Pophale) SiO2 
 PCOD8202946
Probable space group: P C C M
;
_chemical_formula_sum "Si O2"
_cell_formula_units_Z 64
_cell_length_a 14.729336
_cell_length_b 27.925087
_cell_length_c 8.925702
_cell_angle_alpha 90.000000
_cell_angle_beta 90.000000
_cell_angle_gamma 90.000000
_cell_volume 3671.301799
_symmetry_space_group_name_H-M "P C C M"
_symmetry_group_IT_number 49
_symmetry_cell_setting 'orthorhombic'
loop_
_space_group_symop_operation_xyz
x,y,z
-x,-y,z
x,-y,1/2-z
-x,y,1/2-z
-x,-y,-z
x,y,-z
-x,y,1/2+z
x,-y,1/2+z
loop_
_atom_site_type_symbol
_atom_site_label
_atom_site_fract_x
_atom_site_fract_y
_atom_site_fract_z
Si Si1 0.283229 0.548547 0.824342
Si Si2 0.902989 0.044510 0.827026
Si Si3 0.409579 0.265347 0.826429
Si Si4 0.911463 0.416790 0.172451
Si Si5 0.907506 0.307915 0.177884
Si Si6 0.406924 0.625361 0.322369
Si Si7 0.215171 0.768338 0.323386
Si Si8 0.901583 0.150870 0.824857
O O1 0.321175 0.500000 0.750000
O O2 0.175625 0.550897 0.793223
O O3 0.326200 0.594459 0.746283
O O4 0.305936 0.548923 0.000000
O O5 0.860411 0.097217 0.803187
O O6 0.000000 0.046457 0.750000
O O7 0.847346 0.000000 0.750000
O O8 0.913731 0.032357 0.000000
O O9 0.500000 0.244074 0.750000
O O10 0.390148 0.319758 0.773236
O O11 0.323024 0.232138 0.788730
O O12 0.430907 0.265770 0.000000
O O13 0.893558 0.362680 0.228870
O O14 0.000000 0.439583 0.250000
O O15 0.935124 0.415017 0.000000
O O16 0.824695 0.278904 0.247432
O O17 0.000000 0.287291 0.250000
O O18 0.909924 0.300924 0.000000
O O19 0.500000 0.606327 0.250000
O O20 0.409819 0.618525 0.500000
O O21 0.196043 0.767100 0.500000
O O22 0.172088 0.815452 0.251956
O O23 0.000000 0.157460 0.750000
O O24 0.911921 0.163562 0.000000
#
# Coordination Sequence:
#
# PCOD8202946 Si02
#       8
#     8   8   8   8   8   8   8   8
#     4  11  23  38  54  76 101 126 156 191 232 280
#     4   9  16  26  42  62  87 122 167 210 249 287
#     4   9  20  36  55  77  99 124 157 194 236 283
#     4   9  20  36  54  73  95 124 160 197 233 274
#     4  10  19  32  49  70  95 126 160 195 233 277
#     4  10  20  37  59  81 102 125 152 188 232 282
#     4  11  21  32  47  70  99 130 161 197 239 285
#     4  10  20  32  45  66  97 135 173 209 246 288
#
# _framework density 17.432509
#
# number of rings (size 3 to 8) (size 9 to 14) (size 15 to 20)
#    0.000    2.125    0.000    3.750    0.000    5.000 
#    0.000    2.500    0.000    0.000    0.000    0.000 
#    0.000    0.500    0.000    5.500    0.000    4.000 
#
# Total GULP energy -793472.728002 kJ/mol
# GULP energy per Si atom -12398.011375 kJ/mol
# Density = 1.739283 g / cm^3
# Si number density = 17.432509 Si / 1000 Ang^3
#
#
#
# Elastic Constant Matrix: (Units=GPa)
#
#
# Indices 1 2 3 4 5 6 
#
# 1 80.4513 33.7411 46.1064 0.0000 0.0000 0.0000
# 2 33.7411 76.4423 40.4233 0.0000 0.0000 0.0000
# 3 46.1064 40.4233 100.6067 0.0000 0.0000 0.0000
# 4 0.0000 0.0000 0.0000 24.1873 0.0000 0.0000
# 5 0.0000 0.0000 0.0000 0.0000 29.3862 0.0000
# 6 0.0000 0.0000 0.0000 0.0000 0.0000 14.1693
#
#
#
# Elastic Compliance Matrix: (Units=1/GPa)
#
#
# Indices 1 2 3 4 5 6 
#
# 1 0.018026 -0.004556 -0.006430 0.000000 0.000000 0.000000
# 2 -0.004556 0.017763 -0.005049 0.000000 0.000000 0.000000
# 3 -0.006430 -0.005049 0.014915 0.000000 0.000000 0.000000
# 4 0.000000 0.000000 0.000000 0.041344 0.000000 0.000000
# 5 0.000000 0.000000 0.000000 0.000000 0.034030 0.000000
# 6 0.000000 0.000000 0.000000 0.000000 0.000000 0.070575
#
#
# Mechanical properties :
#
#
# Convention : Reuss Voigt Hill
#
# Bulk Modulus (GPa) = 53.66813 55.33800 54.50307
# Shear Modulus (GPa) = 21.28253 22.69720 21.98986
#
# Velocity S-wave (km/s) = 3.49786 3.61224 3.55551
# Velocity P-wave (km/s) = 6.86778 7.01504 6.94180
#
# Compressibility (1/GPa) = 0.01863303
#
# Stress axis : x y z
#
# Youngs Moduli (GPa) = 55.47571 56.29758 67.04525
#
# Poissons Ratio (x) = 0.25650 0.43113
# Poissons Ratio (y) = 0.25275 0.33851
# Poissons Ratio (z) = 0.35673 0.28425
#
# Static dielectric constant tensor:
#      x y z
#    x 3.102060 0.000000 0.000000 
#    y 0.000000 3.638020 0.000000 
#    z 0.000000 0.000000 3.350790 
# 
# 
# High freq. dielectric constant tensor:
#      x y z
#    x 1.648230 0.000000 0.000000 
#    y 0.000000 1.664060 0.000000 
#    z 0.000000 0.000000 1.689350 
# 
# From -- ./inp_files/4504.got.cif
#   From: 2010.03.12/outbox.cif.g09.slc.cpg/sg49_3_cif.got.tgz:4504.got - 2010.04.14 03:58:27.
