data_PCOD8202893
_publ_section_title
;
Structure prediction by ZEFSAII (Michael W. Deem and Ramdas Pophale) SiO2 
 PCOD8202893
Probable space group: P C C M
;
_chemical_formula_sum "Si O2"
_cell_formula_units_Z 42
_cell_length_a 12.615645
_cell_length_b 11.163711
_cell_length_c 15.065544
_cell_angle_alpha 90.000000
_cell_angle_beta 90.000000
_cell_angle_gamma 90.000000
_cell_volume 2121.792270
_symmetry_space_group_name_H-M "P C C M"
_symmetry_group_IT_number 49
_symmetry_cell_setting 'orthorhombic'
loop_
_space_group_symop_operation_xyz
x,y,z
-x,-y,z
x,-y,1/2-z
-x,y,1/2-z
-x,-y,-z
x,y,-z
-x,y,1/2+z
x,-y,1/2+z
loop_
_atom_site_type_symbol
_atom_site_label
_atom_site_fract_x
_atom_site_fract_y
_atom_site_fract_z
Si Si1 0.500000 0.000000 0.750000
Si Si2 0.796286 0.318647 0.899591
Si Si3 0.394408 0.837208 0.101489
Si Si4 0.535072 0.370354 0.650144
Si Si5 0.237310 0.583652 0.603444
Si Si6 0.014887 0.367837 0.853268
O O1 0.426739 0.926197 0.818848
O O2 0.718249 0.216054 0.862710
O O3 0.779029 0.449837 0.853792
O O4 0.921361 0.282258 0.891684
O O5 0.761642 0.333542 0.000000
O O6 0.480375 0.731420 0.091391
O O7 0.385998 0.893740 0.000000
O O8 0.500000 0.500000 0.612692
O O9 0.500000 0.352176 0.750000
O O10 0.661671 0.354551 0.648041
O O11 0.258459 0.574915 0.500000
O O12 0.135166 0.669755 0.622399
O O13 0.000000 0.500000 0.895978
O O14 0.000000 0.369851 0.750000
#
# Coordination Sequence:
#
# PCOD8202893 Si02
#       6
#     2   8   8   8   8   8
#     4  12  26  44  58  86 114 156 218 278 306 358
#     4   9  18  33  52  77 111 152 193 234 286 353
#     4  11  23  40  62  84 115 157 202 255 310 359
#     4  11  22  33  55  86 124 158 192 238 300 371
#     4  10  19  31  49  78 119 158 189 224 280 362
#     4   9  18  27  46  74 113 153 191 224 270 338
#
# _framework density 19.794587
#
# number of rings (size 3 to 8) (size 9 to 14) (size 15 to 20)
#    0.000    1.905    2.857    1.429    2.667    4.571 
#    0.000    0.000    0.000    0.000    0.000    6.000 
#    0.000   15.238    0.000    0.000    0.000    0.000 
#
# Total GULP energy -520322.682077 kJ/mol
# GULP energy per Si atom -12388.635288 kJ/mol
# Density = 1.974953 g / cm^3
# Si number density = 19.794587 Si / 1000 Ang^3
#
#
#
# Elastic Constant Matrix: (Units=GPa)
#
#
# Indices 1 2 3 4 5 6 
#
# 1 212.7891 44.1898 43.3319 0.0000 0.0000 0.0000
# 2 44.1898 60.7363 30.0106 0.0000 0.0000 0.0000
# 3 43.3319 30.0106 91.1256 0.0000 0.0000 0.0000
# 4 0.0000 0.0000 0.0000 14.0644 0.0000 0.0000
# 5 0.0000 0.0000 0.0000 0.0000 29.7180 0.0000
# 6 0.0000 0.0000 0.0000 0.0000 0.0000 71.9617
#
#
#
# Elastic Compliance Matrix: (Units=1/GPa)
#
#
# Indices 1 2 3 4 5 6 
#
# 1 0.005728 -0.003370 -0.001614 0.000000 0.000000 0.000000
# 2 -0.003370 0.021647 -0.005527 0.000000 0.000000 0.000000
# 3 -0.001614 -0.005527 0.013561 0.000000 0.000000 0.000000
# 4 0.000000 0.000000 0.000000 0.071101 0.000000 0.000000
# 5 0.000000 0.000000 0.000000 0.000000 0.033650 0.000000
# 6 0.000000 0.000000 0.000000 0.000000 0.000000 0.013896
#
#
# Mechanical properties :
#
#
# Convention : Reuss Voigt Hill
#
# Bulk Modulus (GPa) = 50.21204 66.63508 58.42356
# Shear Modulus (GPa) = 26.70314 39.62338 33.16326
#
# Velocity S-wave (km/s) = 3.67687 4.47892 4.09757
# Velocity P-wave (km/s) = 6.59147 7.77715 7.20873
#
# Compressibility (1/GPa) = 0.01991554
#
# Stress axis : x y z
#
# Youngs Moduli (GPa) = 174.58099 46.19505 73.73862
#
# Poissons Ratio (x) = 0.15568 0.11901
# Poissons Ratio (y) = 0.58835 0.40753
# Poissons Ratio (z) = 0.28176 0.25530
#
# Static dielectric constant tensor:
#      x y z
#    x 4.143800 0.000000 0.000000 
#    y 0.000000 3.229910 0.000000 
#    z 0.000000 0.000000 3.566220 
# 
# 
# High freq. dielectric constant tensor:
#      x y z
#    x 1.793270 0.000000 0.000000 
#    y 0.000000 1.687890 0.000000 
#    z 0.000000 0.000000 1.781920 
# 
# From -- ./inp_files/17004.got.cif
#   From: 2010.03.12/outbox.cif.g09.slc.cpg/sg49_9_cif.got.tgz:17004.got - 2010.04.14 03:58:27.
