data_PCOD8202601
_publ_section_title
;
Structure prediction by ZEFSAII (Michael W. Deem and Ramdas Pophale) SiO2 
 PCOD8202601
Probable space group: P C C M
;
_chemical_formula_sum "Si O2"
_cell_formula_units_Z 64
_cell_length_a 11.707666
_cell_length_b 17.377614
_cell_length_c 17.329704
_cell_angle_alpha 90.000000
_cell_angle_beta 90.000000
_cell_angle_gamma 90.000000
_cell_volume 3525.750818
_symmetry_space_group_name_H-M "P C C M"
_symmetry_group_IT_number 49
_symmetry_cell_setting 'orthorhombic'
loop_
_space_group_symop_operation_xyz
x,y,z
-x,-y,z
x,-y,1/2-z
-x,y,1/2-z
-x,-y,-z
x,y,-z
-x,y,1/2+z
x,-y,1/2+z
loop_
_atom_site_type_symbol
_atom_site_label
_atom_site_fract_x
_atom_site_fract_y
_atom_site_fract_z
Si Si1 0.114566 0.543972 0.410256
Si Si2 0.466424 0.677547 0.838301
Si Si3 0.869197 0.707940 0.836521
Si Si4 0.495789 0.916196 0.588585
Si Si5 0.685312 0.804682 0.411231
Si Si6 0.347918 0.773888 0.590968
Si Si7 0.127218 0.725913 0.156949
Si Si8 0.724014 0.592472 0.588938
O O1 0.101043 0.566425 0.500000
O O2 0.139586 0.619242 0.360536
O O3 0.225535 0.491710 0.395337
O O4 0.000000 0.500000 0.381803
O O5 0.500000 0.668752 0.750000
O O6 0.378519 0.746339 0.853906
O O7 0.581748 0.697287 0.885113
O O8 0.397199 0.601446 0.865881
O O9 0.780372 0.764285 0.878963
O O10 0.845457 0.714061 0.746348
O O11 0.994167 0.737536 0.859262
O O12 0.459325 0.927409 0.500000
O O13 0.626519 0.887361 0.596108
O O14 0.407718 0.852639 0.624572
O O15 0.500000 0.000000 0.630301
O O16 0.677895 0.775915 0.500000
O O17 0.814537 0.803628 0.378551
O O18 0.348311 0.779013 0.500000
O O19 0.177192 0.652779 0.111827
O O20 0.695684 0.604933 0.500000
#
# Coordination Sequence:
#
# PCOD8202601 Si02
#       8
#     8   8   8   8   8   8   8   8
#     4  10  20  35  54  76 100 130 172 225 273 315
#     4  10  18  31  51  72 102 137 172 214 256 310
#     4  11  22  34  49  74 106 139 174 218 271 311
#     4   8  15  30  54  84 110 131 163 210 261 308
#     4   9  17  31  55  81 103 134 174 216 257 308
#     4  10  19  31  51  77 105 137 171 210 258 311
#     4  10  20  33  50  74 102 137 177 218 262 310
#     4  10  19  34  55  75  98 131 176 224 266 312
#
# _framework density 18.152163000000002
#
# number of rings (size 3 to 8) (size 9 to 14) (size 15 to 20)
#    0.000    2.250    1.250    4.875    0.000    2.000 
#    0.000    0.625    0.000   20.250    0.000    5.250 
#    0.000    0.000    0.000    0.000    0.000    0.000 
#
# Total GULP energy -793050.359842 kJ/mol
# GULP energy per Si atom -12391.411873 kJ/mol
# Density = 1.811085 g / cm^3
# Si number density = 18.152163 Si / 1000 Ang^3
#
#
#
# Elastic Constant Matrix: (Units=GPa)
#
#
# Indices 1 2 3 4 5 6 
#
# 1 118.1671 56.3752 64.0844 0.0000 0.0000 0.0000
# 2 56.3752 93.0631 42.9174 0.0000 0.0000 0.0000
# 3 64.0844 42.9174 89.4939 0.0000 0.0000 0.0000
# 4 0.0000 0.0000 0.0000 -3.5069 0.0000 0.0000
# 5 0.0000 0.0000 0.0000 0.0000 34.9053 0.0000
# 6 0.0000 0.0000 0.0000 0.0000 0.0000 24.7662
#
#
#
# Elastic Compliance Matrix: (Units=1/GPa)
#
#
# Indices 1 2 3 4 5 6 
#
# 1 0.015821 -0.005597 -0.008645 0.000000 0.000000 0.000000
# 2 -0.005597 0.015777 -0.003558 0.000000 0.000000 0.000000
# 3 -0.008645 -0.003558 0.019071 0.000000 0.000000 0.000000
# 4 0.000000 0.000000 0.000000 -0.285148 0.000000 0.000000
# 5 0.000000 0.000000 0.000000 0.000000 0.028649 0.000000
# 6 0.000000 0.000000 0.000000 0.000000 0.000000 0.040378
#
#
# Mechanical properties :
#
#
# Convention : Reuss Voigt Hill
#
# Bulk Modulus (GPa) = 66.36368 69.71978 68.04173
# Shear Modulus (GPa) = -40.05458 20.38938 -9.83260
#
# Velocity S-wave (km/s) = -4.70254 3.35513 -2.32992
# Velocity P-wave (km/s) = 2.67466 7.31444 5.50703
#
# Compressibility (1/GPa) = 0.01506848
#
# Stress axis : x y z
#
# Youngs Moduli (GPa) = 63.20558 63.38395 52.43678
#
# Poissons Ratio (x) = 0.35479 0.45332
# Poissons Ratio (y) = 0.35379 0.18656
# Poissons Ratio (z) = 0.54641 0.22550
#
# Static dielectric constant tensor:
#      x y z
#    x 3.744650 0.000000 0.000000 
#    y 0.000000 3.351590 0.000000 
#    z 0.000000 0.000000 3.286110 
# 
# 
# High freq. dielectric constant tensor:
#      x y z
#    x 1.708980 0.000000 0.000000 
#    y 0.000000 1.668900 0.000000 
#    z 0.000000 0.000000 1.700410 
# 
# From -- ./inp_files/13079.got.cif
#   From: 2010.03.12/outbox.cif.g09.slc.cpg/sg49_7_cif.got.tgz:13079.got - 2010.04.14 03:58:27.
