data_PCOD8202757
_publ_section_title
;
Structure prediction by ZEFSAII (Michael W. Deem and Ramdas Pophale) SiO2 
 PCOD8202757
Probable space group: P C C M
;
_chemical_formula_sum "Si O2"
_cell_formula_units_Z 56
_cell_length_a 18.625912
_cell_length_b 19.073314
_cell_length_c 8.974940
_cell_angle_alpha 90.000000
_cell_angle_beta 90.000000
_cell_angle_gamma 90.000000
_cell_volume 3188.418051
_symmetry_space_group_name_H-M "P C C M"
_symmetry_group_IT_number 49
_symmetry_cell_setting 'orthorhombic'
loop_
_space_group_symop_operation_xyz
x,y,z
-x,-y,z
x,-y,1/2-z
-x,y,1/2-z
-x,-y,-z
x,y,-z
-x,y,1/2+z
x,-y,1/2+z
loop_
_atom_site_type_symbol
_atom_site_label
_atom_site_fract_x
_atom_site_fract_y
_atom_site_fract_z
Si Si1 0.708736 0.792318 0.824463
Si Si2 0.073718 0.844134 0.673731
Si Si3 0.812790 0.428863 0.173306
Si Si4 0.843490 0.707658 0.825150
Si Si5 0.425469 0.704985 0.322620
Si Si6 0.645590 0.572133 0.324531
Si Si7 0.213279 0.073507 0.823900
O O1 0.768576 0.738900 0.761832
O O2 0.630016 0.766632 0.776819
O O3 0.724974 0.871612 0.769921
O O4 0.719130 0.791276 0.000000
O O5 0.063102 0.853601 0.500000
O O6 0.094020 0.763595 0.711155
O O7 0.136296 0.896445 0.729409
O O8 0.000000 0.866028 0.750000
O O9 0.839638 0.500000 0.250000
O O10 0.858966 0.364491 0.238717
O O11 0.729236 0.415488 0.209307
O O12 0.827989 0.435773 0.000000
O O13 0.839125 0.691298 0.000000
O O14 0.500000 0.728173 0.250000
O O15 0.432130 0.697030 0.500000
O O16 0.400405 0.632123 0.253297
O O17 0.619842 0.500000 0.250000
O O18 0.629324 0.570523 0.500000
O O19 0.230624 0.000000 0.750000
O O20 0.214306 0.063913 0.000000
#
# Coordination Sequence:
#
# PCOD8202757 Si02
#       7
#     8   8   8   8   8   8   8
#     4   8  16  32  53  71  95 129 165 201 246 296
#     4   9  19  33  51  75 107 139 168 199 239 292
#     4  10  19  29  46  72  99 127 163 211 255 297
#     4   9  16  31  52  71  93 129 170 207 247 294
#     4  11  21  34  52  72  97 132 167 209 257 302
#     4  10  20  33  48  70  99 131 168 208 252 303
#     4   9  18  34  54  79 104 133 167 200 240 289
#
# _framework density 17.563569999999999
#
# number of rings (size 3 to 8) (size 9 to 14) (size 15 to 20)
#    0.000    2.571    1.429    3.000    0.000    2.857 
#    0.000    6.429    0.000    0.857    0.000    6.000 
#    0.000    0.000    0.000    0.000    0.000    0.000 
#
# Total GULP energy -694277.486842 kJ/mol
# GULP energy per Si atom -12397.812265 kJ/mol
# Density = 1.752359 g / cm^3
# Si number density = 17.563570 Si / 1000 Ang^3
#
#
#
# Elastic Constant Matrix: (Units=GPa)
#
#
# Indices 1 2 3 4 5 6 
#
# 1 70.5934 46.3119 30.0093 0.0000 0.0000 0.0000
# 2 46.3119 143.7241 41.9782 0.0000 0.0000 0.0000
# 3 30.0093 41.9782 58.1155 0.0000 0.0000 0.0000
# 4 0.0000 0.0000 0.0000 32.0472 0.0000 0.0000
# 5 0.0000 0.0000 0.0000 0.0000 -0.7324 0.0000
# 6 0.0000 0.0000 0.0000 0.0000 0.0000 19.1085
#
#
#
# Elastic Compliance Matrix: (Units=1/GPa)
#
#
# Indices 1 2 3 4 5 6 
#
# 1 0.020102 -0.004367 -0.007226 0.000000 0.000000 0.000000
# 2 -0.004367 0.009767 -0.004800 0.000000 0.000000 0.000000
# 3 -0.007226 -0.004800 0.024405 0.000000 0.000000 0.000000
# 4 0.000000 0.000000 0.000000 0.031204 0.000000 0.000000
# 5 0.000000 0.000000 0.000000 0.000000 -1.365420 0.000000
# 6 0.000000 0.000000 0.000000 0.000000 0.000000 0.052333
#
#
# Mechanical properties :
#
#
# Convention : Reuss Voigt Hill
#
# Bulk Modulus (GPa) = 46.53525 56.55910 51.54717
# Shear Modulus (GPa) = -4.20996 20.36024 8.07514
#
# Velocity S-wave (km/s) = -1.54990 3.40844 2.14654
# Velocity P-wave (km/s) = 4.83218 6.91103 5.96290
#
# Compressibility (1/GPa) = 0.02148909
#
# Stress axis : x y z
#
# Youngs Moduli (GPa) = 49.74560 102.38709 40.97453
#
# Poissons Ratio (x) = 0.44713 0.29608
# Poissons Ratio (y) = 0.21724 0.19667
# Poissons Ratio (z) = 0.35946 0.49144
#
# Static dielectric constant tensor:
#      x y z
#    x 3.217100 0.000000 0.000000 
#    y 0.000000 3.364490 0.000000 
#    z 0.000000 0.000000 3.093290 
# 
# 
# High freq. dielectric constant tensor:
#      x y z
#    x 1.654050 0.000000 0.000000 
#    y 0.000000 1.680270 0.000000 
#    z 0.000000 0.000000 1.670250 
# 
# From -- ./inp_files/5152.got.cif
#   From: 2010.03.12/outbox.cif.g09.slc.cpg/sg49_3_cif.got.tgz:5152.got - 2010.04.14 03:58:27.
