data_PCOD8202008
_publ_section_title
;
Structure prediction by ZEFSAII (Michael W. Deem and Ramdas Pophale) SiO2 
 PCOD8202008
Probable space group: P N N N
;
_chemical_formula_sum "Si O2"
_cell_formula_units_Z 56
_cell_length_a 16.169318
_cell_length_b 32.691095
_cell_length_c 4.935102
_cell_angle_alpha 90.000000
_cell_angle_beta 90.000000
_cell_angle_gamma 90.000000
_cell_volume 2608.658944
_symmetry_space_group_name_H-M "P N N N"
_symmetry_group_IT_number 48
_space_group.IT_coordinate_system_code '2'
_symmetry_cell_setting 'orthorhombic'
loop_
_space_group_symop_operation_xyz
x,y,z
1/2-x,1/2-y,z
x,1/2-y,1/2-z
1/2-x,y,1/2-z
-x,-y,-z
1/2+x,1/2+y,-z
-x,1/2+y,1/2+z
1/2+x,-y,1/2+z
loop_
_atom_site_type_symbol
_atom_site_label
_atom_site_fract_x
_atom_site_fract_y
_atom_site_fract_z
Si Si1 0.480090 0.595701 0.984770
Si Si2 0.524036 0.953175 0.000029
Si Si3 0.336813 0.172650 0.864288
Si Si4 0.937042 0.821541 0.869201
Si Si5 0.613220 0.295726 0.301330
Si Si6 0.304471 0.418710 0.511845
Si Si7 0.659664 0.153671 0.678014
O O1 0.519136 0.565189 0.200349
O O2 0.399673 0.615081 0.128634
O O3 0.462443 0.569496 0.712751
O O4 0.542944 0.630203 0.877466
O O5 0.620407 0.947966 0.917059
O O6 0.500000 0.000000 0.000000
O O7 0.250000 0.189684 0.750000
O O8 0.407897 0.190891 0.668597
O O9 0.360775 0.187602 0.165049
O O10 0.338605 0.123503 0.860017
O O11 0.017282 0.796312 0.784733
O O12 0.645832 0.250000 0.250000
O O13 0.623438 0.313898 0.603290
O O14 0.668921 0.323046 0.104941
O O15 0.250000 0.408469 0.250000
O O16 0.250000 0.440153 0.750000
O O17 0.750000 0.136639 0.750000
#
# Coordination Sequence:
#
# PCOD8202008 Si02
#       7
#     8   8   8   8   8   8   8
#     4  11  21  41  61  87 119 158 209 253 302 373
#     4  12  24  40  62  88 123 166 206 250 311 377
#     4  11  20  32  57  91 116 148 198 254 304 344
#     4  11  19  37  59  84 122 155 199 253 295 365
#     4  11  24  40  64  95 127 166 206 257 321 375
#     4  11  21  36  58  88 122 150 193 262 314 350
#     4  11  24  42  66  94 124 165 211 263 316 373
#
# _framework density 21.466968999999999
#
# number of rings (size 3 to 8) (size 9 to 14) (size 15 to 20)
#    0.000    0.857    2.857    7.714    0.000    1.714 
#    0.000    2.143    0.000    2.571    0.000    0.000 
#    0.000    0.000    0.000    0.000    0.000    0.000 
#
# Total GULP energy -694264.520795 kJ/mol
# GULP energy per Si atom -12397.580728 kJ/mol
# Density = 2.141811 g / cm^3
# Si number density = 21.466969 Si / 1000 Ang^3
#
#
#
# Elastic Constant Matrix: (Units=GPa)
#
#
# Indices 1 2 3 4 5 6 
#
# 1 104.2704 7.0525 24.8957 0.0000 0.0000 0.0000
# 2 7.0525 56.6532 17.0266 0.0000 0.0000 0.0000
# 3 24.8957 17.0266 111.1887 0.0000 0.0000 0.0000
# 4 0.0000 0.0000 0.0000 22.7772 0.0000 0.0000
# 5 0.0000 0.0000 0.0000 0.0000 42.6622 0.0000
# 6 0.0000 0.0000 0.0000 0.0000 0.0000 9.7587
#
#
#
# Elastic Compliance Matrix: (Units=1/GPa)
#
#
# Indices 1 2 3 4 5 6 
#
# 1 0.010152 -0.000609 -0.002180 0.000000 0.000000 0.000000
# 2 -0.000609 0.018539 -0.002703 0.000000 0.000000 0.000000
# 3 -0.002180 -0.002703 0.009896 0.000000 0.000000 0.000000
# 4 0.000000 0.000000 0.000000 0.043904 0.000000 0.000000
# 5 0.000000 0.000000 0.000000 0.000000 0.023440 0.000000
# 6 0.000000 0.000000 0.000000 0.000000 0.000000 0.102473
#
#
# Mechanical properties :
#
#
# Convention : Reuss Voigt Hill
#
# Bulk Modulus (GPa) = 36.22583 41.11798 38.67191
# Shear Modulus (GPa) = 21.87347 29.91544 25.89446
#
# Velocity S-wave (km/s) = 3.19554 3.73709 3.47687
# Velocity P-wave (km/s) = 5.52513 6.14953 5.84568
#
# Compressibility (1/GPa) = 0.02760461
#
# Stress axis : x y z
#
# Youngs Moduli (GPa) = 98.50183 53.93950 101.05423
#
# Poissons Ratio (x) = 0.03283 0.22029
# Poissons Ratio (y) = 0.05995 0.27312
# Poissons Ratio (z) = 0.21472 0.14578
#
# Static dielectric constant tensor:
#      x y z
#    x 3.926640 0.000000 0.000000 
#    y 0.000000 3.491860 0.000000 
#    z 0.000000 0.000000 4.166630 
# 
# 
# High freq. dielectric constant tensor:
#      x y z
#    x 1.841520 0.000000 0.000000 
#    y 0.000000 1.797580 0.000000 
#    z 0.000000 0.000000 1.869180 
# 
# From -- ./inp_files/3729.got.cif
#   From: 2010.06.25/outbox.cif.g09.slc.cpg/sg48_2_cif.got.tgz:3729.got - 2010.06.26 18:06:46.
