data_PCOD8202530
_publ_section_title
;
Structure prediction by ZEFSAII (Michael W. Deem and Ramdas Pophale) SiO2 
 PCOD8202530
Probable space group: P C C M
;
_chemical_formula_sum "Si O2"
_cell_formula_units_Z 64
_cell_length_a 19.102900
_cell_length_b 23.636662
_cell_length_c 8.778393
_cell_angle_alpha 90.000000
_cell_angle_beta 90.000000
_cell_angle_gamma 90.000000
_cell_volume 3963.697174
_symmetry_space_group_name_H-M "P C C M"
_symmetry_group_IT_number 49
_symmetry_cell_setting 'orthorhombic'
loop_
_space_group_symop_operation_xyz
x,y,z
-x,-y,z
x,-y,1/2-z
-x,y,1/2-z
-x,-y,-z
x,y,-z
-x,y,1/2+z
x,-y,1/2+z
loop_
_atom_site_type_symbol
_atom_site_label
_atom_site_fract_x
_atom_site_fract_y
_atom_site_fract_z
Si Si1 0.703445 0.666766 0.678712
Si Si2 0.425185 0.720470 0.680876
Si Si3 0.209488 0.559130 0.822581
Si Si4 0.423976 0.058524 0.182095
Si Si5 0.212825 0.232583 0.819534
Si Si6 0.928896 0.618563 0.320141
Si Si7 0.652488 0.168928 0.679201
Si Si8 0.071766 0.748853 0.820291
O O1 0.697498 0.679339 0.500000
O O2 0.628552 0.673165 0.759338
O O3 0.728583 0.603171 0.711680
O O4 0.760705 0.708963 0.748094
O O5 0.500000 0.706741 0.750000
O O6 0.428532 0.717755 0.500000
O O7 0.398388 0.781543 0.741545
O O8 0.230859 0.500000 0.750000
O O9 0.136199 0.582723 0.754821
O O10 0.199545 0.549870 0.000000
O O11 0.500000 0.071477 0.250000
O O12 0.372049 0.107987 0.241122
O O13 0.394255 0.000000 0.250000
O O14 0.428742 0.054670 0.000000
O O15 0.267254 0.182358 0.774598
O O16 0.137222 0.216855 0.750561
O O17 0.208134 0.239875 0.000000
O O18 0.933406 0.614480 0.500000
O O19 0.919531 0.683665 0.270213
O O20 0.000000 0.593158 0.250000
O O21 0.644617 0.168786 0.500000
O O22 0.000000 0.773566 0.750000
O O23 0.070722 0.757316 0.000000
#
# Coordination Sequence:
#
# PCOD8202530 Si02
#       8
#     8   8   8   8   8   8   8   8
#     4  10  19  34  50  67  93 120 147 187 231 277
#     4  10  19  32  50  74  96 120 151 185 230 280
#     4  10  21  35  49  66  89 116 150 188 227 273
#     4  10  18  30  45  64  93 130 167 201 230 265
#     4  10  18  30  48  70  93 122 156 192 235 280
#     4   9  18  32  46  64  89 117 149 184 221 265
#     4   8  17  30  45  67  97 126 158 195 229 269
#     4  10  18  30  46  67  94 124 156 189 230 278
#
# _framework density 16.146540999999999
#
# number of rings (size 3 to 8) (size 9 to 14) (size 15 to 20)
#    0.000    2.375    1.250    3.375    0.000    2.250 
#    0.000    8.125    0.000    0.375    0.000    2.625 
#    0.000    0.500    0.000    5.750    0.000    1.750 
#
# Total GULP energy -793509.932789 kJ/mol
# GULP energy per Si atom -12398.592700 kJ/mol
# Density = 1.610979 g / cm^3
# Si number density = 16.146541 Si / 1000 Ang^3
#
#
#
# Elastic Constant Matrix: (Units=GPa)
#
#
# Indices 1 2 3 4 5 6 
#
# 1 142.0658 57.3961 46.0430 0.0000 0.0000 0.0000
# 2 57.3961 89.6240 34.1025 0.0000 0.0000 0.0000
# 3 46.0430 34.1025 68.0224 0.0000 0.0000 0.0000
# 4 0.0000 0.0000 0.0000 17.8060 0.0000 0.0000
# 5 0.0000 0.0000 0.0000 0.0000 29.8407 0.0000
# 6 0.0000 0.0000 0.0000 0.0000 0.0000 19.1889
#
#
#
# Elastic Compliance Matrix: (Units=1/GPa)
#
#
# Indices 1 2 3 4 5 6 
#
# 1 0.010563 -0.004998 -0.004645 0.000000 0.000000 0.000000
# 2 -0.004998 0.016152 -0.004715 0.000000 0.000000 0.000000
# 3 -0.004645 -0.004715 0.020209 0.000000 0.000000 0.000000
# 4 0.000000 0.000000 0.000000 0.056161 0.000000 0.000000
# 5 0.000000 0.000000 0.000000 0.000000 0.033511 0.000000
# 6 0.000000 0.000000 0.000000 0.000000 0.000000 0.052113
#
#
# Mechanical properties :
#
#
# Convention : Reuss Voigt Hill
#
# Bulk Modulus (GPa) = 54.91522 63.86615 59.39069
# Shear Modulus (GPa) = 22.37189 24.17849 23.27519
#
# Velocity S-wave (km/s) = 3.72634 3.87388 3.80082
# Velocity P-wave (km/s) = 7.25248 7.72329 7.49158
#
# Compressibility (1/GPa) = 0.01820989
#
# Stress axis : x y z
#
# Youngs Moduli (GPa) = 94.66671 61.91050 49.48347
#
# Poissons Ratio (x) = 0.30940 0.22983
# Poissons Ratio (y) = 0.47310 0.23332
# Poissons Ratio (z) = 0.43969 0.29191
#
# Static dielectric constant tensor:
#      x y z
#    x 3.189490 0.000000 0.000000 
#    y 0.000000 3.055690 0.000000 
#    z 0.000000 0.000000 3.016440 
# 
# 
# High freq. dielectric constant tensor:
#      x y z
#    x 1.622810 0.000000 0.000000 
#    y 0.000000 1.585500 0.000000 
#    z 0.000000 0.000000 1.624500 
# 
# From -- ./inp_files/5409.got.cif
#   From: 2010.03.12/outbox.cif.g09.slc.cpg/sg49_3_cif.got.tgz:5409.got - 2010.04.14 03:58:27.
