data_PCOD8202633
_publ_section_title
;
Structure prediction by ZEFSAII (Michael W. Deem and Ramdas Pophale) SiO2 
 PCOD8202633
Probable space group: P C C M
;
_chemical_formula_sum "Si O2"
_cell_formula_units_Z 64
_cell_length_a 24.786155
_cell_length_b 14.853908
_cell_length_c 8.768856
_cell_angle_alpha 90.000000
_cell_angle_beta 90.000000
_cell_angle_gamma 90.000000
_cell_volume 3228.440815
_symmetry_space_group_name_H-M "P C C M"
_symmetry_group_IT_number 49
_symmetry_cell_setting 'orthorhombic'
loop_
_space_group_symop_operation_xyz
x,y,z
-x,-y,z
x,-y,1/2-z
-x,y,1/2-z
-x,-y,-z
x,y,-z
-x,y,1/2+z
x,-y,1/2+z
loop_
_atom_site_type_symbol
_atom_site_label
_atom_site_fract_x
_atom_site_fract_y
_atom_site_fract_z
Si Si1 0.853173 0.716850 0.821924
Si Si2 0.057996 0.594668 0.818635
Si Si3 0.658888 0.669575 0.328636
Si Si4 0.768742 0.592106 0.321153
Si Si5 0.188085 0.090144 0.821330
Si Si6 0.697854 0.132032 0.824155
Si Si7 0.445525 0.281505 0.178444
Si Si8 0.589639 0.087866 0.678889
O O1 0.902148 0.675088 0.726374
O O2 0.797182 0.674142 0.765367
O O3 0.850500 0.824064 0.790255
O O4 0.861413 0.696444 0.000000
O O5 0.079196 0.500000 0.750000
O O6 0.000000 0.618603 0.750000
O O7 0.054238 0.586242 0.000000
O O8 0.636822 0.661596 0.500000
O O9 0.704120 0.594768 0.292829
O O10 0.690884 0.761811 0.303342
O O11 0.606646 0.658444 0.221090
O O12 0.791214 0.500000 0.250000
O O13 0.782931 0.597212 0.500000
O O14 0.244994 0.102522 0.739320
O O15 0.160742 0.000000 0.750000
O O16 0.197917 0.077651 0.000000
O O17 0.651992 0.082855 0.726790
O O18 0.692611 0.102941 0.000000
O O19 0.500000 0.322325 0.250000
O O20 0.436945 0.179897 0.243033
O O21 0.452216 0.282385 0.000000
O O22 0.583770 0.084548 0.500000
O O23 0.560041 0.000000 0.750000
#
# Coordination Sequence:
#
# PCOD8202633 Si02
#       8
#     8   8   8   8   8   8   8   8
#     4  11  23  39  59  87 123 162 202 246 292 343
#     4  11  22  39  64  93 127 164 204 248 294 349
#     4   9  19  35  55  77 106 141 179 223 275 335
#     4  11  22  37  58  88 121 155 189 229 285 348
#     4  11  23  36  54  79 113 155 200 246 291 342
#     4  10  18  32  52  73 102 140 184 230 277 333
#     4  10  21  35  53  73  96 129 174 222 276 337
#     4  10  20  32  46  68  96 130 171 219 275 334
#
# _framework density 19.823810999999999
#
# number of rings (size 3 to 8) (size 9 to 14) (size 15 to 20)
#    0.000    1.625    1.250    4.500    0.000    4.750 
#    0.000    1.250    0.000    0.750    0.000    5.250 
#    0.000    0.000    0.000    0.000    0.000    0.000 
#
# Total GULP energy -793616.864591 kJ/mol
# GULP energy per Si atom -12400.263509 kJ/mol
# Density = 1.977869 g / cm^3
# Si number density = 19.823811 Si / 1000 Ang^3
#
#
#
# Elastic Constant Matrix: (Units=GPa)
#
#
# Indices 1 2 3 4 5 6 
#
# 1 92.1617 31.1782 37.6810 0.0000 0.0000 0.0000
# 2 31.1782 79.8056 34.2518 0.0000 0.0000 0.0000
# 3 37.6810 34.2518 103.5989 0.0000 0.0000 0.0000
# 4 0.0000 0.0000 0.0000 26.7937 0.0000 0.0000
# 5 0.0000 0.0000 0.0000 0.0000 31.0367 0.0000
# 6 0.0000 0.0000 0.0000 0.0000 0.0000 12.1199
#
#
#
# Elastic Compliance Matrix: (Units=1/GPa)
#
#
# Indices 1 2 3 4 5 6 
#
# 1 0.013635 -0.003727 -0.003727 0.000000 0.000000 0.000000
# 2 -0.003727 0.015621 -0.003809 0.000000 0.000000 0.000000
# 3 -0.003727 -0.003809 0.012268 0.000000 0.000000 0.000000
# 4 0.000000 0.000000 0.000000 0.037322 0.000000 0.000000
# 5 0.000000 0.000000 0.000000 0.000000 0.032220 0.000000
# 6 0.000000 0.000000 0.000000 0.000000 0.000000 0.082509
#
#
# Mechanical properties :
#
#
# Convention : Reuss Voigt Hill
#
# Bulk Modulus (GPa) = 52.63897 53.53203 53.08550
# Shear Modulus (GPa) = 22.47849 25.48709 23.98279
#
# Velocity S-wave (km/s) = 3.37102 3.58953 3.48199
# Velocity P-wave (km/s) = 6.46241 6.65148 6.55762
#
# Compressibility (1/GPa) = 0.01899733
#
# Stress axis : x y z
#
# Youngs Moduli (GPa) = 73.33902 64.01457 81.51581
#
# Poissons Ratio (x) = 0.23861 0.30382
# Poissons Ratio (y) = 0.27336 0.31050
# Poissons Ratio (z) = 0.27334 0.24383
#
# Static dielectric constant tensor:
#      x y z
#    x 3.423450 0.000000 0.000000 
#    y 0.000000 3.880330 0.000000 
#    z 0.000000 0.000000 3.643200 
# 
# 
# High freq. dielectric constant tensor:
#      x y z
#    x 1.754260 0.000000 0.000000 
#    y 0.000000 1.762920 0.000000 
#    z 0.000000 0.000000 1.784500 
# 
# From -- ./inp_files/6492.got.cif
#   From: 2010.03.12/outbox.cif.g09.slc.cpg/sg49_4_cif.got.tgz:6492.got - 2010.04.14 03:58:27.
