data_PCOD8202241
_publ_section_title
;
Structure prediction by ZEFSAII (Michael W. Deem and Ramdas Pophale) SiO2 
 PCOD8202241
Probable space group: P C C M
;
_chemical_formula_sum "Si O2"
_cell_formula_units_Z 42
_cell_length_a 9.829733
_cell_length_b 25.850794
_cell_length_c 8.801931
_cell_angle_alpha 90.000000
_cell_angle_beta 90.000000
_cell_angle_gamma 90.000000
_cell_volume 2236.627025
_symmetry_space_group_name_H-M "P C C M"
_symmetry_group_IT_number 49
_symmetry_cell_setting 'orthorhombic'
loop_
_space_group_symop_operation_xyz
x,y,z
-x,-y,z
x,-y,1/2-z
-x,y,1/2-z
-x,-y,-z
x,y,-z
-x,y,1/2+z
x,-y,1/2+z
loop_
_atom_site_type_symbol
_atom_site_label
_atom_site_fract_x
_atom_site_fract_y
_atom_site_fract_z
Si Si1 0.258011 0.951024 0.834377
Si Si2 0.857796 0.258009 0.322372
Si Si3 0.349233 0.551235 0.181830
Si Si4 0.145224 0.141645 0.178808
Si Si5 0.352005 0.344883 0.180894
Si Si6 0.000000 0.000000 0.250000
O O1 0.262975 0.897326 0.740052
O O2 0.331808 0.000000 0.750000
O O3 0.097833 0.964980 0.855382
O O4 0.324881 0.942903 0.000000
O O5 0.880375 0.261340 0.500000
O O6 0.813663 0.200006 0.274124
O O7 0.740121 0.296683 0.268971
O O8 0.000000 0.274769 0.250000
O O9 0.274322 0.500000 0.250000
O O10 0.500000 0.551898 0.250000
O O11 0.281508 0.603953 0.244871
O O12 0.349847 0.549713 0.000000
O O13 0.000000 0.128033 0.250000
O O14 0.135412 0.134453 0.000000
O O15 0.500000 0.334657 0.250000
O O16 0.362601 0.351619 0.000000
#
# Coordination Sequence:
#
# PCOD8202241 Si02
#       6
#     8   8   8   8   8   2
#     4  10  17  23  34  51  74 106 142 182 226 275
#     4   9  20  34  49  69  96 129 164 200 239 284
#     4  10  17  27  45  71  99 127 157 194 239 283
#     4  10  17  26  39  56  80 112 148 186 227 274
#     4  10  19  33  51  74 101 129 162 200 239 281
#     4   8  18  20  30  44  74 100 140 172 224 264
#
# _framework density 18.778276000000002
#
# number of rings (size 3 to 8) (size 9 to 14) (size 15 to 20)
#    0.571    1.714    0.952    5.429    0.000    2.286 
#    0.000    0.000    0.000    0.571    0.000    4.000 
#    0.000    0.762    0.000    8.762    0.000    5.524 
#
# Total GULP energy -520308.779462 kJ/mol
# GULP energy per Si atom -12388.304273 kJ/mol
# Density = 1.873554 g / cm^3
# Si number density = 18.778276 Si / 1000 Ang^3
#
#
#
# Elastic Constant Matrix: (Units=GPa)
#
#
# Indices 1 2 3 4 5 6 
#
# 1 36.2564 44.4377 21.9965 0.0000 0.0000 0.0000
# 2 44.4377 178.0372 63.6104 0.0000 0.0000 0.0000
# 3 21.9965 63.6104 125.1159 0.0000 0.0000 0.0000
# 4 0.0000 0.0000 0.0000 23.9116 0.0000 0.0000
# 5 0.0000 0.0000 0.0000 0.0000 10.8485 0.0000
# 6 0.0000 0.0000 0.0000 0.0000 0.0000 27.4818
#
#
#
# Elastic Compliance Matrix: (Units=1/GPa)
#
#
# Indices 1 2 3 4 5 6 
#
# 1 0.040324 -0.009204 -0.002410 0.000000 0.000000 0.000000
# 2 -0.009204 0.008964 -0.002939 0.000000 0.000000 0.000000
# 3 -0.002410 -0.002939 0.009911 0.000000 0.000000 0.000000
# 4 0.000000 0.000000 0.000000 0.041821 0.000000 0.000000
# 5 0.000000 0.000000 0.000000 0.000000 0.092179 0.000000
# 6 0.000000 0.000000 0.000000 0.000000 0.000000 0.036388
#
#
# Mechanical properties :
#
#
# Convention : Reuss Voigt Hill
#
# Bulk Modulus (GPa) = 33.23071 66.61098 49.92084
# Shear Modulus (GPa) = 18.60647 26.40602 22.50625
#
# Velocity S-wave (km/s) = 3.15119 3.75400 3.46573
# Velocity P-wave (km/s) = 5.56550 7.37153 6.53124
#
# Compressibility (1/GPa) = 0.03009265
#
# Stress axis : x y z
#
# Youngs Moduli (GPa) = 24.79907 111.55410 100.90061
#
# Poissons Ratio (x) = 1.02671 0.24318
# Poissons Ratio (y) = 0.22824 0.29659
# Poissons Ratio (z) = 0.05977 0.32791
#
# Static dielectric constant tensor:
#      x y z
#    x 2.806240 0.000000 0.000000 
#    y 0.000000 4.393400 0.000000 
#    z 0.000000 0.000000 3.425190 
# 
# 
# High freq. dielectric constant tensor:
#      x y z
#    x 1.651390 0.000000 0.000000 
#    y 0.000000 1.754570 0.000000 
#    z 0.000000 0.000000 1.739610 
# 
# From -- ./inp_files/2846.got.cif
#   From: 2010.03.12/outbox.cif.g09.slc.cpg/sg49_2_cif.got.tgz:2846.got - 2010.04.14 03:58:27.
