data_PCOD8202499
_publ_section_title
;
Structure prediction by ZEFSAII (Michael W. Deem and Ramdas Pophale) SiO2 
 PCOD8202499
Probable space group: P C C M
;
_chemical_formula_sum "Si O2"
_cell_formula_units_Z 48
_cell_length_a 13.784097
_cell_length_b 23.760094
_cell_length_c 8.806138
_cell_angle_alpha 90.000000
_cell_angle_beta 90.000000
_cell_angle_gamma 90.000000
_cell_volume 2884.110941
_symmetry_space_group_name_H-M "P C C M"
_symmetry_group_IT_number 49
_symmetry_cell_setting 'orthorhombic'
loop_
_space_group_symop_operation_xyz
x,y,z
-x,-y,z
x,-y,1/2-z
-x,y,1/2-z
-x,-y,-z
x,y,-z
-x,y,1/2+z
x,-y,1/2+z
loop_
_atom_site_type_symbol
_atom_site_label
_atom_site_fract_x
_atom_site_fract_y
_atom_site_fract_z
Si Si1 0.898014 0.772703 0.821738
Si Si2 0.102692 0.559027 0.820433
Si Si3 0.394998 0.057671 0.819096
Si Si4 0.600192 0.722103 0.177177
Si Si5 0.291940 0.169655 0.819706
Si Si6 0.206797 0.659085 0.323326
O O1 0.816949 0.817000 0.761389
O O2 0.864900 0.709892 0.777107
O O3 0.000000 0.788735 0.750000
O O4 0.909016 0.777843 0.000000
O O5 0.137062 0.500000 0.750000
O O6 0.182431 0.605547 0.779519
O O7 0.000000 0.577628 0.750000
O O8 0.092124 0.552923 0.000000
O O9 0.500000 0.069861 0.750000
O O10 0.324248 0.107876 0.766008
O O11 0.351982 0.000000 0.750000
O O12 0.403073 0.053001 0.000000
O O13 0.500000 0.702118 0.250000
O O14 0.633941 0.782880 0.243489
O O15 0.682555 0.675984 0.212897
O O16 0.582945 0.727390 0.000000
O O17 0.292557 0.174671 0.000000
O O18 0.193730 0.643953 0.500000
#
# Coordination Sequence:
#
# PCOD8202499 Si02
#       6
#     8   8   8   8   8   8
#     4   9  17  30  47  67  91 119 150 184 225 269
#     4  11  21  33  50  71  96 124 155 189 227 270
#     4  10  18  29  45  65  90 118 149 184 224 268
#     4   9  17  30  48  69  94 123 153 187 227 271
#     4   8  16  30  46  64  90 123 151 181 225 272
#     4   9  18  32  48  68  96 125 152 185 227 272
#
# _framework density 16.642911000000002
#
# number of rings (size 3 to 8) (size 9 to 14) (size 15 to 20)
#    0.000    2.667    0.000    6.000    0.000    2.667 
#    0.000    5.000    0.000    1.000    0.000    7.000 
#    0.000    0.000    0.000    0.000    0.000    0.000 
#
# Total GULP energy -595073.864593 kJ/mol
# GULP energy per Si atom -12397.372179 kJ/mol
# Density = 1.660503 g / cm^3
# Si number density = 16.642911 Si / 1000 Ang^3
#
#
#
# Elastic Constant Matrix: (Units=GPa)
#
#
# Indices 1 2 3 4 5 6 
#
# 1 123.0770 69.3894 39.4695 0.0000 0.0000 0.0000
# 2 69.3894 124.2061 49.1023 0.0000 0.0000 0.0000
# 3 39.4695 49.1023 67.8514 0.0000 0.0000 0.0000
# 4 0.0000 0.0000 0.0000 0.1790 0.0000 0.0000
# 5 0.0000 0.0000 0.0000 0.0000 27.5429 0.0000
# 6 0.0000 0.0000 0.0000 0.0000 0.0000 23.2868
#
#
#
# Elastic Compliance Matrix: (Units=1/GPa)
#
#
# Indices 1 2 3 4 5 6 
#
# 1 0.012297 -0.005662 -0.003056 0.000000 0.000000 0.000000
# 2 -0.005662 0.013884 -0.006754 0.000000 0.000000 0.000000
# 3 -0.003056 -0.006754 0.021404 0.000000 0.000000 0.000000
# 4 0.000000 0.000000 0.000000 5.585766 0.000000 0.000000
# 5 0.000000 0.000000 0.000000 0.000000 0.036307 0.000000
# 6 0.000000 0.000000 0.000000 0.000000 0.000000 0.042943
#
#
# Mechanical properties :
#
#
# Convention : Reuss Voigt Hill
#
# Bulk Modulus (GPa) = 60.09247 70.11743 65.10495
# Shear Modulus (GPa) = 0.86970 20.67998 10.77484
#
# Velocity S-wave (km/s) = 0.72367 3.52883 2.54719
# Velocity P-wave (km/s) = 6.07319 7.66978 6.91770
#
# Compressibility (1/GPa) = 0.01664102
#
# Stress axis : x y z
#
# Youngs Moduli (GPa) = 81.32018 72.02372 46.72110
#
# Poissons Ratio (x) = 0.40778 0.14278
# Poissons Ratio (y) = 0.46042 0.31556
# Poissons Ratio (z) = 0.24851 0.48646
#
# Static dielectric constant tensor:
#      x y z
#    x 3.387060 0.000000 0.000000 
#    y 0.000000 3.211830 0.000000 
#    z 0.000000 0.000000 2.951400 
# 
# 
# High freq. dielectric constant tensor:
#      x y z
#    x 1.632360 0.000000 0.000000 
#    y 0.000000 1.634650 0.000000 
#    z 0.000000 0.000000 1.631020 
# 
# From -- ./inp_files/4156.got.cif
#   From: 2010.03.12/outbox.cif.g09.slc.cpg/sg49_3_cif.got.tgz:4156.got - 2010.04.14 03:58:27.
