data_PCOD8202221
_publ_section_title
;
Structure prediction by ZEFSAII (Michael W. Deem and Ramdas Pophale) SiO2 
 PCOD8202221
Probable space group: P C C M
;
_chemical_formula_sum "Si O2"
_cell_formula_units_Z 40
_cell_length_a 9.357490
_cell_length_b 25.963803
_cell_length_c 8.586080
_cell_angle_alpha 90.000000
_cell_angle_beta 90.000000
_cell_angle_gamma 90.000000
_cell_volume 2086.039884
_symmetry_space_group_name_H-M "P C C M"
_symmetry_group_IT_number 49
_symmetry_cell_setting 'orthorhombic'
loop_
_space_group_symop_operation_xyz
x,y,z
-x,-y,z
x,-y,1/2-z
-x,y,1/2-z
-x,-y,-z
x,y,-z
-x,y,1/2+z
x,-y,1/2+z
loop_
_atom_site_type_symbol
_atom_site_label
_atom_site_fract_x
_atom_site_fract_y
_atom_site_fract_z
Si Si1 0.150927 0.444098 0.183896
Si Si2 0.159261 0.845129 0.315928
Si Si3 0.843921 0.741101 0.317384
Si Si4 0.840128 0.051690 0.815796
Si Si5 0.655686 0.357243 0.816997
O O1 0.188402 0.500000 0.250000
O O2 0.276549 0.406229 0.232962
O O3 0.000000 0.423694 0.250000
O O4 0.139097 0.447368 0.000000
O O5 0.159807 0.849651 0.500000
O O6 0.231062 0.791676 0.260030
O O7 0.237574 0.895986 0.244659
O O8 0.000000 0.842475 0.250000
O O9 0.857487 0.750688 0.500000
O O10 0.745924 0.693074 0.274877
O O11 0.000000 0.729652 0.250000
O O12 0.000000 0.052736 0.750000
O O13 0.762686 0.000000 0.750000
O O14 0.841236 0.050148 0.000000
O O15 0.500000 0.348069 0.750000
O O16 0.650662 0.367713 0.000000
#
# Coordination Sequence:
#
# PCOD8202221 Si02
#       5
#     8   8   8   8   8
#     4  11  22  39  63  89 117 147 183 222 264 313
#     4  10  17  26  41  62  89 123 164 208 255 307
#     4  10  20  34  53  76 102 135 175 219 264 314
#     4  10  16  23  34  52  82 119 159 201 250 307
#     4  11  24  40  58  82 112 145 182 223 271 321
#
# _framework density 19.175087999999999
#
# number of rings (size 3 to 8) (size 9 to 14) (size 15 to 20)
#    0.000    1.600    0.000   10.800    0.000    5.200 
#    0.000    2.000    0.000    0.000    0.000    0.000 
#    0.000    0.800    0.000    8.400    0.000    8.000 
#
# Total GULP energy -495929.721450 kJ/mol
# GULP energy per Si atom -12398.243036 kJ/mol
# Density = 1.913144 g / cm^3
# Si number density = 19.175088 Si / 1000 Ang^3
#
#
#
# Elastic Constant Matrix: (Units=GPa)
#
#
# Indices 1 2 3 4 5 6 
#
# 1 69.1392 56.3677 40.4268 0.0000 0.0000 0.0000
# 2 56.3677 156.9830 81.0895 0.0000 0.0000 0.0000
# 3 40.4268 81.0895 180.2157 0.0000 0.0000 0.0000
# 4 0.0000 0.0000 0.0000 43.4472 0.0000 0.0000
# 5 0.0000 0.0000 0.0000 0.0000 20.1255 0.0000
# 6 0.0000 0.0000 0.0000 0.0000 0.0000 1.3560
#
#
#
# Elastic Compliance Matrix: (Units=1/GPa)
#
#
# Indices 1 2 3 4 5 6 
#
# 1 0.020844 -0.006604 -0.001704 0.000000 0.000000 0.000000
# 2 -0.006604 0.010391 -0.003194 0.000000 0.000000 0.000000
# 3 -0.001704 -0.003194 0.007368 0.000000 0.000000 0.000000
# 4 0.000000 0.000000 0.000000 0.023016 0.000000 0.000000
# 5 0.000000 0.000000 0.000000 0.000000 0.049688 0.000000
# 6 0.000000 0.000000 0.000000 0.000000 0.000000 0.737464
#
#
# Mechanical properties :
#
#
# Convention : Reuss Voigt Hill
#
# Bulk Modulus (GPa) = 64.10724 84.67844 74.39284
# Shear Modulus (GPa) = 5.70139 28.21601 16.95870
#
# Velocity S-wave (km/s) = 1.72621 3.84017 2.97713
# Velocity P-wave (km/s) = 6.12194 7.99494 7.12030
#
# Compressibility (1/GPa) = 0.01559886
#
# Stress axis : x y z
#
# Youngs Moduli (GPa) = 47.97454 96.23273 135.71299
#
# Poissons Ratio (x) = 0.63554 0.23129
# Poissons Ratio (y) = 0.31684 0.43350
# Poissons Ratio (z) = 0.08176 0.30739
#
# Static dielectric constant tensor:
#      x y z
#    x 3.023850 0.000000 0.000000 
#    y 0.000000 4.760700 0.000000 
#    z 0.000000 0.000000 3.658390 
# 
# 
# High freq. dielectric constant tensor:
#      x y z
#    x 1.677330 0.000000 0.000000 
#    y 0.000000 1.780240 0.000000 
#    z 0.000000 0.000000 1.770170 
# 
# From -- ./inp_files/1913.got.cif
#   From: 2010.03.12/outbox.cif.g09.slc.cpg/sg49_1_cif.got.tgz:1913.got - 2010.04.14 03:58:27.
