data_PCOD8202760
_publ_section_title
;
Structure prediction by ZEFSAII (Michael W. Deem and Ramdas Pophale) SiO2 
 PCOD8202760
Probable space group: P C C M
;
_chemical_formula_sum "Si O2"
_cell_formula_units_Z 52
_cell_length_a 20.315121
_cell_length_b 5.013721
_cell_length_c 28.829279
_cell_angle_alpha 90.000000
_cell_angle_beta 90.000000
_cell_angle_gamma 90.000000
_cell_volume 2936.387438
_symmetry_space_group_name_H-M "P C C M"
_symmetry_group_IT_number 49
_symmetry_cell_setting 'orthorhombic'
loop_
_space_group_symop_operation_xyz
x,y,z
-x,-y,z
x,-y,1/2-z
-x,y,1/2-z
-x,-y,-z
x,y,-z
-x,y,1/2+z
x,-y,1/2+z
loop_
_atom_site_type_symbol
_atom_site_label
_atom_site_fract_x
_atom_site_fract_y
_atom_site_fract_z
Si Si1 0.209481 0.437653 0.104232
Si Si2 0.952829 0.757848 0.500000
Si Si3 0.129700 0.061244 0.414483
Si Si4 0.846407 0.413130 0.701799
Si Si5 0.345162 0.444008 0.946826
Si Si6 0.569369 0.923606 0.552534
Si Si7 0.926882 0.925877 0.682087
O O1 0.189076 0.742947 0.098117
O O2 0.205760 0.385195 0.159777
O O3 0.282990 0.411711 0.086281
O O4 0.162572 0.229090 0.075731
O O5 0.906562 0.787425 0.455822
O O6 0.000000 0.500000 0.500000
O O7 0.000000 0.000000 0.500000
O O8 0.078169 0.020645 0.372994
O O9 0.810716 0.500000 0.750000
O O10 0.905883 0.621049 0.691277
O O11 0.879002 0.125176 0.709828
O O12 0.393823 0.668517 0.925270
O O13 0.381311 0.166018 0.945314
O O14 0.323947 0.515591 0.000000
O O15 0.551962 0.839586 0.500000
O O16 0.500000 0.000000 0.577670
O O17 0.000000 0.000000 0.698484
#
# Coordination Sequence:
#
# PCOD8202760 Si02
#       7
#     8   4   8   8   8   8   8
#     4  10  21  36  50  72  99 127 164 203 247 289
#     4  12  24  36  52  70  90 128 177 210 251 306
#     4  10  22  35  50  67  95 128 158 212 251 290
#     4  10  21  35  51  71  95 123 154 200 256 305
#     4  10  19  29  49  73  98 134 166 195 229 282
#     4   9  17  30  46  71 104 135 163 194 230 269
#     4  10  20  34  51  71  93 118 153 200 257 313
#
# _framework density 17.708834
#
# number of rings (size 3 to 8) (size 9 to 14) (size 15 to 20)
#    0.000    2.000    0.000    3.692    2.154    6.154 
#    0.000    0.000    0.000    0.000    0.000    0.000 
#    0.000    3.692    0.000    0.000    0.000    0.000 
#
# Total GULP energy -644490.970153 kJ/mol
# GULP energy per Si atom -12394.057118 kJ/mol
# Density = 1.766853 g / cm^3
# Si number density = 17.708834 Si / 1000 Ang^3
#
#
#
# Elastic Constant Matrix: (Units=GPa)
#
#
# Indices 1 2 3 4 5 6 
#
# 1 254.6902 190.8166 108.6324 0.0000 0.0000 0.0000
# 2 190.8166 271.8288 87.9818 0.0000 0.0000 0.0000
# 3 108.6324 87.9818 109.2867 0.0000 0.0000 0.0000
# 4 0.0000 0.0000 0.0000 14.2990 0.0000 0.0000
# 5 0.0000 0.0000 0.0000 0.0000 3.9625 0.0000
# 6 0.0000 0.0000 0.0000 0.0000 0.0000 28.1942
#
#
#
# Elastic Compliance Matrix: (Units=1/GPa)
#
#
# Indices 1 2 3 4 5 6 
#
# 1 0.010689 -0.005497 -0.006200 0.000000 0.000000 0.000000
# 2 -0.005497 0.007802 -0.000817 0.000000 0.000000 0.000000
# 3 -0.006200 -0.000817 0.015971 0.000000 0.000000 0.000000
# 4 0.000000 0.000000 0.000000 0.069935 0.000000 0.000000
# 5 0.000000 0.000000 0.000000 0.000000 0.252365 0.000000
# 6 0.000000 0.000000 0.000000 0.000000 0.000000 0.035468
#
#
# Mechanical properties :
#
#
# Convention : Reuss Voigt Hill
#
# Bulk Modulus (GPa) = 105.99631 156.74079 131.36855
# Shear Modulus (GPa) = 11.89338 25.84945 18.87141
#
# Velocity S-wave (km/s) = 2.59435 3.82474 3.26797
# Velocity P-wave (km/s) = 8.30417 10.40225 9.41186
#
# Compressibility (1/GPa) = 0.00943429
#
# Stress axis : x y z
#
# Youngs Moduli (GPa) = 93.55555 128.17641 62.61464
#
# Poissons Ratio (x) = 0.70454 0.38820
# Poissons Ratio (y) = 0.51424 0.05116
# Poissons Ratio (z) = 0.58002 0.10474
#
# Static dielectric constant tensor:
#      x y z
#    x 3.104150 0.000000 0.000000 
#    y 0.000000 3.527600 0.000000 
#    z 0.000000 0.000000 3.244770 
# 
# 
# High freq. dielectric constant tensor:
#      x y z
#    x 1.657850 0.000000 0.000000 
#    y 0.000000 1.713320 0.000000 
#    z 0.000000 0.000000 1.656920 
# 
# From -- ./inp_files/25143.got.cif
#   From: 2010.03.12/outbox.cif.g09.slc.cpg/sg49_13_cif.got.tgz:25143.got - 2010.04.14 03:58:27.
