data_PCOD8202023
_publ_section_title
;
Structure prediction by ZEFSAII (Michael W. Deem and Ramdas Pophale) SiO2 
 PCOD8202023
Probable space group: P N N N
;
_chemical_formula_sum "Si O2"
_cell_formula_units_Z 48
_cell_length_a 10.583734
_cell_length_b 25.106113
_cell_length_c 9.588489
_cell_angle_alpha 90.000000
_cell_angle_beta 90.000000
_cell_angle_gamma 90.000000
_cell_volume 2547.818987
_symmetry_space_group_name_H-M "P N N N"
_symmetry_group_IT_number 48
_space_group.IT_coordinate_system_code '2'
_symmetry_cell_setting 'orthorhombic'
loop_
_space_group_symop_operation_xyz
x,y,z
1/2-x,1/2-y,z
x,1/2-y,1/2-z
1/2-x,y,1/2-z
-x,-y,-z
1/2+x,1/2+y,-z
-x,1/2+y,1/2+z
1/2+x,-y,1/2+z
loop_
_atom_site_type_symbol
_atom_site_label
_atom_site_fract_x
_atom_site_fract_y
_atom_site_fract_z
Si Si1 0.780492 0.373290 0.901143
Si Si2 0.985110 0.437666 0.011915
Si Si3 0.961397 0.847952 0.323173
Si Si4 0.885210 0.726287 0.956321
Si Si5 0.485478 0.667126 0.013425
Si Si6 0.897771 0.870171 0.741269
O O1 0.750000 0.399167 0.750000
O O2 0.663908 0.343903 0.974640
O O3 0.894432 0.330977 0.869006
O O4 0.836431 0.420559 0.999521
O O5 0.038544 0.419000 0.160332
O O6 0.000000 0.500000 0.000000
O O7 0.061915 0.407622 0.885805
O O8 0.868982 0.805644 0.397648
O O9 0.942113 0.846768 0.157534
O O10 0.750000 0.750000 0.914599
O O11 0.928799 0.686030 0.834570
O O12 0.990888 0.771694 0.972284
O O13 0.544297 0.629363 0.895761
O O14 0.750000 0.880670 0.750000
#
# Coordination Sequence:
#
# PCOD8202023 Si02
#       6
#     8   8   8   8   8   8
#     4   8  18  38  61  85 117 152 196 249 296 363
#     4   9  20  42  67  83 116 158 202 256 315 362
#     4   8  20  38  57  92 113 155 209 245 295 371
#     4  11  21  37  58  85 124 168 203 243 301 364
#     4  11  20  34  63  84 126 157 193 252 301 362
#     4  11  23  40  58  90 124 161 206 252 306 374
#
# _framework density 18.839642999999999
#
# number of rings (size 3 to 8) (size 9 to 14) (size 15 to 20)
#    1.000    1.333    1.667    1.000    0.000    3.333 
#    0.000    3.333    7.333    0.000    0.000    0.000 
#    0.000    0.000    0.000    0.000    0.000    0.000 
#
# Total GULP energy -594730.143409 kJ/mol
# GULP energy per Si atom -12390.211321 kJ/mol
# Density = 1.879676 g / cm^3
# Si number density = 18.839643 Si / 1000 Ang^3
#
#
#
# Elastic Constant Matrix: (Units=GPa)
#
#
# Indices 1 2 3 4 5 6 
#
# 1 86.7747 41.6241 39.9165 0.0000 0.0000 0.0000
# 2 41.6241 121.8050 42.7025 0.0000 0.0000 0.0000
# 3 39.9165 42.7025 138.1845 0.0000 0.0000 0.0000
# 4 0.0000 0.0000 0.0000 10.8039 0.0000 0.0000
# 5 0.0000 0.0000 0.0000 0.0000 32.3054 0.0000
# 6 0.0000 0.0000 0.0000 0.0000 0.0000 14.3458
#
#
#
# Elastic Compliance Matrix: (Units=1/GPa)
#
#
# Indices 1 2 3 4 5 6 
#
# 1 0.014849 -0.004004 -0.003052 0.000000 0.000000 0.000000
# 2 -0.004004 0.010287 -0.002022 0.000000 0.000000 0.000000
# 3 -0.003052 -0.002022 0.008743 0.000000 0.000000 0.000000
# 4 0.000000 0.000000 0.000000 0.092559 0.000000 0.000000
# 5 0.000000 0.000000 0.000000 0.000000 0.030955 0.000000
# 6 0.000000 0.000000 0.000000 0.000000 0.000000 0.069707
#
#
# Mechanical properties :
#
#
# Convention : Reuss Voigt Hill
#
# Bulk Modulus (GPa) = 63.60411 66.13895 64.87153
# Shear Modulus (GPa) = 19.96029 26.32576 23.14303
#
# Velocity S-wave (km/s) = 3.25850 3.74218 3.50869
# Velocity P-wave (km/s) = 6.92757 7.33856 7.13602
#
# Compressibility (1/GPa) = 0.01572225
#
# Stress axis : x y z
#
# Youngs Moduli (GPa) = 67.34585 97.20806 114.37451
#
# Poissons Ratio (x) = 0.38925 0.34905
# Poissons Ratio (y) = 0.26967 0.23130
# Poissons Ratio (z) = 0.20553 0.19658
#
# Static dielectric constant tensor:
#      x y z
#    x 3.424240 0.000000 0.000000 
#    y 0.000000 3.110960 0.000000 
#    z 0.000000 0.000000 3.644180 
# 
# 
# High freq. dielectric constant tensor:
#      x y z
#    x 1.722040 0.000000 0.000000 
#    y 0.000000 1.697830 0.000000 
#    z 0.000000 0.000000 1.743040 
# 
# From -- ./inp_files/11361.got.cif
#   From: 2010.06.25/outbox.cif.g09.slc.cpg/sg48_6_cif.got.tgz:11361.got - 2010.06.26 18:06:46.
