data_PCOD8202609
_publ_section_title
;
Structure prediction by ZEFSAII (Michael W. Deem and Ramdas Pophale) SiO2 
 PCOD8202609
Probable space group: P C C M
;
_chemical_formula_sum "Si O2"
_cell_formula_units_Z 48
_cell_length_a 18.858620
_cell_length_b 7.828221
_cell_length_c 16.568442
_cell_angle_alpha 90.000000
_cell_angle_beta 90.000000
_cell_angle_gamma 90.000000
_cell_volume 2445.989899
_symmetry_space_group_name_H-M "P C C M"
_symmetry_group_IT_number 49
_symmetry_cell_setting 'orthorhombic'
loop_
_space_group_symop_operation_xyz
x,y,z
-x,-y,z
x,-y,1/2-z
-x,y,1/2-z
-x,-y,-z
x,y,-z
-x,y,1/2+z
x,-y,1/2+z
loop_
_atom_site_type_symbol
_atom_site_label
_atom_site_fract_x
_atom_site_fract_y
_atom_site_fract_z
Si Si1 0.824510 0.682483 0.094692
Si Si2 0.176643 0.699869 0.906304
Si Si3 0.700478 0.116243 0.824372
Si Si4 0.420878 0.301203 0.763819
Si Si5 0.921650 0.985532 0.905347
Si Si6 0.327823 0.208167 0.091893
O O1 0.851448 0.490922 0.114956
O O2 0.877041 0.826284 0.133118
O O3 0.743671 0.700726 0.126013
O O4 0.821951 0.718742 0.000000
O O5 0.243040 0.740889 0.849311
O O6 0.115403 0.834609 0.886817
O O7 0.199717 0.708384 0.000000
O O8 0.627801 0.207451 0.801092
O O9 0.728566 0.000000 0.750000
O O10 0.685348 0.995200 0.901215
O O11 0.417772 0.500000 0.750000
O O12 0.500000 0.230251 0.750000
O O13 0.394768 0.263742 0.854633
O O14 0.928954 0.951825 0.000000
O O15 0.000000 0.000000 0.866283
O O16 0.344613 0.258430 0.000000
#
# Coordination Sequence:
#
# PCOD8202609 Si02
#       6
#     8   8   8   8   8   8
#     4   9  17  29  50  79 109 142 184 230 271 322
#     4  10  18  31  52  77 108 145 189 233 274 327
#     4  10  20  33  55  80 107 142 184 230 284 337
#     4  10  22  40  57  80 116 150 185 231 284 343
#     4   9  17  29  47  75 112 145 177 226 282 330
#     4  10  19  35  58  83 112 146 190 238 278 328
#
# _framework density 19.623957000000001
#
# number of rings (size 3 to 8) (size 9 to 14) (size 15 to 20)
#    0.000    2.333    1.667    1.500    0.000    3.667 
#    0.000    8.333    0.000    0.500    0.000    0.000 
#   10.000    0.000    0.000    0.000    0.000    0.000 
#
# Total GULP energy -595047.726263 kJ/mol
# GULP energy per Si atom -12396.827630 kJ/mol
# Density = 1.957929 g / cm^3
# Si number density = 19.623957 Si / 1000 Ang^3
#
#
#
# Elastic Constant Matrix: (Units=GPa)
#
#
# Indices 1 2 3 4 5 6 
#
# 1 157.8994 69.1502 48.0316 0.0000 0.0000 0.0000
# 2 69.1502 139.0844 26.1004 0.0000 0.0000 0.0000
# 3 48.0316 26.1004 46.4157 0.0000 0.0000 0.0000
# 4 0.0000 0.0000 0.0000 20.5860 0.0000 0.0000
# 5 0.0000 0.0000 0.0000 0.0000 35.2261 0.0000
# 6 0.0000 0.0000 0.0000 0.0000 0.0000 27.7313
#
#
#
# Elastic Compliance Matrix: (Units=1/GPa)
#
#
# Indices 1 2 3 4 5 6 
#
# 1 0.010647 -0.003607 -0.008990 0.000000 0.000000 0.000000
# 2 -0.003607 0.009260 -0.001475 0.000000 0.000000 0.000000
# 3 -0.008990 -0.001475 0.031677 0.000000 0.000000 0.000000
# 4 0.000000 0.000000 0.000000 0.048577 0.000000 0.000000
# 5 0.000000 0.000000 0.000000 0.000000 0.028388 0.000000
# 6 0.000000 0.000000 0.000000 0.000000 0.000000 0.036060
#
#
# Mechanical properties :
#
#
# Convention : Reuss Voigt Hill
#
# Bulk Modulus (GPa) = 42.66010 69.99597 56.32803
# Shear Modulus (GPa) = 24.92959 30.04984 27.48972
#
# Velocity S-wave (km/s) = 3.56809 3.91741 3.74682
# Velocity P-wave (km/s) = 6.22583 7.49717 6.89088
#
# Compressibility (1/GPa) = 0.02344111
#
# Stress axis : x y z
#
# Youngs Moduli (GPa) = 93.92104 107.99407 31.56906
#
# Poissons Ratio (x) = 0.38949 0.28380
# Poissons Ratio (y) = 0.33873 0.04656
# Poissons Ratio (z) = 0.84434 0.15927
#
# Static dielectric constant tensor:
#      x y z
#    x 3.716190 0.000000 0.000000 
#    y 0.000000 3.771120 0.000000 
#    z 0.000000 0.000000 3.256370 
# 
# 
# High freq. dielectric constant tensor:
#      x y z
#    x 1.754550 0.000000 0.000000 
#    y 0.000000 1.778770 0.000000 
#    z 0.000000 0.000000 1.733340 
# 
# From -- ./inp_files/18126.got.cif
#   From: 2010.03.12/outbox.cif.g09.slc.cpg/sg49_10_cif.got.tgz:18126.got - 2010.04.14 03:58:27.
