data_PCOD8202194
_publ_section_title
;
Structure prediction by ZEFSAII (Michael W. Deem and Ramdas Pophale) SiO2 
 PCOD8202194
Probable space group: P C C M
;
_chemical_formula_sum "Si O2"
_cell_formula_units_Z 64
_cell_length_a 31.477092
_cell_length_b 14.333875
_cell_length_c 8.731374
_cell_angle_alpha 90.000000
_cell_angle_beta 90.000000
_cell_angle_gamma 90.000000
_cell_volume 3939.497303
_symmetry_space_group_name_H-M "P C C M"
_symmetry_group_IT_number 49
_symmetry_cell_setting 'orthorhombic'
loop_
_space_group_symop_operation_xyz
x,y,z
-x,-y,z
x,-y,1/2-z
-x,y,1/2-z
-x,-y,-z
x,y,-z
-x,y,1/2+z
x,-y,1/2+z
loop_
_atom_site_type_symbol
_atom_site_label
_atom_site_fract_x
_atom_site_fract_y
_atom_site_fract_z
Si Si1 0.042162 0.896135 0.818602
Si Si2 0.293143 0.210407 0.322606
Si Si3 0.421233 0.597772 0.317930
Si Si4 0.781456 0.899016 0.177331
Si Si5 0.623966 0.101815 0.181238
Si Si6 0.124950 0.898828 0.678517
Si Si7 0.543386 0.779793 0.317941
Si Si8 0.329749 0.594234 0.820952
O O1 0.085776 0.844545 0.762670
O O2 0.000000 0.845624 0.750000
O O3 0.043788 0.000000 0.750000
O O4 0.039420 0.897777 0.000000
O O5 0.287260 0.187478 0.500000
O O6 0.251593 0.176682 0.235850
O O7 0.334925 0.158111 0.259179
O O8 0.297271 0.321100 0.293949
O O9 0.437582 0.500000 0.250000
O O10 0.423314 0.595589 0.500000
O O11 0.451634 0.677349 0.252805
O O12 0.373443 0.618127 0.263450
O O13 0.828478 0.854682 0.208606
O O14 0.773975 0.000000 0.250000
O O15 0.774289 0.915507 0.000000
O O16 0.581857 0.154736 0.238216
O O17 0.624939 0.000000 0.250000
O O18 0.624280 0.095333 0.000000
O O19 0.114080 0.905288 0.500000
O O20 0.128334 0.000000 0.750000
O O21 0.500000 0.823229 0.250000
O O22 0.541455 0.773299 0.500000
O O23 0.309448 0.500000 0.750000
O O24 0.339730 0.580177 0.000000
#
# Coordination Sequence:
#
# PCOD8202194 Si02
#       8
#     8   8   8   8   8   8   8   8
#     4  10  16  22  33  49  70 100 141 188 236 281
#     4  10  20  35  53  73  98 126 153 190 231 271
#     4  11  21  35  57  82 105 131 155 182 222 269
#     4  10  20  31  45  66  92 123 159 199 239 281
#     4  10  22  39  56  74  99 125 155 194 229 268
#     4   9  16  26  37  52  77 108 145 190 236 277
#     4  11  23  41  58  77 103 127 157 192 228 271
#     4  10  19  34  54  78 104 127 153 186 225 268
#
# _framework density 16.245729000000001
#
# number of rings (size 3 to 8) (size 9 to 14) (size 15 to 20)
#    0.000    1.875    1.250    6.000    0.000    5.500 
#    0.000    2.500    0.000    0.000    0.000    0.000 
#    0.000    0.000    0.000    0.000    0.000    0.625 
#
# Total GULP energy -793385.134702 kJ/mol
# GULP energy per Si atom -12396.642730 kJ/mol
# Density = 1.620875 g / cm^3
# Si number density = 16.245729 Si / 1000 Ang^3
#
#
#
# Elastic Constant Matrix: (Units=GPa)
#
#
# Indices 1 2 3 4 5 6 
#
# 1 139.2754 44.4883 55.9690 0.0000 0.0000 0.0000
# 2 44.4883 69.6938 30.2576 0.0000 0.0000 0.0000
# 3 55.9690 30.2576 102.5992 0.0000 0.0000 0.0000
# 4 0.0000 0.0000 0.0000 21.6321 0.0000 0.0000
# 5 0.0000 0.0000 0.0000 0.0000 29.6374 0.0000
# 6 0.0000 0.0000 0.0000 0.0000 0.0000 -78.5035
#
#
#
# Elastic Compliance Matrix: (Units=1/GPa)
#
#
# Indices 1 2 3 4 5 6 
#
# 1 0.010432 -0.004804 -0.004274 0.000000 0.000000 0.000000
# 2 -0.004804 0.018667 -0.002885 0.000000 0.000000 0.000000
# 3 -0.004274 -0.002885 0.012929 0.000000 0.000000 0.000000
# 4 0.000000 0.000000 0.000000 0.046228 0.000000 0.000000
# 5 0.000000 0.000000 0.000000 0.000000 0.033741 0.000000
# 6 0.000000 0.000000 0.000000 0.000000 0.000000 -0.012738
#
#
# Mechanical properties :
#
#
# Convention : Reuss Voigt Hill
#
# Bulk Modulus (GPa) = 55.23860 63.66646 59.45253
# Shear Modulus (GPa) = 35.91489 6.61010 21.26250
#
# Velocity S-wave (km/s) = 4.70694 2.01932 3.62167
# Velocity P-wave (km/s) = 7.97597 6.68667 7.35961
#
# Compressibility (1/GPa) = 0.01810328
#
# Stress axis : x y z
#
# Youngs Moduli (GPa) = 95.85891 53.56993 77.34536
#
# Poissons Ratio (x) = 0.25732 0.33059
# Poissons Ratio (y) = 0.46046 0.22312
# Poissons Ratio (z) = 0.40972 0.15454
#
# Static dielectric constant tensor:
#      x y z
#    x 3.938850 0.000000 0.000000 
#    y 0.000000 2.847180 0.000000 
#    z 0.000000 0.000000 3.172320 
# 
# 
# High freq. dielectric constant tensor:
#      x y z
#    x 1.628990 0.000000 0.000000 
#    y 0.000000 1.578380 0.000000 
#    z 0.000000 0.000000 1.641350 
# 
# From -- ./inp_files/7061.got.cif
#   From: 2010.03.12/outbox.cif.g09.slc.cpg/sg49_4_cif.got.tgz:7061.got - 2010.04.14 03:58:27.
