data_PCOD8202277
_publ_section_title
;
Structure prediction by ZEFSAII (Michael W. Deem and Ramdas Pophale) SiO2 
 PCOD8202277
Probable space group: P C C M
;
_chemical_formula_sum "Si O2"
_cell_formula_units_Z 64
_cell_length_a 18.446193
_cell_length_b 26.487478
_cell_length_c 8.739749
_cell_angle_alpha 90.000000
_cell_angle_beta 90.000000
_cell_angle_gamma 90.000000
_cell_volume 4270.181330
_symmetry_space_group_name_H-M "P C C M"
_symmetry_group_IT_number 49
_symmetry_cell_setting 'orthorhombic'
loop_
_space_group_symop_operation_xyz
x,y,z
-x,-y,z
x,-y,1/2-z
-x,y,1/2-z
-x,-y,-z
x,y,-z
-x,y,1/2+z
x,-y,1/2+z
loop_
_atom_site_type_symbol
_atom_site_label
_atom_site_fract_x
_atom_site_fract_y
_atom_site_fract_z
Si Si1 0.419555 0.949862 0.182481
Si Si2 0.923910 0.349297 0.320195
Si Si3 0.853587 0.447426 0.175033
Si Si4 0.719888 0.612642 0.673629
Si Si5 0.424998 0.345706 0.326170
Si Si6 0.657493 0.755291 0.321000
Si Si7 0.215909 0.294664 0.174996
Si Si8 0.420836 0.151948 0.181064
O O1 0.500000 0.949279 0.250000
O O2 0.383770 0.898193 0.244648
O O3 0.379600 0.000000 0.250000
O O4 0.419685 0.951337 0.000000
O O5 0.930594 0.357601 0.500000
O O6 0.897999 0.402074 0.249548
O O7 0.868866 0.302802 0.282602
O O8 0.000000 0.332662 0.250000
O O9 0.875347 0.500000 0.250000
O O10 0.765983 0.438827 0.191911
O O11 0.877152 0.450010 0.000000
O O12 0.732001 0.634635 0.500000
O O13 0.632787 0.608130 0.698839
O O14 0.748814 0.650613 0.800962
O O15 0.500000 0.360386 0.250000
O O16 0.445157 0.337701 0.500000
O O17 0.389248 0.293380 0.267186
O O18 0.648882 0.766918 0.500000
O O19 0.742612 0.745860 0.281852
O O20 0.631179 0.802024 0.221231
O O21 0.225604 0.277849 0.000000
O O22 0.500000 0.162707 0.250000
O O23 0.427738 0.145176 0.000000
#
# Coordination Sequence:
#
# PCOD8202277 Si02
#       8
#     8   8   8   8   8   8   8   8
#     4  10  17  27  40  54  73 101 139 181 224 266
#     4  10  20  33  49  69  91 112 136 162 192 230
#     4  10  19  32  49  66  85 107 132 162 198 236
#     4   8  16  30  44  58  79 106 131 158 194 240
#     4   9  17  27  40  58  78 100 128 161 200 241
#     4  10  19  30  42  58  82 111 139 169 208 252
#     4   9  17  29  45  64  83 105 134 166 195 233
#     4  11  20  29  40  57  81 109 143 184 226 262
#
# _framework density 14.987655
#
# number of rings (size 3 to 8) (size 9 to 14) (size 15 to 20)
#    0.000    2.375    0.000    6.000    0.000    5.750 
#    0.000    1.250    0.000    0.375    0.000    2.625 
#    0.000    0.000    0.000    0.000    0.000    0.625 
#
# Total GULP energy -792998.997468 kJ/mol
# GULP energy per Si atom -12390.609335 kJ/mol
# Density = 1.495354 g / cm^3
# Si number density = 14.987655 Si / 1000 Ang^3
#
#
#
# Elastic Constant Matrix: (Units=GPa)
#
#
# Indices 1 2 3 4 5 6 
#
# 1 87.2535 23.6483 32.5468 0.0000 0.0000 0.0000
# 2 23.6483 46.5958 24.3704 0.0000 0.0000 0.0000
# 3 32.5468 24.3704 88.7051 0.0000 0.0000 0.0000
# 4 0.0000 0.0000 0.0000 21.0273 0.0000 0.0000
# 5 0.0000 0.0000 0.0000 0.0000 21.7974 0.0000
# 6 0.0000 0.0000 0.0000 0.0000 0.0000 10.2200
#
#
#
# Elastic Compliance Matrix: (Units=1/GPa)
#
#
# Indices 1 2 3 4 5 6 
#
# 1 0.014308 -0.005274 -0.003801 0.000000 0.000000 0.000000
# 2 -0.005274 0.027006 -0.005485 0.000000 0.000000 0.000000
# 3 -0.003801 -0.005485 0.014175 0.000000 0.000000 0.000000
# 4 0.000000 0.000000 0.000000 0.047557 0.000000 0.000000
# 5 0.000000 0.000000 0.000000 0.000000 0.045877 0.000000
# 6 0.000000 0.000000 0.000000 0.000000 0.000000 0.097847
#
#
# Mechanical properties :
#
#
# Convention : Reuss Voigt Hill
#
# Bulk Modulus (GPa) = 37.92102 42.63171 40.27636
# Shear Modulus (GPa) = 17.56367 20.07487 18.81927
#
# Velocity S-wave (km/s) = 3.42698 3.66379 3.54736
# Velocity P-wave (km/s) = 6.40432 6.81206 6.61133
#
# Compressibility (1/GPa) = 0.02637060
#
# Stress axis : x y z
#
# Youngs Moduli (GPa) = 69.89125 37.02853 70.54818
#
# Poissons Ratio (x) = 0.19528 0.26814
# Poissons Ratio (y) = 0.36858 0.38693
# Poissons Ratio (z) = 0.26565 0.20309
#
# Static dielectric constant tensor:
#      x y z
#    x 2.935180 0.000000 0.000000 
#    y 0.000000 3.052270 0.000000 
#    z 0.000000 0.000000 2.994730 
# 
# 
# High freq. dielectric constant tensor:
#      x y z
#    x 1.547060 0.000000 0.000000 
#    y 0.000000 1.543390 0.000000 
#    z 0.000000 0.000000 1.592110 
# 
# From -- ./inp_files/5450.got.cif
#   From: 2010.03.12/outbox.cif.g09.slc.cpg/sg49_3_cif.got.tgz:5450.got - 2010.04.14 03:58:27.
