data_PCOD8202839
_publ_section_title
;
Structure prediction by ZEFSAII (Michael W. Deem and Ramdas Pophale) SiO2 
 PCOD8202839
Probable space group: P C C M
;
_chemical_formula_sum "Si O2"
_cell_formula_units_Z 56
_cell_length_a 13.654939
_cell_length_b 29.795973
_cell_length_c 8.977525
_cell_angle_alpha 90.000000
_cell_angle_beta 90.000000
_cell_angle_gamma 90.000000
_cell_volume 3652.615516
_symmetry_space_group_name_H-M "P C C M"
_symmetry_group_IT_number 49
_symmetry_cell_setting 'orthorhombic'
loop_
_space_group_symop_operation_xyz
x,y,z
-x,-y,z
x,-y,1/2-z
-x,y,1/2-z
-x,-y,-z
x,y,-z
-x,y,1/2+z
x,-y,1/2+z
loop_
_atom_site_type_symbol
_atom_site_label
_atom_site_fract_x
_atom_site_fract_y
_atom_site_fract_z
Si Si1 0.220638 0.545211 0.675469
Si Si2 0.602544 0.138342 0.827859
Si Si3 0.395903 0.592057 0.173823
Si Si4 0.393459 0.042465 0.324530
Si Si5 0.896724 0.633469 0.825972
Si Si6 0.724541 0.319834 0.172732
Si Si7 0.394902 0.235399 0.325123
O O1 0.178945 0.500000 0.750000
O O2 0.234553 0.538946 0.500000
O O3 0.324758 0.556242 0.749181
O O4 0.142878 0.584007 0.713239
O O5 0.500000 0.138384 0.750000
O O6 0.659076 0.091165 0.789546
O O7 0.654056 0.186106 0.788193
O O8 0.577436 0.137575 0.000000
O O9 0.500000 0.587496 0.250000
O O10 0.356422 0.642094 0.201064
O O11 0.404023 0.580563 0.000000
O O12 0.500000 0.044194 0.250000
O O13 0.401872 0.033930 0.500000
O O14 0.335725 0.000000 0.250000
O O15 0.822021 0.670812 0.765965
O O16 0.000000 0.640932 0.750000
O O17 0.908975 0.640519 0.000000
O O18 0.679995 0.273072 0.232948
O O19 0.753961 0.317381 0.000000
O O20 0.500000 0.241389 0.250000
O O21 0.411746 0.242020 0.500000
#
# Coordination Sequence:
#
# PCOD8202839 Si02
#       7
#     8   8   8   8   8   8   8
#     4  10  21  36  52  71  92 114 139 168 200 237
#     4   8  14  22  31  45  67  95 129 167 206 243
#     4  10  19  31  47  67  91 118 145 173 202 237
#     4   9  14  19  27  39  57  85 123 167 208 243
#     4  10  21  36  54  72  90 110 134 165 201 241
#     4   9  18  31  47  66  88 112 139 170 205 244
#     4   9  16  26  40  59  83 111 140 172 208 246
#
# _framework density 15.331479
#
# number of rings (size 3 to 8) (size 9 to 14) (size 15 to 20)
#    0.000    2.714    0.000    2.571    0.000    4.000 
#    0.000    2.857    0.000    0.000    0.000    0.000 
#    0.000    0.000    0.000    0.000    0.000    0.714 
#
# Total GULP energy -693820.228513 kJ/mol
# GULP energy per Si atom -12389.646938 kJ/mol
# Density = 1.529658 g / cm^3
# Si number density = 15.331479 Si / 1000 Ang^3
#
#
#
# Elastic Constant Matrix: (Units=GPa)
#
#
# Indices 1 2 3 4 5 6 
#
# 1 73.3285 40.1331 33.2253 0.0000 0.0000 0.0000
# 2 40.1331 144.8517 43.6107 0.0000 0.0000 0.0000
# 3 33.2253 43.6107 63.1567 0.0000 0.0000 0.0000
# 4 0.0000 0.0000 0.0000 22.8478 0.0000 0.0000
# 5 0.0000 0.0000 0.0000 0.0000 18.8487 0.0000
# 6 0.0000 0.0000 0.0000 0.0000 0.0000 7.8003
#
#
#
# Elastic Compliance Matrix: (Units=1/GPa)
#
#
# Indices 1 2 3 4 5 6 
#
# 1 0.018771 -0.002812 -0.007933 0.000000 0.000000 0.000000
# 2 -0.002812 0.009137 -0.004830 0.000000 0.000000 0.000000
# 3 -0.007933 -0.004830 0.023342 0.000000 0.000000 0.000000
# 4 0.000000 0.000000 0.000000 0.043768 0.000000 0.000000
# 5 0.000000 0.000000 0.000000 0.000000 0.053054 0.000000
# 6 0.000000 0.000000 0.000000 0.000000 0.000000 0.128200
#
#
# Mechanical properties :
#
#
# Convention : Reuss Voigt Hill
#
# Bulk Modulus (GPa) = 49.75177 57.25279 53.50228
# Shear Modulus (GPa) = 15.91739 20.85721 18.38730
#
# Velocity S-wave (km/s) = 3.22563 3.69238 3.46687
# Velocity P-wave (km/s) = 6.81132 7.45672 7.14131
#
# Compressibility (1/GPa) = 0.02009979
#
# Stress axis : x y z
#
# Youngs Moduli (GPa) = 53.27391 109.44660 42.84136
#
# Poissons Ratio (x) = 0.30780 0.33986
# Poissons Ratio (y) = 0.14982 0.20691
# Poissons Ratio (z) = 0.42262 0.52859
#
# Static dielectric constant tensor:
#      x y z
#    x 2.509330 0.000000 0.000000 
#    y 0.000000 3.801940 0.000000 
#    z 0.000000 0.000000 2.925520 
# 
# 
# High freq. dielectric constant tensor:
#      x y z
#    x 1.527060 0.000000 0.000000 
#    y 0.000000 1.604050 0.000000 
#    z 0.000000 0.000000 1.601260 
# 
# From -- ./inp_files/4488.got.cif
#   From: 2010.03.12/outbox.cif.g09.slc.cpg/sg49_3_cif.got.tgz:4488.got - 2010.04.14 03:58:27.
