data_PCOD8202851
_publ_section_title
;
Structure prediction by ZEFSAII (Michael W. Deem and Ramdas Pophale) SiO2 
 PCOD8202851
Probable space group: P C C M
;
_chemical_formula_sum "Si O2"
_cell_formula_units_Z 42
_cell_length_a 19.642559
_cell_length_b 13.620350
_cell_length_c 9.239737
_cell_angle_alpha 90.000000
_cell_angle_beta 90.000000
_cell_angle_gamma 90.000000
_cell_volume 2471.985640
_symmetry_space_group_name_H-M "P C C M"
_symmetry_group_IT_number 49
_symmetry_cell_setting 'orthorhombic'
loop_
_space_group_symop_operation_xyz
x,y,z
-x,-y,z
x,-y,1/2-z
-x,y,1/2-z
-x,-y,-z
x,y,-z
-x,y,1/2+z
x,-y,1/2+z
loop_
_atom_site_type_symbol
_atom_site_label
_atom_site_fract_x
_atom_site_fract_y
_atom_site_fract_z
Si Si1 0.433282 0.256965 0.169081
Si Si2 0.692980 0.600779 0.166769
Si Si3 0.648114 0.100568 0.832743
Si Si4 0.131271 0.088169 0.660145
Si Si5 0.227554 0.247847 0.336023
Si Si6 0.000000 0.000000 0.750000
O O1 0.500000 0.298108 0.250000
O O2 0.376022 0.339234 0.188997
O O3 0.412387 0.156691 0.249407
O O4 0.447423 0.236272 0.000000
O O5 0.684279 0.500000 0.250000
O O6 0.756804 0.661302 0.231279
O O7 0.708570 0.579510 0.000000
O O8 0.715978 0.164187 0.822440
O O9 0.661745 0.000000 0.750000
O O10 0.627198 0.082475 0.000000
O O11 0.160736 0.076836 0.500000
O O12 0.156328 0.195535 0.714970
O O13 0.048828 0.073964 0.659178
O O14 0.165776 0.000000 0.750000
O O15 0.222872 0.288332 0.500000
#
# Coordination Sequence:
#
# PCOD8202851 Si02
#       6
#     8   8   8   8   8   2
#     4  10  21  36  52  71  95 123 160 200 247 299
#     4  10  21  36  54  75  97 123 157 204 252 300
#     4  10  19  31  48  69  96 128 164 203 244 288
#     4   9  17  28  45  70 104 140 171 200 233 275
#     4   9  18  32  49  71  98 131 166 204 245 287
#     4   8  18  28  46  72 112 144 176 196 234 268
#
# _framework density 16.990389
#
# number of rings (size 3 to 8) (size 9 to 14) (size 15 to 20)
#    0.571    1.905    0.000    2.571    0.000    4.571 
#    0.000    3.810    0.000    0.000    0.000    0.667 
#    0.000    4.571    0.000    0.000    0.000    0.000 
#
# Total GULP energy -520475.837155 kJ/mol
# GULP energy per Si atom -12392.281837 kJ/mol
# Density = 1.695172 g / cm^3
# Si number density = 16.990389 Si / 1000 Ang^3
#
#
#
# Elastic Constant Matrix: (Units=GPa)
#
#
# Indices 1 2 3 4 5 6 
#
# 1 68.0521 17.1900 28.3610 0.0000 0.0000 0.0000
# 2 17.1900 69.9315 49.8677 0.0000 0.0000 0.0000
# 3 28.3610 49.8677 119.5063 0.0000 0.0000 0.0000
# 4 0.0000 0.0000 0.0000 33.7140 0.0000 0.0000
# 5 0.0000 0.0000 0.0000 0.0000 14.5308 0.0000
# 6 0.0000 0.0000 0.0000 0.0000 0.0000 17.2580
#
#
#
# Elastic Compliance Matrix: (Units=1/GPa)
#
#
# Indices 1 2 3 4 5 6 
#
# 1 0.016464 -0.001795 -0.003158 0.000000 0.000000 0.000000
# 2 -0.001795 0.020553 -0.008150 0.000000 0.000000 0.000000
# 3 -0.003158 -0.008150 0.012518 0.000000 0.000000 0.000000
# 4 0.000000 0.000000 0.000000 0.029661 0.000000 0.000000
# 5 0.000000 0.000000 0.000000 0.000000 0.068819 0.000000
# 6 0.000000 0.000000 0.000000 0.000000 0.000000 0.057944
#
#
# Mechanical properties :
#
#
# Convention : Reuss Voigt Hill
#
# Bulk Modulus (GPa) = 42.86653 49.81416 46.34034
# Shear Modulus (GPa) = 20.83825 23.90532 22.37179
#
# Velocity S-wave (km/s) = 3.50590 3.75506 3.63262
# Velocity P-wave (km/s) = 6.45547 6.94142 6.70285
#
# Compressibility (1/GPa) = 0.02332822
#
# Stress axis : x y z
#
# Youngs Moduli (GPa) = 60.73767 48.65495 79.88336
#
# Poissons Ratio (x) = 0.08734 0.25229
# Poissons Ratio (y) = 0.10902 0.65108
# Poissons Ratio (z) = 0.19182 0.39655
#
# Static dielectric constant tensor:
#      x y z
#    x 3.081180 0.000000 0.000000 
#    y 0.000000 3.075250 0.000000 
#    z 0.000000 0.000000 3.320730 
# 
# 
# High freq. dielectric constant tensor:
#      x y z
#    x 1.636500 0.000000 0.000000 
#    y 0.000000 1.639010 0.000000 
#    z 0.000000 0.000000 1.667710 
# 
# From -- ./inp_files/2833.got.cif
#   From: 2010.03.12/outbox.cif.g09.slc.cpg/sg49_2_cif.got.tgz:2833.got - 2010.04.14 03:58:27.
