data_PCOD8202178
_publ_section_title
;
Structure prediction by ZEFSAII (Michael W. Deem and Ramdas Pophale) SiO2 
 PCOD8202178
Probable space group: P C C M
;
_chemical_formula_sum "Si O2"
_cell_formula_units_Z 40
_cell_length_a 26.392184
_cell_length_b 9.757235
_cell_length_c 8.577208
_cell_angle_alpha 90.000000
_cell_angle_beta 90.000000
_cell_angle_gamma 90.000000
_cell_volume 2208.757500
_symmetry_space_group_name_H-M "P C C M"
_symmetry_group_IT_number 49
_symmetry_cell_setting 'orthorhombic'
loop_
_space_group_symop_operation_xyz
x,y,z
-x,-y,z
x,-y,1/2-z
-x,y,1/2-z
-x,-y,-z
x,y,-z
-x,y,1/2+z
x,-y,1/2+z
loop_
_atom_site_type_symbol
_atom_site_label
_atom_site_fract_x
_atom_site_fract_y
_atom_site_fract_z
Si Si1 0.550926 0.846617 0.684709
Si Si2 0.347235 0.846597 0.684601
Si Si3 0.142603 0.849226 0.315710
Si Si4 0.946308 0.352767 0.683733
Si Si5 0.245573 0.847160 0.184605
O O1 0.500000 0.772206 0.750000
O O2 0.550249 0.846830 0.500000
O O3 0.602151 0.772247 0.747540
O O4 0.551381 0.000000 0.750000
O O5 0.349420 0.847043 0.500000
O O6 0.295699 0.771998 0.744592
O O7 0.345746 0.000000 0.750000
O O8 0.149292 0.857542 0.500000
O O9 0.095672 0.756137 0.264086
O O10 0.193233 0.778501 0.242585
O O11 0.132459 0.000000 0.250000
O O12 0.930724 0.500000 0.750000
O O13 0.950662 0.364546 0.500000
O O14 0.000000 0.302279 0.750000
O O15 0.243388 0.000000 0.250000
O O16 0.249305 0.846225 0.000000
#
# Coordination Sequence:
#
# PCOD8202178 Si02
#       5
#     8   8   8   8   8
#     4  10  16  22  29  40  58  84 122 167 213 259
#     4  10  16  23  33  46  66  94 128 169 214 262
#     4  10  20  33  49  72  97 124 155 193 234 277
#     4  10  21  36  55  75  98 126 159 192 230 276
#     4  10  17  26  40  58  80 108 139 177 221 268
#
# _framework density 18.109728
#
# number of rings (size 3 to 8) (size 9 to 14) (size 15 to 20)
#    0.000    2.000    0.000   11.400    0.000    3.600 
#    0.000    2.000    0.000    0.000    0.000    0.000 
#    0.000    0.000    0.000    0.000    0.000    1.000 
#
# Total GULP energy -495722.572549 kJ/mol
# GULP energy per Si atom -12393.064314 kJ/mol
# Density = 1.806851 g / cm^3
# Si number density = 18.109728 Si / 1000 Ang^3
#
#
#
# Elastic Constant Matrix: (Units=GPa)
#
#
# Indices 1 2 3 4 5 6 
#
# 1 218.7368 51.2750 85.2330 0.0000 0.0000 0.0000
# 2 51.2750 29.4841 22.2463 0.0000 0.0000 0.0000
# 3 85.2330 22.2463 167.2329 0.0000 0.0000 0.0000
# 4 0.0000 0.0000 0.0000 8.4840 0.0000 0.0000
# 5 0.0000 0.0000 0.0000 0.0000 33.6179 0.0000
# 6 0.0000 0.0000 0.0000 0.0000 0.0000 0.6500
#
#
#
# Elastic Compliance Matrix: (Units=1/GPa)
#
#
# Indices 1 2 3 4 5 6 
#
# 1 0.008683 -0.013074 -0.002686 0.000000 0.000000 0.000000
# 2 -0.013074 0.057385 -0.000970 0.000000 0.000000 0.000000
# 3 -0.002686 -0.000970 0.007478 0.000000 0.000000 0.000000
# 4 0.000000 0.000000 0.000000 0.117869 0.000000 0.000000
# 5 0.000000 0.000000 0.000000 0.000000 0.029746 0.000000
# 6 0.000000 0.000000 0.000000 0.000000 0.000000 1.538572
#
#
# Mechanical properties :
#
#
# Convention : Reuss Voigt Hill
#
# Bulk Modulus (GPa) = 24.94701 81.44027 53.19364
# Shear Modulus (GPa) = 2.76770 25.66366 14.21568
#
# Velocity S-wave (km/s) = 1.23758 3.76855 2.80478
# Velocity P-wave (km/s) = 3.98090 8.00025 6.31869
#
# Compressibility (1/GPa) = 0.04008497
#
# Stress axis : x y z
#
# Youngs Moduli (GPa) = 115.16590 17.42618 133.72692
#
# Poissons Ratio (x) = 0.22782 0.35924
# Poissons Ratio (y) = 1.50564 0.12978
# Poissons Ratio (z) = 0.30938 0.01691
#
# Static dielectric constant tensor:
#      x y z
#    x 5.659860 0.000000 0.000000 
#    y 0.000000 2.643880 0.000000 
#    z 0.000000 0.000000 3.455050 
# 
# 
# High freq. dielectric constant tensor:
#      x y z
#    x 1.743070 0.000000 0.000000 
#    y 0.000000 1.600520 0.000000 
#    z 0.000000 0.000000 1.726470 
# 
# From -- ./inp_files/6667.got.cif
#   From: 2010.03.12/outbox.cif.g09.slc.cpg/sg49_4_cif.got.tgz:6667.got - 2010.04.14 03:58:27.
