data_PCOD8202845
_publ_section_title
;
Structure prediction by ZEFSAII (Michael W. Deem and Ramdas Pophale) SiO2 
 PCOD8202845
Probable space group: P C C M
;
_chemical_formula_sum "Si O2"
_cell_formula_units_Z 64
_cell_length_a 25.014951
_cell_length_b 15.185611
_cell_length_c 9.101039
_cell_angle_alpha 90.000000
_cell_angle_beta 90.000000
_cell_angle_gamma 90.000000
_cell_volume 3457.187249
_symmetry_space_group_name_H-M "P C C M"
_symmetry_group_IT_number 49
_symmetry_cell_setting 'orthorhombic'
loop_
_space_group_symop_operation_xyz
x,y,z
-x,-y,z
x,-y,1/2-z
-x,y,1/2-z
-x,-y,-z
x,y,-z
-x,y,1/2+z
x,-y,1/2+z
loop_
_atom_site_type_symbol
_atom_site_label
_atom_site_fract_x
_atom_site_fract_y
_atom_site_fract_z
Si Si1 0.277660 0.623486 0.665698
Si Si2 0.554569 0.768486 0.826180
Si Si3 0.149491 0.220849 0.328480
Si Si4 0.172940 0.415050 0.672806
Si Si5 0.602477 0.414308 0.327312
Si Si6 0.640852 0.088957 0.673944
Si Si7 0.252615 0.824243 0.334952
Si Si8 0.944173 0.089920 0.175180
O O1 0.263790 0.591094 0.500000
O O2 0.234995 0.585074 0.780287
O O3 0.335483 0.592120 0.718209
O O4 0.278401 0.728315 0.669511
O O5 0.500000 0.797968 0.750000
O O6 0.570764 0.671156 0.771295
O O7 0.600704 0.834885 0.774599
O O8 0.547091 0.771149 0.000000
O O9 0.160143 0.221329 0.500000
O O10 0.145985 0.322790 0.273089
O O11 0.199125 0.168400 0.260209
O O12 0.095536 0.169846 0.287116
O O13 0.144814 0.500000 0.750000
O O14 0.167417 0.426749 0.500000
O O15 0.577245 0.500000 0.250000
O O16 0.596496 0.424184 0.500000
O O17 0.639148 0.078112 0.500000
O O18 0.701363 0.111146 0.726088
O O19 0.621643 0.000000 0.750000
O O20 0.236340 0.850232 0.500000
O O21 0.000000 0.115921 0.250000
O O22 0.922662 0.000000 0.250000
O O23 0.950690 0.076374 0.000000
#
# Coordination Sequence:
#
# PCOD8202845 Si02
#       8
#     8   8   8   8   8   8   8   8
#     4   9  16  30  51  73 100 136 172 208 253 305
#     4  10  22  41  59  75 101 134 170 215 264 313
#     4   9  20  35  52  78 113 146 178 220 265 310
#     4  10  19  31  47  73 108 144 179 217 258 304
#     4  10  20  34  53  76 103 133 167 209 257 311
#     4  10  21  38  58  80 106 136 170 213 262 314
#     4   9  17  32  54  77 105 141 175 208 255 313
#     4  10  20  36  57  81 109 142 181 226 271 315
#
# _framework density 18.512160000000002
#
# number of rings (size 3 to 8) (size 9 to 14) (size 15 to 20)
#    0.000    2.375    1.250    1.500    0.000    5.500 
#    0.000    5.000    0.000    0.375    0.000    2.625 
#    0.000    0.000    0.000    0.000    0.000    0.000 
#
# Total GULP energy -793519.653489 kJ/mol
# GULP energy per Si atom -12398.744586 kJ/mol
# Density = 1.847003 g / cm^3
# Si number density = 18.512160 Si / 1000 Ang^3
#
#
#
# Elastic Constant Matrix: (Units=GPa)
#
#
# Indices 1 2 3 4 5 6 
#
# 1 96.8020 65.3942 41.7543 0.0000 0.0000 0.0000
# 2 65.3942 124.7310 44.5014 0.0000 0.0000 0.0000
# 3 41.7543 44.5014 51.4444 0.0000 0.0000 0.0000
# 4 0.0000 0.0000 0.0000 29.6915 0.0000 0.0000
# 5 0.0000 0.0000 0.0000 0.0000 25.4715 0.0000
# 6 0.0000 0.0000 0.0000 0.0000 0.0000 14.4742
#
#
#
# Elastic Compliance Matrix: (Units=1/GPa)
#
#
# Indices 1 2 3 4 5 6 
#
# 1 0.018877 -0.006408 -0.009778 0.000000 0.000000 0.000000
# 2 -0.006408 0.013772 -0.006712 0.000000 0.000000 0.000000
# 3 -0.009778 -0.006712 0.033180 0.000000 0.000000 0.000000
# 4 0.000000 0.000000 0.000000 0.033680 0.000000 0.000000
# 5 0.000000 0.000000 0.000000 0.000000 0.039260 0.000000
# 6 0.000000 0.000000 0.000000 0.000000 0.000000 0.069088
#
#
# Mechanical properties :
#
#
# Convention : Reuss Voigt Hill
#
# Bulk Modulus (GPa) = 49.91706 64.03080 56.97393
# Shear Modulus (GPa) = 19.20636 22.01594 20.61115
#
# Velocity S-wave (km/s) = 3.22452 3.45232 3.34036
# Velocity P-wave (km/s) = 6.39424 7.11020 6.76170
#
# Compressibility (1/GPa) = 0.02003323
#
# Stress axis : x y z
#
# Youngs Moduli (GPa) = 52.97430 72.61295 30.13819
#
# Poissons Ratio (x) = 0.46533 0.29469
# Poissons Ratio (y) = 0.33948 0.20228
# Poissons Ratio (z) = 0.51798 0.48736
#
# Static dielectric constant tensor:
#      x y z
#    x 3.229290 0.000000 0.000000 
#    y 0.000000 3.647200 0.000000 
#    z 0.000000 0.000000 3.296980 
# 
# 
# High freq. dielectric constant tensor:
#      x y z
#    x 1.696790 0.000000 0.000000 
#    y 0.000000 1.727850 0.000000 
#    z 0.000000 0.000000 1.711820 
# 
# From -- ./inp_files/6482.got.cif
#   From: 2010.03.12/outbox.cif.g09.slc.cpg/sg49_4_cif.got.tgz:6482.got - 2010.04.14 03:58:27.
