data_PCOD8202870
_publ_section_title
;
Structure prediction by ZEFSAII (Michael W. Deem and Ramdas Pophale) SiO2 
 PCOD8202870
Probable space group: P C C M
;
_chemical_formula_sum "Si O2"
_cell_formula_units_Z 64
_cell_length_a 18.932438
_cell_length_b 23.515304
_cell_length_c 8.621830
_cell_angle_alpha 90.000000
_cell_angle_beta 90.000000
_cell_angle_gamma 90.000000
_cell_volume 3838.456262
_symmetry_space_group_name_H-M "P C C M"
_symmetry_group_IT_number 49
_symmetry_cell_setting 'orthorhombic'
loop_
_space_group_symop_operation_xyz
x,y,z
-x,-y,z
x,-y,1/2-z
-x,y,1/2-z
-x,-y,-z
x,y,-z
-x,y,1/2+z
x,-y,1/2+z
loop_
_atom_site_type_symbol
_atom_site_label
_atom_site_fract_x
_atom_site_fract_y
_atom_site_fract_z
Si Si1 0.574160 0.246104 0.818969
Si Si2 0.787550 0.165612 0.818918
Si Si3 0.157300 0.337434 0.316245
Si Si4 0.712864 0.061176 0.683474
Si Si5 0.074979 0.561203 0.316794
Si Si6 0.925838 0.771635 0.678565
Si Si7 0.425822 0.113231 0.681418
Si Si8 0.283503 0.725936 0.681998
O O1 0.500000 0.267140 0.750000
O O2 0.585276 0.179568 0.784015
O O3 0.635508 0.281643 0.734265
O O4 0.575996 0.259252 0.000000
O O5 0.770592 0.103462 0.756123
O O6 0.870507 0.177486 0.790927
O O7 0.740708 0.210915 0.727258
O O8 0.767597 0.171064 0.000000
O O9 0.152781 0.344823 0.500000
O O10 0.135904 0.395412 0.232467
O O11 0.105675 0.287281 0.253995
O O12 0.237074 0.321577 0.269443
O O13 0.719627 0.061397 0.500000
O O14 0.634185 0.078220 0.731787
O O15 0.732113 0.000000 0.750000
O O16 0.095649 0.500000 0.250000
O O17 0.069036 0.557229 0.500000
O O18 0.000000 0.582301 0.250000
O O19 0.939232 0.761659 0.500000
O O20 0.000000 0.789119 0.750000
O O21 0.500000 0.092116 0.750000
O O22 0.422602 0.099588 0.500000
O O23 0.276126 0.716735 0.500000
#
# Coordination Sequence:
#
# PCOD8202870 Si02
#       8
#     8   8   8   8   8   8   8   8
#     4  10  19  31  49  71 100 133 165 203 246 296
#     4  10  20  36  52  71  98 127 158 197 244 295
#     4  10  20  34  50  73 105 139 174 216 256 293
#     4  12  24  37  54  73  94 123 159 199 243 294
#     4  11  21  34  51  73 103 143 185 221 258 301
#     4   9  19  32  51  75 101 128 157 196 244 293
#     4  10  20  34  52  72  98 127 160 199 239 287
#     4  11  20  31  50  75 101 132 168 206 251 302
#
# _framework density 16.673369000000001
#
# number of rings (size 3 to 8) (size 9 to 14) (size 15 to 20)
#    0.000    1.625    1.250    6.375    0.000    5.250 
#    0.000    1.250    0.000    0.375    0.000    2.625 
#    0.000    0.500    0.000    5.000    0.000    3.000 
#
# Total GULP energy -793822.522259 kJ/mol
# GULP energy per Si atom -12403.476910 kJ/mol
# Density = 1.663542 g / cm^3
# Si number density = 16.673369 Si / 1000 Ang^3
#
#
#
# Elastic Constant Matrix: (Units=GPa)
#
#
# Indices 1 2 3 4 5 6 
#
# 1 109.7375 48.8172 38.1957 0.0000 0.0000 0.0000
# 2 48.8172 84.6097 32.2339 0.0000 0.0000 0.0000
# 3 38.1957 32.2339 94.3979 0.0000 0.0000 0.0000
# 4 0.0000 0.0000 0.0000 24.5971 0.0000 0.0000
# 5 0.0000 0.0000 0.0000 0.0000 31.9770 0.0000
# 6 0.0000 0.0000 0.0000 0.0000 0.0000 14.1218
#
#
#
# Elastic Compliance Matrix: (Units=1/GPa)
#
#
# Indices 1 2 3 4 5 6 
#
# 1 0.013005 -0.006321 -0.003104 0.000000 0.000000 0.000000
# 2 -0.006321 0.016659 -0.003131 0.000000 0.000000 0.000000
# 3 -0.003104 -0.003131 0.012918 0.000000 0.000000 0.000000
# 4 0.000000 0.000000 0.000000 0.040655 0.000000 0.000000
# 5 0.000000 0.000000 0.000000 0.000000 0.031273 0.000000
# 6 0.000000 0.000000 0.000000 0.000000 0.000000 0.070812
#
#
# Mechanical properties :
#
#
# Convention : Reuss Voigt Hill
#
# Bulk Modulus (GPa) = 57.23766 58.58208 57.90987
# Shear Modulus (GPa) = 23.12068 25.43907 24.27988
#
# Velocity S-wave (km/s) = 3.72786 3.91030 3.82017
# Velocity P-wave (km/s) = 7.27548 7.45645 7.36652
#
# Compressibility (1/GPa) = 0.01747101
#
# Stress axis : x y z
#
# Youngs Moduli (GPa) = 76.89437 60.02849 77.40932
#
# Poissons Ratio (x) = 0.37944 0.24025
# Poissons Ratio (y) = 0.48605 0.24235
# Poissons Ratio (z) = 0.23865 0.18794
#
# Static dielectric constant tensor:
#      x y z
#    x 3.485210 0.000000 0.000000 
#    y 0.000000 2.932810 0.000000 
#    z 0.000000 0.000000 3.233420 
# 
# 
# High freq. dielectric constant tensor:
#      x y z
#    x 1.641410 0.000000 0.000000 
#    y 0.000000 1.609050 0.000000 
#    z 0.000000 0.000000 1.661140 
# 
# From -- ./inp_files/5433.got.cif
#   From: 2010.03.12/outbox.cif.g09.slc.cpg/sg49_3_cif.got.tgz:5433.got - 2010.04.14 03:58:27.
