data_PCOD8202847
_publ_section_title
;
Structure prediction by ZEFSAII (Michael W. Deem and Ramdas Pophale) SiO2 
 PCOD8202847
Probable space group: P C C M
;
_chemical_formula_sum "Si O2"
_cell_formula_units_Z 56
_cell_length_a 29.381712
_cell_length_b 13.629858
_cell_length_c 8.927483
_cell_angle_alpha 90.000000
_cell_angle_beta 90.000000
_cell_angle_gamma 90.000000
_cell_volume 3575.176282
_symmetry_space_group_name_H-M "P C C M"
_symmetry_group_IT_number 49
_symmetry_cell_setting 'orthorhombic'
loop_
_space_group_symop_operation_xyz
x,y,z
-x,-y,z
x,-y,1/2-z
-x,y,1/2-z
-x,-y,-z
x,y,-z
-x,y,1/2+z
x,-y,1/2+z
loop_
_atom_site_type_symbol
_atom_site_label
_atom_site_fract_x
_atom_site_fract_y
_atom_site_fract_z
Si Si1 0.316522 0.100647 0.827331
Si Si2 0.042767 0.105718 0.174800
Si Si3 0.770553 0.220792 0.323727
Si Si4 0.638939 0.298213 0.325479
Si Si5 0.545705 0.603837 0.823980
Si Si6 0.277802 0.602673 0.822276
Si Si7 0.857279 0.104584 0.325655
O O1 0.265978 0.136495 0.783392
O O2 0.352430 0.185161 0.780639
O O3 0.329981 0.000000 0.750000
O O4 0.319707 0.077582 0.000000
O O5 0.092660 0.152277 0.206323
O O6 0.000000 0.165025 0.250000
O O7 0.044079 0.000000 0.250000
O O8 0.033119 0.096261 0.000000
O O9 0.768849 0.245583 0.500000
O O10 0.759374 0.318404 0.231763
O O11 0.819787 0.182307 0.269767
O O12 0.650940 0.315428 0.500000
O O13 0.586677 0.321852 0.289540
O O14 0.671509 0.368771 0.230416
O O15 0.557543 0.500000 0.750000
O O16 0.500000 0.648228 0.750000
O O17 0.538130 0.588883 0.000000
O O18 0.263563 0.500000 0.750000
O O19 0.276990 0.594446 0.000000
O O20 0.850578 0.084300 0.500000
O O21 0.850233 0.000000 0.250000
#
# Coordination Sequence:
#
# PCOD8202847 Si02
#       7
#     8   8   8   8   8   8   8
#     4   9  17  29  45  64  87 114 145 180 216 249
#     4   9  15  23  35  53  77 109 146 181 218 257
#     4   9  18  32  45  61  88 117 145 181 219 256
#     4   9  19  34  49  67  92 120 147 179 215 253
#     4  10  19  31  48  69  93 117 142 174 216 261
#     4  11  21  32  48  68  89 115 145 177 213 257
#     4   9  17  27  41  60  85 117 150 184 221 258
#
# _framework density 15.663562000000001
#
# number of rings (size 3 to 8) (size 9 to 14) (size 15 to 20)
#    0.000    2.571    0.000    4.714    0.000    5.714 
#    0.000    0.000    0.000    0.429    0.000    3.000 
#    0.000    0.571    0.000    6.571    0.000    2.000 
#
# Total GULP energy -694125.903333 kJ/mol
# GULP energy per Si atom -12395.105417 kJ/mol
# Density = 1.562791 g / cm^3
# Si number density = 15.663562 Si / 1000 Ang^3
#
#
#
# Elastic Constant Matrix: (Units=GPa)
#
#
# Indices 1 2 3 4 5 6 
#
# 1 145.3068 56.8718 51.3548 0.0000 0.0000 0.0000
# 2 56.8718 87.3996 43.8543 0.0000 0.0000 0.0000
# 3 51.3548 43.8543 82.3215 0.0000 0.0000 0.0000
# 4 0.0000 0.0000 0.0000 22.6559 0.0000 0.0000
# 5 0.0000 0.0000 0.0000 0.0000 63.3144 0.0000
# 6 0.0000 0.0000 0.0000 0.0000 0.0000 -6.8149
#
#
#
# Elastic Compliance Matrix: (Units=1/GPa)
#
#
# Indices 1 2 3 4 5 6 
#
# 1 0.010033 -0.004624 -0.003796 0.000000 0.000000 0.000000
# 2 -0.004624 0.017747 -0.006569 0.000000 0.000000 0.000000
# 3 -0.003796 -0.006569 0.018015 0.000000 0.000000 0.000000
# 4 0.000000 0.000000 0.000000 0.044139 0.000000 0.000000
# 5 0.000000 0.000000 0.000000 0.000000 0.015794 0.000000
# 6 0.000000 0.000000 0.000000 0.000000 0.000000 -0.146736
#
#
# Mechanical properties :
#
#
# Convention : Reuss Voigt Hill
#
# Bulk Modulus (GPa) = 63.22448 68.79889 66.01169
# Shear Modulus (GPa) = -868.54431 26.69420 -420.92505
#
# Velocity S-wave (km/s) = -23.57337 4.13270 -16.41073
# Velocity P-wave (km/s) = 26.46671 8.17255 17.80022
#
# Compressibility (1/GPa) = 0.01581666
#
# Stress axis : x y z
#
# Youngs Moduli (GPa) = 99.66736 56.34723 55.50907
#
# Poissons Ratio (x) = 0.26056 0.21070
# Poissons Ratio (y) = 0.46089 0.36467
# Poissons Ratio (z) = 0.37831 0.37017
#
# Static dielectric constant tensor:
#      x y z
#    x 3.531360 0.000000 0.000000 
#    y 0.000000 2.789550 0.000000 
#    z 0.000000 0.000000 3.044250 
# 
# 
# High freq. dielectric constant tensor:
#      x y z
#    x 1.605360 0.000000 0.000000 
#    y 0.000000 1.565600 0.000000 
#    z 0.000000 0.000000 1.608910 
# 
# From -- ./inp_files/7026.got.cif
#   From: 2010.03.12/outbox.cif.g09.slc.cpg/sg49_4_cif.got.tgz:7026.got - 2010.04.14 03:58:27.
