data_PCOD8202695
_publ_section_title
;
Structure prediction by ZEFSAII (Michael W. Deem and Ramdas Pophale) SiO2 
 PCOD8202695
Probable space group: P C C M
;
_chemical_formula_sum "Si O2"
_cell_formula_units_Z 64
_cell_length_a 9.937279
_cell_length_b 19.418236
_cell_length_c 17.606252
_cell_angle_alpha 90.000000
_cell_angle_beta 90.000000
_cell_angle_gamma 90.000000
_cell_volume 3397.380361
_symmetry_space_group_name_H-M "P C C M"
_symmetry_group_IT_number 49
_symmetry_cell_setting 'orthorhombic'
loop_
_space_group_symop_operation_xyz
x,y,z
-x,-y,z
x,-y,1/2-z
-x,y,1/2-z
-x,-y,-z
x,y,-z
-x,y,1/2+z
x,-y,1/2+z
loop_
_atom_site_type_symbol
_atom_site_label
_atom_site_fract_x
_atom_site_fract_y
_atom_site_fract_z
Si Si1 0.022716 0.708646 0.587102
Si Si2 0.259955 0.788057 0.347036
Si Si3 0.777663 0.775125 0.330049
Si Si4 0.509388 0.699891 0.661991
Si Si5 0.101836 0.442884 0.089783
Si Si6 0.845271 0.929216 0.840855
Si Si7 0.405937 0.438632 0.909909
Si Si8 0.852080 0.921763 0.661086
O O1 0.975829 0.714251 0.500000
O O2 0.915150 0.742732 0.641668
O O3 0.165804 0.745394 0.596539
O O4 0.038852 0.629869 0.612507
O O5 0.213438 0.775837 0.260701
O O6 0.411336 0.762890 0.358460
O O7 0.254015 0.868969 0.369622
O O8 0.656276 0.728071 0.360394
O O9 0.765798 0.854048 0.362174
O O10 0.500000 0.679949 0.750000
O O11 0.472564 0.632927 0.614470
O O12 0.254279 0.448663 0.123136
O O13 0.000000 0.500000 0.124449
O O14 0.111388 0.451919 0.000000
O O15 0.851673 0.928361 0.750849
O O16 0.996056 0.913055 0.870518
O O17 0.794728 0.004727 0.870565
O O18 0.500000 0.500000 0.878596
O O19 0.401116 0.439150 0.000000
#
# Coordination Sequence:
#
# PCOD8202695 Si02
#       8
#     8   8   8   8   8   8   8   8
#     4  11  21  33  55  81 103 132 174 220 262 303
#     4  10  18  35  54  74 105 143 175 210 259 312
#     4  10  20  33  52  77 108 141 171 215 262 308
#     4  10  22  36  53  78 110 143 173 209 262 318
#     4   9  19  35  54  78 103 126 164 218 259 297
#     4   8  13  23  47  73  98 133 174 215 253 303
#     4  10  21  37  58  78 101 138 177 210 255 309
#     4   8  13  24  44  75 101 129 174 216 256 297
#
# _framework density 18.838044
#
# number of rings (size 3 to 8) (size 9 to 14) (size 15 to 20)
#    0.000    2.500    2.500    1.125    1.750    0.750 
#    0.000    0.625    0.000    6.750    0.000    0.000 
#    0.000    3.000    0.000    0.000    0.000    0.000 
#
# Total GULP energy -793172.877751 kJ/mol
# GULP energy per Si atom -12393.326215 kJ/mol
# Density = 1.879517 g / cm^3
# Si number density = 18.838044 Si / 1000 Ang^3
#
#
#
# Elastic Constant Matrix: (Units=GPa)
#
#
# Indices 1 2 3 4 5 6 
#
# 1 75.4537 45.1417 10.7845 0.0000 0.0000 0.0000
# 2 45.1417 157.9920 15.0198 0.0000 0.0000 0.0000
# 3 10.7845 15.0198 12.1080 0.0000 0.0000 0.0000
# 4 0.0000 0.0000 0.0000 10.7631 0.0000 0.0000
# 5 0.0000 0.0000 0.0000 0.0000 14.4476 0.0000
# 6 0.0000 0.0000 0.0000 0.0000 0.0000 29.6822
#
#
#
# Elastic Compliance Matrix: (Units=1/GPa)
#
#
# Indices 1 2 3 4 5 6 
#
# 1 0.017062 -0.003889 -0.010373 0.000000 0.000000 0.000000
# 2 -0.003889 0.008062 -0.006537 0.000000 0.000000 0.000000
# 3 -0.010373 -0.006537 0.099938 0.000000 0.000000 0.000000
# 4 0.000000 0.000000 0.000000 0.092910 0.000000 0.000000
# 5 0.000000 0.000000 0.000000 0.000000 0.069216 0.000000
# 6 0.000000 0.000000 0.000000 0.000000 0.000000 0.033690
#
#
# Mechanical properties :
#
#
# Convention : Reuss Voigt Hill
#
# Bulk Modulus (GPa) = 11.98112 43.04951 27.51531
# Shear Modulus (GPa) = 12.81069 22.61908 17.71488
#
# Velocity S-wave (km/s) = 2.61059 3.46889 3.06989
# Velocity P-wave (km/s) = 3.93202 6.24070 5.21570
#
# Compressibility (1/GPa) = 0.08346465
#
# Stress axis : x y z
#
# Youngs Moduli (GPa) = 58.60831 124.03802 10.00617
#
# Poissons Ratio (x) = 0.48238 0.10380
# Poissons Ratio (y) = 0.22793 0.06541
# Poissons Ratio (z) = 0.60795 0.81084
#
# Static dielectric constant tensor:
#      x y z
#    x 3.500160 0.000000 0.000000 
#    y 0.000000 3.988270 0.000000 
#    z 0.000000 0.000000 2.994160 
# 
# 
# High freq. dielectric constant tensor:
#      x y z
#    x 1.718750 0.000000 0.000000 
#    y 0.000000 1.753690 0.000000 
#    z 0.000000 0.000000 1.681770 
# 
# From -- ./inp_files/19998.got.cif
#   From: 2010.03.12/outbox.cif.g09.slc.cpg/sg49_10_cif.got.tgz:19998.got - 2010.04.14 03:58:27.
