data_PCOD8202801
_publ_section_title
;
Structure prediction by ZEFSAII (Michael W. Deem and Ramdas Pophale) SiO2 
 PCOD8202801
Probable space group: P C C M
;
_chemical_formula_sum "Si O2"
_cell_formula_units_Z 56
_cell_length_a 14.325354
_cell_length_b 20.279632
_cell_length_c 9.421882
_cell_angle_alpha 90.000000
_cell_angle_beta 90.000000
_cell_angle_gamma 90.000000
_cell_volume 2737.178333
_symmetry_space_group_name_H-M "P C C M"
_symmetry_group_IT_number 49
_symmetry_cell_setting 'orthorhombic'
loop_
_space_group_symop_operation_xyz
x,y,z
-x,-y,z
x,-y,1/2-z
-x,y,1/2-z
-x,-y,-z
x,y,-z
-x,y,1/2+z
x,-y,1/2+z
loop_
_atom_site_type_symbol
_atom_site_label
_atom_site_fract_x
_atom_site_fract_y
_atom_site_fract_z
Si Si1 0.230531 0.558463 0.834027
Si Si2 0.793331 0.707139 0.656910
Si Si3 0.096225 0.190057 0.167433
Si Si4 0.408225 0.589366 0.656034
Si Si5 0.393020 0.267989 0.787978
Si Si6 0.591031 0.124252 0.344558
Si Si7 0.781212 0.936012 0.166554
O O1 0.173210 0.500000 0.750000
O O2 0.182496 0.629875 0.817886
O O3 0.328684 0.557995 0.751748
O O4 0.243195 0.540664 0.000000
O O5 0.827971 0.728131 0.500000
O O6 0.844911 0.747315 0.779172
O O7 0.681229 0.720532 0.660140
O O8 0.150037 0.123319 0.205609
O O9 0.000000 0.188158 0.250000
O O10 0.079528 0.198232 0.000000
O O11 0.500000 0.580137 0.750000
O O12 0.416633 0.555247 0.500000
O O13 0.387028 0.666222 0.618617
O O14 0.500000 0.257960 0.750000
O O15 0.368423 0.198847 0.862578
O O16 0.500000 0.115856 0.250000
O O17 0.563204 0.098637 0.500000
O O18 0.676157 0.081307 0.282030
O O19 0.816797 0.000000 0.250000
O O20 0.783243 0.950649 0.000000
#
# Coordination Sequence:
#
# PCOD8202801 Si02
#       7
#     8   8   8   8   8   8   8
#     4  10  21  36  54  80 114 152 197 241 290 354
#     4  10  21  38  62  91 122 158 201 248 299 357
#     4  11  24  44  68  95 124 153 194 246 303 366
#     4  10  19  30  47  71 105 150 197 249 302 351
#     4   9  18  31  51  82 119 154 198 245 296 348
#     4  10  20  35  54  82 119 160 206 248 293 346
#     4  10  23  42  62  88 124 162 202 248 297 355
#
# _framework density 20.459023999999999
#
# number of rings (size 3 to 8) (size 9 to 14) (size 15 to 20)
#    0.000    2.000    1.429    1.714    0.000   11.143 
#    0.000    4.286    0.000    0.429    0.000    3.000 
#    0.000    0.000    0.000    0.000    0.000    0.000 
#
# Total GULP energy -693746.621709 kJ/mol
# GULP energy per Si atom -12388.332531 kJ/mol
# Density = 2.041246 g / cm^3
# Si number density = 20.459024 Si / 1000 Ang^3
#
#
#
# Elastic Constant Matrix: (Units=GPa)
#
#
# Indices 1 2 3 4 5 6 
#
# 1 82.3348 40.8861 48.2033 0.0000 0.0000 0.0000
# 2 40.8861 121.3348 59.1685 0.0000 0.0000 0.0000
# 3 48.2033 59.1685 139.4749 0.0000 0.0000 0.0000
# 4 0.0000 0.0000 0.0000 32.4189 0.0000 0.0000
# 5 0.0000 0.0000 0.0000 0.0000 15.3299 0.0000
# 6 0.0000 0.0000 0.0000 0.0000 0.0000 5.9187
#
#
#
# Elastic Compliance Matrix: (Units=1/GPa)
#
#
# Indices 1 2 3 4 5 6 
#
# 1 0.016304 -0.003462 -0.004166 0.000000 0.000000 0.000000
# 2 -0.003462 0.011127 -0.003524 0.000000 0.000000 0.000000
# 3 -0.004166 -0.003524 0.010104 0.000000 0.000000 0.000000
# 4 0.000000 0.000000 0.000000 0.030846 0.000000 0.000000
# 5 0.000000 0.000000 0.000000 0.000000 0.065232 0.000000
# 6 0.000000 0.000000 0.000000 0.000000 0.000000 0.168956
#
#
# Mechanical properties :
#
#
# Convention : Reuss Voigt Hill
#
# Bulk Modulus (GPa) = 65.65523 71.07337 68.36430
# Shear Modulus (GPa) = 15.15382 23.72594 19.43988
#
# Velocity S-wave (km/s) = 2.72452 3.40910 3.08585
# Velocity P-wave (km/s) = 6.48522 7.09301 6.79591
#
# Compressibility (1/GPa) = 0.01523108
#
# Stress axis : x y z
#
# Youngs Moduli (GPa) = 61.33525 89.87444 98.96815
#
# Poissons Ratio (x) = 0.31118 0.41229
# Poissons Ratio (y) = 0.21237 0.34872
# Poissons Ratio (z) = 0.25551 0.31668
#
# Static dielectric constant tensor:
#      x y z
#    x 3.431580 0.000000 0.000000 
#    y 0.000000 4.120170 0.000000 
#    z 0.000000 0.000000 3.643790 
# 
# 
# High freq. dielectric constant tensor:
#      x y z
#    x 1.766490 0.000000 0.000000 
#    y 0.000000 1.814530 0.000000 
#    z 0.000000 0.000000 1.800700 
# 
# From -- ./inp_files/4063.got.cif
#   From: 2010.03.12/outbox.cif.g09.slc.cpg/sg49_3_cif.got.tgz:4063.got - 2010.04.14 03:58:27.
