data_PCOD8202289
_publ_section_title
;
Structure prediction by ZEFSAII (Michael W. Deem and Ramdas Pophale) SiO2 
 PCOD8202289
Probable space group: P C C M
;
_chemical_formula_sum "Si O2"
_cell_formula_units_Z 64
_cell_length_a 14.991004
_cell_length_b 28.314291
_cell_length_c 8.748650
_cell_angle_alpha 90.000000
_cell_angle_beta 90.000000
_cell_angle_gamma 90.000000
_cell_volume 3713.448914
_symmetry_space_group_name_H-M "P C C M"
_symmetry_group_IT_number 49
_symmetry_cell_setting 'orthorhombic'
loop_
_space_group_symop_operation_xyz
x,y,z
-x,-y,z
x,-y,1/2-z
-x,y,1/2-z
-x,-y,-z
x,y,-z
-x,y,1/2+z
x,-y,1/2+z
loop_
_atom_site_type_symbol
_atom_site_label
_atom_site_fract_x
_atom_site_fract_y
_atom_site_fract_z
Si Si1 0.090512 0.414779 0.680268
Si Si2 0.592023 0.371134 0.819300
Si Si3 0.909245 0.691973 0.680889
Si Si4 0.276481 0.451606 0.680740
Si Si5 0.098848 0.046867 0.182776
Si Si6 0.407319 0.263790 0.680791
Si Si7 0.901481 0.856993 0.317121
Si Si8 0.221282 0.771170 0.818802
O O1 0.081779 0.415427 0.500000
O O2 0.105831 0.361312 0.739353
O O3 0.174359 0.445461 0.736133
O O4 0.000000 0.436449 0.750000
O O5 0.500000 0.389735 0.750000
O O6 0.668315 0.406494 0.758756
O O7 0.611478 0.317600 0.764409
O O8 0.585955 0.372940 0.000000
O O9 0.916161 0.694117 0.500000
O O10 0.828326 0.724156 0.741006
O O11 0.000000 0.713046 0.750000
O O12 0.315132 0.500000 0.750000
O O13 0.283118 0.454450 0.500000
O O14 0.141824 0.094988 0.247878
O O15 0.000000 0.046597 0.250000
O O16 0.148496 0.000000 0.250000
O O17 0.099065 0.046179 0.000000
O O18 0.500000 0.244389 0.750000
O O19 0.416071 0.261651 0.500000
O O20 0.324266 0.231381 0.738857
O O21 0.908875 0.860215 0.500000
O O22 0.832150 0.817015 0.260611
O O23 0.000000 0.846670 0.250000
O O24 0.221183 0.771250 0.000000
#
# Coordination Sequence:
#
# PCOD8202289 Si02
#       8
#     8   8   8   8   8   8   8   8
#     4   9  18  32  49  66  86 112 146 181 215 252
#     4   9  18  33  53  72  91 113 141 175 216 263
#     4   9  16  28  45  65  87 115 147 179 212 255
#     4  10  21  35  49  67  89 115 142 174 215 263
#     4  10  17  27  42  60  84 119 161 202 236 268
#     4   9  17  32  51  70  89 114 147 183 219 262
#     4  10  18  28  41  62  92 126 159 191 225 266
#     4   9  17  28  45  65  90 122 151 178 219 269
#
# _framework density 17.234652000000001
#
# number of rings (size 3 to 8) (size 9 to 14) (size 15 to 20)
#    0.000    2.625    0.000    3.750    0.000    4.500 
#    0.000    5.000    0.000    6.000    0.000    0.000 
#    0.000    0.500    0.000    5.750    0.000    1.750 
#
# Total GULP energy -793236.914254 kJ/mol
# GULP energy per Si atom -12394.326785 kJ/mol
# Density = 1.719542 g / cm^3
# Si number density = 17.234652 Si / 1000 Ang^3
#
#
#
# Elastic Constant Matrix: (Units=GPa)
#
#
# Indices 1 2 3 4 5 6 
#
# 1 113.1802 52.0542 22.6122 0.0000 0.0000 0.0000
# 2 52.0542 91.6467 24.0260 0.0000 0.0000 0.0000
# 3 22.6122 24.0260 42.3213 0.0000 0.0000 0.0000
# 4 0.0000 0.0000 0.0000 54.5874 0.0000 0.0000
# 5 0.0000 0.0000 0.0000 0.0000 23.1743 0.0000
# 6 0.0000 0.0000 0.0000 0.0000 0.0000 19.3238
#
#
#
# Elastic Compliance Matrix: (Units=1/GPa)
#
#
# Indices 1 2 3 4 5 6 
#
# 1 0.012288 -0.006177 -0.003058 0.000000 0.000000 0.000000
# 2 -0.006177 0.015925 -0.005740 0.000000 0.000000 0.000000
# 3 -0.003058 -0.005740 0.028522 0.000000 0.000000 0.000000
# 4 0.000000 0.000000 0.000000 0.018319 0.000000 0.000000
# 5 0.000000 0.000000 0.000000 0.000000 0.043151 0.000000
# 6 0.000000 0.000000 0.000000 0.000000 0.000000 0.051750
#
#
# Mechanical properties :
#
#
# Convention : Reuss Voigt Hill
#
# Bulk Modulus (GPa) = 37.33789 49.39255 43.36522
# Shear Modulus (GPa) = 23.94252 29.31415 26.62833
#
# Velocity S-wave (km/s) = 3.73125 4.12865 3.93497
# Velocity P-wave (km/s) = 6.34622 7.17278 6.77212
#
# Compressibility (1/GPa) = 0.02678245
#
# Stress axis : x y z
#
# Youngs Moduli (GPa) = 81.38261 62.79431 35.06125
#
# Poissons Ratio (x) = 0.38791 0.10723
# Poissons Ratio (y) = 0.50274 0.20126
# Poissons Ratio (z) = 0.24889 0.36045
#
# Static dielectric constant tensor:
#      x y z
#    x 3.220170 0.000000 0.000000 
#    y 0.000000 3.716740 0.000000 
#    z 0.000000 0.000000 3.041330 
# 
# 
# High freq. dielectric constant tensor:
#      x y z
#    x 1.644430 0.000000 0.000000 
#    y 0.000000 1.658630 0.000000 
#    z 0.000000 0.000000 1.651330 
# 
# From -- ./inp_files/4508.got.cif
#   From: 2010.03.12/outbox.cif.g09.slc.cpg/sg49_3_cif.got.tgz:4508.got - 2010.04.14 03:58:27.
