data_PCOD8202712
_publ_section_title
;
Structure prediction by ZEFSAII (Michael W. Deem and Ramdas Pophale) SiO2 
 PCOD8202712
Probable space group: P C C M
;
_chemical_formula_sum "Si O2"
_cell_formula_units_Z 64
_cell_length_a 18.200403
_cell_length_b 26.434778
_cell_length_c 9.165374
_cell_angle_alpha 90.000000
_cell_angle_beta 90.000000
_cell_angle_gamma 90.000000
_cell_volume 4409.677852
_symmetry_space_group_name_H-M "P C C M"
_symmetry_group_IT_number 49
_symmetry_cell_setting 'orthorhombic'
loop_
_space_group_symop_operation_xyz
x,y,z
-x,-y,z
x,-y,1/2-z
-x,y,1/2-z
-x,-y,-z
x,y,-z
-x,y,1/2+z
x,-y,1/2+z
loop_
_atom_site_type_symbol
_atom_site_label
_atom_site_fract_x
_atom_site_fract_y
_atom_site_fract_z
Si Si1 0.801791 0.799066 0.839085
Si Si2 0.076463 0.151142 0.670371
Si Si3 0.577481 0.658119 0.669609
Si Si4 0.424365 0.155246 0.828169
Si Si5 0.838063 0.049412 0.170124
Si Si6 0.422565 0.545828 0.830767
Si Si7 0.285517 0.902791 0.661313
Si Si8 0.658990 0.255628 0.671911
O O1 0.868439 0.804913 0.725362
O O2 0.756103 0.850111 0.848615
O O3 0.744511 0.755642 0.789673
O O4 0.834044 0.786749 0.000000
O O5 0.064651 0.158399 0.500000
O O6 0.108669 0.095952 0.708293
O O7 0.000000 0.157741 0.750000
O O8 0.500000 0.664847 0.750000
O O9 0.564541 0.670828 0.500000
O O10 0.612058 0.601666 0.687971
O O11 0.637395 0.695091 0.737957
O O12 0.500000 0.143148 0.750000
O O13 0.368152 0.109873 0.785594
O O14 0.392777 0.209361 0.776560
O O15 0.436868 0.156080 0.000000
O O16 0.755289 0.060011 0.226610
O O17 0.870554 0.000000 0.250000
O O18 0.834474 0.038641 0.000000
O O19 0.377191 0.500000 0.750000
O O20 0.500000 0.548433 0.750000
O O21 0.432063 0.532037 0.000000
O O22 0.285850 0.928002 0.500000
O O23 0.649748 0.265258 0.500000
#
# Coordination Sequence:
#
# PCOD8202712 Si02
#       8
#     8   8   8   8   8   8   8   8
#     4   8  15  29  46  61  80 106 133 160 190 228
#     4  10  20  32  47  67  88 109 133 158 185 220
#     4  10  19  27  36  53  77 104 136 176 217 252
#     4   9  17  27  40  59  80 102 128 159 196 235
#     4  10  20  32  47  66  84 104 129 155 187 226
#     4   9  16  25  36  49  66  93 131 173 215 254
#     4   8  15  29  45  59  78 103 129 157 189 227
#     4   9  17  28  41  58  80 106 134 163 200 242
#
# _framework density 14.513532
#
# number of rings (size 3 to 8) (size 9 to 14) (size 15 to 20)
#    0.000    2.875    0.000    3.750    0.000    5.750 
#    0.000    3.750    0.000    0.375    0.000    2.625 
#    0.000    0.000    0.000    0.000    0.000    0.625 
#
# Total GULP energy -793166.348406 kJ/mol
# GULP energy per Si atom -12393.224194 kJ/mol
# Density = 1.448050 g / cm^3
# Si number density = 14.513532 Si / 1000 Ang^3
#
#
#
# Elastic Constant Matrix: (Units=GPa)
#
#
# Indices 1 2 3 4 5 6 
#
# 1 88.0401 31.8966 45.5916 0.0000 0.0000 0.0000
# 2 31.8966 59.0204 37.2733 0.0000 0.0000 0.0000
# 3 45.5916 37.2733 80.8449 0.0000 0.0000 0.0000
# 4 0.0000 0.0000 0.0000 21.3173 0.0000 0.0000
# 5 0.0000 0.0000 0.0000 0.0000 22.8951 0.0000
# 6 0.0000 0.0000 0.0000 0.0000 0.0000 9.4205
#
#
#
# Elastic Compliance Matrix: (Units=1/GPa)
#
#
# Indices 1 2 3 4 5 6 
#
# 1 0.016806 -0.004369 -0.007463 0.000000 0.000000 0.000000
# 2 -0.004369 0.025039 -0.009080 0.000000 0.000000 0.000000
# 3 -0.007463 -0.009080 0.020765 0.000000 0.000000 0.000000
# 4 0.000000 0.000000 0.000000 0.046910 0.000000 0.000000
# 5 0.000000 0.000000 0.000000 0.000000 0.043677 0.000000
# 6 0.000000 0.000000 0.000000 0.000000 0.000000 0.106151
#
#
# Mechanical properties :
#
#
# Convention : Reuss Voigt Hill
#
# Bulk Modulus (GPa) = 48.11301 50.82537 49.46919
# Shear Modulus (GPa) = 16.22838 18.26952 17.24895
#
# Velocity S-wave (km/s) = 3.34751 3.55179 3.45116
# Velocity P-wave (km/s) = 6.93999 7.20525 7.07387
#
# Compressibility (1/GPa) = 0.02078440
#
# Stress axis : x y z
#
# Youngs Moduli (GPa) = 59.50135 39.93768 48.15903
#
# Poissons Ratio (x) = 0.17450 0.35942
# Poissons Ratio (y) = 0.25999 0.43729
# Poissons Ratio (z) = 0.44407 0.36264
#
# Static dielectric constant tensor:
#      x y z
#    x 2.718090 0.000000 0.000000 
#    y 0.000000 3.086870 0.000000 
#    z 0.000000 0.000000 2.922840 
# 
# 
# High freq. dielectric constant tensor:
#      x y z
#    x 1.522730 0.000000 0.000000 
#    y 0.000000 1.532670 0.000000 
#    z 0.000000 0.000000 1.566090 
# 
# From -- ./inp_files/5443.got.cif
#   From: 2010.03.12/outbox.cif.g09.slc.cpg/sg49_3_cif.got.tgz:5443.got - 2010.04.14 03:58:27.
