data_PCOD8202940
_publ_section_title
;
Structure prediction by ZEFSAII (Michael W. Deem and Ramdas Pophale) SiO2 
 PCOD8202940
Probable space group: P C C M
;
_chemical_formula_sum "Si O2"
_cell_formula_units_Z 64
_cell_length_a 25.658265
_cell_length_b 14.903698
_cell_length_c 9.099529
_cell_angle_alpha 90.000000
_cell_angle_beta 90.000000
_cell_angle_gamma 90.000000
_cell_volume 3479.687486
_symmetry_space_group_name_H-M "P C C M"
_symmetry_group_IT_number 49
_symmetry_cell_setting 'orthorhombic'
loop_
_space_group_symop_operation_xyz
x,y,z
-x,-y,z
x,-y,1/2-z
-x,y,1/2-z
-x,-y,-z
x,y,-z
-x,y,1/2+z
x,-y,1/2+z
loop_
_atom_site_type_symbol
_atom_site_label
_atom_site_fract_x
_atom_site_fract_y
_atom_site_fract_z
Si Si1 0.623723 0.085264 0.836408
Si Si2 0.547786 0.613405 0.159501
Si Si3 0.253274 0.910557 0.832491
Si Si4 0.664255 0.589097 0.825878
Si Si5 0.836797 0.595823 0.671925
Si Si6 0.245117 0.722887 0.674752
Si Si7 0.952627 0.405327 0.169500
Si Si8 0.452737 0.179508 0.839959
O O1 0.685107 0.085404 0.837227
O O2 0.601457 0.170635 0.748822
O O3 0.601154 0.000000 0.750000
O O4 0.601059 0.085560 0.000000
O O5 0.500000 0.569203 0.250000
O O6 0.604867 0.600856 0.234299
O O7 0.535509 0.716949 0.139135
O O8 0.548617 0.566486 0.000000
O O9 0.238550 0.821543 0.743336
O O10 0.231658 0.000000 0.750000
O O11 0.231223 0.907318 0.000000
O O12 0.688327 0.500000 0.750000
O O13 0.699552 0.675772 0.784376
O O14 0.665015 0.576129 0.000000
O O15 0.831920 0.500000 0.750000
O O16 0.821352 0.585911 0.500000
O O17 0.800240 0.664163 0.756081
O O18 0.895235 0.637711 0.686063
O O19 0.238316 0.730288 0.500000
O O20 0.949683 0.500000 0.250000
O O21 0.000000 0.349858 0.250000
O O22 0.967441 0.417450 0.000000
O O23 0.500000 0.133551 0.750000
O O24 0.447719 0.133766 0.000000
#
# Coordination Sequence:
#
# PCOD8202940 Si02
#       8
#     8   8   8   8   8   8   8   8
#     4  10  20  33  49  69  91 116 146 182 231 290
#     4   9  19  35  52  69  89 115 150 194 242 291
#     4  10  21  37  57  79 102 128 162 206 254 308
#     4  10  22  37  52  73 100 130 165 205 250 301
#     4  10  20  33  49  74 109 148 188 228 269 312
#     4  11  22  36  55  77 104 139 176 215 261 312
#     4   9  16  26  43  67  99 140 185 229 268 307
#     4  10  19  32  49  67  89 115 145 184 230 284
#
# _framework density 18.392455999999999
#
# number of rings (size 3 to 8) (size 9 to 14) (size 15 to 20)
#    0.000    2.125    0.000    3.750    0.000    7.500 
#    0.000    2.500    0.000    0.000    0.000    0.000 
#    0.000    0.500    0.000    5.250    0.000    2.875 
#
# Total GULP energy -793051.217247 kJ/mol
# GULP energy per Si atom -12391.425269 kJ/mol
# Density = 1.835059 g / cm^3
# Si number density = 18.392456 Si / 1000 Ang^3
#
#
#
# Elastic Constant Matrix: (Units=GPa)
#
#
# Indices 1 2 3 4 5 6 
#
# 1 89.6074 37.4279 51.8747 0.0000 0.0000 0.0000
# 2 37.4279 90.6432 50.5407 0.0000 0.0000 0.0000
# 3 51.8747 50.5407 142.4824 0.0000 0.0000 0.0000
# 4 0.0000 0.0000 0.0000 27.3286 0.0000 0.0000
# 5 0.0000 0.0000 0.0000 0.0000 25.5740 0.0000
# 6 0.0000 0.0000 0.0000 0.0000 0.0000 20.1285
#
#
#
# Elastic Compliance Matrix: (Units=1/GPa)
#
#
# Indices 1 2 3 4 5 6 
#
# 1 0.015211 -0.003980 -0.004126 0.000000 0.000000 0.000000
# 2 -0.003980 0.014794 -0.003798 0.000000 0.000000 0.000000
# 3 -0.004126 -0.003798 0.009868 0.000000 0.000000 0.000000
# 4 0.000000 0.000000 0.000000 0.036592 0.000000 0.000000
# 5 0.000000 0.000000 0.000000 0.000000 0.039102 0.000000
# 6 0.000000 0.000000 0.000000 0.000000 0.000000 0.049681
#
#
# Mechanical properties :
#
#
# Convention : Reuss Voigt Hill
#
# Bulk Modulus (GPa) = 62.25447 66.93552 64.59499
# Shear Modulus (GPa) = 25.71869 26.79887 26.25878
#
# Velocity S-wave (km/s) = 3.74348 3.82128 3.78258
# Velocity P-wave (km/s) = 7.25301 7.47941 7.36708
#
# Compressibility (1/GPa) = 0.01606310
#
# Stress axis : x y z
#
# Youngs Moduli (GPa) = 65.74219 67.59644 101.33746
#
# Poissons Ratio (x) = 0.26905 0.41813
# Poissons Ratio (y) = 0.26166 0.38493
# Poissons Ratio (z) = 0.27126 0.25676
#
# Static dielectric constant tensor:
#      x y z
#    x 3.719240 0.000000 0.000000 
#    y 0.000000 3.299700 0.000000 
#    z 0.000000 0.000000 3.832590 
# 
# 
# High freq. dielectric constant tensor:
#      x y z
#    x 1.693340 0.000000 0.000000 
#    y 0.000000 1.686930 0.000000 
#    z 0.000000 0.000000 1.732690 
# 
# From -- ./inp_files/6564.got.cif
#   From: 2010.03.12/outbox.cif.g09.slc.cpg/sg49_4_cif.got.tgz:6564.got - 2010.04.14 03:58:27.
