data_PCOD8202100
_publ_section_title
;
Structure prediction by ZEFSAII (Michael W. Deem and Ramdas Pophale) SiO2 
 PCOD8202100
Probable space group: P N N N
;
_chemical_formula_sum "Si O2"
_cell_formula_units_Z 64
_cell_length_a 10.792549
_cell_length_b 11.161538
_cell_length_c 25.605320
_cell_angle_alpha 90.000000
_cell_angle_beta 90.000000
_cell_angle_gamma 90.000000
_cell_volume 3084.453867
_symmetry_space_group_name_H-M "P N N N"
_symmetry_group_IT_number 48
_space_group.IT_coordinate_system_code '2'
_symmetry_cell_setting 'orthorhombic'
loop_
_space_group_symop_operation_xyz
x,y,z
1/2-x,1/2-y,z
x,1/2-y,1/2-z
1/2-x,y,1/2-z
-x,-y,-z
1/2+x,1/2+y,-z
-x,1/2+y,1/2+z
1/2+x,-y,1/2+z
loop_
_atom_site_type_symbol
_atom_site_label
_atom_site_fract_x
_atom_site_fract_y
_atom_site_fract_z
Si Si1 0.887244 0.890796 0.262372
Si Si2 0.116320 0.763917 0.381531
Si Si3 0.770688 0.888452 0.639030
Si Si4 0.993735 0.501842 0.139643
Si Si5 0.593984 0.081192 0.031246
Si Si6 0.812096 0.531956 0.526200
Si Si7 0.992429 0.317008 0.521217
Si Si8 0.639340 0.426246 0.791458
O O1 0.892811 0.750000 0.250000
O O2 0.750000 0.941258 0.250000
O O3 0.898825 0.929845 0.322640
O O4 0.004728 0.952932 0.234136
O O5 0.250000 0.750000 0.410600
O O6 0.104153 0.903766 0.371830
O O7 0.001121 0.737575 0.420332
O O8 0.119062 0.690428 0.327685
O O9 0.750000 0.750000 0.643685
O O10 0.912430 0.900234 0.660864
O O11 0.759167 0.931966 0.578794
O O12 0.671155 0.957585 0.674566
O O13 0.917170 0.444278 0.092559
O O14 0.728099 0.035217 0.015715
O O15 0.573622 0.222049 0.018064
O O16 0.500000 0.000000 0.000000
O O17 0.921734 0.439099 0.535272
O O18 0.871791 0.653212 0.501323
O O19 0.750000 0.399517 0.750000
#
# Coordination Sequence:
#
# PCOD8202100 Si02
#       8
#     8   8   8   8   8   8   8   8
#     4  11  25  45  68 100 140 175 219 289 354 411
#     4  12  20  37  68  99 133 168 223 277 349 402
#     4  12  24  40  68  99 131 173 231 292 342 402
#     4  12  23  41  65  97 131 175 218 277 343 408
#     4  12  23  38  63  93 134 172 210 266 341 405
#     4  11  24  42  64  91 133 174 225 279 330 405
#     4  11  23  41  63  93 131 177 221 272 335 410
#     4  12  24  41  72 102 132 174 234 295 344 408
#
# _framework density 20.749217000000002
#
# number of rings (size 3 to 8) (size 9 to 14) (size 15 to 20)
#    0.000    0.375    7.500    1.875    0.000    1.250 
#    0.000    0.000    0.000    0.750    0.000    0.000 
#    0.000    0.000    0.000    0.000    0.000    0.000 
#
# Total GULP energy -792861.828647 kJ/mol
# GULP energy per Si atom -12388.466073 kJ/mol
# Density = 2.070199 g / cm^3
# Si number density = 20.749217 Si / 1000 Ang^3
#
#
#
# Elastic Constant Matrix: (Units=GPa)
#
#
# Indices 1 2 3 4 5 6 
#
# 1 111.8265 22.8591 37.6782 0.0000 0.0000 0.0000
# 2 22.8591 98.3446 39.7622 0.0000 0.0000 0.0000
# 3 37.6782 39.7622 107.9743 0.0000 0.0000 0.0000
# 4 0.0000 0.0000 0.0000 34.3565 0.0000 0.0000
# 5 0.0000 0.0000 0.0000 0.0000 35.6282 0.0000
# 6 0.0000 0.0000 0.0000 0.0000 0.0000 24.3614
#
#
#
# Elastic Compliance Matrix: (Units=1/GPa)
#
#
# Indices 1 2 3 4 5 6 
#
# 1 0.010234 -0.001098 -0.003167 0.000000 0.000000 0.000000
# 2 -0.001098 0.012065 -0.004060 0.000000 0.000000 0.000000
# 3 -0.003167 -0.004060 0.011862 0.000000 0.000000 0.000000
# 4 0.000000 0.000000 0.000000 0.029107 0.000000 0.000000
# 5 0.000000 0.000000 0.000000 0.000000 0.028068 0.000000
# 6 0.000000 0.000000 0.000000 0.000000 0.000000 0.041049
#
#
# Mechanical properties :
#
#
# Convention : Reuss Voigt Hill
#
# Bulk Modulus (GPa) = 57.10753 57.63826 57.37290
# Shear Modulus (GPa) = 32.28518 33.39229 32.83873
#
# Velocity S-wave (km/s) = 3.94886 4.01599 3.98257
# Velocity P-wave (km/s) = 6.95513 7.02447 6.98988
#
# Compressibility (1/GPa) = 0.01751082
#
# Stress axis : x y z
#
# Youngs Moduli (GPa) = 97.71430 82.88396 84.30628
#
# Poissons Ratio (x) = 0.09104 0.26697
# Poissons Ratio (y) = 0.10733 0.34226
# Poissons Ratio (z) = 0.30943 0.33649
#
# Static dielectric constant tensor:
#      x y z
#    x 4.660520 0.000000 0.000000 
#    y 0.000000 4.095250 0.000000 
#    z 0.000000 0.000000 3.830540 
# 
# 
# High freq. dielectric constant tensor:
#      x y z
#    x 1.808290 0.000000 0.000000 
#    y 0.000000 1.813410 0.000000 
#    z 0.000000 0.000000 1.808350 
# 
# From -- ./inp_files/36376.got.cif
#   From: 2010.06.25/outbox.cif.g09.slc.cpg/sg48_19_cif.got.tgz:36376.got - 2010.06.26 18:06:46.
