data_PCOD8202343
_publ_section_title
;
Structure prediction by ZEFSAII (Michael W. Deem and Ramdas Pophale) SiO2 
 PCOD8202343
Probable space group: P C C M
;
_chemical_formula_sum "Si O2"
_cell_formula_units_Z 40
_cell_length_a 25.839657
_cell_length_b 9.206403
_cell_length_c 8.693912
_cell_angle_alpha 90.000000
_cell_angle_beta 90.000000
_cell_angle_gamma 90.000000
_cell_volume 2068.197297
_symmetry_space_group_name_H-M "P C C M"
_symmetry_group_IT_number 49
_symmetry_cell_setting 'orthorhombic'
loop_
_space_group_symop_operation_xyz
x,y,z
-x,-y,z
x,-y,1/2-z
-x,y,1/2-z
-x,-y,-z
x,y,-z
-x,y,1/2+z
x,-y,1/2+z
loop_
_atom_site_type_symbol
_atom_site_label
_atom_site_fract_x
_atom_site_fract_y
_atom_site_fract_z
Si Si1 0.554327 0.654598 0.318959
Si Si2 0.347887 0.841540 0.819297
Si Si3 0.051457 0.161455 0.682593
Si Si4 0.155398 0.842210 0.680719
Si Si5 0.744141 0.341990 0.319699
O O1 0.571162 0.500000 0.250000
O O2 0.500000 0.708532 0.250000
O O3 0.548567 0.635762 0.500000
O O4 0.596858 0.773692 0.274117
O O5 0.303657 0.740387 0.753358
O O6 0.343422 0.000000 0.750000
O O7 0.340543 0.852253 0.000000
O O8 0.049152 0.160967 0.500000
O O9 0.104695 0.234015 0.742406
O O10 0.000000 0.241348 0.750000
O O11 0.052549 0.000000 0.750000
O O12 0.146029 0.858394 0.500000
O O13 0.203454 0.741446 0.721655
O O14 0.166847 0.000000 0.750000
O O15 0.748423 0.500000 0.250000
O O16 0.734890 0.352831 0.500000
#
# Coordination Sequence:
#
# PCOD8202343 Si02
#       5
#     8   8   8   8   8
#     4  10  21  37  59  86 115 151 190 231 276 329
#     4  11  24  40  60  86 116 149 188 233 283 334
#     4  10  17  27  46  73 106 142 178 221 270 322
#     4  10  20  34  53  80 110 142 181 226 274 326
#     4  11  24  40  60  83 111 147 187 231 280 336
#
# _framework density 19.340515
#
# number of rings (size 3 to 8) (size 9 to 14) (size 15 to 20)
#    0.000    1.600    0.000    7.800    0.000   10.000 
#    0.000    2.000    0.000    0.600    0.000    4.200 
#    0.000    0.000    0.000    0.000    0.000    0.000 
#
# Total GULP energy -496036.398854 kJ/mol
# GULP energy per Si atom -12400.909971 kJ/mol
# Density = 1.929650 g / cm^3
# Si number density = 19.340515 Si / 1000 Ang^3
#
#
#
# Elastic Constant Matrix: (Units=GPa)
#
#
# Indices 1 2 3 4 5 6 
#
# 1 164.8855 74.8344 92.1484 0.0000 0.0000 0.0000
# 2 74.8344 108.6518 53.7501 0.0000 0.0000 0.0000
# 3 92.1484 53.7501 131.2167 0.0000 0.0000 0.0000
# 4 0.0000 0.0000 0.0000 29.5189 0.0000 0.0000
# 5 0.0000 0.0000 0.0000 0.0000 34.8029 0.0000
# 6 0.0000 0.0000 0.0000 0.0000 0.0000 15.2949
#
#
#
# Elastic Compliance Matrix: (Units=1/GPa)
#
#
# Indices 1 2 3 4 5 6 
#
# 1 0.011863 -0.005078 -0.006251 0.000000 0.000000 0.000000
# 2 -0.005078 0.013717 -0.002052 0.000000 0.000000 0.000000
# 3 -0.006251 -0.002052 0.012851 0.000000 0.000000 0.000000
# 4 0.000000 0.000000 0.000000 0.033877 0.000000 0.000000
# 5 0.000000 0.000000 0.000000 0.000000 0.028733 0.000000
# 6 0.000000 0.000000 0.000000 0.000000 0.000000 0.065381
#
#
# Mechanical properties :
#
#
# Convention : Reuss Voigt Hill
#
# Bulk Modulus (GPa) = 85.70364 94.02440 89.86402
# Shear Modulus (GPa) = 25.37114 28.19143 26.78128
#
# Velocity S-wave (km/s) = 3.62582 3.82204 3.72523
# Velocity P-wave (km/s) = 7.87007 8.25822 8.06648
#
# Compressibility (1/GPa) = 0.01166812
#
# Stress axis : x y z
#
# Youngs Moduli (GPa) = 84.29617 72.90295 77.81346
#
# Poissons Ratio (x) = 0.37024 0.48638
# Poissons Ratio (y) = 0.42810 0.15970
# Poissons Ratio (z) = 0.52690 0.14963
#
# Static dielectric constant tensor:
#      x y z
#    x 4.366890 0.000000 0.000000 
#    y 0.000000 3.338530 0.000000 
#    z 0.000000 0.000000 3.702550 
# 
# 
# High freq. dielectric constant tensor:
#      x y z
#    x 1.780990 0.000000 0.000000 
#    y 0.000000 1.723060 0.000000 
#    z 0.000000 0.000000 1.774070 
# 
# From -- ./inp_files/6187.got.cif
#   From: 2010.03.12/outbox.cif.g09.slc.cpg/sg49_4_cif.got.tgz:6187.got - 2010.04.14 03:58:27.
