data_PCOD8202603
_publ_section_title
;
Structure prediction by ZEFSAII (Michael W. Deem and Ramdas Pophale) SiO2 
 PCOD8202603
Probable space group: P C C M
;
_chemical_formula_sum "Si O2"
_cell_formula_units_Z 64
_cell_length_a 25.003872
_cell_length_b 15.340808
_cell_length_c 8.767266
_cell_angle_alpha 90.000000
_cell_angle_beta 90.000000
_cell_angle_gamma 90.000000
_cell_volume 3362.944382
_symmetry_space_group_name_H-M "P C C M"
_symmetry_group_IT_number 49
_symmetry_cell_setting 'orthorhombic'
loop_
_space_group_symop_operation_xyz
x,y,z
-x,-y,z
x,-y,1/2-z
-x,y,1/2-z
-x,-y,-z
x,y,-z
-x,y,1/2+z
x,-y,1/2+z
loop_
_atom_site_type_symbol
_atom_site_label
_atom_site_fract_x
_atom_site_fract_y
_atom_site_fract_z
Si Si1 0.173563 0.086933 0.321014
Si Si2 0.599110 0.086858 0.321748
Si Si3 0.634316 0.408467 0.824169
Si Si4 0.556248 0.270081 0.318653
Si Si5 0.735148 0.304735 0.825538
Si Si6 0.146829 0.723241 0.178386
Si Si7 0.718005 0.870521 0.823270
Si Si8 0.942960 0.406867 0.182997
O O1 0.166423 0.081746 0.500000
O O2 0.147312 0.177037 0.256103
O O3 0.236344 0.085980 0.279979
O O4 0.146179 0.000000 0.250000
O O5 0.590528 0.083198 0.500000
O O6 0.569870 0.172956 0.257570
O O7 0.661649 0.087446 0.278577
O O8 0.572996 0.000000 0.250000
O O9 0.620308 0.500000 0.750000
O O10 0.601809 0.334188 0.739046
O O11 0.697925 0.389613 0.805760
O O12 0.617158 0.410430 0.000000
O O13 0.500000 0.300343 0.250000
O O14 0.554423 0.273949 0.500000
O O15 0.797001 0.325235 0.784211
O O16 0.713113 0.231887 0.711541
O O17 0.732313 0.269542 0.000000
O O18 0.098904 0.665180 0.245993
O O19 0.137705 0.730127 0.000000
O O20 0.732374 0.884246 0.000000
O O21 0.925344 0.500000 0.250000
O O22 0.000000 0.378837 0.250000
O O23 0.945162 0.412397 0.000000
#
# Coordination Sequence:
#
# PCOD8202603 Si02
#       8
#     8   8   8   8   8   8   8   8
#     4  10  19  32  49  75 109 147 186 226 269 320
#     4  10  22  36  55  81 111 142 177 220 267 322
#     4  11  23  39  62  88 113 145 179 221 274 331
#     4  11  24  44  63  83 109 140 181 230 276 327
#     4   9  18  34  55  80 111 147 182 218 269 325
#     4   8  17  33  53  77 110 148 183 222 270 323
#     4  10  18  31  51  78 109 145 181 220 267 316
#     4  10  19  34  55  79 108 143 184 231 278 325
#
# _framework density 19.030943000000001
#
# number of rings (size 3 to 8) (size 9 to 14) (size 15 to 20)
#    0.000    2.125    1.250    3.375    0.000    4.500 
#    0.000    8.750    0.000    0.375    0.000    2.625 
#    0.000    0.000    0.000    0.000    0.000    0.000 
#
# Total GULP energy -793416.406511 kJ/mol
# GULP energy per Si atom -12397.131352 kJ/mol
# Density = 1.898763 g / cm^3
# Si number density = 19.030943 Si / 1000 Ang^3
#
#
#
# Elastic Constant Matrix: (Units=GPa)
#
#
# Indices 1 2 3 4 5 6 
#
# 1 94.8368 65.6537 33.3990 0.0000 0.0000 0.0000
# 2 65.6537 126.0745 34.5201 0.0000 0.0000 0.0000
# 3 33.3990 34.5201 60.5975 0.0000 0.0000 0.0000
# 4 0.0000 0.0000 0.0000 31.4792 0.0000 0.0000
# 5 0.0000 0.0000 0.0000 0.0000 16.0340 0.0000
# 6 0.0000 0.0000 0.0000 0.0000 0.0000 15.7892
#
#
#
# Elastic Compliance Matrix: (Units=1/GPa)
#
#
# Indices 1 2 3 4 5 6 
#
# 1 0.017858 -0.007825 -0.005385 0.000000 0.000000 0.000000
# 2 -0.007825 0.012827 -0.002994 0.000000 0.000000 0.000000
# 3 -0.005385 -0.002994 0.021176 0.000000 0.000000 0.000000
# 4 0.000000 0.000000 0.000000 0.031767 0.000000 0.000000
# 5 0.000000 0.000000 0.000000 0.000000 0.062367 0.000000
# 6 0.000000 0.000000 0.000000 0.000000 0.000000 0.063335
#
#
# Mechanical properties :
#
#
# Convention : Reuss Voigt Hill
#
# Bulk Modulus (GPa) = 51.40756 60.96162 56.18459
# Shear Modulus (GPa) = 20.14328 22.52288 21.33308
#
# Velocity S-wave (km/s) = 3.25691 3.44392 3.35172
# Velocity P-wave (km/s) = 6.41986 6.92218 6.67574
#
# Compressibility (1/GPa) = 0.01945239
#
# Stress axis : x y z
#
# Youngs Moduli (GPa) = 55.99693 77.96323 47.22371
#
# Poissons Ratio (x) = 0.61008 0.25430
# Poissons Ratio (y) = 0.43819 0.14138
# Poissons Ratio (z) = 0.30154 0.23341
#
# Static dielectric constant tensor:
#      x y z
#    x 3.464240 0.000000 0.000000 
#    y 0.000000 3.136130 0.000000 
#    z 0.000000 0.000000 3.386180 
# 
# 
# High freq. dielectric constant tensor:
#      x y z
#    x 1.720160 0.000000 0.000000 
#    y 0.000000 1.744050 0.000000 
#    z 0.000000 0.000000 1.733650 
# 
# From -- ./inp_files/6488.got.cif
#   From: 2010.03.12/outbox.cif.g09.slc.cpg/sg49_4_cif.got.tgz:6488.got - 2010.04.14 03:58:27.
