data_PCOD8202338
_publ_section_title
;
Structure prediction by ZEFSAII (Michael W. Deem and Ramdas Pophale) SiO2 
 PCOD8202338
Probable space group: P C C M
;
_chemical_formula_sum "Si O2"
_cell_formula_units_Z 48
_cell_length_a 9.589697
_cell_length_b 30.651186
_cell_length_c 8.683346
_cell_angle_alpha 90.000000
_cell_angle_beta 90.000000
_cell_angle_gamma 90.000000
_cell_volume 2552.344399
_symmetry_space_group_name_H-M "P C C M"
_symmetry_group_IT_number 49
_symmetry_cell_setting 'orthorhombic'
loop_
_space_group_symop_operation_xyz
x,y,z
-x,-y,z
x,-y,1/2-z
-x,y,1/2-z
-x,-y,-z
x,y,-z
-x,y,1/2+z
x,-y,1/2+z
loop_
_atom_site_type_symbol
_atom_site_label
_atom_site_fract_x
_atom_site_fract_y
_atom_site_fract_z
Si Si1 0.152239 0.131584 0.818577
Si Si2 0.652439 0.787696 0.818923
Si Si3 0.143862 0.380914 0.681105
Si Si4 0.147533 0.282013 0.317809
Si Si5 0.154910 0.043380 0.682898
Si Si6 0.348175 0.455468 0.682727
O O1 0.254702 0.170663 0.775134
O O2 0.223237 0.088269 0.743645
O O3 0.000000 0.141825 0.750000
O O4 0.136459 0.124720 0.000000
O O5 0.500000 0.794234 0.750000
O O6 0.724225 0.745292 0.747476
O O7 0.640201 0.781244 0.000000
O O8 0.130983 0.382475 0.500000
O O9 0.176538 0.331675 0.735805
O O10 0.261772 0.413755 0.740680
O O11 0.000000 0.397878 0.750000
O O12 0.140903 0.276914 0.500000
O O13 0.000000 0.265355 0.250000
O O14 0.154938 0.041748 0.500000
O O15 0.000000 0.043881 0.750000
O O16 0.232104 0.000000 0.750000
O O17 0.281189 0.500000 0.750000
O O18 0.500000 0.448693 0.750000
O O19 0.354028 0.458879 0.500000
#
# Coordination Sequence:
#
# PCOD8202338 Si02
#       6
#     8   8   8   8   8   8
#     4  10  20  34  53  78 106 138 176 216 262 313
#     4  11  24  39  56  79 108 142 179 222 269 318
#     4   9  20  36  55  80 108 138 173 215 262 313
#     4  10  20  37  59  82 109 140 177 219 265 319
#     4  10  17  27  46  73 105 137 171 214 261 307
#     4  10  20  35  53  76 105 139 179 218 261 310
#
# _framework density 18.806238
#
# number of rings (size 3 to 8) (size 9 to 14) (size 15 to 20)
#    0.000    2.000    0.000    6.000    0.000    7.000 
#    0.000    3.333    0.000    0.500    0.000    3.500 
#    0.000    0.000    0.000    0.000    0.000    0.000 
#
# Total GULP energy -595175.199339 kJ/mol
# GULP energy per Si atom -12399.483320 kJ/mol
# Density = 1.876343 g / cm^3
# Si number density = 18.806238 Si / 1000 Ang^3
#
#
#
# Elastic Constant Matrix: (Units=GPa)
#
#
# Indices 1 2 3 4 5 6 
#
# 1 101.8957 76.2382 45.8298 0.0000 0.0000 0.0000
# 2 76.2382 144.8814 59.6062 0.0000 0.0000 0.0000
# 3 45.8298 59.6062 98.1493 0.0000 0.0000 0.0000
# 4 0.0000 0.0000 0.0000 28.4213 0.0000 0.0000
# 5 0.0000 0.0000 0.0000 0.0000 28.2982 0.0000
# 6 0.0000 0.0000 0.0000 0.0000 0.0000 12.5121
#
#
#
# Elastic Compliance Matrix: (Units=1/GPa)
#
#
# Indices 1 2 3 4 5 6 
#
# 1 0.016967 -0.007557 -0.003333 0.000000 0.000000 0.000000
# 2 -0.007557 0.012567 -0.004103 0.000000 0.000000 0.000000
# 3 -0.003333 -0.004103 0.014237 0.000000 0.000000 0.000000
# 4 0.000000 0.000000 0.000000 0.035185 0.000000 0.000000
# 5 0.000000 0.000000 0.000000 0.000000 0.035338 0.000000
# 6 0.000000 0.000000 0.000000 0.000000 0.000000 0.079923
#
#
# Mechanical properties :
#
#
# Convention : Reuss Voigt Hill
#
# Bulk Modulus (GPa) = 72.54788 78.69720 75.62254
# Shear Modulus (GPa) = 21.85330 24.72981 23.29155
#
# Velocity S-wave (km/s) = 3.41255 3.63020 3.52305
# Velocity P-wave (km/s) = 7.36122 7.71416 7.53976
#
# Compressibility (1/GPa) = 0.01378400
#
# Stress axis : x y z
#
# Youngs Moduli (GPa) = 58.93667 79.57408 70.23994
#
# Poissons Ratio (x) = 0.60134 0.23413
# Poissons Ratio (y) = 0.44539 0.28821
# Poissons Ratio (z) = 0.19646 0.32651
#
# Static dielectric constant tensor:
#      x y z
#    x 3.207650 0.000000 0.000000 
#    y 0.000000 4.225720 0.000000 
#    z 0.000000 0.000000 3.558350 
# 
# 
# High freq. dielectric constant tensor:
#      x y z
#    x 1.699460 0.000000 0.000000 
#    y 0.000000 1.752090 0.000000 
#    z 0.000000 0.000000 1.744840 
# 
# From -- ./inp_files/2123.got.cif
#   From: 2010.03.12/outbox.cif.g09.slc.cpg/sg49_2_cif.got.tgz:2123.got - 2010.04.14 03:58:27.
