data_PCOD8202662
_publ_section_title
;
Structure prediction by ZEFSAII (Michael W. Deem and Ramdas Pophale) SiO2 
 PCOD8202662
Probable space group: P C C M
;
_chemical_formula_sum "Si O2"
_cell_formula_units_Z 48
_cell_length_a 14.458251
_cell_length_b 20.812336
_cell_length_c 8.599916
_cell_angle_alpha 90.000000
_cell_angle_beta 90.000000
_cell_angle_gamma 90.000000
_cell_volume 2587.800533
_symmetry_space_group_name_H-M "P C C M"
_symmetry_group_IT_number 49
_symmetry_cell_setting 'orthorhombic'
loop_
_space_group_symop_operation_xyz
x,y,z
-x,-y,z
x,-y,1/2-z
-x,y,1/2-z
-x,-y,-z
x,y,-z
-x,y,1/2+z
x,-y,1/2+z
loop_
_atom_site_type_symbol
_atom_site_label
_atom_site_fract_x
_atom_site_fract_y
_atom_site_fract_z
Si Si1 0.398956 0.432547 0.184888
Si Si2 0.711553 0.689626 0.816292
Si Si3 0.903337 0.880292 0.315848
Si Si4 0.601998 0.812728 0.184428
Si Si5 0.721082 0.933695 0.184324
Si Si6 0.095148 0.739405 0.683756
O O1 0.361095 0.500000 0.250000
O O2 0.500000 0.417225 0.250000
O O3 0.330565 0.376958 0.246950
O O4 0.403680 0.435721 0.000000
O O5 0.655073 0.750269 0.747880
O O6 0.819509 0.693488 0.768275
O O7 0.701874 0.691778 0.000000
O O8 0.906396 0.880189 0.500000
O O9 0.822889 0.926168 0.255272
O O10 0.885266 0.808670 0.255320
O O11 0.000000 0.907126 0.250000
O O12 0.500000 0.813961 0.250000
O O13 0.655605 0.876032 0.242307
O O14 0.598232 0.810648 0.000000
O O15 0.678620 0.000000 0.250000
O O16 0.727723 0.935550 0.000000
O O17 0.087040 0.747568 0.500000
O O18 0.000000 0.709284 0.750000
#
# Coordination Sequence:
#
# PCOD8202662 Si02
#       6
#     8   8   8   8   8   8
#     4  10  19  33  53  79 112 148 182 219 266 316
#     4   9  18  34  56  79 109 145 177 218 270 316
#     4  11  21  35  56  82 109 140 177 218 271 326
#     4  10  21  38  57  78 105 138 177 224 270 318
#     4  11  23  40  58  77 107 141 179 224 274 324
#     4  10  18  33  54  80 111 141 177 219 270 319
#
# _framework density 18.548572
#
# number of rings (size 3 to 8) (size 9 to 14) (size 15 to 20)
#    0.000    1.833    1.667    5.000    0.000    2.000 
#    0.000    7.500    0.000    0.500    0.000    3.500 
#    0.000    0.000    0.000    0.000    0.000    0.000 
#
# Total GULP energy -595243.132471 kJ/mol
# GULP energy per Si atom -12400.898593 kJ/mol
# Density = 1.850635 g / cm^3
# Si number density = 18.548572 Si / 1000 Ang^3
#
#
#
# Elastic Constant Matrix: (Units=GPa)
#
#
# Indices 1 2 3 4 5 6 
#
# 1 138.1035 84.5583 32.4171 0.0000 0.0000 0.0000
# 2 84.5583 147.6293 34.5492 0.0000 0.0000 0.0000
# 3 32.4171 34.5492 79.5388 0.0000 0.0000 0.0000
# 4 0.0000 0.0000 0.0000 -205.6501 0.0000 0.0000
# 5 0.0000 0.0000 0.0000 0.0000 24.3802 0.0000
# 6 0.0000 0.0000 0.0000 0.0000 0.0000 32.7713
#
#
#
# Elastic Compliance Matrix: (Units=1/GPa)
#
#
# Indices 1 2 3 4 5 6 
#
# 1 0.011437 -0.006078 -0.002021 0.000000 0.000000 0.000000
# 2 -0.006078 0.010770 -0.002201 0.000000 0.000000 0.000000
# 3 -0.002021 -0.002201 0.014352 0.000000 0.000000 0.000000
# 4 0.000000 0.000000 0.000000 -0.004863 0.000000 0.000000
# 5 0.000000 0.000000 0.000000 0.000000 0.041017 0.000000
# 6 0.000000 0.000000 0.000000 0.000000 0.000000 0.030514
#
#
# Mechanical properties :
#
#
# Convention : Reuss Voigt Hill
#
# Bulk Modulus (GPa) = 62.66047 74.25787 68.45917
# Shear Modulus (GPa) = 38.71555 -15.44991 11.63282
#
# Velocity S-wave (km/s) = 4.57360 -2.88921 2.50702
# Velocity P-wave (km/s) = 7.85784 5.38434 6.73561
#
# Compressibility (1/GPa) = 0.01595902
#
# Stress axis : x y z
#
# Youngs Moduli (GPa) = 87.43884 92.85128 69.67498
#
# Poissons Ratio (x) = 0.56431 0.14083
# Poissons Ratio (y) = 0.53141 0.15336
# Poissons Ratio (z) = 0.17673 0.20438
#
# Static dielectric constant tensor:
#      x y z
#    x 3.671720 0.000000 0.000000 
#    y 0.000000 3.545200 0.000000 
#    z 0.000000 0.000000 3.319220 
# 
# 
# High freq. dielectric constant tensor:
#      x y z
#    x 1.724700 0.000000 0.000000 
#    y 0.000000 1.709050 0.000000 
#    z 0.000000 0.000000 1.716220 
# 
# From -- ./inp_files/3833.got.cif
#   From: 2010.03.12/outbox.cif.g09.slc.cpg/sg49_2_cif.got.tgz:3833.got - 2010.04.14 03:58:27.
