data_PCOD8202763
_publ_section_title
;
Structure prediction by ZEFSAII (Michael W. Deem and Ramdas Pophale) SiO2 
 PCOD8202763
Probable space group: P C C M
;
_chemical_formula_sum "Si O2"
_cell_formula_units_Z 64
_cell_length_a 19.374595
_cell_length_b 19.357263
_cell_length_c 8.977226
_cell_angle_alpha 90.000000
_cell_angle_beta 90.000000
_cell_angle_gamma 90.000000
_cell_volume 3366.811037
_symmetry_space_group_name_H-M "P C C M"
_symmetry_group_IT_number 49
_symmetry_cell_setting 'orthorhombic'
loop_
_space_group_symop_operation_xyz
x,y,z
-x,-y,z
x,-y,1/2-z
-x,y,1/2-z
-x,-y,-z
x,y,-z
-x,y,1/2+z
x,-y,1/2+z
loop_
_atom_site_type_symbol
_atom_site_label
_atom_site_fract_x
_atom_site_fract_y
_atom_site_fract_z
Si Si1 0.695046 0.788973 0.331633
Si Si2 0.776974 0.343430 0.825466
Si Si3 0.853246 0.938002 0.160668
Si Si4 0.430026 0.312971 0.328230
Si Si5 0.340413 0.573882 0.677746
Si Si6 0.932576 0.666807 0.673474
Si Si7 0.306889 0.066295 0.164261
Si Si8 0.066575 0.812977 0.323587
O O1 0.710620 0.811803 0.500000
O O2 0.756096 0.735719 0.277597
O O3 0.622602 0.750219 0.316896
O O4 0.686446 0.859077 0.239520
O O5 0.733774 0.396948 0.728025
O O6 0.856925 0.365818 0.797368
O O7 0.757271 0.351399 0.000000
O O8 0.772877 0.950669 0.148551
O O9 0.869357 0.861780 0.223973
O O10 0.888544 0.000000 0.250000
O O11 0.889213 0.940892 0.000000
O O12 0.500000 0.288157 0.250000
O O13 0.442632 0.333686 0.500000
O O14 0.401709 0.378498 0.238236
O O15 0.351783 0.500000 0.750000
O O16 0.343091 0.569423 0.500000
O O17 0.949138 0.670165 0.500000
O O18 0.923526 0.741817 0.740236
O O19 0.000000 0.629471 0.750000
O O20 0.340924 0.000000 0.250000
O O21 0.340987 0.070247 0.000000
O O22 0.059577 0.799838 0.500000
O O23 0.000000 0.849548 0.250000
#
# Coordination Sequence:
#
# PCOD8202763 Si02
#       8
#     8   8   8   8   8   8   8   8
#     4   9  18  33  53  77 106 138 174 219 267 316
#     4   9  19  35  54  78 108 142 180 223 271 323
#     4   9  19  31  42  58  81 112 151 199 251 308
#     4  10  21  38  59  86 119 151 185 220 258 307
#     4  11  22  37  59  86 117 151 185 220 260 307
#     4  10  19  31  49  72  99 131 168 214 267 318
#     4  10  19  31  48  70  96 127 167 214 266 320
#     4  10  19  30  42  59  84 114 154 201 252 311
#
# _framework density 19.009084999999999
#
# number of rings (size 3 to 8) (size 9 to 14) (size 15 to 20)
#    0.000    2.250    0.000    4.875    0.000    5.500 
#    0.000    2.500    0.000    0.750    0.000    5.250 
#    0.000    0.000    0.000    0.000    0.000    0.000 
#
# Total GULP energy -792915.782839 kJ/mol
# GULP energy per Si atom -12389.309107 kJ/mol
# Density = 1.896582 g / cm^3
# Si number density = 19.009085 Si / 1000 Ang^3
#
#
#
# Elastic Constant Matrix: (Units=GPa)
#
#
# Indices 1 2 3 4 5 6 
#
# 1 66.4471 -3.8026 27.4180 0.0000 0.0000 0.0000
# 2 -3.8026 63.2730 30.8522 0.0000 0.0000 0.0000
# 3 27.4180 30.8522 112.8662 0.0000 0.0000 0.0000
# 4 0.0000 0.0000 0.0000 31.1542 0.0000 0.0000
# 5 0.0000 0.0000 0.0000 0.0000 43.6403 0.0000
# 6 0.0000 0.0000 0.0000 0.0000 0.0000 13.6263
#
#
#
# Elastic Compliance Matrix: (Units=1/GPa)
#
#
# Indices 1 2 3 4 5 6 
#
# 1 0.017404 0.003585 -0.005208 0.000000 0.000000 0.000000
# 2 0.003585 0.018974 -0.006057 0.000000 0.000000 0.000000
# 3 -0.005208 -0.006057 0.011781 0.000000 0.000000 0.000000
# 4 0.000000 0.000000 0.000000 0.032098 0.000000 0.000000
# 5 0.000000 0.000000 0.000000 0.000000 0.022915 0.000000
# 6 0.000000 0.000000 0.000000 0.000000 0.000000 0.073387
#
#
# Mechanical properties :
#
#
# Convention : Reuss Voigt Hill
#
# Bulk Modulus (GPa) = 30.48939 39.05795 34.77367
# Shear Modulus (GPa) = 24.64861 30.22543 27.43702
#
# Velocity S-wave (km/s) = 3.60484 3.99187 3.80328
# Velocity P-wave (km/s) = 5.77934 6.46825 6.13348
#
# Compressibility (1/GPa) = 0.03279829
#
# Stress axis : x y z
#
# Youngs Moduli (GPa) = 57.45924 52.70473 84.88263
#
# Poissons Ratio (x) = -0.18896 0.44205
# Poissons Ratio (y) = -0.20601 0.51417
# Poissons Ratio (z) = 0.29924 0.31926
#
# Static dielectric constant tensor:
#      x y z
#    x 3.587710 0.000000 0.000000 
#    y 0.000000 3.293440 0.000000 
#    z 0.000000 0.000000 3.776920 
# 
# 
# High freq. dielectric constant tensor:
#      x y z
#    x 1.724180 0.000000 0.000000 
#    y 0.000000 1.722330 0.000000 
#    z 0.000000 0.000000 1.749990 
# 
# From -- ./inp_files/6004.got.cif
#   From: 2010.03.12/outbox.cif.g09.slc.cpg/sg49_4_cif.got.tgz:6004.got - 2010.04.14 03:58:27.
