data_PCOD8202532
_publ_section_title
;
Structure prediction by ZEFSAII (Michael W. Deem and Ramdas Pophale) SiO2 
 PCOD8202532
Probable space group: P C C M
;
_chemical_formula_sum "Si O2"
_cell_formula_units_Z 48
_cell_length_a 13.744492
_cell_length_b 23.887616
_cell_length_c 8.703503
_cell_angle_alpha 90.000000
_cell_angle_beta 90.000000
_cell_angle_gamma 90.000000
_cell_volume 2857.561495
_symmetry_space_group_name_H-M "P C C M"
_symmetry_group_IT_number 49
_symmetry_cell_setting 'orthorhombic'
loop_
_space_group_symop_operation_xyz
x,y,z
-x,-y,z
x,-y,1/2-z
-x,y,1/2-z
-x,-y,-z
x,y,-z
-x,y,1/2+z
x,-y,1/2+z
loop_
_atom_site_type_symbol
_atom_site_label
_atom_site_fract_x
_atom_site_fract_y
_atom_site_fract_z
Si Si1 0.397555 0.770539 0.181932
Si Si2 0.103837 0.278791 0.682226
Si Si3 0.603556 0.442319 0.320579
Si Si4 0.207786 0.831587 0.181211
Si Si5 0.287145 0.330841 0.180034
Si Si6 0.106468 0.942242 0.816686
O O1 0.500000 0.790217 0.250000
O O2 0.318046 0.817344 0.231710
O O3 0.367126 0.710612 0.248475
O O4 0.404601 0.764998 0.000000
O O5 0.100480 0.281769 0.500000
O O6 0.135510 0.217042 0.741764
O O7 0.182113 0.323416 0.742535
O O8 0.000000 0.294857 0.750000
O O9 0.644294 0.500000 0.250000
O O10 0.500000 0.425792 0.250000
O O11 0.588428 0.450632 0.500000
O O12 0.680560 0.393881 0.283610
O O13 0.175200 0.892028 0.244719
O O14 0.200264 0.832557 0.000000
O O15 0.280134 0.318628 0.000000
O O16 0.000000 0.931483 0.750000
O O17 0.150050 0.000000 0.750000
O O18 0.101174 0.945442 0.000000
#
# Coordination Sequence:
#
# PCOD8202532 Si02
#       6
#     8   8   8   8   8   8
#     4  10  19  32  49  71  96 125 157 193 236 281
#     4  10  19  32  50  72  97 127 158 194 236 281
#     4  10  20  32  49  71  97 126 158 193 233 277
#     4   8  17  31  47  67  94 124 155 191 232 275
#     4  10  20  33  49  72  98 127 159 194 234 280
#     4  10  18  30  46  67  93 121 152 189 230 276
#
# _framework density 16.797537999999999
#
# number of rings (size 3 to 8) (size 9 to 14) (size 15 to 20)
#    0.000    2.333    0.000    5.500    0.000    4.000 
#    0.000    9.167    0.000    1.000    0.000    7.000 
#    0.000    0.000    0.000    0.000    0.000    0.000 
#
# Total GULP energy -595163.853557 kJ/mol
# GULP energy per Si atom -12399.246949 kJ/mol
# Density = 1.675931 g / cm^3
# Si number density = 16.797538 Si / 1000 Ang^3
#
#
#
# Elastic Constant Matrix: (Units=GPa)
#
#
# Indices 1 2 3 4 5 6 
#
# 1 127.4785 74.6778 46.8095 0.0000 0.0000 0.0000
# 2 74.6778 135.1303 53.9639 0.0000 0.0000 0.0000
# 3 46.8095 53.9639 88.7316 0.0000 0.0000 0.0000
# 4 0.0000 0.0000 0.0000 23.0442 0.0000 0.0000
# 5 0.0000 0.0000 0.0000 0.0000 29.0124 0.0000
# 6 0.0000 0.0000 0.0000 0.0000 0.0000 24.6625
#
#
#
# Elastic Compliance Matrix: (Units=1/GPa)
#
#
# Indices 1 2 3 4 5 6 
#
# 1 0.012208 -0.005514 -0.003087 0.000000 0.000000 0.000000
# 2 -0.005514 0.012264 -0.004550 0.000000 0.000000 0.000000
# 3 -0.003087 -0.004550 0.015666 0.000000 0.000000 0.000000
# 4 0.000000 0.000000 0.000000 0.043395 0.000000 0.000000
# 5 0.000000 0.000000 0.000000 0.000000 0.034468 0.000000
# 6 0.000000 0.000000 0.000000 0.000000 0.000000 0.040547
#
#
# Mechanical properties :
#
#
# Convention : Reuss Voigt Hill
#
# Bulk Modulus (GPa) = 72.27275 78.02699 75.14987
# Shear Modulus (GPa) = 26.39049 27.06976 26.73013
#
# Velocity S-wave (km/s) = 3.96800 4.01874 3.99345
# Velocity P-wave (km/s) = 8.00703 8.25143 8.13015
#
# Compressibility (1/GPa) = 0.01383647
#
# Stress axis : x y z
#
# Youngs Moduli (GPa) = 81.91359 81.53615 63.83396
#
# Poissons Ratio (x) = 0.44958 0.19705
# Poissons Ratio (y) = 0.45166 0.29045
# Poissons Ratio (z) = 0.25285 0.37100
#
# Static dielectric constant tensor:
#      x y z
#    x 3.133150 0.000000 0.000000 
#    y 0.000000 3.359060 0.000000 
#    z 0.000000 0.000000 3.173760 
# 
# 
# High freq. dielectric constant tensor:
#      x y z
#    x 1.638060 0.000000 0.000000 
#    y 0.000000 1.639990 0.000000 
#    z 0.000000 0.000000 1.655040 
# 
# From -- ./inp_files/4154.got.cif
#   From: 2010.03.12/outbox.cif.g09.slc.cpg/sg49_3_cif.got.tgz:4154.got - 2010.04.14 03:58:27.
