data_PCOD8202381
_publ_section_title
;
Structure prediction by ZEFSAII (Michael W. Deem and Ramdas Pophale) SiO2 
 PCOD8202381
Probable space group: P C C M
;
_chemical_formula_sum "Si O2"
_cell_formula_units_Z 58
_cell_length_a 25.048006
_cell_length_b 14.549244
_cell_length_c 8.813609
_cell_angle_alpha 90.000000
_cell_angle_beta 90.000000
_cell_angle_gamma 90.000000
_cell_volume 3211.939571
_symmetry_space_group_name_H-M "P C C M"
_symmetry_group_IT_number 49
_symmetry_cell_setting 'orthorhombic'
loop_
_space_group_symop_operation_xyz
x,y,z
-x,-y,z
x,-y,1/2-z
-x,y,1/2-z
-x,-y,-z
x,y,-z
-x,y,1/2+z
x,-y,1/2+z
loop_
_atom_site_type_symbol
_atom_site_label
_atom_site_fract_x
_atom_site_fract_y
_atom_site_fract_z
Si Si1 0.752947 0.217048 0.823006
Si Si2 0.000000 0.500000 0.750000
Si Si3 0.836017 0.905630 0.823621
Si Si4 0.339291 0.899285 0.680709
Si Si5 0.916085 0.644094 0.668040
Si Si6 0.552769 0.898376 0.681805
Si Si7 0.800192 0.408095 0.823602
Si Si8 0.051567 0.827428 0.327211
O O1 0.809276 0.175578 0.771220
O O2 0.707233 0.171770 0.720689
O O3 0.758402 0.325662 0.790141
O O4 0.742162 0.196813 0.000000
O O5 0.960146 0.563627 0.652431
O O6 0.899106 0.895451 0.801508
O O7 0.816135 0.000000 0.750000
O O8 0.819000 0.902020 0.000000
O O9 0.345450 0.908779 0.500000
O O10 0.392668 0.853990 0.754830
O O11 0.326850 0.000000 0.750000
O O12 0.904335 0.682515 0.500000
O O13 0.859845 0.610952 0.741746
O O14 0.938489 0.725355 0.768917
O O15 0.500000 0.847313 0.750000
O O16 0.551482 0.898417 0.500000
O O17 0.552878 0.000000 0.750000
O O18 0.776055 0.500000 0.750000
O O19 0.805448 0.426292 0.000000
O O20 0.037061 0.815180 0.500000
O O21 0.000000 0.873221 0.250000
#
# Coordination Sequence:
#
# PCOD8202381 Si02
#       8
#     8   2   8   8   8   8   8   8
#     4  11  22  38  57  79 107 142 178 222 269 318
#     4  12  22  32  56  86 108 128 162 204 260 324
#     4  11  24  40  58  80 102 133 170 213 261 315
#     4  11  21  34  52  78 111 150 192 236 276 321
#     4  11  22  36  53  78 105 131 159 198 251 312
#     4  10  17  28  46  72 108 151 194 235 275 321
#     4  10  22  38  57  79 105 136 170 210 262 320
#     4  11  24  39  57  77 100 127 161 203 253 309
#
# _framework density 18.057625000000002
#
# number of rings (size 3 to 8) (size 9 to 14) (size 15 to 20)
#    0.000    1.241    2.759    5.586    0.000    4.138 
#    0.000    1.379    0.000    0.000    0.000    0.000 
#    0.000    0.552    0.000    5.793    0.000    3.172 
#
# Total GULP energy -719082.025109 kJ/mol
# GULP energy per Si atom -12397.965950 kJ/mol
# Density = 1.801653 g / cm^3
# Si number density = 18.057625 Si / 1000 Ang^3
#
#
#
# Elastic Constant Matrix: (Units=GPa)
#
#
# Indices 1 2 3 4 5 6 
#
# 1 95.1228 26.9079 43.8803 0.0000 0.0000 0.0000
# 2 26.9079 70.6623 32.8067 0.0000 0.0000 0.0000
# 3 43.8803 32.8067 117.3482 0.0000 0.0000 0.0000
# 4 0.0000 0.0000 0.0000 21.5107 0.0000 0.0000
# 5 0.0000 0.0000 0.0000 0.0000 29.8134 0.0000
# 6 0.0000 0.0000 0.0000 0.0000 0.0000 9.0659
#
#
#
# Elastic Compliance Matrix: (Units=1/GPa)
#
#
# Indices 1 2 3 4 5 6 
#
# 1 0.013293 -0.003165 -0.004086 0.000000 0.000000 0.000000
# 2 -0.003165 0.017016 -0.003574 0.000000 0.000000 0.000000
# 3 -0.004086 -0.003574 0.011049 0.000000 0.000000 0.000000
# 4 0.000000 0.000000 0.000000 0.046489 0.000000 0.000000
# 5 0.000000 0.000000 0.000000 0.000000 0.033542 0.000000
# 6 0.000000 0.000000 0.000000 0.000000 0.000000 0.110303
#
#
# Mechanical properties :
#
#
# Convention : Reuss Voigt Hill
#
# Bulk Modulus (GPa) = 50.73902 54.48034 52.60968
# Shear Modulus (GPa) = 19.23745 24.04723 21.64234
#
# Velocity S-wave (km/s) = 3.26749 3.65320 3.46571
# Velocity P-wave (km/s) = 6.51112 6.93038 6.72402
#
# Compressibility (1/GPa) = 0.01970870
#
# Stress axis : x y z
#
# Youngs Moduli (GPa) = 75.22873 58.76763 90.50956
#
# Poissons Ratio (x) = 0.18599 0.36980
# Poissons Ratio (y) = 0.23809 0.32345
# Poissons Ratio (z) = 0.30737 0.21002
#
# Static dielectric constant tensor:
#      x y z
#    x 3.865390 0.000000 0.000000 
#    y 0.000000 3.094240 0.000000 
#    z 0.000000 0.000000 3.392710 
# 
# 
# High freq. dielectric constant tensor:
#      x y z
#    x 1.694430 0.000000 0.000000 
#    y 0.000000 1.666370 0.000000 
#    z 0.000000 0.000000 1.712950 
# 
# From -- ./inp_files/6446.got.cif
#   From: 2010.03.12/outbox.cif.g09.slc.cpg/sg49_4_cif.got.tgz:6446.got - 2010.04.14 03:58:27.
