data_PCOD8202719
_publ_section_title
;
Structure prediction by ZEFSAII (Michael W. Deem and Ramdas Pophale) SiO2 
 PCOD8202719
Probable space group: P C C M
;
_chemical_formula_sum "Si O2"
_cell_formula_units_Z 64
_cell_length_a 18.388549
_cell_length_b 26.056238
_cell_length_c 8.819546
_cell_angle_alpha 90.000000
_cell_angle_beta 90.000000
_cell_angle_gamma 90.000000
_cell_volume 4225.765601
_symmetry_space_group_name_H-M "P C C M"
_symmetry_group_IT_number 49
_symmetry_cell_setting 'orthorhombic'
loop_
_space_group_symop_operation_xyz
x,y,z
-x,-y,z
x,-y,1/2-z
-x,y,1/2-z
-x,-y,-z
x,y,-z
-x,y,1/2+z
x,-y,1/2+z
loop_
_atom_site_type_symbol
_atom_site_label
_atom_site_fract_x
_atom_site_fract_y
_atom_site_fract_z
Si Si1 0.576653 0.054312 0.680108
Si Si2 0.922683 0.253154 0.679289
Si Si3 0.841204 0.354824 0.679660
Si Si4 0.339144 0.144027 0.322901
Si Si5 0.213151 0.193993 0.831742
Si Si6 0.422602 0.753422 0.823636
Si Si7 0.923331 0.554393 0.680235
Si Si8 0.700545 0.700654 0.833079
O O1 0.500000 0.072366 0.750000
O O2 0.569467 0.049717 0.500000
O O3 0.637331 0.095380 0.724555
O O4 0.600188 0.000000 0.750000
O O5 0.929088 0.254135 0.500000
O O6 0.892673 0.308161 0.735383
O O7 0.868044 0.206900 0.728432
O O8 0.000000 0.240861 0.750000
O O9 0.849878 0.363854 0.500000
O O10 0.862156 0.404974 0.773744
O O11 0.756718 0.343304 0.721683
O O12 0.346090 0.131754 0.500000
O O13 0.255015 0.156014 0.282878
O O14 0.389599 0.191826 0.273296
O O15 0.253865 0.247656 0.841945
O O16 0.210935 0.169017 0.000000
O O17 0.500000 0.744615 0.750000
O O18 0.368201 0.707258 0.777647
O O19 0.434003 0.751527 0.000000
O O20 0.900204 0.500000 0.750000
O O21 0.930198 0.549961 0.500000
O O22 0.000000 0.572575 0.750000
O O23 0.670110 0.687227 0.000000
#
# Coordination Sequence:
#
# PCOD8202719 Si02
#       8
#     8   8   8   8   8   8   8   8
#     4  11  21  33  47  63  85 112 142 178 213 248
#     4   9  17  27  41  61  86 114 144 175 210 251
#     4   9  17  30  45  62  84 112 143 175 212 254
#     4  10  19  30  44  63  84 111 145 178 212 251
#     4   8  15  28  42  58  81 111 142 173 209 249
#     4  10  19  28  41  61  86 113 144 177 209 248
#     4  11  21  32  45  61  83 111 143 180 215 250
#     4   8  15  28  44  59  81 110 139 172 210 249
#
# _framework density 15.145185
#
# number of rings (size 3 to 8) (size 9 to 14) (size 15 to 20)
#    0.000    2.500    0.000    6.000    0.000    5.000 
#    0.000    2.500    0.000    0.000    0.000    0.000 
#    0.000    1.000    0.000   10.500    0.000    5.125 
#
# Total GULP energy -793406.601087 kJ/mol
# GULP energy per Si atom -12396.978142 kJ/mol
# Density = 1.511071 g / cm^3
# Si number density = 15.145185 Si / 1000 Ang^3
#
#
#
# Elastic Constant Matrix: (Units=GPa)
#
#
# Indices 1 2 3 4 5 6 
#
# 1 106.4633 47.9356 40.2909 0.0000 0.0000 0.0000
# 2 47.9356 70.1307 38.4182 0.0000 0.0000 0.0000
# 3 40.2909 38.4182 78.5477 0.0000 0.0000 0.0000
# 4 0.0000 0.0000 0.0000 19.9594 0.0000 0.0000
# 5 0.0000 0.0000 0.0000 0.0000 26.5012 0.0000
# 6 0.0000 0.0000 0.0000 0.0000 0.0000 22.2334
#
#
#
# Elastic Compliance Matrix: (Units=1/GPa)
#
#
# Indices 1 2 3 4 5 6 
#
# 1 0.014230 -0.007824 -0.003472 0.000000 0.000000 0.000000
# 2 -0.007824 0.023780 -0.007618 0.000000 0.000000 0.000000
# 3 -0.003472 -0.007618 0.018238 0.000000 0.000000 0.000000
# 4 0.000000 0.000000 0.000000 0.050102 0.000000 0.000000
# 5 0.000000 0.000000 0.000000 0.000000 0.037734 0.000000
# 6 0.000000 0.000000 0.000000 0.000000 0.000000 0.044977
#
#
# Mechanical properties :
#
#
# Convention : Reuss Voigt Hill
#
# Bulk Modulus (GPa) = 54.28950 56.49237 55.39093
# Shear Modulus (GPa) = 21.45652 22.30526 21.88089
#
# Velocity S-wave (km/s) = 3.76802 3.84182 3.80510
# Velocity P-wave (km/s) = 7.40638 7.55387 7.48049
#
# Compressibility (1/GPa) = 0.01841977
#
# Stress axis : x y z
#
# Youngs Moduli (GPa) = 70.27459 42.05204 54.83045
#
# Poissons Ratio (x) = 0.32902 0.19039
# Poissons Ratio (y) = 0.54984 0.41767
# Poissons Ratio (z) = 0.24402 0.32033
#
# Static dielectric constant tensor:
#      x y z
#    x 3.300150 0.000000 0.000000 
#    y 0.000000 2.748440 0.000000 
#    z 0.000000 0.000000 2.956280 
# 
# 
# High freq. dielectric constant tensor:
#      x y z
#    x 1.569990 0.000000 0.000000 
#    y 0.000000 1.545830 0.000000 
#    z 0.000000 0.000000 1.588120 
# 
# From -- ./inp_files/5416.got.cif
#   From: 2010.03.12/outbox.cif.g09.slc.cpg/sg49_3_cif.got.tgz:5416.got - 2010.04.14 03:58:27.
