data_PCOD8202046
_publ_section_title
;
Structure prediction by ZEFSAII (Michael W. Deem and Ramdas Pophale) SiO2 
 PCOD8202046
Probable space group: P N N N
;
_chemical_formula_sum "Si O2"
_cell_formula_units_Z 36
_cell_length_a 16.876787
_cell_length_b 5.434292
_cell_length_c 18.332365
_cell_angle_alpha 90.000000
_cell_angle_beta 90.000000
_cell_angle_gamma 90.000000
_cell_volume 1681.323315
_symmetry_space_group_name_H-M "P N N N"
_symmetry_group_IT_number 48
_space_group.IT_coordinate_system_code '2'
_symmetry_cell_setting 'orthorhombic'
loop_
_space_group_symop_operation_xyz
x,y,z
1/2-x,1/2-y,z
x,1/2-y,1/2-z
1/2-x,y,1/2-z
-x,-y,-z
1/2+x,1/2+y,-z
-x,1/2+y,1/2+z
1/2+x,-y,1/2+z
loop_
_atom_site_type_symbol
_atom_site_label
_atom_site_fract_x
_atom_site_fract_y
_atom_site_fract_z
Si Si1 0.388966 0.957800 0.060648
Si Si2 0.029514 0.685923 0.559765
Si Si3 0.046869 0.994604 0.787132
Si Si4 0.872183 0.415106 0.687907
Si Si5 0.250000 0.250000 0.113628
O O1 0.395605 0.729641 0.114856
O O2 0.453613 0.158273 0.087592
O O3 0.299428 0.064552 0.062064
O O4 0.406525 0.868831 0.977847
O O5 0.000000 0.500000 0.500000
O O6 0.068053 0.532143 0.626627
O O7 0.079773 0.250000 0.750000
O O8 0.952392 0.981879 0.776444
O O9 0.084101 0.750000 0.750000
O O10 0.830092 0.250000 0.750000
O O11 0.811531 0.626472 0.668075
#
# Coordination Sequence:
#
# PCOD8202046 Si02
#       5
#     8   8   8   8   4
#     4  11  23  38  57  83 125 169 219 263 324 377
#     4  11  21  39  62  87 118 173 205 274 319 385
#     4  11  23  40  62  91 126 168 217 266 321 386
#     4  11  24  38  54  85 127 176 219 253 301 376
#     4  12  24  39  52  84 122 181 220 272 308 405
#
# _framework density 21.411707
#
# number of rings (size 3 to 8) (size 9 to 14) (size 15 to 20)
#    0.000    0.889    4.444    3.333    3.111    2.667 
#    0.000    0.000    0.000    0.000    0.000    0.000 
#    0.000   24.889    0.000    0.000    0.000    0.000 
#
# Total GULP energy -446304.674874 kJ/mol
# GULP energy per Si atom -12397.352080 kJ/mol
# Density = 2.136297 g / cm^3
# Si number density = 21.411707 Si / 1000 Ang^3
#
#
#
# Elastic Constant Matrix: (Units=GPa)
#
#
# Indices 1 2 3 4 5 6 
#
# 1 24.6507 -9.7539 -5.6469 0.0000 0.0000 0.0000
# 2 -9.7539 107.1714 36.3640 0.0000 0.0000 0.0000
# 3 -5.6469 36.3640 124.4119 0.0000 0.0000 0.0000
# 4 0.0000 0.0000 0.0000 41.0464 0.0000 0.0000
# 5 0.0000 0.0000 0.0000 0.0000 19.9566 0.0000
# 6 0.0000 0.0000 0.0000 0.0000 0.0000 27.7176
#
#
#
# Elastic Compliance Matrix: (Units=1/GPa)
#
#
# Indices 1 2 3 4 5 6 
#
# 1 0.042169 0.003539 0.000879 0.000000 0.000000 0.000000
# 2 0.003539 0.010655 -0.002954 0.000000 0.000000 0.000000
# 3 0.000879 -0.002954 0.008941 0.000000 0.000000 0.000000
# 4 0.000000 0.000000 0.000000 0.024363 0.000000 0.000000
# 5 0.000000 0.000000 0.000000 0.000000 0.050109 0.000000
# 6 0.000000 0.000000 0.000000 0.000000 0.000000 0.036078
#
#
# Mechanical properties :
#
#
# Convention : Reuss Voigt Hill
#
# Bulk Modulus (GPa) = 15.45707 33.12896 24.29301
# Shear Modulus (GPa) = 26.18496 33.42885 29.80691
#
# Velocity S-wave (km/s) = 3.50083 3.95554 3.73511
# Velocity P-wave (km/s) = 4.85549 6.03056 5.47464
#
# Compressibility (1/GPa) = 0.06469532
#
# Stress axis : x y z
#
# Youngs Moduli (GPa) = 23.71425 93.85095 111.84353
#
# Poissons Ratio (x) = -0.33218 -0.09836
# Poissons Ratio (y) = -0.08394 0.33035
# Poissons Ratio (z) = -0.02086 0.27721
#
# Static dielectric constant tensor:
#      x y z
#    x 3.295360 0.000000 0.000000 
#    y 0.000000 4.120450 0.000000 
#    z 0.000000 0.000000 4.021950 
# 
# 
# High freq. dielectric constant tensor:
#      x y z
#    x 1.777140 0.000000 0.000000 
#    y 0.000000 1.866090 0.000000 
#    z 0.000000 0.000000 1.842950 
# 
# From -- ./inp_files/32106.got.cif
#   From: 2010.06.25/outbox.cif.g09.slc.cpg/sg48_17_cif.got.tgz:32106.got - 2010.06.26 18:06:46.
