data_PCOD8202982
_publ_section_title
;
Structure prediction by ZEFSAII (Michael W. Deem and Ramdas Pophale) SiO2 
 PCOD8202982
Probable space group: P C C M
;
_chemical_formula_sum "Si O2"
_cell_formula_units_Z 56
_cell_length_a 22.519317
_cell_length_b 14.840709
_cell_length_c 8.735637
_cell_angle_alpha 90.000000
_cell_angle_beta 90.000000
_cell_angle_gamma 90.000000
_cell_volume 2919.472864
_symmetry_space_group_name_H-M "P C C M"
_symmetry_group_IT_number 49
_symmetry_cell_setting 'orthorhombic'
loop_
_space_group_symop_operation_xyz
x,y,z
-x,-y,z
x,-y,1/2-z
-x,y,1/2-z
-x,-y,-z
x,y,-z
-x,y,1/2+z
x,-y,1/2+z
loop_
_atom_site_type_symbol
_atom_site_label
_atom_site_fract_x
_atom_site_fract_y
_atom_site_fract_z
Si Si1 0.842484 0.593134 0.181242
Si Si2 0.337095 0.783140 0.680494
Si Si3 0.894358 0.090113 0.177849
Si Si4 0.240855 0.906509 0.182112
Si Si5 0.707795 0.408348 0.321258
Si Si6 0.436022 0.094943 0.682034
Si Si7 0.061087 0.719179 0.820022
O O1 0.867040 0.500000 0.250000
O O2 0.774952 0.609038 0.238270
O O3 0.882262 0.672677 0.246412
O O4 0.847994 0.591195 0.000000
O O5 0.344576 0.799367 0.500000
O O6 0.276103 0.826004 0.738656
O O7 0.333739 0.676686 0.720439
O O8 0.392217 0.825077 0.770914
O O9 0.827062 0.106209 0.234754
O O10 0.934403 0.175255 0.222492
O O11 0.922319 0.000000 0.250000
O O12 0.892927 0.073409 0.000000
O O13 0.265958 0.000000 0.250000
O O14 0.250174 0.904169 0.000000
O O15 0.680927 0.500000 0.250000
O O16 0.710176 0.423820 0.500000
O O17 0.500000 0.118880 0.750000
O O18 0.439693 0.087081 0.500000
O O19 0.412872 0.000000 0.750000
O O20 0.000000 0.680969 0.750000
O O21 0.061726 0.701984 0.000000
#
# Coordination Sequence:
#
# PCOD8202982 Si02
#       7
#     8   8   8   8   8   8   8
#     4  10  20  37  59  83 108 138 171 212 265 322
#     4  11  21  34  53  81 113 146 181 221 265 315
#     4   9  20  36  54  74 101 135 173 215 264 316
#     4  10  19  32  50  76 106 138 173 215 264 318
#     4   9  20  36  57  83 112 142 176 217 266 319
#     4  11  22  38  58  82 113 152 191 230 269 312
#     4  11  23  38  54  76 102 133 173 219 264 316
#
# _framework density 19.181546000000001
#
# number of rings (size 3 to 8) (size 9 to 14) (size 15 to 20)
#    0.000    1.857    0.000    4.714    0.000    4.000 
#    0.000    2.857    0.000    0.429    0.000    3.000 
#    0.000    0.000    0.000    0.000    0.000    0.000 
#
# Total GULP energy -694522.802602 kJ/mol
# GULP energy per Si atom -12402.192904 kJ/mol
# Density = 1.913789 g / cm^3
# Si number density = 19.181546 Si / 1000 Ang^3
#
#
#
# Elastic Constant Matrix: (Units=GPa)
#
#
# Indices 1 2 3 4 5 6 
#
# 1 70.7673 41.6925 33.7547 0.0000 0.0000 0.0000
# 2 41.6925 110.0438 52.2805 0.0000 0.0000 0.0000
# 3 33.7547 52.2805 95.8680 0.0000 0.0000 0.0000
# 4 0.0000 0.0000 0.0000 35.0019 0.0000 0.0000
# 5 0.0000 0.0000 0.0000 0.0000 23.4239 0.0000
# 6 0.0000 0.0000 0.0000 0.0000 0.0000 22.7894
#
#
#
# Elastic Compliance Matrix: (Units=1/GPa)
#
#
# Indices 1 2 3 4 5 6 
#
# 1 0.019145 -0.005468 -0.003759 0.000000 0.000000 0.000000
# 2 -0.005468 0.013826 -0.005615 0.000000 0.000000 0.000000
# 3 -0.003759 -0.005615 0.014817 0.000000 0.000000 0.000000
# 4 0.000000 0.000000 0.000000 0.028570 0.000000 0.000000
# 5 0.000000 0.000000 0.000000 0.000000 0.042691 0.000000
# 6 0.000000 0.000000 0.000000 0.000000 0.000000 0.043880
#
#
# Mechanical properties :
#
#
# Convention : Reuss Voigt Hill
#
# Bulk Modulus (GPa) = 55.23441 59.12605 57.18023
# Shear Modulus (GPa) = 25.17014 26.17312 25.67163
#
# Velocity S-wave (km/s) = 3.62637 3.69791 3.66232
# Velocity P-wave (km/s) = 6.81118 7.00886 6.91073
#
# Compressibility (1/GPa) = 0.01810466
#
# Stress axis : x y z
#
# Youngs Moduli (GPa) = 52.23256 72.32540 67.49156
#
# Poissons Ratio (x) = 0.39545 0.25372
# Poissons Ratio (y) = 0.28559 0.37896
# Poissons Ratio (z) = 0.19635 0.40610
#
# Static dielectric constant tensor:
#      x y z
#    x 3.395150 0.000000 0.000000 
#    y 0.000000 3.471900 0.000000 
#    z 0.000000 0.000000 3.528660 
# 
# 
# High freq. dielectric constant tensor:
#      x y z
#    x 1.729580 0.000000 0.000000 
#    y 0.000000 1.748170 0.000000 
#    z 0.000000 0.000000 1.755570 
# 
# From -- ./inp_files/5788.got.cif
#   From: 2010.03.12/outbox.cif.g09.slc.cpg/sg49_3_cif.got.tgz:5788.got - 2010.04.14 03:58:27.
