data_PCOD8202040
_publ_section_title
;
Structure prediction by ZEFSAII (Michael W. Deem and Ramdas Pophale) SiO2 
 PCOD8202040
Probable space group: P N N N
;
_chemical_formula_sum "Si O2"
_cell_formula_units_Z 64
_cell_length_a 14.983341
_cell_length_b 11.616639
_cell_length_c 19.774306
_cell_angle_alpha 90.000000
_cell_angle_beta 90.000000
_cell_angle_gamma 90.000000
_cell_volume 3441.837859
_symmetry_space_group_name_H-M "P N N N"
_symmetry_group_IT_number 48
_space_group.IT_coordinate_system_code '2'
_symmetry_cell_setting 'orthorhombic'
loop_
_space_group_symop_operation_xyz
x,y,z
1/2-x,1/2-y,z
x,1/2-y,1/2-z
1/2-x,y,1/2-z
-x,-y,-z
1/2+x,1/2+y,-z
-x,1/2+y,1/2+z
1/2+x,-y,1/2+z
loop_
_atom_site_type_symbol
_atom_site_label
_atom_site_fract_x
_atom_site_fract_y
_atom_site_fract_z
Si Si1 0.061214 0.495342 0.566412
Si Si2 0.569214 0.478286 0.810899
Si Si3 0.349435 0.783114 0.524897
Si Si4 0.724778 0.623790 0.862433
Si Si5 0.659942 0.703332 0.005531
Si Si6 0.489520 0.115950 0.041552
Si Si7 0.593931 0.491838 0.659119
Si Si8 0.648713 0.258744 0.870273
O O1 0.127202 0.603117 0.566474
O O2 0.115118 0.376625 0.561842
O O3 0.000000 0.500000 0.500000
O O4 0.011928 0.501050 0.638145
O O5 0.642263 0.576493 0.821097
O O6 0.546608 0.490573 0.732124
O O7 0.603071 0.348635 0.820368
O O8 0.250000 0.750000 0.546577
O O9 0.417200 0.681755 0.543425
O O10 0.355143 0.811397 0.445393
O O11 0.750000 0.750000 0.835247
O O12 0.805053 0.536608 0.847731
O O13 0.694249 0.629907 0.940782
O O14 0.750000 0.750000 0.040528
O O15 0.591290 0.804173 0.985114
O O16 0.468616 0.077106 0.117332
O O17 0.500000 0.000000 0.000000
O O18 0.596105 0.361743 0.630471
O O19 0.750000 0.250000 0.845078
#
# Coordination Sequence:
#
# PCOD8202040 Si02
#       8
#     8   8   8   8   8   8   8   8
#     4  12  22  41  63  88 125 168 212 252 300 374
#     4  12  24  39  59  87 128 174 202 245 305 386
#     4  11  24  40  66  92 119 161 212 265 311 358
#     4  11  21  38  57  87 129 165 198 242 313 386
#     4  11  22  39  65  93 127 163 211 264 309 371
#     4  12  23  40  61  92 126 160 209 261 315 367
#     4  12  25  37  58  91 128 164 201 253 317 379
#     4  11  21  37  59  89 126 161 201 247 311 386
#
# _framework density 18.594715999999998
#
# number of rings (size 3 to 8) (size 9 to 14) (size 15 to 20)
#    0.000    0.500    8.750    0.750    3.500    1.500 
#    0.000    0.000    0.000    1.500    0.000    0.875 
#    0.000    0.000    0.000    0.000    0.000    0.000 
#
# Total GULP energy -793551.832413 kJ/mol
# GULP energy per Si atom -12399.247381 kJ/mol
# Density = 1.855239 g / cm^3
# Si number density = 18.594716 Si / 1000 Ang^3
#
#
#
# Elastic Constant Matrix: (Units=GPa)
#
#
# Indices 1 2 3 4 5 6 
#
# 1 125.8320 57.4433 54.6265 0.0000 0.0000 0.0000
# 2 57.4433 137.2209 42.3427 0.0000 0.0000 0.0000
# 3 54.6265 42.3427 97.5180 0.0000 0.0000 0.0000
# 4 0.0000 0.0000 0.0000 24.7344 0.0000 0.0000
# 5 0.0000 0.0000 0.0000 0.0000 20.4626 0.0000
# 6 0.0000 0.0000 0.0000 0.0000 0.0000 34.2101
#
#
#
# Elastic Compliance Matrix: (Units=1/GPa)
#
#
# Indices 1 2 3 4 5 6 
#
# 1 0.011674 -0.003313 -0.005101 0.000000 0.000000 0.000000
# 2 -0.003313 0.009355 -0.002206 0.000000 0.000000 0.000000
# 3 -0.005101 -0.002206 0.014070 0.000000 0.000000 0.000000
# 4 0.000000 0.000000 0.000000 0.040430 0.000000 0.000000
# 5 0.000000 0.000000 0.000000 0.000000 0.048870 0.000000
# 6 0.000000 0.000000 0.000000 0.000000 0.000000 0.029231
#
#
# Mechanical properties :
#
#
# Convention : Reuss Voigt Hill
#
# Bulk Modulus (GPa) = 72.15635 74.37734 73.26685
# Shear Modulus (GPa) = 27.85691 29.62532 28.74111
#
# Velocity S-wave (km/s) = 3.87474 3.99584 3.93575
# Velocity P-wave (km/s) = 7.67510 7.83422 7.75507
#
# Compressibility (1/GPa) = 0.01385879
#
# Stress axis : x y z
#
# Youngs Moduli (GPa) = 85.66142 106.89283 71.07415
#
# Poissons Ratio (x) = 0.35413 0.36254
# Poissons Ratio (y) = 0.28379 0.15681
# Poissons Ratio (z) = 0.43695 0.23583
#
# Static dielectric constant tensor:
#      x y z
#    x 3.560730 0.000000 0.000000 
#    y 0.000000 3.869420 0.000000 
#    z 0.000000 0.000000 3.246120 
# 
# 
# High freq. dielectric constant tensor:
#      x y z
#    x 1.712580 0.000000 0.000000 
#    y 0.000000 1.746450 0.000000 
#    z 0.000000 0.000000 1.694600 
# 
# From -- ./inp_files/31717.got.cif
#   From: 2010.06.25/outbox.cif.g09.slc.cpg/sg48_16_cif.got.tgz:31717.got - 2010.06.26 18:06:46.
