data_PCOD8202718
_publ_section_title
;
Structure prediction by ZEFSAII (Michael W. Deem and Ramdas Pophale) SiO2 
 PCOD8202718
Probable space group: P C C M
;
_chemical_formula_sum "Si O2"
_cell_formula_units_Z 64
_cell_length_a 18.114506
_cell_length_b 26.691186
_cell_length_c 8.946287
_cell_angle_alpha 90.000000
_cell_angle_beta 90.000000
_cell_angle_gamma 90.000000
_cell_volume 4325.508731
_symmetry_space_group_name_H-M "P C C M"
_symmetry_group_IT_number 49
_symmetry_cell_setting 'orthorhombic'
loop_
_space_group_symop_operation_xyz
x,y,z
-x,-y,z
x,-y,1/2-z
-x,y,1/2-z
-x,-y,-z
x,y,-z
-x,y,1/2+z
x,-y,1/2+z
loop_
_atom_site_type_symbol
_atom_site_label
_atom_site_fract_x
_atom_site_fract_y
_atom_site_fract_z
Si Si1 0.579474 0.342358 0.174113
Si Si2 0.203108 0.204002 0.668646
Si Si3 0.920951 0.147949 0.675469
Si Si4 0.172602 0.050333 0.824897
Si Si5 0.327593 0.741921 0.673466
Si Si6 0.421636 0.158911 0.826724
Si Si7 0.578810 0.453528 0.827391
Si Si8 0.298406 0.104096 0.668391
O O1 0.500000 0.335644 0.250000
O O2 0.638744 0.306194 0.247313
O O3 0.613569 0.398362 0.195709
O O4 0.569398 0.329364 0.000000
O O5 0.185167 0.221382 0.500000
O O6 0.127373 0.192995 0.756001
O O7 0.247804 0.247522 0.753568
O O8 0.251945 0.154572 0.668169
O O9 0.927874 0.156886 0.500000
O O10 0.884517 0.094448 0.712324
O O11 0.000000 0.149117 0.750000
O O12 0.253008 0.061707 0.755936
O O13 0.140681 0.000000 0.750000
O O14 0.181999 0.042317 0.000000
O O15 0.315709 0.730542 0.500000
O O16 0.381974 0.788308 0.699097
O O17 0.500000 0.162477 0.750000
O O18 0.375436 0.113856 0.752342
O O19 0.431153 0.146455 0.000000
O O20 0.624033 0.500000 0.750000
O O21 0.500000 0.451325 0.750000
O O22 0.569915 0.466376 0.000000
O O23 0.314154 0.085656 0.500000
#
# Coordination Sequence:
#
# PCOD8202718 Si02
#       8
#     8   8   8   8   8   8   8   8
#     4  10  19  28  38  55  79 107 141 182 225 263
#     4   9  17  30  47  64  84 110 138 167 200 241
#     4  10  20  33  49  69  92 115 140 168 197 232
#     4  10  20  33  49  68  89 112 137 165 197 235
#     4  10  19  29  42  60  83 110 139 172 210 252
#     4  10  19  29  42  61  83 106 134 168 206 246
#     4   9  16  25  37  51  69  97 135 178 221 263
#     4   9  17  30  47  64  82 106 135 165 199 240
#
# _framework density 14.795947
#
# number of rings (size 3 to 8) (size 9 to 14) (size 15 to 20)
#    0.000    2.375    0.000    3.750    0.000    8.750 
#    0.000    1.250    0.000    0.375    0.000    2.625 
#    0.000    0.000    0.000    0.000    0.000    0.625 
#
# Total GULP energy -793456.741047 kJ/mol
# GULP energy per Si atom -12397.761579 kJ/mol
# Density = 1.476227 g / cm^3
# Si number density = 14.795947 Si / 1000 Ang^3
#
#
#
# Elastic Constant Matrix: (Units=GPa)
#
#
# Indices 1 2 3 4 5 6 
#
# 1 76.6298 47.6179 69.5275 0.0000 0.0000 0.0000
# 2 47.6179 73.9661 52.3041 0.0000 0.0000 0.0000
# 3 69.5275 52.3041 128.3482 0.0000 0.0000 0.0000
# 4 0.0000 0.0000 0.0000 25.2733 0.0000 0.0000
# 5 0.0000 0.0000 0.0000 0.0000 26.2146 0.0000
# 6 0.0000 0.0000 0.0000 0.0000 0.0000 50.6076
#
#
#
# Elastic Compliance Matrix: (Units=1/GPa)
#
#
# Indices 1 2 3 4 5 6 
#
# 1 0.031345 -0.011481 -0.012301 0.000000 0.000000 0.000000
# 2 -0.011481 0.023198 -0.003234 0.000000 0.000000 0.000000
# 3 -0.012301 -0.003234 0.015773 0.000000 0.000000 0.000000
# 4 0.000000 0.000000 0.000000 0.039567 0.000000 0.000000
# 5 0.000000 0.000000 0.000000 0.000000 0.038147 0.000000
# 6 0.000000 0.000000 0.000000 0.000000 0.000000 0.019760
#
#
# Mechanical properties :
#
#
# Convention : Reuss Voigt Hill
#
# Bulk Modulus (GPa) = 61.41240 68.64922 65.03081
# Shear Modulus (GPa) = 22.00215 27.71875 24.86045
#
# Velocity S-wave (km/s) = 3.86040 4.33298 4.10350
# Velocity P-wave (km/s) = 7.84006 8.45760 8.15468
#
# Compressibility (1/GPa) = 0.01628336
#
# Stress axis : x y z
#
# Youngs Moduli (GPa) = 31.90290 43.10759 63.39873
#
# Poissons Ratio (x) = 0.49490 0.77990
# Poissons Ratio (y) = 0.36626 0.20505
# Poissons Ratio (z) = 0.39245 0.13943
#
# Static dielectric constant tensor:
#      x y z
#    x 2.669660 0.000000 0.000000 
#    y 0.000000 3.130130 0.000000 
#    z 0.000000 0.000000 3.112330 
# 
# 
# High freq. dielectric constant tensor:
#      x y z
#    x 1.532100 0.000000 0.000000 
#    y 0.000000 1.544320 0.000000 
#    z 0.000000 0.000000 1.591970 
# 
# From -- ./inp_files/5403.got.cif
#   From: 2010.03.12/outbox.cif.g09.slc.cpg/sg49_3_cif.got.tgz:5403.got - 2010.04.14 03:58:27.
