data_PCOD8202543
_publ_section_title
;
Structure prediction by ZEFSAII (Michael W. Deem and Ramdas Pophale) SiO2 
 PCOD8202543
Probable space group: P C C M
;
_chemical_formula_sum "Si O2"
_cell_formula_units_Z 64
_cell_length_a 23.493854
_cell_length_b 18.950894
_cell_length_c 8.832270
_cell_angle_alpha 90.000000
_cell_angle_beta 90.000000
_cell_angle_gamma 90.000000
_cell_volume 3932.387481
_symmetry_space_group_name_H-M "P C C M"
_symmetry_group_IT_number 49
_symmetry_cell_setting 'orthorhombic'
loop_
_space_group_symop_operation_xyz
x,y,z
-x,-y,z
x,-y,1/2-z
-x,y,1/2-z
-x,-y,-z
x,y,-z
-x,y,1/2+z
x,-y,1/2+z
loop_
_atom_site_type_symbol
_atom_site_label
_atom_site_fract_x
_atom_site_fract_y
_atom_site_fract_z
Si Si1 0.115354 0.928964 0.677971
Si Si2 0.245594 0.928201 0.321508
Si Si3 0.332613 0.336051 0.175350
Si Si4 0.060488 0.215570 0.820066
Si Si5 0.222396 0.576063 0.677818
Si Si6 0.726702 0.212387 0.176883
Si Si7 0.559030 0.574707 0.178997
Si Si8 0.161550 0.701683 0.821222
O O1 0.112170 0.937139 0.500000
O O2 0.180304 0.918411 0.731937
O O3 0.078958 0.862450 0.735005
O O4 0.089282 0.000000 0.750000
O O5 0.251545 0.932466 0.500000
O O6 0.281459 0.862017 0.260765
O O7 0.270595 0.000000 0.250000
O O8 0.284922 0.393972 0.214668
O O9 0.323314 0.265088 0.271467
O O10 0.393386 0.367991 0.220859
O O11 0.329737 0.315239 0.000000
O O12 0.104413 0.272615 0.758044
O O13 0.000000 0.234211 0.750000
O O14 0.058370 0.220338 0.000000
O O15 0.217231 0.500000 0.750000
O O16 0.210630 0.572261 0.500000
O O17 0.174852 0.624659 0.755751
O O18 0.787421 0.245464 0.223165
O O19 0.721804 0.199247 0.000000
O O20 0.576782 0.500000 0.250000
O O21 0.500000 0.601903 0.250000
O O22 0.552617 0.564999 0.000000
O O23 0.152826 0.697260 0.000000
#
# Coordination Sequence:
#
# PCOD8202543 Si02
#       8
#     8   8   8   8   8   8   8   8
#     4   9  19  32  48  67  91 122 155 191 231 276
#     4  10  18  30  47  68  95 127 160 194 236 288
#     4   9  19  32  47  69  99 133 166 202 242 282
#     4  11  22  36  51  70  92 121 156 194 237 281
#     4  10  19  32  51  74  99 125 154 193 237 284
#     4  10  19  30  48  72  96 124 159 199 243 287
#     4  10  19  31  47  68  97 136 176 210 244 282
#     4  10  20  34  51  71  94 121 153 191 235 287
#
# _framework density 16.275100999999999
#
# number of rings (size 3 to 8) (size 9 to 14) (size 15 to 20)
#    0.000    2.125    1.250    3.000    0.000    4.250 
#    0.000    1.250    0.000    0.375    0.000    2.625 
#    0.000    0.500    0.000    5.250    0.000    2.875 
#
# Total GULP energy -793810.800435 kJ/mol
# GULP energy per Si atom -12403.293757 kJ/mol
# Density = 1.623806 g / cm^3
# Si number density = 16.275101 Si / 1000 Ang^3
#
#
#
# Elastic Constant Matrix: (Units=GPa)
#
#
# Indices 1 2 3 4 5 6 
#
# 1 88.5832 56.8198 39.1359 0.0000 0.0000 0.0000
# 2 56.8198 131.0307 55.3940 0.0000 0.0000 0.0000
# 3 39.1359 55.3940 77.6670 0.0000 0.0000 0.0000
# 4 0.0000 0.0000 0.0000 33.3547 0.0000 0.0000
# 5 0.0000 0.0000 0.0000 0.0000 23.0725 0.0000
# 6 0.0000 0.0000 0.0000 0.0000 0.0000 23.2622
#
#
#
# Elastic Compliance Matrix: (Units=1/GPa)
#
#
# Indices 1 2 3 4 5 6 
#
# 1 0.016741 -0.005288 -0.004665 0.000000 0.000000 0.000000
# 2 -0.005288 0.012596 -0.006320 0.000000 0.000000 0.000000
# 3 -0.004665 -0.006320 0.019733 0.000000 0.000000 0.000000
# 4 0.000000 0.000000 0.000000 0.029981 0.000000 0.000000
# 5 0.000000 0.000000 0.000000 0.000000 0.043342 0.000000
# 6 0.000000 0.000000 0.000000 0.000000 0.000000 0.042988
#
#
# Mechanical properties :
#
#
# Convention : Reuss Voigt Hill
#
# Bulk Modulus (GPa) = 60.50620 66.66447 63.58533
# Shear Modulus (GPa) = 24.57798 25.66663 25.12230
#
# Velocity S-wave (km/s) = 3.89029 3.97552 3.93313
# Velocity P-wave (km/s) = 7.57872 7.88181 7.73175
#
# Compressibility (1/GPa) = 0.01652723
#
# Stress axis : x y z
#
# Youngs Moduli (GPa) = 59.73257 79.38772 50.67595
#
# Poissons Ratio (x) = 0.41978 0.23638
# Poissons Ratio (y) = 0.31585 0.32025
# Poissons Ratio (z) = 0.27862 0.50170
#
# Static dielectric constant tensor:
#      x y z
#    x 2.895390 0.000000 0.000000 
#    y 0.000000 3.090780 0.000000 
#    z 0.000000 0.000000 3.121100 
# 
# 
# High freq. dielectric constant tensor:
#      x y z
#    x 1.592220 0.000000 0.000000 
#    y 0.000000 1.625020 0.000000 
#    z 0.000000 0.000000 1.640850 
# 
# From -- ./inp_files/5387.got.cif
#   From: 2010.03.12/outbox.cif.g09.slc.cpg/sg49_3_cif.got.tgz:5387.got - 2010.04.14 03:58:27.
