data_PCOD8202680
_publ_section_title
;
Structure prediction by ZEFSAII (Michael W. Deem and Ramdas Pophale) SiO2 
 PCOD8202680
Probable space group: P C C M
;
_chemical_formula_sum "Si O2"
_cell_formula_units_Z 64
_cell_length_a 12.497923
_cell_length_b 14.857855
_cell_length_c 17.497473
_cell_angle_alpha 90.000000
_cell_angle_beta 90.000000
_cell_angle_gamma 90.000000
_cell_volume 3249.146491
_symmetry_space_group_name_H-M "P C C M"
_symmetry_group_IT_number 49
_symmetry_cell_setting 'orthorhombic'
loop_
_space_group_symop_operation_xyz
x,y,z
-x,-y,z
x,-y,1/2-z
-x,y,1/2-z
-x,-y,-z
x,y,-z
-x,y,1/2+z
x,-y,1/2+z
loop_
_atom_site_type_symbol
_atom_site_label
_atom_site_fract_x
_atom_site_fract_y
_atom_site_fract_z
Si Si1 0.665670 0.495701 0.589847
Si Si2 0.189518 0.786115 0.091078
Si Si3 0.879000 0.982357 0.409095
Si Si4 0.380926 0.322858 0.334408
Si Si5 0.966734 0.724932 0.912476
Si Si6 0.620006 0.695179 0.160432
Si Si7 0.771862 0.157869 0.412451
Si Si8 0.105927 0.542325 0.590838
O O1 0.648058 0.510053 0.500000
O O2 0.603755 0.575215 0.633195
O O3 0.633639 0.393402 0.608522
O O4 0.788352 0.509345 0.617481
O O5 0.172567 0.888567 0.119433
O O6 0.295282 0.739003 0.122709
O O7 0.084469 0.734672 0.124177
O O8 0.196106 0.782367 0.000000
O O9 0.888803 0.983700 0.500000
O O10 0.787590 0.055368 0.383432
O O11 0.000000 0.000000 0.375818
O O12 0.347606 0.330754 0.246328
O O13 0.495903 0.274987 0.344284
O O14 0.895906 0.813096 0.904313
O O15 0.895362 0.644374 0.877277
O O16 0.989617 0.700800 0.000000
O O17 0.690089 0.781486 0.135603
O O18 0.732790 0.164466 0.500000
O O19 0.105628 0.539214 0.500000
O O20 0.000000 0.500000 0.626730
#
# Coordination Sequence:
#
# PCOD8202680 Si02
#       8
#     8   8   8   8   8   8   8   8
#     4  11  21  36  62  89 110 142 192 242 284 337
#     4  10  19  34  59  89 119 149 186 235 285 340
#     4   9  16  30  58  93 122 146 180 231 292 349
#     4  11  25  41  56  78 114 158 196 235 288 336
#     4   9  15  27  51  82 115 146 176 218 279 339
#     4  11  24  42  58  76 113 159 196 236 284 338
#     4  10  18  33  60  89 112 144 190 234 279 339
#     4   9  16  26  45  77 113 143 173 213 267 329
#
# _framework density 19.697481
#
# number of rings (size 3 to 8) (size 9 to 14) (size 15 to 20)
#    0.000    2.000    2.500    2.250    0.000    5.500 
#    0.000    1.875    0.000    5.250    0.000    0.000 
#    0.000    0.000    0.000    0.000    0.000    0.000 
#
# Total GULP energy -792849.017117 kJ/mol
# GULP energy per Si atom -12388.265892 kJ/mol
# Density = 1.965265 g / cm^3
# Si number density = 19.697481 Si / 1000 Ang^3
#
#
#
# Elastic Constant Matrix: (Units=GPa)
#
#
# Indices 1 2 3 4 5 6 
#
# 1 100.8384 32.6636 24.1373 0.0000 0.0000 0.0000
# 2 32.6636 97.6124 23.1712 0.0000 0.0000 0.0000
# 3 24.1373 23.1712 59.0236 0.0000 0.0000 0.0000
# 4 0.0000 0.0000 0.0000 14.1943 0.0000 0.0000
# 5 0.0000 0.0000 0.0000 0.0000 2.5078 0.0000
# 6 0.0000 0.0000 0.0000 0.0000 0.0000 26.1758
#
#
#
# Elastic Compliance Matrix: (Units=1/GPa)
#
#
# Indices 1 2 3 4 5 6 
#
# 1 0.011779 -0.003086 -0.003606 0.000000 0.000000 0.000000
# 2 -0.003086 0.012106 -0.003491 0.000000 0.000000 0.000000
# 3 -0.003606 -0.003491 0.019787 0.000000 0.000000 0.000000
# 4 0.000000 0.000000 0.000000 0.070451 0.000000 0.000000
# 5 0.000000 0.000000 0.000000 0.000000 0.398760 0.000000
# 6 0.000000 0.000000 0.000000 0.000000 0.000000 0.038203
#
#
# Mechanical properties :
#
#
# Convention : Reuss Voigt Hill
#
# Bulk Modulus (GPa) = 42.90301 46.37985 44.64143
# Shear Modulus (GPa) = 8.63231 20.40907 14.52069
#
# Velocity S-wave (km/s) = 2.09570 3.22238 2.71806
# Velocity P-wave (km/s) = 5.26158 6.11900 5.70642
#
# Compressibility (1/GPa) = 0.02330839
#
# Stress axis : x y z
#
# Youngs Moduli (GPa) = 84.89327 82.60531 50.53767
#
# Poissons Ratio (x) = 0.25490 0.18223
# Poissons Ratio (y) = 0.26196 0.17640
# Poissons Ratio (z) = 0.30610 0.28834
#
# Static dielectric constant tensor:
#      x y z
#    x 3.818670 0.000000 0.000000 
#    y 0.000000 3.796110 0.000000 
#    z 0.000000 0.000000 3.165480 
# 
# 
# High freq. dielectric constant tensor:
#      x y z
#    x 1.774130 0.000000 0.000000 
#    y 0.000000 1.773050 0.000000 
#    z 0.000000 0.000000 1.720000 
# 
# From -- ./inp_files/17299.got.cif
#   From: 2010.03.12/outbox.cif.g09.slc.cpg/sg49_9_cif.got.tgz:17299.got - 2010.04.14 03:58:27.
