data_PCOD8202524
_publ_section_title
;
Structure prediction by ZEFSAII (Michael W. Deem and Ramdas Pophale) SiO2 
 PCOD8202524
Probable space group: P C C M
;
_chemical_formula_sum "Si O2"
_cell_formula_units_Z 64
_cell_length_a 13.964267
_cell_length_b 18.373382
_cell_length_c 14.883489
_cell_angle_alpha 90.000000
_cell_angle_beta 90.000000
_cell_angle_gamma 90.000000
_cell_volume 3818.668857
_symmetry_space_group_name_H-M "P C C M"
_symmetry_group_IT_number 49
_symmetry_cell_setting 'orthorhombic'
loop_
_space_group_symop_operation_xyz
x,y,z
-x,-y,z
x,-y,1/2-z
-x,y,1/2-z
-x,-y,-z
x,y,-z
-x,y,1/2+z
x,-y,1/2+z
loop_
_atom_site_type_symbol
_atom_site_label
_atom_site_fract_x
_atom_site_fract_y
_atom_site_fract_z
Si Si1 0.347999 0.421280 0.248464
Si Si2 0.633935 0.172919 0.895893
Si Si3 0.564537 0.229499 0.600221
Si Si4 0.107756 0.167463 0.230602
Si Si5 0.085340 0.044666 0.901426
Si Si6 0.497630 0.391616 0.603956
Si Si7 0.279709 0.264216 0.242745
Si Si8 0.766881 0.053741 0.830623
O O1 0.293515 0.500000 0.250000
O O2 0.400275 0.410451 0.344071
O O3 0.417647 0.427920 0.161923
O O4 0.278711 0.351950 0.235146
O O5 0.519246 0.171242 0.877537
O O6 0.686807 0.236622 0.840214
O O7 0.672963 0.092993 0.869411
O O8 0.655114 0.189921 0.000000
O O9 0.606700 0.217282 0.500000
O O10 0.509699 0.305624 0.606477
O O11 0.650049 0.225012 0.671039
O O12 0.106556 0.122946 0.138930
O O13 0.171903 0.239756 0.220558
O O14 0.154686 0.114841 0.304799
O O15 0.000000 0.193051 0.250000
O O16 0.181930 0.996540 0.904459
O O17 0.048021 0.061745 0.000000
O O18 0.000000 0.000000 0.849759
O O19 0.496530 0.420063 0.500000
O O20 0.736715 0.000000 0.750000
#
# Coordination Sequence:
#
# PCOD8202524 Si02
#       8
#     8   8   8   8   8   8   8   8
#     4  10  19  29  44  69  99 130 165 204 245 295
#     4  10  18  30  50  75 100 132 167 203 241 294
#     4   9  17  30  50  71  98 133 168 203 239 288
#     4  10  19  33  50  69  92 126 158 199 249 298
#     4  10  18  29  49  74  98 121 147 198 257 305
#     4   9  16  28  45  69 100 130 161 200 246 294
#     4  10  20  33  49  70  99 131 169 205 249 299
#     4   9  18  30  49  72 100 129 159 200 247 299
#
# _framework density 16.759768000000001
#
# number of rings (size 3 to 8) (size 9 to 14) (size 15 to 20)
#    0.000    2.375    2.500    1.500    0.000    1.500 
#    0.000    0.000    0.000   13.125    0.000   22.750 
#    0.000    0.000    0.000   11.750    0.000    0.000 
#
# Total GULP energy -793007.564161 kJ/mol
# GULP energy per Si atom -12390.743190 kJ/mol
# Density = 1.672162 g / cm^3
# Si number density = 16.759768 Si / 1000 Ang^3
#
#
#
# Elastic Constant Matrix: (Units=GPa)
#
#
# Indices 1 2 3 4 5 6 
#
# 1 96.6709 59.2910 37.9065 0.0000 0.0000 0.0000
# 2 59.2910 94.1974 26.5130 0.0000 0.0000 0.0000
# 3 37.9065 26.5130 97.6248 0.0000 0.0000 0.0000
# 4 0.0000 0.0000 0.0000 4.2525 0.0000 0.0000
# 5 0.0000 0.0000 0.0000 0.0000 13.6274 0.0000
# 6 0.0000 0.0000 0.0000 0.0000 0.0000 16.9145
#
#
#
# Elastic Compliance Matrix: (Units=1/GPa)
#
#
# Indices 1 2 3 4 5 6 
#
# 1 0.018397 -0.010361 -0.004329 0.000000 0.000000 0.000000
# 2 -0.010361 0.017330 -0.000683 0.000000 0.000000 0.000000
# 3 -0.004329 -0.000683 0.012110 0.000000 0.000000 0.000000
# 4 0.000000 0.000000 0.000000 0.235154 0.000000 0.000000
# 5 0.000000 0.000000 0.000000 0.000000 0.073382 0.000000
# 6 0.000000 0.000000 0.000000 0.000000 0.000000 0.059121
#
#
# Mechanical properties :
#
#
# Convention : Reuss Voigt Hill
#
# Bulk Modulus (GPa) = 58.51709 59.54600 59.03154
# Shear Modulus (GPa) = 11.06349 17.94439 14.50394
#
# Velocity S-wave (km/s) = 2.57207 3.27568 2.94496
# Velocity P-wave (km/s) = 6.61904 7.06491 6.84561
#
# Compressibility (1/GPa) = 0.01708903
#
# Stress axis : x y z
#
# Youngs Moduli (GPa) = 54.35777 57.70378 82.57675
#
# Poissons Ratio (x) = 0.59786 0.35750
# Poissons Ratio (y) = 0.56320 0.05644
# Poissons Ratio (z) = 0.23533 0.03944
#
# Static dielectric constant tensor:
#      x y z
#    x 3.030280 0.000000 0.000000 
#    y 0.000000 3.170690 0.000000 
#    z 0.000000 0.000000 3.266670 
# 
# 
# High freq. dielectric constant tensor:
#      x y z
#    x 1.608800 0.000000 0.000000 
#    y 0.000000 1.634220 0.000000 
#    z 0.000000 0.000000 1.653140 
# 
# From -- ./inp_files/13781.got.cif
#   From: 2010.03.12/outbox.cif.g09.slc.cpg/sg49_7_cif.got.tgz:13781.got - 2010.04.14 03:58:27.
