data_PCOD8202860
_publ_section_title
;
Structure prediction by ZEFSAII (Michael W. Deem and Ramdas Pophale) SiO2 
 PCOD8202860
Probable space group: P C C M
;
_chemical_formula_sum "Si O2"
_cell_formula_units_Z 64
_cell_length_a 23.521808
_cell_length_b 19.128217
_cell_length_c 8.744821
_cell_angle_alpha 90.000000
_cell_angle_beta 90.000000
_cell_angle_gamma 90.000000
_cell_volume 3934.559478
_symmetry_space_group_name_H-M "P C C M"
_symmetry_group_IT_number 49
_symmetry_cell_setting 'orthorhombic'
loop_
_space_group_symop_operation_xyz
x,y,z
-x,-y,z
x,-y,1/2-z
-x,y,1/2-z
-x,-y,-z
x,y,-z
-x,y,1/2+z
x,-y,1/2+z
loop_
_atom_site_type_symbol
_atom_site_label
_atom_site_fract_x
_atom_site_fract_y
_atom_site_fract_z
Si Si1 0.831756 0.789703 0.174791
Si Si2 0.335515 0.851896 0.182145
Si Si3 0.059053 0.292780 0.178597
Si Si4 0.439550 0.074520 0.818010
Si Si5 0.114879 0.428081 0.680796
Si Si6 0.245352 0.429585 0.679966
Si Si7 0.271280 0.718532 0.179702
Si Si8 0.769965 0.072132 0.678681
O O1 0.896644 0.770074 0.212647
O O2 0.791927 0.741900 0.278010
O O3 0.819941 0.871467 0.208217
O O4 0.816584 0.772086 0.000000
O O5 0.394370 0.867791 0.266115
O O6 0.317954 0.773845 0.240356
O O7 0.287672 0.906351 0.234890
O O8 0.342815 0.856688 0.000000
O O9 0.078583 0.364653 0.254291
O O10 0.000000 0.267555 0.250000
O O11 0.051740 0.306144 0.000000
O O12 0.500000 0.097473 0.750000
O O13 0.420657 0.000000 0.750000
O O14 0.443236 0.069447 0.000000
O O15 0.090154 0.500000 0.750000
O O16 0.108697 0.429617 0.500000
O O17 0.180300 0.419883 0.733759
O O18 0.272363 0.500000 0.750000
O O19 0.248846 0.436822 0.500000
O O20 0.280687 0.361240 0.738565
O O21 0.274281 0.718607 0.000000
O O22 0.756211 0.063605 0.500000
O O23 0.792259 0.000000 0.750000
#
# Coordination Sequence:
#
# PCOD8202860 Si02
#       8
#     8   8   8   8   8   8   8   8
#     4   9  19  33  49  67  90 115 146 185 229 278
#     4  10  19  31  48  71  99 130 162 197 233 271
#     4  11  22  35  50  68  88 115 149 188 231 277
#     4  11  21  34  50  69  97 133 172 205 236 273
#     4  10  19  32  49  68  92 119 151 187 225 271
#     4   9  17  28  44  67  93 123 154 186 225 273
#     4   9  17  30  48  69  94 123 156 191 231 276
#     4  10  19  32  49  72  96 120 149 187 231 277
#
# _framework density 16.266116
#
# number of rings (size 3 to 8) (size 9 to 14) (size 15 to 20)
#    0.000    2.125    1.250    3.375    0.000    2.750 
#    0.000    1.250    0.000    0.375    0.000    2.625 
#    0.000    0.500    0.000    5.750    0.000    1.750 
#
# Total GULP energy -793477.737665 kJ/mol
# GULP energy per Si atom -12398.089651 kJ/mol
# Density = 1.622909 g / cm^3
# Si number density = 16.266116 Si / 1000 Ang^3
#
#
#
# Elastic Constant Matrix: (Units=GPa)
#
#
# Indices 1 2 3 4 5 6 
#
# 1 88.6679 58.9925 34.0432 0.0000 0.0000 0.0000
# 2 58.9925 129.5802 32.3060 0.0000 0.0000 0.0000
# 3 34.0432 32.3060 59.9376 0.0000 0.0000 0.0000
# 4 0.0000 0.0000 0.0000 23.5738 0.0000 0.0000
# 5 0.0000 0.0000 0.0000 0.0000 21.7464 0.0000
# 6 0.0000 0.0000 0.0000 0.0000 0.0000 24.6705
#
#
#
# Elastic Compliance Matrix: (Units=1/GPa)
#
#
# Indices 1 2 3 4 5 6 
#
# 1 0.018313 -0.006636 -0.006825 0.000000 0.000000 0.000000
# 2 -0.006636 0.011320 -0.002332 0.000000 0.000000 0.000000
# 3 -0.006825 -0.002332 0.021818 0.000000 0.000000 0.000000
# 4 0.000000 0.000000 0.000000 0.042420 0.000000 0.000000
# 5 0.000000 0.000000 0.000000 0.000000 0.045985 0.000000
# 6 0.000000 0.000000 0.000000 0.000000 0.000000 0.040534
#
#
# Mechanical properties :
#
#
# Convention : Reuss Voigt Hill
#
# Bulk Modulus (GPa) = 50.34083 58.76324 54.55203
# Shear Modulus (GPa) = 22.87316 24.18773 23.53045
#
# Velocity S-wave (km/s) = 3.75398 3.86035 3.80754
# Velocity P-wave (km/s) = 7.05729 7.48828 7.27597
#
# Compressibility (1/GPa) = 0.01986459
#
# Stress axis : x y z
#
# Youngs Moduli (GPa) = 54.60514 88.34174 45.83468
#
# Poissons Ratio (x) = 0.58621 0.31282
# Poissons Ratio (y) = 0.36235 0.10690
# Poissons Ratio (z) = 0.37268 0.20604
#
# Static dielectric constant tensor:
#      x y z
#    x 2.926700 0.000000 0.000000 
#    y 0.000000 3.416330 0.000000 
#    z 0.000000 0.000000 3.144900 
# 
# 
# High freq. dielectric constant tensor:
#      x y z
#    x 1.590260 0.000000 0.000000 
#    y 0.000000 1.627420 0.000000 
#    z 0.000000 0.000000 1.637780 
# 
# From -- ./inp_files/6613.got.cif
#   From: 2010.03.12/outbox.cif.g09.slc.cpg/sg49_4_cif.got.tgz:6613.got - 2010.04.14 03:58:27.
