data_PCOD8202013
_publ_section_title
;
Structure prediction by ZEFSAII (Michael W. Deem and Ramdas Pophale) SiO2 
 PCOD8202013
Probable space group: P N N N
;
_chemical_formula_sum "Si O2"
_cell_formula_units_Z 56
_cell_length_a 5.091900
_cell_length_b 28.968483
_cell_length_c 27.517813
_cell_angle_alpha 90.000000
_cell_angle_beta 90.000000
_cell_angle_gamma 90.000000
_cell_volume 4059.004511
_symmetry_space_group_name_H-M "P N N N"
_symmetry_group_IT_number 48
_space_group.IT_coordinate_system_code '2'
_symmetry_cell_setting 'orthorhombic'
loop_
_space_group_symop_operation_xyz
x,y,z
1/2-x,1/2-y,z
x,1/2-y,1/2-z
1/2-x,y,1/2-z
-x,-y,-z
1/2+x,1/2+y,-z
-x,1/2+y,1/2+z
1/2+x,-y,1/2+z
loop_
_atom_site_type_symbol
_atom_site_label
_atom_site_fract_x
_atom_site_fract_y
_atom_site_fract_z
Si Si1 0.000699 0.995575 0.123623
Si Si2 0.846671 0.853127 0.161266
Si Si3 0.450933 0.926882 0.018022
Si Si4 0.322260 0.696810 0.304575
Si Si5 0.488200 0.443252 0.780921
Si Si6 0.054977 0.401876 0.565319
Si Si7 0.499943 0.478414 0.423294
O O1 0.987027 0.950702 0.090404
O O2 0.065635 0.980810 0.178662
O O3 0.225828 0.030487 0.104538
O O4 0.721822 0.020840 0.118465
O O5 0.619569 0.817936 0.180572
O O6 0.857432 0.897652 0.195663
O O7 0.129977 0.829818 0.160124
O O8 0.826037 0.866143 0.104687
O O9 0.222448 0.892452 0.038116
O O10 0.728848 0.901545 0.023107
O O11 0.467079 0.973425 0.049081
O O12 0.417990 0.938466 0.961115
O O13 0.250000 0.750000 0.311483
O O14 0.250000 0.681555 0.250000
O O15 0.250000 0.464987 0.750000
O O16 0.750000 0.431446 0.750000
#
# Coordination Sequence:
#
# PCOD8202013 Si02
#       7
#     8   8   8   8   8   8   8
#     4   9  17  26  35  51  70  91 117 141 168 202
#     4  11  20  32  45  57  73  90 110 142 186 225
#     4   9  15  24  37  54  71  90 111 130 160 199
#     4  11  22  34  46  58  70  87 115 147 180 225
#     4  11  20  29  41  55  72  94 120 150 184 222
#     4   9  17  26  38  55  72  87 107 134 165 212
#     4   9  15  24  37  50  70  93 112 136 161 195
#
# _framework density 13.796485000000001
#
# number of rings (size 3 to 8) (size 9 to 14) (size 15 to 20)
#    0.000    2.143    0.000    5.571    0.000    9.143 
#    0.000    0.000    0.000    0.000    0.000    0.000 
#    0.000    0.000    0.000    0.000    0.000    0.000 
#
# Total GULP energy -693763.987711 kJ/mol
# GULP energy per Si atom -12388.642638 kJ/mol
# Density = 1.376508 g / cm^3
# Si number density = 13.796485 Si / 1000 Ang^3
#
#
#
# Elastic Constant Matrix: (Units=GPa)
#
#
# Indices 1 2 3 4 5 6 
#
# 1 90.1303 13.1348 33.8900 0.0000 0.0000 0.0000
# 2 13.1348 21.2438 26.7122 0.0000 0.0000 0.0000
# 3 33.8900 26.7122 59.8216 0.0000 0.0000 0.0000
# 4 0.0000 0.0000 0.0000 13.1855 0.0000 0.0000
# 5 0.0000 0.0000 0.0000 0.0000 25.0735 0.0000
# 6 0.0000 0.0000 0.0000 0.0000 0.0000 16.1998
#
#
#
# Elastic Compliance Matrix: (Units=1/GPa)
#
#
# Indices 1 2 3 4 5 6 
#
# 1 0.014184 0.003042 -0.009394 0.000000 0.000000 0.000000
# 2 0.003042 0.107995 -0.049947 0.000000 0.000000 0.000000
# 3 -0.009394 -0.049947 0.044341 0.000000 0.000000 0.000000
# 4 0.000000 0.000000 0.000000 0.075841 0.000000 0.000000
# 5 0.000000 0.000000 0.000000 0.000000 0.039883 0.000000
# 6 0.000000 0.000000 0.000000 0.000000 0.000000 0.061729
#
#
# Mechanical properties :
#
#
# Convention : Reuss Voigt Hill
#
# Bulk Modulus (GPa) = 18.54485 35.40773 26.97629
# Shear Modulus (GPa) = 10.53644 17.38900 13.96272
#
# Velocity S-wave (km/s) = 2.76652 3.55405 3.18472
# Velocity P-wave (km/s) = 4.86577 6.52394 5.75489
#
# Compressibility (1/GPa) = 0.05392332
#
# Stress axis : x y z
#
# Youngs Moduli (GPa) = 70.50242 9.25968 22.55258
#
# Poissons Ratio (x) = -0.02817 0.21186
# Poissons Ratio (y) = -0.21448 1.12642
# Poissons Ratio (z) = 0.66229 0.46249
#
# Static dielectric constant tensor:
#      x y z
#    x 3.013400 0.000000 0.000000 
#    y 0.000000 2.318020 0.000000 
#    z 0.000000 0.000000 2.708940 
# 
# 
# High freq. dielectric constant tensor:
#      x y z
#    x 1.554130 0.000000 0.000000 
#    y 0.000000 1.452240 0.000000 
#    z 0.000000 0.000000 1.511720 
# 
# From -- ./inp_files/33028.got.cif
#   From: 2010.06.25/outbox.cif.g09.slc.cpg/sg48_17_cif.got.tgz:33028.got - 2010.06.26 18:06:46.
