data_PCOD8202245
_publ_section_title
;
Structure prediction by ZEFSAII (Michael W. Deem and Ramdas Pophale) SiO2 
 PCOD8202245
Probable space group: P C C M
;
_chemical_formula_sum "Si O2"
_cell_formula_units_Z 64
_cell_length_a 13.011539
_cell_length_b 17.221930
_cell_length_c 18.038372
_cell_angle_alpha 90.000000
_cell_angle_beta 90.000000
_cell_angle_gamma 90.000000
_cell_volume 4042.107193
_symmetry_space_group_name_H-M "P C C M"
_symmetry_group_IT_number 49
_symmetry_cell_setting 'orthorhombic'
loop_
_space_group_symop_operation_xyz
x,y,z
-x,-y,z
x,-y,1/2-z
-x,y,1/2-z
-x,-y,-z
x,y,-z
-x,y,1/2+z
x,-y,1/2+z
loop_
_atom_site_type_symbol
_atom_site_label
_atom_site_fract_x
_atom_site_fract_y
_atom_site_fract_z
Si Si1 0.117563 0.832489 0.838395
Si Si2 0.804472 0.684581 0.088160
Si Si3 0.613801 0.413165 0.088033
Si Si4 0.804472 0.315419 0.911840
Si Si5 1.000000 0.587340 0.911967
Si Si6 0.386199 0.413165 0.088033
Si Si7 0.121704 1.000000 0.331047
Si Si8 0.882437 0.832489 0.838395
O O1 0.190644 0.769613 0.876260
O O2 0.129265 0.830169 0.750000
O O3 0.000000 0.815077 0.861536
O O4 0.152258 0.918096 0.870010
O O5 0.699797 0.645547 0.118459
O O6 0.809356 0.769613 0.123740
O O7 0.899169 0.632151 0.116588
O O8 0.805781 0.692735 0.000000
O O9 0.699798 0.354453 0.118459
O O10 0.500000 0.385588 0.113662
O O11 0.635720 0.500000 0.118371
O O12 0.619841 0.415298 0.000000
O O13 0.899170 0.367849 0.883412
O O14 0.805781 0.307265 0.000000
O O15 0.000000 0.500000 0.879264
O O16 1.000000 0.583598 0.000000
O O17 0.380159 0.415298 0.000000
O O18 0.152258 0.918096 0.370010
O O19 0.173322 0.000000 0.250000
O O20 0.000000 0.000000 0.321191
#
# Coordination Sequence:
#
# PCOD8202245 Si02
#       8
#     8   8   8   8   8   8   8   8
#     4   9  16  27  42  59  82 110 137 163 195 241
#     4  10  17  25  40  62  85 106 132 168 206 239
#     4   8  14  25  41  60  80 105 141 178 203 228
#     4  10  17  25  40  62  85 106 132 168 206 239
#     4   9  16  24  35  54  81 110 134 155 189 239
#     4   8  14  25  41  60  80 105 141 178 203 228
#     4   7  12  24  41  57  74 105 142 164 185 232
#     4   9  16  27  42  59  82 110 137 163 195 241
#
# _framework density 15.833325
#
# number of rings (size 3 to 8) (size 9 to 14) (size 15 to 20)
#    0.000    3.250    1.250    3.000    0.000    3.000 
#    0.000    0.625    0.000    6.750    0.000    2.625 
#    0.000    7.000    0.000    0.000    0.000    0.000 
#
# Total GULP energy -792902.037710 kJ/mol
# GULP energy per Si atom -12389.094339 kJ/mol
# Density = 1.579729 g / cm^3
# Si number density = 15.833325 Si / 1000 Ang^3
#
#
#
# Elastic Constant Matrix: (Units=GPa)
#
#
# Indices 1 2 3 4 5 6 
#
# 1 111.4183 78.5425 15.4874 0.0000 0.0000 0.0000
# 2 78.5425 165.0078 21.9170 0.0000 0.0000 0.0000
# 3 15.4874 21.9170 12.3811 0.0000 0.0000 0.0000
# 4 0.0000 0.0000 0.0000 437.8824 0.0000 0.0000
# 5 0.0000 0.0000 0.0000 0.0000 8.5168 0.0000
# 6 0.0000 0.0000 0.0000 0.0000 0.0000 20.9851
#
#
#
# Elastic Compliance Matrix: (Units=1/GPa)
#
#
# Indices 1 2 3 4 5 6 
#
# 1 0.014019 -0.005679 -0.007483 0.000000 0.000000 0.000000
# 2 -0.005679 0.010224 -0.010994 0.000000 0.000000 0.000000
# 3 -0.007483 -0.010994 0.109591 0.000000 0.000000 0.000000
# 4 0.000000 0.000000 0.000000 0.002284 0.000000 0.000000
# 5 0.000000 0.000000 0.000000 0.000000 0.117415 0.000000
# 6 0.000000 0.000000 0.000000 0.000000 0.000000 0.047653
#
#
# Mechanical properties :
#
#
# Convention : Reuss Voigt Hill
#
# Bulk Modulus (GPa) = 11.69310 57.85567 34.77438
# Shear Modulus (GPa) = 13.22739 105.00088 59.11413
#
# Velocity S-wave (km/s) = 2.89349 8.15232 6.11689
# Velocity P-wave (km/s) = 4.30862 11.19078 8.47932
#
# Compressibility (1/GPa) = 0.08552052
#
# Stress axis : x y z
#
# Youngs Moduli (GPa) = 71.33428 97.81189 9.12486
#
# Poissons Ratio (x) = 0.55545 0.06828
# Poissons Ratio (y) = 0.40509 0.10032
# Poissons Ratio (z) = 0.53379 1.07539
#
# Static dielectric constant tensor:
#      x y z
#    x 2.998050 0.000000 0.000000 
#    y 0.000000 3.356160 0.000000 
#    z 0.000000 0.000000 2.482430 
# 
# 
# High freq. dielectric constant tensor:
#      x y z
#    x 1.579100 0.000000 0.000000 
#    y 0.000000 1.620690 0.000000 
#    z 0.000000 0.000000 1.555740 
# 
# From -- ./inp_files/17401.got.cif
#   From: 2010.03.12/outbox.cif.g09.slc.cpg/sg49_9_cif.got.tgz:17401.got - 2010.04.14 03:58:27.
