data_PCOD8202806
_publ_section_title
;
Structure prediction by ZEFSAII (Michael W. Deem and Ramdas Pophale) SiO2 
 PCOD8202806
Probable space group: P C C M
;
_chemical_formula_sum "Si O2"
_cell_formula_units_Z 26
_cell_length_a 7.671714
_cell_length_b 11.358020
_cell_length_c 19.157295
_cell_angle_alpha 90.000000
_cell_angle_beta 90.000000
_cell_angle_gamma 90.000000
_cell_volume 1669.280115
_symmetry_space_group_name_H-M "P C C M"
_symmetry_group_IT_number 49
_symmetry_cell_setting 'orthorhombic'
loop_
_space_group_symop_operation_xyz
x,y,z
-x,-y,z
x,-y,1/2-z
-x,y,1/2-z
-x,-y,-z
x,y,-z
-x,y,1/2+z
x,-y,1/2+z
loop_
_atom_site_type_symbol
_atom_site_label
_atom_site_fract_x
_atom_site_fract_y
_atom_site_fract_z
Si Si1 0.354267 0.724855 0.800321
Si Si2 0.500000 0.500000 0.750000
Si Si3 0.000000 0.000000 0.365583
Si Si4 0.000000 0.184917 0.750000
Si Si5 0.353527 0.092644 0.420216
O O1 0.500000 0.784957 0.750000
O O2 0.388618 0.583666 0.802663
O O3 0.163916 0.734937 0.767484
O O4 0.366186 0.787983 0.875141
O O5 0.835461 0.967545 0.413291
O O6 0.054988 0.892136 0.316520
O O7 0.384382 0.129986 0.500000
O O8 0.500000 0.000000 0.395475
#
# Coordination Sequence:
#
# PCOD8202806 Si02
#       5
#     8   2   4   4   8
#     4   9  18  33  48  69  96 123 162 203 228 278
#     4   8  20  34  48  68  94 120 170 212 224 256
#     4   9  17  28  44  76 101 119 156 190 229 301
#     4   9  16  27  50  72  92 127 153 194 250 268
#     4  10  19  30  48  73 101 129 151 188 246 292
#
# _framework density 15.575576
#
# number of rings (size 3 to 8) (size 9 to 14) (size 15 to 20)
#    0.923    1.846    0.000    2.308    0.000    3.692 
#    0.000    0.769    0.000    0.000    0.000    4.308 
#    0.000    0.000    0.000    0.000    0.000    0.000 
#
# Total GULP energy -322173.062862 kJ/mol
# GULP energy per Si atom -12391.271649 kJ/mol
# Density = 1.554013 g / cm^3
# Si number density = 15.575576 Si / 1000 Ang^3
#
#
#
# Elastic Constant Matrix: (Units=GPa)
#
#
# Indices 1 2 3 4 5 6 
#
# 1 102.3040 56.5181 42.3116 0.0000 0.0000 0.0000
# 2 56.5181 116.7370 46.2241 0.0000 0.0000 0.0000
# 3 42.3116 46.2241 75.6462 0.0000 0.0000 0.0000
# 4 0.0000 0.0000 0.0000 16.7768 0.0000 0.0000
# 5 0.0000 0.0000 0.0000 0.0000 23.3042 0.0000
# 6 0.0000 0.0000 0.0000 0.0000 0.0000 26.4348
#
#
#
# Elastic Compliance Matrix: (Units=1/GPa)
#
#
# Indices 1 2 3 4 5 6 
#
# 1 0.014703 -0.005095 -0.005111 0.000000 0.000000 0.000000
# 2 -0.005095 0.013066 -0.005134 0.000000 0.000000 0.000000
# 3 -0.005111 -0.005134 0.019215 0.000000 0.000000 0.000000
# 4 0.000000 0.000000 0.000000 0.059606 0.000000 0.000000
# 5 0.000000 0.000000 0.000000 0.000000 0.042911 0.000000
# 6 0.000000 0.000000 0.000000 0.000000 0.000000 0.037829
#
#
# Mechanical properties :
#
#
# Convention : Reuss Voigt Hill
#
# Bulk Modulus (GPa) = 61.33195 64.97719 63.15457
# Shear Modulus (GPa) = 22.37685 23.27872 22.82779
#
# Velocity S-wave (km/s) = 3.79445 3.87016 3.83249
# Velocity P-wave (km/s) = 7.65895 7.85994 7.76010
#
# Compressibility (1/GPa) = 0.01630471
#
# Stress axis : x y z
#
# Youngs Moduli (GPa) = 68.01242 76.53494 52.04150
#
# Poissons Ratio (x) = 0.38993 0.26597
# Poissons Ratio (y) = 0.34651 0.26720
# Poissons Ratio (z) = 0.34760 0.39295
#
# Static dielectric constant tensor:
#      x y z
#    x 3.111710 0.000000 0.000000 
#    y 0.000000 2.737340 0.000000 
#    z 0.000000 0.000000 2.824560 
# 
# 
# High freq. dielectric constant tensor:
#      x y z
#    x 1.612360 0.000000 0.000000 
#    y 0.000000 1.576090 0.000000 
#    z 0.000000 0.000000 1.585310 
# 
# From -- ./inp_files/16704.got.cif
#   From: 2010.03.12/outbox.cif.g09.slc.cpg/sg49_9_cif.got.tgz:16704.got - 2010.04.14 03:58:27.
