data_PCOD8202285
_publ_section_title
;
Structure prediction by ZEFSAII (Michael W. Deem and Ramdas Pophale) SiO2 
 PCOD8202285
Probable space group: P C C M
;
_chemical_formula_sum "Si O2"
_cell_formula_units_Z 48
_cell_length_a 24.169243
_cell_length_b 13.640339
_cell_length_c 8.576025
_cell_angle_alpha 90.000000
_cell_angle_beta 90.000000
_cell_angle_gamma 90.000000
_cell_volume 2827.315346
_symmetry_space_group_name_H-M "P C C M"
_symmetry_group_IT_number 49
_symmetry_cell_setting 'orthorhombic'
loop_
_space_group_symop_operation_xyz
x,y,z
-x,-y,z
x,-y,1/2-z
-x,y,1/2-z
-x,-y,-z
x,y,-z
-x,y,1/2+z
x,-y,1/2+z
loop_
_atom_site_type_symbol
_atom_site_label
_atom_site_fract_x
_atom_site_fract_y
_atom_site_fract_z
Si Si1 0.831975 0.892067 0.316622
Si Si2 0.944612 0.890662 0.815573
Si Si3 0.274050 0.797120 0.315782
Si Si4 0.558416 0.284248 0.685321
Si Si5 0.665297 0.396313 0.317863
Si Si6 0.380423 0.104012 0.315049
O O1 0.838714 0.901007 0.500000
O O2 0.887707 0.842364 0.245545
O O3 0.782218 0.820446 0.273250
O O4 0.820231 0.000000 0.250000
O O5 0.000000 0.836584 0.750000
O O6 0.944152 0.000000 0.750000
O O7 0.946137 0.890202 0.000000
O O8 0.265684 0.808536 0.500000
O O9 0.290812 0.686650 0.267127
O O10 0.321625 0.871431 0.262648
O O11 0.500000 0.322130 0.750000
O O12 0.557639 0.270717 0.500000
O O13 0.604026 0.364272 0.738030
O O14 0.572749 0.180875 0.764448
O O15 0.683440 0.500000 0.250000
O O16 0.665233 0.407458 0.500000
O O17 0.374072 0.102279 0.500000
O O18 0.400426 0.000000 0.250000
#
# Coordination Sequence:
#
# PCOD8202285 Si02
#       6
#     8   8   8   8   8   8
#     4  11  20  30  45  68  96 131 168 203 239 280
#     4  10  17  27  41  60  89 127 167 206 240 277
#     4  10  20  35  50  70  97 125 157 197 237 281
#     4  10  21  37  53  74  98 123 154 192 230 275
#     4   9  20  36  55  74  96 121 150 188 236 286
#     4  11  21  34  51  71  95 127 159 193 232 277
#
# _framework density 16.977236000000001
#
# number of rings (size 3 to 8) (size 9 to 14) (size 15 to 20)
#    0.000    1.833    0.000    8.500    0.000    4.667 
#    0.000    3.333    0.000    0.000    0.000    0.000 
#    0.000    0.667    0.000    7.000    0.000    3.833 
#
# Total GULP energy -595188.452148 kJ/mol
# GULP energy per Si atom -12399.759420 kJ/mol
# Density = 1.693859 g / cm^3
# Si number density = 16.977236 Si / 1000 Ang^3
#
#
#
# Elastic Constant Matrix: (Units=GPa)
#
#
# Indices 1 2 3 4 5 6 
#
# 1 121.1203 29.7445 36.6620 0.0000 0.0000 0.0000
# 2 29.7445 81.2884 26.4488 0.0000 0.0000 0.0000
# 3 36.6620 26.4488 107.0097 0.0000 0.0000 0.0000
# 4 0.0000 0.0000 0.0000 23.8827 0.0000 0.0000
# 5 0.0000 0.0000 0.0000 0.0000 35.0511 0.0000
# 6 0.0000 0.0000 0.0000 0.0000 0.0000 1.3353
#
#
#
# Elastic Compliance Matrix: (Units=1/GPa)
#
#
# Indices 1 2 3 4 5 6 
#
# 1 0.009724 -0.002691 -0.002667 0.000000 0.000000 0.000000
# 2 -0.002691 0.014122 -0.002569 0.000000 0.000000 0.000000
# 3 -0.002667 -0.002569 0.010893 0.000000 0.000000 0.000000
# 4 0.000000 0.000000 0.000000 0.041871 0.000000 0.000000
# 5 0.000000 0.000000 0.000000 0.000000 0.028530 0.000000
# 6 0.000000 0.000000 0.000000 0.000000 0.000000 0.748878
#
#
# Mechanical properties :
#
#
# Convention : Reuss Voigt Hill
#
# Bulk Modulus (GPa) = 52.94326 55.01433 53.97879
# Shear Modulus (GPa) = 5.70668 26.49138 16.09903
#
# Velocity S-wave (km/s) = 1.83539 3.95448 3.08274
# Velocity P-wave (km/s) = 5.97864 7.30244 6.67345
#
# Compressibility (1/GPa) = 0.01888815
#
# Stress axis : x y z
#
# Youngs Moduli (GPa) = 102.83696 70.81073 91.79886
#
# Poissons Ratio (x) = 0.19052 0.24478
# Poissons Ratio (y) = 0.27669 0.23580
# Poissons Ratio (z) = 0.27422 0.18189
#
# Static dielectric constant tensor:
#      x y z
#    x 3.759890 0.000000 0.000000 
#    y 0.000000 2.614930 0.000000 
#    z 0.000000 0.000000 3.272050 
# 
# 
# High freq. dielectric constant tensor:
#      x y z
#    x 1.660480 0.000000 0.000000 
#    y 0.000000 1.612670 0.000000 
#    z 0.000000 0.000000 1.674750 
# 
# From -- ./inp_files/2898.got.cif
#   From: 2010.03.12/outbox.cif.g09.slc.cpg/sg49_2_cif.got.tgz:2898.got - 2010.04.14 03:58:27.
