data_PCOD8202203
_publ_section_title
;
Structure prediction by ZEFSAII (Michael W. Deem and Ramdas Pophale) SiO2 
 PCOD8202203
Probable space group: P C C M
;
_chemical_formula_sum "Si O2"
_cell_formula_units_Z 48
_cell_length_a 30.220562
_cell_length_b 10.067245
_cell_length_c 8.720868
_cell_angle_alpha 90.000000
_cell_angle_beta 90.000000
_cell_angle_gamma 90.000000
_cell_volume 2653.217709
_symmetry_space_group_name_H-M "P C C M"
_symmetry_group_IT_number 49
_symmetry_cell_setting 'orthorhombic'
loop_
_space_group_symop_operation_xyz
x,y,z
-x,-y,z
x,-y,1/2-z
-x,y,1/2-z
-x,-y,-z
x,y,-z
-x,y,1/2+z
x,-y,1/2+z
loop_
_atom_site_type_symbol
_atom_site_label
_atom_site_fract_x
_atom_site_fract_y
_atom_site_fract_z
Si Si1 0.392082 0.138933 0.678632
Si Si2 0.546717 0.357626 0.317986
Si Si3 0.772417 0.644603 0.178019
Si Si4 0.711469 0.137371 0.823235
Si Si5 0.130128 0.643874 0.321923
Si Si6 0.956072 0.352068 0.818541
O O1 0.404801 0.142903 0.500000
O O2 0.415733 0.255254 0.770394
O O3 0.340236 0.159338 0.705602
O O4 0.408027 0.000000 0.750000
O O5 0.559932 0.500000 0.250000
O O6 0.500000 0.308999 0.250000
O O7 0.543195 0.367884 0.500000
O O8 0.767683 0.500000 0.250000
O O9 0.736358 0.740129 0.249098
O O10 0.821532 0.709302 0.204340
O O11 0.762551 0.628470 0.000000
O O12 0.727825 0.000000 0.750000
O O13 0.723632 0.131251 0.000000
O O14 0.134314 0.500000 0.250000
O O15 0.118130 0.632730 0.500000
O O16 0.089417 0.721180 0.237054
O O17 0.954292 0.500000 0.750000
O O18 0.000000 0.280154 0.750000
O O19 0.959043 0.354215 0.000000
#
# Coordination Sequence:
#
# PCOD8202203 Si02
#       6
#     8   8   8   8   8   8
#     4  10  21  38  58  82 108 138 175 216 260 307
#     4  11  22  38  59  83 112 145 178 216 258 305
#     4  10  20  33  51  74 102 134 171 212 257 307
#     4  10  21  37  57  78 105 137 172 214 260 308
#     4   9  16  26  39  58  85 118 155 198 244 293
#     4  10  16  22  33  50  76 112 152 193 237 291
#
# _framework density 18.091241
#
# number of rings (size 3 to 8) (size 9 to 14) (size 15 to 20)
#    0.000    2.000    0.000    7.000    0.000    5.000 
#    0.000    1.667    0.000    0.000    0.000    0.000 
#    0.000    0.667    0.000    7.000    0.000    5.167 
#
# Total GULP energy -595012.978072 kJ/mol
# GULP energy per Si atom -12396.103710 kJ/mol
# Density = 1.805006 g / cm^3
# Si number density = 18.091241 Si / 1000 Ang^3
#
#
#
# Elastic Constant Matrix: (Units=GPa)
#
#
# Indices 1 2 3 4 5 6 
#
# 1 80.3230 54.1093 63.9280 0.0000 0.0000 0.0000
# 2 54.1093 79.1723 52.0353 0.0000 0.0000 0.0000
# 3 63.9280 52.0353 167.4408 0.0000 0.0000 0.0000
# 4 0.0000 0.0000 0.0000 27.0705 0.0000 0.0000
# 5 0.0000 0.0000 0.0000 0.0000 31.9115 0.0000
# 6 0.0000 0.0000 0.0000 0.0000 0.0000 -2.4647
#
#
#
# Elastic Compliance Matrix: (Units=1/GPa)
#
#
# Indices 1 2 3 4 5 6 
#
# 1 0.026807 -0.014570 -0.005707 0.000000 0.000000 0.000000
# 2 -0.014570 0.023792 -0.001831 0.000000 0.000000 0.000000
# 3 -0.005707 -0.001831 0.008720 0.000000 0.000000 0.000000
# 4 0.000000 0.000000 0.000000 0.036941 0.000000 0.000000
# 5 0.000000 0.000000 0.000000 0.000000 0.031337 0.000000
# 6 0.000000 0.000000 0.000000 0.000000 0.000000 -0.405730
#
#
# Mechanical properties :
#
#
# Convention : Reuss Voigt Hill
#
# Bulk Modulus (GPa) = 66.21170 74.12017 70.16593
# Shear Modulus (GPa) = -21.84502 21.76104 -0.04199
#
# Velocity S-wave (km/s) = -3.47867 3.47197 -0.15251
# Velocity P-wave (km/s) = 4.53248 7.55857 6.23199
#
# Compressibility (1/GPa) = 0.01510307
#
# Stress axis : x y z
#
# Youngs Moduli (GPa) = 37.30420 42.03147 114.67781
#
# Poissons Ratio (x) = 0.61240 0.65444
# Poissons Ratio (y) = 0.54352 0.20997
# Poissons Ratio (z) = 0.21289 0.07696
#
# Static dielectric constant tensor:
#      x y z
#    x 4.135490 0.000000 0.000000 
#    y 0.000000 2.951610 0.000000 
#    z 0.000000 0.000000 3.543930 
# 
# 
# High freq. dielectric constant tensor:
#      x y z
#    x 1.720400 0.000000 0.000000 
#    y 0.000000 1.648740 0.000000 
#    z 0.000000 0.000000 1.725580 
# 
# From -- ./inp_files/6868.got.cif
#   From: 2010.03.12/outbox.cif.g09.slc.cpg/sg49_4_cif.got.tgz:6868.got - 2010.04.14 03:58:27.
