data_PCOD8202632
_publ_section_title
;
Structure prediction by ZEFSAII (Michael W. Deem and Ramdas Pophale) SiO2 
 PCOD8202632
Probable space group: P C C M
;
_chemical_formula_sum "Si O2"
_cell_formula_units_Z 64
_cell_length_a 23.648920
_cell_length_b 18.996054
_cell_length_c 8.592191
_cell_angle_alpha 90.000000
_cell_angle_beta 90.000000
_cell_angle_gamma 90.000000
_cell_volume 3859.922903
_symmetry_space_group_name_H-M "P C C M"
_symmetry_group_IT_number 49
_symmetry_cell_setting 'orthorhombic'
loop_
_space_group_symop_operation_xyz
x,y,z
-x,-y,z
x,-y,1/2-z
-x,y,1/2-z
-x,-y,-z
x,y,-z
-x,y,1/2+z
x,-y,1/2+z
loop_
_atom_site_type_symbol
_atom_site_label
_atom_site_fract_x
_atom_site_fract_y
_atom_site_fract_z
Si Si1 0.277371 0.214780 0.815395
Si Si2 0.756084 0.925880 0.316599
Si Si3 0.337641 0.342592 0.316220
Si Si4 0.940132 0.789032 0.815707
Si Si5 0.886240 0.074201 0.183642
Si Si6 0.438860 0.574996 0.315710
Si Si7 0.166559 0.708100 0.317586
Si Si8 0.232546 0.424718 0.183359
O O1 0.282973 0.134444 0.759384
O O2 0.325734 0.262760 0.738257
O O3 0.217248 0.243717 0.751998
O O4 0.282929 0.220555 0.000000
O O5 0.748403 0.925261 0.500000
O O6 0.821168 0.913335 0.266890
O O7 0.734379 0.000000 0.250000
O O8 0.343538 0.346019 0.500000
O O9 0.396108 0.364698 0.237491
O O10 0.289066 0.396255 0.262572
O O11 0.925528 0.867046 0.759456
O O12 0.893233 0.734147 0.748074
O O13 0.000000 0.764057 0.750000
O O14 0.942620 0.788155 0.000000
O O15 0.907624 0.000000 0.250000
O O16 0.893912 0.075413 0.000000
O O17 0.418039 0.500000 0.250000
O O18 0.500000 0.595083 0.250000
O O19 0.441672 0.570263 0.500000
O O20 0.164542 0.719849 0.500000
O O21 0.179712 0.626733 0.276715
O O22 0.215646 0.500000 0.250000
O O23 0.243769 0.428290 0.000000
#
# Coordination Sequence:
#
# PCOD8202632 Si02
#       8
#     8   8   8   8   8   8   8   8
#     4  10  18  32  51  72  97 129 163 203 249 294
#     4  10  19  30  47  71  98 129 163 198 240 294
#     4  11  21  33  49  74 104 136 170 209 246 289
#     4  11  21  35  51  69  90 119 153 196 240 290
#     4  10  20  33  49  70  93 122 156 194 233 283
#     4  11  21  35  52  73 102 141 181 217 251 291
#     4   8  17  32  50  67  91 120 151 188 238 292
#     4  10  19  33  51  75  98 125 156 196 245 293
#
# _framework density 16.580641
#
# number of rings (size 3 to 8) (size 9 to 14) (size 15 to 20)
#    0.000    1.875    1.250    5.625    0.000    1.250 
#    0.000    3.125    0.000    0.375    0.000    2.625 
#    0.000    0.500    0.000    5.000    0.000    3.000 
#
# Total GULP energy -793678.365205 kJ/mol
# GULP energy per Si atom -12401.224456 kJ/mol
# Density = 1.654290 g / cm^3
# Si number density = 16.580641 Si / 1000 Ang^3
#
#
#
# Elastic Constant Matrix: (Units=GPa)
#
#
# Indices 1 2 3 4 5 6 
#
# 1 92.9160 55.0804 37.3665 0.0000 0.0000 0.0000
# 2 55.0804 114.8200 36.5551 0.0000 0.0000 0.0000
# 3 37.3665 36.5551 99.6429 0.0000 0.0000 0.0000
# 4 0.0000 0.0000 0.0000 27.7399 0.0000 0.0000
# 5 0.0000 0.0000 0.0000 0.0000 22.0734 0.0000
# 6 0.0000 0.0000 0.0000 0.0000 0.0000 26.2421
#
#
#
# Elastic Compliance Matrix: (Units=1/GPa)
#
#
# Indices 1 2 3 4 5 6 
#
# 1 0.016123 -0.006578 -0.003633 0.000000 0.000000 0.000000
# 2 -0.006578 0.012544 -0.002135 0.000000 0.000000 0.000000
# 3 -0.003633 -0.002135 0.012182 0.000000 0.000000 0.000000
# 4 0.000000 0.000000 0.000000 0.036049 0.000000 0.000000
# 5 0.000000 0.000000 0.000000 0.000000 0.045303 0.000000
# 6 0.000000 0.000000 0.000000 0.000000 0.000000 0.038107
#
#
# Mechanical properties :
#
#
# Convention : Reuss Voigt Hill
#
# Bulk Modulus (GPa) = 61.89389 62.82033 62.35711
# Shear Modulus (GPa) = 26.26249 27.10287 26.68268
#
# Velocity S-wave (km/s) = 3.98417 4.04742 4.01592
# Velocity P-wave (km/s) = 7.65342 7.73383 7.69373
#
# Compressibility (1/GPa) = 0.01615668
#
# Stress axis : x y z
#
# Youngs Moduli (GPa) = 62.02473 79.71639 82.09073
#
# Poissons Ratio (x) = 0.52434 0.29824
# Poissons Ratio (y) = 0.40797 0.17530
# Poissons Ratio (z) = 0.22534 0.17023
#
# Static dielectric constant tensor:
#      x y z
#    x 3.053460 0.000000 0.000000 
#    y 0.000000 3.252300 0.000000 
#    z 0.000000 0.000000 3.134810 
# 
# 
# High freq. dielectric constant tensor:
#      x y z
#    x 1.607020 0.000000 0.000000 
#    y 0.000000 1.636800 0.000000 
#    z 0.000000 0.000000 1.650440 
# 
# From -- ./inp_files/6001.got.cif
#   From: 2010.03.12/outbox.cif.g09.slc.cpg/sg49_4_cif.got.tgz:6001.got - 2010.04.14 03:58:27.
