data_PCOD8202502
_publ_section_title
;
Structure prediction by ZEFSAII (Michael W. Deem and Ramdas Pophale) SiO2 
 PCOD8202502
Probable space group: P C C M
;
_chemical_formula_sum "Si O2"
_cell_formula_units_Z 48
_cell_length_a 22.534356
_cell_length_b 13.231987
_cell_length_c 9.448716
_cell_angle_alpha 90.000000
_cell_angle_beta 90.000000
_cell_angle_gamma 90.000000
_cell_volume 2817.364333
_symmetry_space_group_name_H-M "P C C M"
_symmetry_group_IT_number 49
_symmetry_cell_setting 'orthorhombic'
loop_
_space_group_symop_operation_xyz
x,y,z
-x,-y,z
x,-y,1/2-z
-x,y,1/2-z
-x,-y,-z
x,y,-z
-x,y,1/2+z
x,-y,1/2+z
loop_
_atom_site_type_symbol
_atom_site_label
_atom_site_fract_x
_atom_site_fract_y
_atom_site_fract_z
Si Si1 0.559518 0.115176 0.000000
Si Si2 0.232219 0.776119 0.837908
Si Si3 0.353902 0.119166 0.259483
Si Si4 0.824088 0.397942 0.664192
Si Si5 0.055998 0.718602 0.334107
Si Si6 0.885718 0.896694 0.334218
Si Si7 0.428135 0.876183 0.500000
O O1 0.596465 0.152415 0.868526
O O2 0.494788 0.169390 0.000000
O O3 0.557944 0.994476 0.000000
O O4 0.292988 0.825558 0.789501
O O5 0.219594 0.683632 0.733536
O O6 0.182003 0.861053 0.822984
O O7 0.235648 0.737652 0.000000
O O8 0.340830 0.000000 0.250000
O O9 0.386032 0.161512 0.123154
O O10 0.815659 0.500000 0.750000
O O11 0.806660 0.412989 0.500000
O O12 0.891835 0.362653 0.678240
O O13 0.042356 0.741974 0.500000
O O14 0.071667 0.819663 0.247779
O O15 0.000000 0.671210 0.250000
O O16 0.904499 0.907375 0.500000
O O17 0.892331 0.000000 0.250000
#
# Coordination Sequence:
#
# PCOD8202502 Si02
#       7
#     4   8   8   8   8   8   4
#     4   9  16  30  42  64 101 143 184 213 253 289
#     4  10  20  34  51  73 103 135 172 214 257 306
#     4  10  18  29  45  71 103 143 182 214 252 293
#     4  10  22  39  59  80 103 129 160 205 260 311
#     4  10  21  37  56  80 105 134 169 206 247 299
#     4  10  20  34  51  73 103 140 176 215 255 294
#     4   9  18  26  44  66  99 143 182 221 245 291
#
# _framework density 17.037199999999999
#
# number of rings (size 3 to 8) (size 9 to 14) (size 15 to 20)
#    0.000    2.167    0.833    2.500    1.167    5.333 
#    0.000    3.333    0.000    0.000    0.000    0.000 
#    0.000    4.000    0.000    0.000    0.000    0.000 
#
# Total GULP energy -594853.372475 kJ/mol
# GULP energy per Si atom -12392.778593 kJ/mol
# Density = 1.699842 g / cm^3
# Si number density = 17.037200 Si / 1000 Ang^3
#
#
#
# Elastic Constant Matrix: (Units=GPa)
#
#
# Indices 1 2 3 4 5 6 
#
# 1 95.0538 11.4335 45.7514 0.0000 0.0000 0.0000
# 2 11.4335 57.7507 34.8351 0.0000 0.0000 0.0000
# 3 45.7514 34.8351 154.9058 0.0000 0.0000 0.0000
# 4 0.0000 0.0000 0.0000 28.0273 0.0000 0.0000
# 5 0.0000 0.0000 0.0000 0.0000 36.9104 0.0000
# 6 0.0000 0.0000 0.0000 0.0000 0.0000 12.8354
#
#
#
# Elastic Compliance Matrix: (Units=1/GPa)
#
#
# Indices 1 2 3 4 5 6 
#
# 1 0.012268 -0.000281 -0.003560 0.000000 0.000000 0.000000
# 2 -0.000281 0.020040 -0.004423 0.000000 0.000000 0.000000
# 3 -0.003560 -0.004423 0.008502 0.000000 0.000000 0.000000
# 4 0.000000 0.000000 0.000000 0.035680 0.000000 0.000000
# 5 0.000000 0.000000 0.000000 0.000000 0.027093 0.000000
# 6 0.000000 0.000000 0.000000 0.000000 0.000000 0.077910
#
#
# Mechanical properties :
#
#
# Convention : Reuss Voigt Hill
#
# Bulk Modulus (GPa) = 41.18694 54.63893 47.91294
# Shear Modulus (GPa) = 24.25846 29.93397 27.09622
#
# Velocity S-wave (km/s) = 3.77749 4.19618 3.99233
# Velocity P-wave (km/s) = 6.57671 7.45769 7.03101
#
# Compressibility (1/GPa) = 0.02427954
#
# Stress axis : x y z
#
# Youngs Moduli (GPa) = 81.51487 49.90099 117.62351
#
# Poissons Ratio (x) = 0.01404 0.41874
# Poissons Ratio (y) = 0.02294 0.52029
# Poissons Ratio (z) = 0.29019 0.22073
#
# Static dielectric constant tensor:
#      x y z
#    x 3.277050 0.000000 0.000000 
#    y 0.000000 2.806790 0.000000 
#    z 0.000000 0.000000 3.473820 
# 
# 
# High freq. dielectric constant tensor:
#      x y z
#    x 1.663060 0.000000 0.000000 
#    y 0.000000 1.613610 0.000000 
#    z 0.000000 0.000000 1.684050 
# 
# From -- ./inp_files/6339.got.cif
#   From: 2010.03.12/outbox.cif.g09.slc.cpg/sg49_4_cif.got.tgz:6339.got - 2010.04.14 03:58:27.
