data_PCOD8202405
_publ_section_title
;
Structure prediction by ZEFSAII (Michael W. Deem and Ramdas Pophale) SiO2 
 PCOD8202405
Probable space group: P C C M
;
_chemical_formula_sum "Si O2"
_cell_formula_units_Z 64
_cell_length_a 28.527922
_cell_length_b 13.730512
_cell_length_c 8.809952
_cell_angle_alpha 90.000000
_cell_angle_beta 90.000000
_cell_angle_gamma 90.000000
_cell_volume 3450.884411
_symmetry_space_group_name_H-M "P C C M"
_symmetry_group_IT_number 49
_symmetry_cell_setting 'orthorhombic'
loop_
_space_group_symop_operation_xyz
x,y,z
-x,-y,z
x,-y,1/2-z
-x,y,1/2-z
-x,-y,-z
x,y,-z
-x,y,1/2+z
x,-y,1/2+z
loop_
_atom_site_type_symbol
_atom_site_label
_atom_site_fract_x
_atom_site_fract_y
_atom_site_fract_z
Si Si1 0.141095 0.897812 0.674934
Si Si2 0.642663 0.702994 0.175920
Si Si3 0.691099 0.899533 0.178416
Si Si4 0.948214 0.595090 0.319476
Si Si5 0.726644 0.399495 0.822449
Si Si6 0.950693 0.212092 0.675566
Si Si7 0.452079 0.396386 0.178159
Si Si8 0.223216 0.204207 0.679069
O O1 0.155611 0.901524 0.500000
O O2 0.085882 0.875675 0.693912
O O3 0.171393 0.814488 0.757128
O O4 0.152768 0.000000 0.750000
O O5 0.653912 0.814654 0.220595
O O6 0.674592 0.627834 0.268379
O O7 0.588639 0.681265 0.214973
O O8 0.653731 0.684579 0.000000
O O9 0.741593 0.873463 0.246961
O O10 0.672429 0.000000 0.250000
O O11 0.696418 0.912823 0.000000
O O12 0.921780 0.500000 0.250000
O O13 0.948348 0.589368 0.500000
O O14 0.926078 0.695867 0.260486
O O15 0.000000 0.596871 0.250000
O O16 0.744321 0.500000 0.750000
O O17 0.762535 0.314009 0.774788
O O18 0.725187 0.414594 0.000000
O O19 0.959761 0.238615 0.500000
O O20 0.000000 0.180562 0.750000
O O21 0.438724 0.500000 0.250000
O O22 0.500000 0.355002 0.250000
O O23 0.459133 0.410967 0.000000
O O24 0.224513 0.189502 0.500000
#
# Coordination Sequence:
#
# PCOD8202405 Si02
#       8
#     8   8   8   8   8   8   8   8
#     4  11  24  40  59  80 104 135 170 210 255 304
#     4   9  19  33  50  73 103 138 176 218 262 309
#     4  10  19  33  53  77 104 133 168 214 263 309
#     4  10  17  28  49  75 103 133 164 200 241 286
#     4  10  20  33  53  80 109 141 174 209 253 306
#     4  10  21  37  56  80 107 136 171 210 253 299
#     4  10  19  31  47  70  99 134 174 215 261 310
#     4  10  21  37  56  79 106 137 173 209 250 302
#
# _framework density 18.545968999999999
#
# number of rings (size 3 to 8) (size 9 to 14) (size 15 to 20)
#    0.000    2.000    0.000    5.625    0.000    6.250 
#    0.000    1.875    0.000    1.875    0.000    2.625 
#    0.000    0.000    0.000    0.000    0.000    0.000 
#
# Total GULP energy -793618.480883 kJ/mol
# GULP energy per Si atom -12400.288764 kJ/mol
# Density = 1.850376 g / cm^3
# Si number density = 18.545969 Si / 1000 Ang^3
#
#
#
# Elastic Constant Matrix: (Units=GPa)
#
#
# Indices 1 2 3 4 5 6 
#
# 1 99.3414 49.7535 44.8018 0.0000 0.0000 0.0000
# 2 49.7535 114.6060 51.7605 0.0000 0.0000 0.0000
# 3 44.8018 51.7605 117.5138 0.0000 0.0000 0.0000
# 4 0.0000 0.0000 0.0000 31.3739 0.0000 0.0000
# 5 0.0000 0.0000 0.0000 0.0000 23.9092 0.0000
# 6 0.0000 0.0000 0.0000 0.0000 0.0000 24.7604
#
#
#
# Elastic Compliance Matrix: (Units=1/GPa)
#
#
# Indices 1 2 3 4 5 6 
#
# 1 0.013804 -0.004514 -0.003275 0.000000 0.000000 0.000000
# 2 -0.004514 0.012368 -0.003727 0.000000 0.000000 0.000000
# 3 -0.003275 -0.003727 0.011400 0.000000 0.000000 0.000000
# 4 0.000000 0.000000 0.000000 0.031874 0.000000 0.000000
# 5 0.000000 0.000000 0.000000 0.000000 0.041825 0.000000
# 6 0.000000 0.000000 0.000000 0.000000 0.000000 0.040387
#
#
# Mechanical properties :
#
#
# Convention : Reuss Voigt Hill
#
# Bulk Modulus (GPa) = 68.76948 69.34365 69.05657
# Shear Modulus (GPa) = 27.84980 28.35171 28.10075
#
# Velocity S-wave (km/s) = 3.87933 3.91413 3.89677
# Velocity P-wave (km/s) = 7.56483 7.60911 7.58700
#
# Compressibility (1/GPa) = 0.01454133
#
# Stress axis : x y z
#
# Youngs Moduli (GPa) = 72.44463 80.85208 87.72217
#
# Poissons Ratio (x) = 0.36494 0.28725
# Poissons Ratio (y) = 0.32699 0.32694
# Poissons Ratio (z) = 0.23722 0.30133
#
# Static dielectric constant tensor:
#      x y z
#    x 3.230200 0.000000 0.000000 
#    y 0.000000 3.765920 0.000000 
#    z 0.000000 0.000000 3.528560 
# 
# 
# High freq. dielectric constant tensor:
#      x y z
#    x 1.694690 0.000000 0.000000 
#    y 0.000000 1.720960 0.000000 
#    z 0.000000 0.000000 1.737260 
# 
# From -- ./inp_files/7001.got.cif
#   From: 2010.03.12/outbox.cif.g09.slc.cpg/sg49_4_cif.got.tgz:7001.got - 2010.04.14 03:58:27.
