data_PCOD8202443
_publ_section_title
;
Structure prediction by ZEFSAII (Michael W. Deem and Ramdas Pophale) SiO2 
 PCOD8202443
Probable space group: P C C M
;
_chemical_formula_sum "Si O2"
_cell_formula_units_Z 64
_cell_length_a 18.691356
_cell_length_b 12.352927
_cell_length_c 17.849544
_cell_angle_alpha 90.000000
_cell_angle_beta 90.000000
_cell_angle_gamma 90.000000
_cell_volume 4121.333981
_symmetry_space_group_name_H-M "P C C M"
_symmetry_group_IT_number 49
_symmetry_cell_setting 'orthorhombic'
loop_
_space_group_symop_operation_xyz
x,y,z
-x,-y,z
x,-y,1/2-z
-x,y,1/2-z
-x,-y,-z
x,y,-z
-x,y,1/2+z
x,-y,1/2+z
loop_
_atom_site_type_symbol
_atom_site_label
_atom_site_fract_x
_atom_site_fract_y
_atom_site_fract_z
Si Si1 0.778260 0.235461 0.306423
Si Si2 0.423733 0.444713 0.415011
Si Si3 0.670879 0.586009 0.188701
Si Si4 0.689049 0.099417 0.196193
Si Si5 0.773083 0.038764 0.417073
Si Si6 0.426244 0.267800 0.289318
Si Si7 0.077297 0.820872 0.748922
Si Si8 0.922735 0.986628 0.630698
O O1 0.741699 0.346665 0.334002
O O2 0.742550 0.186368 0.232126
O O3 0.768827 0.151354 0.373556
O O4 0.860445 0.258708 0.281519
O O5 0.500000 0.500000 0.414989
O O6 0.401491 0.412714 0.500000
O O7 0.363443 0.526323 0.382919
O O8 0.432993 0.339654 0.363608
O O9 0.695906 0.500000 0.250000
O O10 0.613711 0.667572 0.223854
O O11 0.613839 0.159503 0.182796
O O12 0.673671 0.000000 0.250000
O O13 0.724823 0.054715 0.120471
O O14 0.742434 0.056770 0.500000
O O15 0.856093 0.003608 0.424296
O O16 0.500000 0.233675 0.250000
O O17 0.076208 0.923824 0.695061
O O18 0.000000 0.760266 0.750000
O O19 0.090123 0.868229 0.832281
O O20 0.000000 0.000000 0.588704
#
# Coordination Sequence:
#
# PCOD8202443 Si02
#       8
#     8   8   8   8   8   8   8   8
#     4   9  16  29  45  64  86 118 156 186 222 273
#     4  10  19  31  48  71  96 116 139 185 246 289
#     4   9  18  30  49  69  86 112 144 190 231 271
#     4   9  18  31  46  63  88 123 153 184 219 261
#     4  10  18  27  41  63  95 126 151 184 221 267
#     4  10  18  31  51  69  87 115 152 191 222 271
#     4   8  12  21  41  62  83 116 154 190 223 261
#     4   8  13  22  37  59  87 120 155 188 224 261
#
# _framework density 15.528953
#
# number of rings (size 3 to 8) (size 9 to 14) (size 15 to 20)
#    0.000    2.875    2.500    0.750    0.000    1.500 
#    0.000    0.000    0.000    0.375    0.000    3.500 
#    0.000    0.000    0.000   11.750    0.000    0.000 
#
# Total GULP energy -792978.516849 kJ/mol
# GULP energy per Si atom -12390.289326 kJ/mol
# Density = 1.549361 g / cm^3
# Si number density = 15.528953 Si / 1000 Ang^3
#
#
#
# Elastic Constant Matrix: (Units=GPa)
#
#
# Indices 1 2 3 4 5 6 
#
# 1 116.6738 50.7809 41.8153 0.0000 0.0000 0.0000
# 2 50.7809 51.8313 19.7541 0.0000 0.0000 0.0000
# 3 41.8153 19.7541 82.4645 0.0000 0.0000 0.0000
# 4 0.0000 0.0000 0.0000 6.5891 0.0000 0.0000
# 5 0.0000 0.0000 0.0000 0.0000 11.9632 0.0000
# 6 0.0000 0.0000 0.0000 0.0000 0.0000 24.3629
#
#
#
# Elastic Compliance Matrix: (Units=1/GPa)
#
#
# Indices 1 2 3 4 5 6 
#
# 1 0.016614 -0.014380 -0.004980 0.000000 0.000000 0.000000
# 2 -0.014380 0.033677 -0.000776 0.000000 0.000000 0.000000
# 3 -0.004980 -0.000776 0.014838 0.000000 0.000000 0.000000
# 4 0.000000 0.000000 0.000000 0.151767 0.000000 0.000000
# 5 0.000000 0.000000 0.000000 0.000000 0.083590 0.000000
# 6 0.000000 0.000000 0.000000 0.000000 0.000000 0.041046
#
#
# Mechanical properties :
#
#
# Convention : Reuss Voigt Hill
#
# Bulk Modulus (GPa) = 40.22825 52.85225 46.54025
# Shear Modulus (GPa) = 12.81762 17.82431 15.32097
#
# Velocity S-wave (km/s) = 2.87610 3.39161 3.14444
# Velocity P-wave (km/s) = 6.08201 7.03178 6.57407
#
# Compressibility (1/GPa) = 0.02485815
#
# Stress axis : x y z
#
# Youngs Moduli (GPa) = 60.18928 29.69369 67.39679
#
# Poissons Ratio (x) = 0.42698 0.33564
# Poissons Ratio (y) = 0.86550 0.05229
# Poissons Ratio (z) = 0.29974 0.02304
#
# Static dielectric constant tensor:
#      x y z
#    x 3.262650 0.000000 0.000000 
#    y 0.000000 2.816330 0.000000 
#    z 0.000000 0.000000 2.813980 
# 
# 
# High freq. dielectric constant tensor:
#      x y z
#    x 1.601360 0.000000 0.000000 
#    y 0.000000 1.562770 0.000000 
#    z 0.000000 0.000000 1.577590 
# 
# From -- ./inp_files/18231.got.cif
#   From: 2010.03.12/outbox.cif.g09.slc.cpg/sg49_10_cif.got.tgz:18231.got - 2010.04.14 03:58:27.
