data_PCOD8202503
_publ_section_title
;
Structure prediction by ZEFSAII (Michael W. Deem and Ramdas Pophale) SiO2 
 PCOD8202503
Probable space group: P C C M
;
_chemical_formula_sum "Si O2"
_cell_formula_units_Z 56
_cell_length_a 21.247896
_cell_length_b 18.430131
_cell_length_c 8.830522
_cell_angle_alpha 90.000000
_cell_angle_beta 90.000000
_cell_angle_gamma 90.000000
_cell_volume 3458.045721
_symmetry_space_group_name_H-M "P C C M"
_symmetry_group_IT_number 49
_symmetry_cell_setting 'orthorhombic'
loop_
_space_group_symop_operation_xyz
x,y,z
-x,-y,z
x,-y,1/2-z
-x,y,1/2-z
-x,-y,-z
x,y,-z
-x,y,1/2+z
x,-y,1/2+z
loop_
_atom_site_type_symbol
_atom_site_label
_atom_site_fract_x
_atom_site_fract_y
_atom_site_fract_z
Si Si1 0.756128 0.717147 0.827566
Si Si2 0.673473 0.842568 0.171113
Si Si3 0.434357 0.923590 0.821633
Si Si4 0.867205 0.206525 0.176838
Si Si5 0.064523 0.332418 0.820344
Si Si6 0.183687 0.425032 0.827630
Si Si7 0.195361 0.078077 0.176471
O O1 0.688217 0.756015 0.807568
O O2 0.802597 0.750563 0.704557
O O3 0.756532 0.629912 0.805369
O O4 0.781072 0.734630 0.000000
O O5 0.618585 0.864012 0.286360
O O6 0.736467 0.887101 0.208548
O O7 0.650839 0.858706 0.000000
O O8 0.500000 0.897452 0.750000
O O9 0.413125 0.000000 0.750000
O O10 0.442394 0.932753 0.000000
O O11 0.923339 0.251395 0.256261
O O12 0.859825 0.126603 0.249042
O O13 0.881423 0.199564 0.000000
O O14 0.120247 0.386495 0.765782
O O15 0.000000 0.362899 0.750000
O O16 0.059868 0.328899 0.000000
O O17 0.200258 0.500000 0.750000
O O18 0.172578 0.444720 0.000000
O O19 0.193630 0.000000 0.250000
O O20 0.181614 0.071495 0.000000
#
# Coordination Sequence:
#
# PCOD8202503 Si02
#       7
#     8   8   8   8   8   8   8
#     4   8  16  31  47  64  89 120 150 183 223 266
#     4   9  17  30  47  65  88 118 153 190 226 263
#     4  11  21  32  45  62  89 124 161 195 230 268
#     4  10  18  29  46  66  87 113 145 182 225 269
#     4  10  20  34  49  66  88 116 151 185 219 262
#     4   9  18  31  47  68  95 123 148 178 219 264
#     4  10  19  30  45  66  91 117 146 185 229 271
#
# _framework density 16.194118
#
# number of rings (size 3 to 8) (size 9 to 14) (size 15 to 20)
#    0.000    2.429    0.000    6.000    0.000    7.143 
#    0.000    1.429    0.000    0.429    0.000    3.000 
#    0.000    0.571    0.000    6.571    0.000    2.000 
#
# Total GULP energy -694088.537434 kJ/mol
# GULP energy per Si atom -12394.438168 kJ/mol
# Density = 1.615726 g / cm^3
# Si number density = 16.194118 Si / 1000 Ang^3
#
#
#
# Elastic Constant Matrix: (Units=GPa)
#
#
# Indices 1 2 3 4 5 6 
#
# 1 51.6850 41.3227 25.4538 0.0000 0.0000 0.0000
# 2 41.3227 121.2780 44.5517 0.0000 0.0000 0.0000
# 3 25.4538 44.5517 91.7183 0.0000 0.0000 0.0000
# 4 0.0000 0.0000 0.0000 27.9847 0.0000 0.0000
# 5 0.0000 0.0000 0.0000 0.0000 21.3233 0.0000
# 6 0.0000 0.0000 0.0000 0.0000 0.0000 19.9064
#
#
#
# Elastic Compliance Matrix: (Units=1/GPa)
#
#
# Indices 1 2 3 4 5 6 
#
# 1 0.027621 -0.008028 -0.003766 0.000000 0.000000 0.000000
# 2 -0.008028 0.012370 -0.003781 0.000000 0.000000 0.000000
# 3 -0.003766 -0.003781 0.013784 0.000000 0.000000 0.000000
# 4 0.000000 0.000000 0.000000 0.035734 0.000000 0.000000
# 5 0.000000 0.000000 0.000000 0.000000 0.046897 0.000000
# 6 0.000000 0.000000 0.000000 0.000000 0.000000 0.050235
#
#
# Mechanical properties :
#
#
# Convention : Reuss Voigt Hill
#
# Bulk Modulus (GPa) = 44.19622 54.14863 49.17243
# Shear Modulus (GPa) = 22.18951 24.06642 23.12796
#
# Velocity S-wave (km/s) = 3.70566 3.85921 3.78321
# Velocity P-wave (km/s) = 6.75722 7.30533 7.03661
#
# Compressibility (1/GPa) = 0.02262637
#
# Stress axis : x y z
#
# Youngs Moduli (GPa) = 36.20449 80.84335 72.54532
#
# Poissons Ratio (x) = 0.64899 0.27320
# Poissons Ratio (y) = 0.29064 0.27426
# Poissons Ratio (z) = 0.13634 0.30564
#
# Static dielectric constant tensor:
#      x y z
#    x 2.879540 0.000000 0.000000 
#    y 0.000000 3.158660 0.000000 
#    z 0.000000 0.000000 3.070160 
# 
# 
# High freq. dielectric constant tensor:
#      x y z
#    x 1.585020 0.000000 0.000000 
#    y 0.000000 1.613270 0.000000 
#    z 0.000000 0.000000 1.632540 
# 
# From -- ./inp_files/5193.got.cif
#   From: 2010.03.12/outbox.cif.g09.slc.cpg/sg49_3_cif.got.tgz:5193.got - 2010.04.14 03:58:27.
