data_PCOD8202461
_publ_section_title
;
Structure prediction by ZEFSAII (Michael W. Deem and Ramdas Pophale) SiO2 
 PCOD8202461
Probable space group: P C C M
;
_chemical_formula_sum "Si O2"
_cell_formula_units_Z 64
_cell_length_a 21.995698
_cell_length_b 21.490231
_cell_length_c 8.777249
_cell_angle_alpha 90.000000
_cell_angle_beta 90.000000
_cell_angle_gamma 90.000000
_cell_volume 4148.940923
_symmetry_space_group_name_H-M "P C C M"
_symmetry_group_IT_number 49
_symmetry_cell_setting 'orthorhombic'
loop_
_space_group_symop_operation_xyz
x,y,z
-x,-y,z
x,-y,1/2-z
-x,y,1/2-z
-x,-y,-z
x,y,-z
-x,y,1/2+z
x,-y,1/2+z
loop_
_atom_site_type_symbol
_atom_site_label
_atom_site_fract_x
_atom_site_fract_y
_atom_site_fract_z
Si Si1 0.336258 0.662823 0.333193
Si Si2 0.856999 0.170471 0.818137
Si Si3 0.063574 0.068056 0.182404
Si Si4 0.749530 0.252702 0.832965
Si Si5 0.847757 0.360526 0.831375
Si Si6 0.434007 0.433806 0.816296
Si Si7 0.064197 0.276529 0.178504
Si Si8 0.762977 0.557863 0.832369
O O1 0.357223 0.684555 0.500000
O O2 0.312691 0.726346 0.252293
O O3 0.391760 0.623742 0.257380
O O4 0.280947 0.615788 0.344261
O O5 0.877129 0.106897 0.735687
O O6 0.789592 0.194903 0.762597
O O7 0.907586 0.219856 0.771436
O O8 0.857249 0.162429 0.000000
O O9 0.000000 0.095856 0.250000
O O10 0.073282 0.000000 0.250000
O O11 0.059561 0.066517 0.000000
O O12 0.793756 0.311055 0.842224
O O13 0.727798 0.232354 0.000000
O O14 0.897073 0.338474 0.708654
O O15 0.821768 0.425310 0.768785
O O16 0.876187 0.369799 0.000000
O O17 0.410505 0.500000 0.750000
O O18 0.500000 0.419169 0.750000
O O19 0.434019 0.438027 0.000000
O O20 0.000000 0.290447 0.250000
O O21 0.061436 0.260692 0.000000
O O22 0.729778 0.500000 0.750000
O O23 0.783958 0.537622 0.000000
#
# Coordination Sequence:
#
# PCOD8202461 Si02
#       8
#     8   8   8   8   8   8   8   8
#     4   9  18  29  42  60  83 106 135 171 209 248
#     4  10  19  32  46  64  87 110 138 173 209 249
#     4  11  21  33  47  64  87 118 151 185 219 255
#     4   8  16  28  44  62  81 104 131 165 208 249
#     4   9  17  30  43  58  78  98 121 155 195 239
#     4  10  19  30  42  59  82 113 147 182 216 253
#     4  11  20  30  44  62  80 101 127 158 197 241
#     4  10  18  28  42  60  78  99 124 156 196 241
#
# _framework density 15.425623
#
# number of rings (size 3 to 8) (size 9 to 14) (size 15 to 20)
#    0.000    2.250    0.000    6.000    0.000    5.000 
#    0.000    0.000    0.000    0.375    0.000    2.625 
#    0.000    0.000    0.000    0.000    0.000    0.625 
#
# Total GULP energy -792859.957007 kJ/mol
# GULP energy per Si atom -12388.436828 kJ/mol
# Density = 1.539051 g / cm^3
# Si number density = 15.425623 Si / 1000 Ang^3
#
#
#
# Elastic Constant Matrix: (Units=GPa)
#
#
# Indices 1 2 3 4 5 6 
#
# 1 69.0563 34.2729 26.4236 0.0000 0.0000 0.0000
# 2 34.2729 52.8036 29.6571 0.0000 0.0000 0.0000
# 3 26.4236 29.6571 92.0339 0.0000 0.0000 0.0000
# 4 0.0000 0.0000 0.0000 22.6132 0.0000 0.0000
# 5 0.0000 0.0000 0.0000 0.0000 19.7418 0.0000
# 6 0.0000 0.0000 0.0000 0.0000 0.0000 29.3233
#
#
#
# Elastic Compliance Matrix: (Units=1/GPa)
#
#
# Indices 1 2 3 4 5 6 
#
# 1 0.021679 -0.012912 -0.002063 0.000000 0.000000 0.000000
# 2 -0.012912 0.030814 -0.006222 0.000000 0.000000 0.000000
# 3 -0.002063 -0.006222 0.013463 0.000000 0.000000 0.000000
# 4 0.000000 0.000000 0.000000 0.044222 0.000000 0.000000
# 5 0.000000 0.000000 0.000000 0.000000 0.050654 0.000000
# 6 0.000000 0.000000 0.000000 0.000000 0.000000 0.034103
#
#
# Mechanical properties :
#
#
# Convention : Reuss Voigt Hill
#
# Bulk Modulus (GPa) = 42.44465 43.84456 43.14461
# Shear Modulus (GPa) = 20.39297 22.57166 21.48231
#
# Velocity S-wave (km/s) = 3.63990 3.82940 3.73586
# Velocity P-wave (km/s) = 6.72611 6.93090 6.82927
#
# Compressibility (1/GPa) = 0.02356009
#
# Stress axis : x y z
#
# Youngs Moduli (GPa) = 46.12810 32.45326 74.27750
#
# Poissons Ratio (x) = 0.41904 0.15326
# Poissons Ratio (y) = 0.59561 0.46217
# Poissons Ratio (z) = 0.09518 0.20193
#
# Static dielectric constant tensor:
#      x y z
#    x 2.915360 0.000000 0.000000 
#    y 0.000000 2.875340 0.000000 
#    z 0.000000 0.000000 3.266850 
# 
# 
# High freq. dielectric constant tensor:
#      x y z
#    x 1.560760 0.000000 0.000000 
#    y 0.000000 1.558090 0.000000 
#    z 0.000000 0.000000 1.607590 
# 
# From -- ./inp_files/6134.got.cif
#   From: 2010.03.12/outbox.cif.g09.slc.cpg/sg49_4_cif.got.tgz:6134.got - 2010.04.14 03:58:27.
