data_PCOD8202765
_publ_section_title
;
Structure prediction by ZEFSAII (Michael W. Deem and Ramdas Pophale) SiO2 
 PCOD8202765
Probable space group: P C C M
;
_chemical_formula_sum "Si O2"
_cell_formula_units_Z 64
_cell_length_a 27.088066
_cell_length_b 5.028541
_cell_length_c 27.031355
_cell_angle_alpha 90.000000
_cell_angle_beta 90.000000
_cell_angle_gamma 90.000000
_cell_volume 3682.034136
_symmetry_space_group_name_H-M "P C C M"
_symmetry_group_IT_number 49
_symmetry_cell_setting 'orthorhombic'
loop_
_space_group_symop_operation_xyz
x,y,z
-x,-y,z
x,-y,1/2-z
-x,y,1/2-z
-x,-y,-z
x,y,-z
-x,y,1/2+z
x,-y,1/2+z
loop_
_atom_site_type_symbol
_atom_site_label
_atom_site_fract_x
_atom_site_fract_y
_atom_site_fract_z
Si Si1 0.607341 0.950875 0.865269
Si Si2 0.467283 0.256037 0.054759
Si Si3 0.798551 0.196279 0.443829
Si Si4 0.718619 0.927323 0.865098
Si Si5 0.394933 0.562837 0.802123
Si Si6 0.861357 0.321345 0.056095
Si Si7 0.716081 0.592170 0.698419
Si Si8 0.031300 0.759896 0.057201
O O1 0.578336 0.830729 0.911616
O O2 0.663446 0.016569 0.882055
O O3 0.607962 0.724668 0.825037
O O4 0.581745 0.213671 0.839496
O O5 0.500000 0.500000 0.077208
O O6 0.500000 0.000000 0.049348
O O7 0.447771 0.341537 0.000000
O O8 0.780677 0.252058 0.500000
O O9 0.751236 0.096982 0.413889
O O10 0.824745 0.458080 0.419638
O O11 0.838778 0.968043 0.441796
O O12 0.718765 0.641086 0.840740
O O13 0.740789 0.146355 0.826549
O O14 0.423404 0.500000 0.750000
O O15 0.340383 0.674020 0.789369
O O16 0.915091 0.293891 0.082358
O O17 0.869198 0.423240 0.000000
O O18 0.742080 0.500000 0.750000
O O19 0.000000 0.500000 0.064452
O O20 0.040786 0.834547 0.000000
O O21 0.000000 0.000000 0.082213
#
# Coordination Sequence:
#
# PCOD8202765 Si02
#       8
#     8   8   8   8   8   8   8   8
#     4  10  19  32  52  74  95 120 153 194 230 271
#     4  10  21  37  55  73  94 123 158 196 241 284
#     4  10  19  30  42  59  90 128 160 188 221 272
#     4  10  19  30  47  71  93 120 158 190 226 274
#     4   9  17  30  50  75  99 121 145 179 228 280
#     4   9  17  28  40  55  81 120 158 191 232 273
#     4   9  17  30  47  68  93 117 148 192 233 272
#     4   9  15  23  37  56  75 100 147 205 240 260
#
# _framework density 17.381696000000002
#
# number of rings (size 3 to 8) (size 9 to 14) (size 15 to 20)
#    0.000    2.500    0.000    3.000    0.000    6.500 
#    0.000    0.000    0.000   14.625    0.000    0.000 
#    0.000    0.000    0.000    0.000    0.000  131.250 
#
# Total GULP energy -792954.441507 kJ/mol
# GULP energy per Si atom -12389.913149 kJ/mol
# Density = 1.734213 g / cm^3
# Si number density = 17.381696 Si / 1000 Ang^3
#
#
#
# Elastic Constant Matrix: (Units=GPa)
#
#
# Indices 1 2 3 4 5 6 
#
# 1 71.0191 21.6528 41.4365 0.0000 0.0000 0.0000
# 2 21.6528 96.8246 17.5864 0.0000 0.0000 0.0000
# 3 41.4365 17.5864 68.0921 0.0000 0.0000 0.0000
# 4 0.0000 0.0000 0.0000 24.5205 0.0000 0.0000
# 5 0.0000 0.0000 0.0000 0.0000 1.1996 0.0000
# 6 0.0000 0.0000 0.0000 0.0000 0.0000 24.5305
#
#
#
# Elastic Compliance Matrix: (Units=1/GPa)
#
#
# Indices 1 2 3 4 5 6 
#
# 1 0.022470 -0.002666 -0.012985 0.000000 0.000000 0.000000
# 2 -0.002666 0.011153 -0.001258 0.000000 0.000000 0.000000
# 3 -0.012985 -0.001258 0.022913 0.000000 0.000000 0.000000
# 4 0.000000 0.000000 0.000000 0.040782 0.000000 0.000000
# 5 0.000000 0.000000 0.000000 0.000000 0.833614 0.000000
# 6 0.000000 0.000000 0.000000 0.000000 0.000000 0.040766
#
#
# Mechanical properties :
#
#
# Convention : Reuss Voigt Hill
#
# Bulk Modulus (GPa) = 44.02054 44.14304 44.08179
# Shear Modulus (GPa) = 4.93540 20.40079 12.66810
#
# Velocity S-wave (km/s) = 1.68689 3.42964 2.70259
# Velocity P-wave (km/s) = 5.40138 6.41363 5.92915
#
# Compressibility (1/GPa) = 0.02271667
#
# Stress axis : x y z
#
# Youngs Moduli (GPa) = 44.50401 89.66431 43.64382
#
# Poissons Ratio (x) = 0.23908 0.56672
# Poissons Ratio (y) = 0.11867 0.05490
# Poissons Ratio (z) = 0.57789 0.11278
#
# Static dielectric constant tensor:
#      x y z
#    x 3.101920 0.000000 0.000000 
#    y 0.000000 3.458910 0.000000 
#    z 0.000000 0.000000 3.124980 
# 
# 
# High freq. dielectric constant tensor:
#      x y z
#    x 1.639750 0.000000 0.000000 
#    y 0.000000 1.698930 0.000000 
#    z 0.000000 0.000000 1.630830 
# 
# From -- ./inp_files/23432.got.cif
#   From: 2010.03.12/outbox.cif.g09.slc.cpg/sg49_12_cif.got.tgz:23432.got - 2010.04.14 03:58:27.
