data_PCOD8202098
_publ_section_title
;
Structure prediction by ZEFSAII (Michael W. Deem and Ramdas Pophale) SiO2 
 PCOD8202098
Probable space group: P N N N
;
_chemical_formula_sum "Si O2"
_cell_formula_units_Z 36
_cell_length_a 11.461096
_cell_length_b 5.330253
_cell_length_c 25.788434
_cell_angle_alpha 90.000000
_cell_angle_beta 90.000000
_cell_angle_gamma 90.000000
_cell_volume 1575.429393
_symmetry_space_group_name_H-M "P N N N"
_symmetry_group_IT_number 48
_space_group.IT_coordinate_system_code '2'
_symmetry_cell_setting 'orthorhombic'
loop_
_space_group_symop_operation_xyz
x,y,z
1/2-x,1/2-y,z
x,1/2-y,1/2-z
1/2-x,y,1/2-z
-x,-y,-z
1/2+x,1/2+y,-z
-x,1/2+y,1/2+z
1/2+x,-y,1/2+z
loop_
_atom_site_type_symbol
_atom_site_label
_atom_site_fract_x
_atom_site_fract_y
_atom_site_fract_z
Si Si1 0.010436 0.769297 0.689863
Si Si2 0.115324 0.785548 0.152664
Si Si3 0.825635 0.534785 0.036316
Si Si4 0.750000 0.250000 0.370713
Si Si5 0.058197 0.795169 0.036539
O O1 0.039209 0.750000 0.750000
O O2 0.134134 0.720693 0.662525
O O3 0.926380 0.532939 0.682027
O O4 0.954732 0.033456 0.670247
O O5 0.250000 0.750000 0.167111
O O6 0.103889 0.872228 0.092778
O O7 0.750000 0.750000 0.007688
O O8 0.758480 0.486102 0.090325
O O9 0.960004 0.589428 0.049008
O O10 0.831158 0.305086 0.995964
O O11 0.000000 0.000000 0.000000
#
# Coordination Sequence:
#
# PCOD8202098 Si02
#       5
#     8   8   8   4   8
#     4  12  28  52  80 109 147 203 262 326 394 444
#     4  12  28  49  76 113 153 197 260 318 382 466
#     4  11  23  40  69 101 152 195 239 297 373 450
#     4  12  25  48  72 116 152 194 253 324 378 468
#     4  11  25  43  66 108 150 202 245 298 371 466
#
# _framework density 22.850915000000001
#
# number of rings (size 3 to 8) (size 9 to 14) (size 15 to 20)
#    0.000    0.444    2.222    5.667    7.778    2.667 
#    0.000    2.222    0.000    0.000    0.000    0.000 
#    0.000    0.000    0.000    0.000    0.000    0.000 
#
# Total GULP energy -446047.208685 kJ/mol
# GULP energy per Si atom -12390.200241 kJ/mol
# Density = 2.279890 g / cm^3
# Si number density = 22.850915 Si / 1000 Ang^3
#
#
#
# Elastic Constant Matrix: (Units=GPa)
#
#
# Indices 1 2 3 4 5 6 
#
# 1 140.8089 39.5212 44.3476 0.0000 0.0000 0.0000
# 2 39.5212 143.2312 44.7941 0.0000 0.0000 0.0000
# 3 44.3476 44.7941 160.3654 0.0000 0.0000 0.0000
# 4 0.0000 0.0000 0.0000 31.1832 0.0000 0.0000
# 5 0.0000 0.0000 0.0000 0.0000 15.6206 0.0000
# 6 0.0000 0.0000 0.0000 0.0000 0.0000 50.0970
#
#
#
# Elastic Compliance Matrix: (Units=1/GPa)
#
#
# Indices 1 2 3 4 5 6 
#
# 1 0.008136 -0.001689 -0.001778 0.000000 0.000000 0.000000
# 2 -0.001689 0.008001 -0.001768 0.000000 0.000000 0.000000
# 3 -0.001778 -0.001768 0.007221 0.000000 0.000000 0.000000
# 4 0.000000 0.000000 0.000000 0.032069 0.000000 0.000000
# 5 0.000000 0.000000 0.000000 0.000000 0.064018 0.000000
# 6 0.000000 0.000000 0.000000 0.000000 0.000000 0.019961
#
#
# Mechanical properties :
#
#
# Convention : Reuss Voigt Hill
#
# Bulk Modulus (GPa) = 77.58992 77.97014 77.78003
# Shear Modulus (GPa) = 32.43148 40.42965 36.43057
#
# Velocity S-wave (km/s) = 3.77140 4.21084 3.99716
# Velocity P-wave (km/s) = 7.27964 7.60506 7.44413
#
# Compressibility (1/GPa) = 0.01288827
#
# Stress axis : x y z
#
# Youngs Moduli (GPa) = 122.91271 124.99150 138.47981
#
# Poissons Ratio (x) = 0.21108 0.24624
# Poissons Ratio (y) = 0.20757 0.24480
# Poissons Ratio (z) = 0.21856 0.22095
#
# Static dielectric constant tensor:
#      x y z
#    x 4.614020 0.000000 0.000000 
#    y 0.000000 4.747830 0.000000 
#    z 0.000000 0.000000 4.237700 
# 
# 
# High freq. dielectric constant tensor:
#      x y z
#    x 1.936060 0.000000 0.000000 
#    y 0.000000 1.908060 0.000000 
#    z 0.000000 0.000000 1.903350 
# 
# From -- ./inp_files/36131.got.cif
#   From: 2010.06.25/outbox.cif.g09.slc.cpg/sg48_19_cif.got.tgz:36131.got - 2010.06.26 18:06:46.
