data_PCOD8202102
_publ_section_title
;
Structure prediction by ZEFSAII (Michael W. Deem and Ramdas Pophale) SiO2 
 PCOD8202102
Probable space group: P N N N
;
_chemical_formula_sum "Si O2"
_cell_formula_units_Z 32
_cell_length_a 20.655755
_cell_length_b 10.475963
_cell_length_c 7.157383
_cell_angle_alpha 90.000000
_cell_angle_beta 90.000000
_cell_angle_gamma 90.000000
_cell_volume 1548.778414
_symmetry_space_group_name_H-M "P N N N"
_symmetry_group_IT_number 48
_space_group.IT_coordinate_system_code '2'
_symmetry_cell_setting 'orthorhombic'
loop_
_space_group_symop_operation_xyz
x,y,z
1/2-x,1/2-y,z
x,1/2-y,1/2-z
1/2-x,y,1/2-z
-x,-y,-z
1/2+x,1/2+y,-z
-x,1/2+y,1/2+z
1/2+x,-y,1/2+z
loop_
_atom_site_type_symbol
_atom_site_label
_atom_site_fract_x
_atom_site_fract_y
_atom_site_fract_z
Si Si1 0.429619 0.358593 0.107836
Si Si2 0.556238 0.147725 0.597011
Si Si3 0.750000 0.069782 0.250000
Si Si4 0.716621 0.629794 0.950301
Si Si5 0.861854 0.250000 0.250000
O O1 0.454782 0.250000 0.250000
O O2 0.428218 0.506418 0.178620
O O3 0.357106 0.324398 0.055847
O O4 0.478822 0.348870 0.934057
O O5 0.577429 0.250000 0.750000
O O6 0.594201 0.182184 0.406680
O O7 0.811498 0.146480 0.334193
O O8 0.723146 0.993878 0.425470
O O9 0.750000 0.750000 0.050307
O O10 0.750000 0.604492 0.750000
#
# Coordination Sequence:
#
# PCOD8202102 Si02
#       5
#     8   8   4   8   4
#     4  11  23  47  66  99 138 167 226 278 327 404
#     4  11  26  45  71  98 132 180 222 278 339 392
#     4  11  25  40  64  96 135 175 216 276 334 399
#     4  11  23  41  65  97 132 173 219 273 332 399
#     4  11  24  44  64  98 135 168 228 276 327 406
#
# _framework density 20.661445000000001
#
# number of rings (size 3 to 8) (size 9 to 14) (size 15 to 20)
#    0.000    1.000    6.250    0.375    3.500    3.000 
#    0.000    2.500    0.000    0.000    0.000    0.000 
#    0.000    0.000    0.000    0.000    0.000    0.000 
#
# Total GULP energy -396532.020232 kJ/mol
# GULP energy per Si atom -12391.625632 kJ/mol
# Density = 2.061442 g / cm^3
# Si number density = 20.661445 Si / 1000 Ang^3
#
#
#
# Elastic Constant Matrix: (Units=GPa)
#
#
# Indices 1 2 3 4 5 6 
#
# 1 134.8325 27.9944 19.3324 0.0000 0.0000 0.0000
# 2 27.9944 153.8587 41.7859 0.0000 0.0000 0.0000
# 3 19.3324 41.7859 60.1889 0.0000 0.0000 0.0000
# 4 0.0000 0.0000 0.0000 38.8289 0.0000 0.0000
# 5 0.0000 0.0000 0.0000 0.0000 16.4689 0.0000
# 6 0.0000 0.0000 0.0000 0.0000 0.0000 34.1918
#
#
#
# Elastic Compliance Matrix: (Units=1/GPa)
#
#
# Indices 1 2 3 4 5 6 
#
# 1 0.007879 -0.000920 -0.001892 0.000000 0.000000 0.000000
# 2 -0.000920 0.008117 -0.005340 0.000000 0.000000 0.000000
# 3 -0.001892 -0.005340 0.020929 0.000000 0.000000 0.000000
# 4 0.000000 0.000000 0.000000 0.025754 0.000000 0.000000
# 5 0.000000 0.000000 0.000000 0.000000 0.060721 0.000000
# 6 0.000000 0.000000 0.000000 0.000000 0.000000 0.029247
#
#
# Mechanical properties :
#
#
# Convention : Reuss Voigt Hill
#
# Bulk Modulus (GPa) = 48.49233 58.56728 53.52981
# Shear Modulus (GPa) = 28.43757 35.21575 31.82666
#
# Velocity S-wave (km/s) = 3.71396 4.13294 3.92904
# Velocity P-wave (km/s) = 6.47396 7.15420 6.82257
#
# Compressibility (1/GPa) = 0.02062182
#
# Stress axis : x y z
#
# Youngs Moduli (GPa) = 126.92202 123.19801 47.78005
#
# Poissons Ratio (x) = 0.11330 0.09041
# Poissons Ratio (y) = 0.11672 0.25514
# Poissons Ratio (z) = 0.24016 0.65785
#
# Static dielectric constant tensor:
#      x y z
#    x 3.870670 0.000000 0.000000 
#    y 0.000000 4.097040 0.000000 
#    z 0.000000 0.000000 3.595350 
# 
# 
# High freq. dielectric constant tensor:
#      x y z
#    x 1.835160 0.000000 0.000000 
#    y 0.000000 1.828990 0.000000 
#    z 0.000000 0.000000 1.772820 
# 
# From -- ./inp_files/8682.got.cif
#   From: 2010.06.25/outbox.cif.g09.slc.cpg/sg48_5_cif.got.tgz:8682.got - 2010.06.26 18:06:46.
