data_PCOD8202269
_publ_section_title
;
Structure prediction by ZEFSAII (Michael W. Deem and Ramdas Pophale) SiO2 
 PCOD8202269
Probable space group: P C C M
;
_chemical_formula_sum "Si O2"
_cell_formula_units_Z 64
_cell_length_a 20.703025
_cell_length_b 19.757780
_cell_length_c 8.742000
_cell_angle_alpha 90.000000
_cell_angle_beta 90.000000
_cell_angle_gamma 90.000000
_cell_volume 3575.878500
_symmetry_space_group_name_H-M "P C C M"
_symmetry_group_IT_number 49
_symmetry_cell_setting 'orthorhombic'
loop_
_space_group_symop_operation_xyz
x,y,z
-x,-y,z
x,-y,1/2-z
-x,y,1/2-z
-x,-y,-z
x,y,-z
-x,y,1/2+z
x,-y,1/2+z
loop_
_atom_site_type_symbol
_atom_site_label
_atom_site_fract_x
_atom_site_fract_y
_atom_site_fract_z
Si Si1 0.567373 0.426969 0.817833
Si Si2 0.884582 0.793977 0.180863
Si Si3 0.689288 0.657263 0.679962
Si Si4 0.264577 0.787449 0.324561
Si Si5 0.882707 0.932210 0.319660
Si Si6 0.188748 0.573887 0.818661
Si Si7 0.065898 0.659201 0.181144
Si Si8 0.742603 0.935784 0.178701
O O1 0.584434 0.500000 0.750000
O O2 0.500000 0.399826 0.750000
O O3 0.622729 0.375570 0.761691
O O4 0.562655 0.432322 0.000000
O O5 0.809782 0.784918 0.229770
O O6 0.913131 0.864404 0.246262
O O7 0.925642 0.734289 0.254155
O O8 0.892625 0.793950 0.000000
O O9 0.692123 0.654056 0.500000
O O10 0.692119 0.735364 0.729692
O O11 0.750224 0.615789 0.747026
O O12 0.269365 0.765942 0.500000
O O13 0.293189 0.863554 0.299130
O O14 0.892576 0.930928 0.500000
O O15 0.807638 0.933322 0.276316
O O16 0.916163 0.000000 0.250000
O O17 0.190469 0.500000 0.750000
O O18 0.124083 0.611448 0.763043
O O19 0.191505 0.568646 0.000000
O O20 0.000000 0.628351 0.250000
O O21 0.061830 0.662276 0.000000
O O22 0.702374 0.000000 0.250000
O O23 0.758677 0.946779 0.000000
#
# Coordination Sequence:
#
# PCOD8202269 Si02
#       8
#     8   8   8   8   8   8   8   8
#     4  10  20  34  53  76 105 140 177 214 252 301
#     4  10  19  33  51  73  99 129 167 209 256 309
#     4  10  20  34  52  77 106 136 173 212 252 303
#     4   9  18  29  46  72 101 132 168 210 254 302
#     4  10  17  26  43  68  97 130 165 205 251 300
#     4  10  22  38  56  78 102 129 165 207 256 308
#     4  11  23  39  57  76  99 129 167 211 260 312
#     4   9  16  26  39  63  96 132 172 208 252 302
#
# _framework density 17.8977
#
# number of rings (size 3 to 8) (size 9 to 14) (size 15 to 20)
#    0.000    2.125    1.250    4.875    0.000    5.250 
#    0.000    1.250    0.000    0.375    0.000    2.625 
#    0.000    0.500    0.000    5.500    0.000    4.125 
#
# Total GULP energy -793432.178400 kJ/mol
# GULP energy per Si atom -12397.377788 kJ/mol
# Density = 1.785696 g / cm^3
# Si number density = 17.897700 Si / 1000 Ang^3
#
#
#
# Elastic Constant Matrix: (Units=GPa)
#
#
# Indices 1 2 3 4 5 6 
#
# 1 91.1714 52.6796 30.7444 0.0000 0.0000 0.0000
# 2 52.6796 131.4278 30.9235 0.0000 0.0000 0.0000
# 3 30.7444 30.9235 64.0028 0.0000 0.0000 0.0000
# 4 0.0000 0.0000 0.0000 35.9604 0.0000 0.0000
# 5 0.0000 0.0000 0.0000 0.0000 20.1492 0.0000
# 6 0.0000 0.0000 0.0000 0.0000 0.0000 20.1989
#
#
#
# Elastic Compliance Matrix: (Units=1/GPa)
#
#
# Indices 1 2 3 4 5 6 
#
# 1 0.015596 -0.005064 -0.005045 0.000000 0.000000 0.000000
# 2 -0.005064 0.010229 -0.002510 0.000000 0.000000 0.000000
# 3 -0.005045 -0.002510 0.019260 0.000000 0.000000 0.000000
# 4 0.000000 0.000000 0.000000 0.027808 0.000000 0.000000
# 5 0.000000 0.000000 0.000000 0.000000 0.049630 0.000000
# 6 0.000000 0.000000 0.000000 0.000000 0.000000 0.049508
#
#
# Mechanical properties :
#
#
# Convention : Reuss Voigt Hill
#
# Bulk Modulus (GPa) = 50.38341 57.25523 53.81932
# Shear Modulus (GPa) = 24.52381 26.74535 25.63458
#
# Velocity S-wave (km/s) = 3.70567 3.86987 3.78866
# Velocity P-wave (km/s) = 6.82064 7.21301 7.01957
#
# Compressibility (1/GPa) = 0.01984780
#
# Stress axis : x y z
#
# Youngs Moduli (GPa) = 64.12054 97.76056 51.92063
#
# Poissons Ratio (x) = 0.49507 0.26193
# Poissons Ratio (y) = 0.32472 0.13030
# Poissons Ratio (z) = 0.32347 0.24534
#
# Static dielectric constant tensor:
#      x y z
#    x 3.128540 0.000000 0.000000 
#    y 0.000000 3.769830 0.000000 
#    z 0.000000 0.000000 3.293190 
# 
# 
# High freq. dielectric constant tensor:
#      x y z
#    x 1.642240 0.000000 0.000000 
#    y 0.000000 1.708020 0.000000 
#    z 0.000000 0.000000 1.699750 
# 
# From -- ./inp_files/6074.got.cif
#   From: 2010.03.12/outbox.cif.g09.slc.cpg/sg49_4_cif.got.tgz:6074.got - 2010.04.14 03:58:27.
