data_PCOD8202501
_publ_section_title
;
Structure prediction by ZEFSAII (Michael W. Deem and Ramdas Pophale) SiO2 
 PCOD8202501
Probable space group: P C C M
;
_chemical_formula_sum "Si O2"
_cell_formula_units_Z 64
_cell_length_a 23.294085
_cell_length_b 18.960651
_cell_length_c 8.944015
_cell_angle_alpha 90.000000
_cell_angle_beta 90.000000
_cell_angle_gamma 90.000000
_cell_volume 3950.312193
_symmetry_space_group_name_H-M "P C C M"
_symmetry_group_IT_number 49
_symmetry_cell_setting 'orthorhombic'
loop_
_space_group_symop_operation_xyz
x,y,z
-x,-y,z
x,-y,1/2-z
-x,y,1/2-z
-x,-y,-z
x,y,-z
-x,y,1/2+z
x,-y,1/2+z
loop_
_atom_site_type_symbol
_atom_site_label
_atom_site_fract_x
_atom_site_fract_y
_atom_site_fract_z
Si Si1 0.340180 0.790823 0.673995
Si Si2 0.380382 0.429577 0.324422
Si Si3 0.439518 0.287186 0.676652
Si Si4 0.160175 0.152263 0.825047
Si Si5 0.273419 0.927251 0.326182
Si Si6 0.751597 0.570951 0.675392
Si Si7 0.226141 0.290778 0.826984
Si Si8 0.939324 0.073782 0.178669
O O1 0.354523 0.780016 0.500000
O O2 0.395194 0.772797 0.772962
O O3 0.323847 0.871680 0.708463
O O4 0.287119 0.741602 0.722232
O O5 0.406119 0.500000 0.250000
O O6 0.385437 0.438460 0.500000
O O7 0.416972 0.363188 0.266763
O O8 0.314525 0.418747 0.275165
O O9 0.500000 0.270264 0.750000
O O10 0.445649 0.285169 0.500000
O O11 0.212536 0.103048 0.769813
O O12 0.176140 0.233928 0.796176
O O13 0.105482 0.134301 0.723703
O O14 0.146921 0.139772 0.000000
O O15 0.268288 0.941139 0.500000
O O16 0.289829 0.000000 0.250000
O O17 0.776612 0.500000 0.750000
O O18 0.759142 0.564037 0.500000
O O19 0.786842 0.638839 0.732612
O O20 0.227811 0.311456 0.000000
O O21 0.000000 0.095166 0.250000
O O22 0.918255 0.000000 0.250000
O O23 0.944382 0.067056 0.000000
#
# Coordination Sequence:
#
# PCOD8202501 Si02
#       8
#     8   8   8   8   8   8   8   8
#     4   9  18  33  50  68  91 119 149 184 228 280
#     4   9  19  32  46  65  89 117 150 187 225 270
#     4  11  22  35  49  68  89 115 151 189 230 276
#     4   9  18  32  48  71 102 131 163 200 236 280
#     4   9  18  31  49  73  98 123 151 185 231 279
#     4  10  18  29  45  67  94 124 159 194 232 284
#     4   9  17  30  49  70  95 126 156 193 240 281
#     4  11  21  33  49  69  97 136 176 210 243 279
#
# _framework density 16.201250999999999
#
# number of rings (size 3 to 8) (size 9 to 14) (size 15 to 20)
#    0.000    2.375    1.250    4.125    0.000    4.250 
#    0.000    3.750    0.000    0.375    0.000    2.625 
#    0.000    0.500    0.000    5.250    0.000    2.250 
#
# Total GULP energy -793650.235003 kJ/mol
# GULP energy per Si atom -12400.784922 kJ/mol
# Density = 1.616438 g / cm^3
# Si number density = 16.201251 Si / 1000 Ang^3
#
#
#
# Elastic Constant Matrix: (Units=GPa)
#
#
# Indices 1 2 3 4 5 6 
#
# 1 75.8511 43.5112 39.1304 0.0000 0.0000 0.0000
# 2 43.5112 116.3340 50.4555 0.0000 0.0000 0.0000
# 3 39.1304 50.4555 74.2141 0.0000 0.0000 0.0000
# 4 0.0000 0.0000 0.0000 32.0607 0.0000 0.0000
# 5 0.0000 0.0000 0.0000 0.0000 20.8654 0.0000
# 6 0.0000 0.0000 0.0000 0.0000 0.0000 26.9345
#
#
#
# Elastic Compliance Matrix: (Units=1/GPa)
#
#
# Indices 1 2 3 4 5 6 
#
# 1 0.019330 -0.003984 -0.007483 0.000000 0.000000 0.000000
# 2 -0.003984 0.013012 -0.006745 0.000000 0.000000 0.000000
# 3 -0.007483 -0.006745 0.022006 0.000000 0.000000 0.000000
# 4 0.000000 0.000000 0.000000 0.031191 0.000000 0.000000
# 5 0.000000 0.000000 0.000000 0.000000 0.047926 0.000000
# 6 0.000000 0.000000 0.000000 0.000000 0.000000 0.037127
#
#
# Mechanical properties :
#
#
# Convention : Reuss Voigt Hill
#
# Bulk Modulus (GPa) = 55.79758 59.17703 57.48731
# Shear Modulus (GPa) = 23.47515 24.85891 24.16703
#
# Velocity S-wave (km/s) = 3.81067 3.92137 3.86641
# Velocity P-wave (km/s) = 7.34007 7.55701 7.44933
#
# Compressibility (1/GPa) = 0.01792192
#
# Stress axis : x y z
#
# Youngs Moduli (GPa) = 51.73406 76.85395 45.44184
#
# Poissons Ratio (x) = 0.30620 0.34005
# Poissons Ratio (y) = 0.20612 0.30653
# Poissons Ratio (z) = 0.38713 0.51842
#
# Static dielectric constant tensor:
#      x y z
#    x 2.821380 0.000000 0.000000 
#    y 0.000000 3.568550 0.000000 
#    z 0.000000 0.000000 2.986580 
# 
# 
# High freq. dielectric constant tensor:
#      x y z
#    x 1.589050 0.000000 0.000000 
#    y 0.000000 1.621800 0.000000 
#    z 0.000000 0.000000 1.626570 
# 
# From -- ./inp_files/5401.got.cif
#   From: 2010.03.12/outbox.cif.g09.slc.cpg/sg49_3_cif.got.tgz:5401.got - 2010.04.14 03:58:27.
