data_PCOD8202351
_publ_section_title
;
Structure prediction by ZEFSAII (Michael W. Deem and Ramdas Pophale) SiO2 
 PCOD8202351
Probable space group: P C C M
;
_chemical_formula_sum "Si O2"
_cell_formula_units_Z 64
_cell_length_a 31.072786
_cell_length_b 14.283949
_cell_length_c 8.637845
_cell_angle_alpha 90.000000
_cell_angle_beta 90.000000
_cell_angle_gamma 90.000000
_cell_volume 3833.839182
_symmetry_space_group_name_H-M "P C C M"
_symmetry_group_IT_number 49
_symmetry_cell_setting 'orthorhombic'
loop_
_space_group_symop_operation_xyz
x,y,z
-x,-y,z
x,-y,1/2-z
-x,y,1/2-z
-x,-y,-z
x,y,-z
-x,y,1/2+z
x,-y,1/2+z
loop_
_atom_site_type_symbol
_atom_site_label
_atom_site_fract_x
_atom_site_fract_y
_atom_site_fract_z
Si Si1 0.873101 0.781433 0.682760
Si Si2 0.045132 0.899141 0.817202
Si Si3 0.207786 0.102325 0.317694
Si Si4 0.369526 0.897091 0.317221
Si Si5 0.291799 0.215861 0.682681
Si Si6 0.457056 0.104176 0.683763
Si Si7 0.258502 0.400990 0.816333
Si Si8 0.159843 0.597433 0.681581
O O1 0.869006 0.771324 0.500000
O O2 0.918279 0.826272 0.733294
O O3 0.834639 0.846390 0.748073
O O4 0.870674 0.679143 0.756389
O O5 0.000000 0.862335 0.750000
O O6 0.057385 0.000000 0.750000
O O7 0.041501 0.908546 0.000000
O O8 0.205016 0.093583 0.500000
O O9 0.249046 0.161288 0.265229
O O10 0.211475 0.000000 0.250000
O O11 0.374524 0.905972 0.500000
O O12 0.331090 0.828659 0.274485
O O13 0.412887 0.850037 0.245776
O O14 0.360185 0.000000 0.250000
O O15 0.299903 0.209093 0.500000
O O16 0.287713 0.323057 0.734872
O O17 0.500000 0.155961 0.750000
O O18 0.458120 0.104572 0.500000
O O19 0.456848 0.000000 0.750000
O O20 0.274518 0.500000 0.750000
O O21 0.209001 0.384028 0.766180
O O22 0.264461 0.397840 0.000000
O O23 0.142804 0.500000 0.750000
O O24 0.156038 0.591561 0.500000
#
# Coordination Sequence:
#
# PCOD8202351 Si02
#       8
#     8   8   8   8   8   8   8   8
#     4  10  20  35  52  74 100 130 164 204 246 291
#     4  10  20  34  54  76 103 133 165 203 245 291
#     4  10  21  33  47  67  96 130 165 201 239 283
#     4  11  21  33  47  67  97 134 174 212 251 301
#     4  11  21  34  50  69  97 134 168 206 248 294
#     4  10  17  28  45  66  91 123 165 211 257 300
#     4  10  20  34  52  74  97 127 164 206 250 295
#     4  10  20  33  53  77 101 129 161 202 246 294
#
# _framework density 16.693449000000001
#
# number of rings (size 3 to 8) (size 9 to 14) (size 15 to 20)
#    0.000    1.750    1.250    6.000    0.000    4.500 
#    0.000    0.000    0.000    0.375    0.000    2.625 
#    0.000    0.500    0.000    5.000    0.000    3.000 
#
# Total GULP energy -793723.106173 kJ/mol
# GULP energy per Si atom -12401.923534 kJ/mol
# Density = 1.665545 g / cm^3
# Si number density = 16.693449 Si / 1000 Ang^3
#
#
#
# Elastic Constant Matrix: (Units=GPa)
#
#
# Indices 1 2 3 4 5 6 
#
# 1 120.7819 59.1160 49.2702 0.0000 0.0000 0.0000
# 2 59.1160 110.6176 35.2428 0.0000 0.0000 0.0000
# 3 49.2702 35.2428 87.3043 0.0000 0.0000 0.0000
# 4 0.0000 0.0000 0.0000 28.4735 0.0000 0.0000
# 5 0.0000 0.0000 0.0000 0.0000 28.0402 0.0000
# 6 0.0000 0.0000 0.0000 0.0000 0.0000 -51.6791
#
#
#
# Elastic Compliance Matrix: (Units=1/GPa)
#
#
# Indices 1 2 3 4 5 6 
#
# 1 0.012985 -0.005284 -0.005195 0.000000 0.000000 0.000000
# 2 -0.005284 0.012525 -0.002074 0.000000 0.000000 0.000000
# 3 -0.005195 -0.002074 0.015223 0.000000 0.000000 0.000000
# 4 0.000000 0.000000 0.000000 0.035120 0.000000 0.000000
# 5 0.000000 0.000000 0.000000 0.000000 0.035663 0.000000
# 6 0.000000 0.000000 0.000000 0.000000 0.000000 -0.019350
#
#
# Mechanical properties :
#
#
# Convention : Reuss Voigt Hill
#
# Bulk Modulus (GPa) = 63.99229 67.32909 65.66069
# Shear Modulus (GPa) = 40.82267 12.63858 26.73062
#
# Velocity S-wave (km/s) = 4.95049 2.75453 4.00592
# Velocity P-wave (km/s) = 8.43170 7.10892 7.79841
#
# Compressibility (1/GPa) = 0.01562688
#
# Stress axis : x y z
#
# Youngs Moduli (GPa) = 77.01275 79.84111 65.68970
#
# Poissons Ratio (x) = 0.42190 0.34125
# Poissons Ratio (y) = 0.40696 0.13623
# Poissons Ratio (z) = 0.40007 0.16558
#
# Static dielectric constant tensor:
#      x y z
#    x 3.549680 0.000000 0.000000 
#    y 0.000000 2.070660 0.000000 
#    z 0.000000 0.000000 3.191740 
# 
# 
# High freq. dielectric constant tensor:
#      x y z
#    x 1.637790 0.000000 0.000000 
#    y 0.000000 1.620600 0.000000 
#    z 0.000000 0.000000 1.658140 
# 
# From -- ./inp_files/7056.got.cif
#   From: 2010.03.12/outbox.cif.g09.slc.cpg/sg49_4_cif.got.tgz:7056.got - 2010.04.14 03:58:27.
