data_PCOD8202539
_publ_section_title
;
Structure prediction by ZEFSAII (Michael W. Deem and Ramdas Pophale) SiO2 
 PCOD8202539
Probable space group: P C C M
;
_chemical_formula_sum "Si O2"
_cell_formula_units_Z 56
_cell_length_a 21.310362
_cell_length_b 18.414229
_cell_length_c 8.524752
_cell_angle_alpha 90.000000
_cell_angle_beta 90.000000
_cell_angle_gamma 90.000000
_cell_volume 3345.231059
_symmetry_space_group_name_H-M "P C C M"
_symmetry_group_IT_number 49
_symmetry_cell_setting 'orthorhombic'
loop_
_space_group_symop_operation_xyz
x,y,z
-x,-y,z
x,-y,1/2-z
-x,y,1/2-z
-x,-y,-z
x,y,-z
-x,y,1/2+z
x,-y,1/2+z
loop_
_atom_site_type_symbol
_atom_site_label
_atom_site_fract_x
_atom_site_fract_y
_atom_site_fract_z
Si Si1 0.304861 0.419852 0.685129
Si Si2 0.933219 0.422760 0.682614
Si Si3 0.565285 0.166727 0.185311
Si Si4 0.680900 0.078341 0.682829
Si Si5 0.821691 0.662001 0.683158
Si Si6 0.637737 0.288443 0.683964
Si Si7 0.250037 0.201348 0.319686
O O1 0.310210 0.500000 0.750000
O O2 0.314532 0.418693 0.500000
O O3 0.237489 0.387021 0.734987
O O4 0.360812 0.373253 0.767825
O O5 0.910815 0.500000 0.750000
O O6 0.940918 0.432246 0.500000
O O7 0.882333 0.361491 0.720209
O O8 0.000000 0.397977 0.750000
O O9 0.500000 0.134469 0.250000
O O10 0.620300 0.110973 0.230878
O O11 0.574302 0.246014 0.268114
O O12 0.562836 0.175492 0.000000
O O13 0.666663 0.074220 0.500000
O O14 0.742431 0.129008 0.714234
O O15 0.696782 0.000000 0.750000
O O16 0.834822 0.650967 0.500000
O O17 0.809679 0.747590 0.722249
O O18 0.651510 0.278040 0.500000
O O19 0.689903 0.251597 0.793047
O O20 0.247657 0.176954 0.500000
#
# Coordination Sequence:
#
# PCOD8202539 Si02
#       7
#     8   8   8   8   8   8   8
#     4  10  19  30  45  67  92 119 150 192 238 281
#     4  11  21  32  46  63  91 128 167 204 242 281
#     4  11  21  35  52  71  93 120 155 190 225 270
#     4  11  21  34  51  73 100 128 155 186 227 275
#     4   9  18  31  47  67  93 122 157 195 234 276
#     4  10  18  30  47  67  90 118 150 187 230 276
#     4   9  17  31  49  69  93 122 153 190 231 274
#
# _framework density 16.740248999999999
#
# number of rings (size 3 to 8) (size 9 to 14) (size 15 to 20)
#    0.000    1.857    0.000    9.429    0.000    4.857 
#    0.000    1.429    0.000    0.429    0.000    3.000 
#    0.000    0.571    0.000    6.000    0.000    2.571 
#
# Total GULP energy -694209.953836 kJ/mol
# GULP energy per Si atom -12396.606319 kJ/mol
# Density = 1.670215 g / cm^3
# Si number density = 16.740249 Si / 1000 Ang^3
#
#
#
# Elastic Constant Matrix: (Units=GPa)
#
#
# Indices 1 2 3 4 5 6 
#
# 1 53.5388 37.3729 27.7797 0.0000 0.0000 0.0000
# 2 37.3729 119.1480 38.7775 0.0000 0.0000 0.0000
# 3 27.7797 38.7775 99.4857 0.0000 0.0000 0.0000
# 4 0.0000 0.0000 0.0000 29.6476 0.0000 0.0000
# 5 0.0000 0.0000 0.0000 0.0000 21.4593 0.0000
# 6 0.0000 0.0000 0.0000 0.0000 0.0000 6.0530
#
#
#
# Elastic Compliance Matrix: (Units=1/GPa)
#
#
# Indices 1 2 3 4 5 6 
#
# 1 0.025635 -0.006541 -0.004609 0.000000 0.000000 0.000000
# 2 -0.006541 0.011281 -0.002571 0.000000 0.000000 0.000000
# 3 -0.004609 -0.002571 0.012341 0.000000 0.000000 0.000000
# 4 0.000000 0.000000 0.000000 0.033730 0.000000 0.000000
# 5 0.000000 0.000000 0.000000 0.000000 0.046600 0.000000
# 6 0.000000 0.000000 0.000000 0.000000 0.000000 0.165208
#
#
# Mechanical properties :
#
#
# Convention : Reuss Voigt Hill
#
# Bulk Modulus (GPa) = 45.83724 53.33696 49.58710
# Shear Modulus (GPa) = 15.17414 22.64814 18.91114
#
# Velocity S-wave (km/s) = 3.01399 3.68219 3.36472
# Velocity P-wave (km/s) = 6.28912 7.07168 6.69185
#
# Compressibility (1/GPa) = 0.02181632
#
# Stress axis : x y z
#
# Youngs Moduli (GPa) = 39.00864 88.64220 81.03325
#
# Poissons Ratio (x) = 0.57981 0.37346
# Poissons Ratio (y) = 0.25516 0.20832
# Poissons Ratio (z) = 0.17978 0.22788
#
# Static dielectric constant tensor:
#      x y z
#    x 3.038840 0.000000 0.000000 
#    y 0.000000 3.417820 0.000000 
#    z 0.000000 0.000000 3.214320 
# 
# 
# High freq. dielectric constant tensor:
#      x y z
#    x 1.605630 0.000000 0.000000 
#    y 0.000000 1.638550 0.000000 
#    z 0.000000 0.000000 1.664240 
# 
# From -- ./inp_files/5899.got.cif
#   From: 2010.03.12/outbox.cif.g09.slc.cpg/sg49_3_cif.got.tgz:5899.got - 2010.04.14 03:58:27.
