data_PCOD8202592
_publ_section_title
;
Structure prediction by ZEFSAII (Michael W. Deem and Ramdas Pophale) SiO2 
 PCOD8202592
Probable space group: P C C M
;
_chemical_formula_sum "Si O2"
_cell_formula_units_Z 64
_cell_length_a 24.031349
_cell_length_b 14.407921
_cell_length_c 9.086264
_cell_angle_alpha 90.000000
_cell_angle_beta 90.000000
_cell_angle_gamma 90.000000
_cell_volume 3146.044202
_symmetry_space_group_name_H-M "P C C M"
_symmetry_group_IT_number 49
_symmetry_cell_setting 'orthorhombic'
loop_
_space_group_symop_operation_xyz
x,y,z
-x,-y,z
x,-y,1/2-z
-x,y,1/2-z
-x,-y,-z
x,y,-z
-x,y,1/2+z
x,-y,1/2+z
loop_
_atom_site_type_symbol
_atom_site_label
_atom_site_fract_x
_atom_site_fract_y
_atom_site_fract_z
Si Si1 0.788606 0.905209 0.824648
Si Si2 0.446970 0.360490 0.665176
Si Si3 0.554989 0.139161 0.166009
Si Si4 0.340412 0.365778 0.833495
Si Si5 0.941325 0.403596 0.822726
Si Si6 0.335206 0.853982 0.666670
Si Si7 0.766570 0.419444 0.835410
Si Si8 0.151060 0.255831 0.665162
O O1 0.725075 0.886077 0.771051
O O2 0.833558 0.828118 0.773414
O O3 0.808688 0.000000 0.750000
O O4 0.791581 0.911026 0.000000
O O5 0.500000 0.399790 0.750000
O O6 0.447518 0.398375 0.500000
O O7 0.446332 0.249549 0.667628
O O8 0.394458 0.401648 0.749343
O O9 0.500000 0.100597 0.250000
O O10 0.612895 0.104266 0.240600
O O11 0.553615 0.100688 0.000000
O O12 0.335450 0.255840 0.824986
O O13 0.289852 0.413182 0.753484
O O14 0.343209 0.400479 0.000000
O O15 0.919803 0.500000 0.750000
O O16 0.901282 0.317456 0.781052
O O17 0.000000 0.377729 0.750000
O O18 0.945019 0.416066 0.000000
O O19 0.342923 0.888892 0.500000
O O20 0.801757 0.500000 0.750000
O O21 0.795942 0.321599 0.835036
O O22 0.755138 0.453244 0.000000
O O23 0.140275 0.217509 0.500000
#
# Coordination Sequence:
#
# PCOD8202592 Si02
#       8
#     8   8   8   8   8   8   8   8
#     4  11  23  39  60  86 116 154 198 248 302 355
#     4   9  16  26  41  65  93 127 171 219 274 333
#     4   9  16  25  42  68  98 132 172 222 281 348
#     4  10  18  31  49  71 101 136 177 225 278 338
#     4  10  20  36  60  94 133 173 211 249 291 340
#     4   9  18  32  50  73 103 139 181 230 287 350
#     4  11  22  35  53  79 112 149 187 230 280 338
#     4  10  22  39  60  87 121 159 201 245 289 341
#
# _framework density 20.343008000000001
#
# number of rings (size 3 to 8) (size 9 to 14) (size 15 to 20)
#    0.000    2.125    1.250    3.000    0.000    6.000 
#    0.000    0.000    0.000    1.125    0.000    7.875 
#    0.000    0.000    0.000    0.000    0.000    0.000 
#
# Total GULP energy -793347.546976 kJ/mol
# GULP energy per Si atom -12396.055422 kJ/mol
# Density = 2.029671 g / cm^3
# Si number density = 20.343008 Si / 1000 Ang^3
#
#
#
# Elastic Constant Matrix: (Units=GPa)
#
#
# Indices 1 2 3 4 5 6 
#
# 1 125.1845 43.0622 63.3159 0.0000 0.0000 0.0000
# 2 43.0622 69.7556 51.2299 0.0000 0.0000 0.0000
# 3 63.3159 51.2299 158.6605 0.0000 0.0000 0.0000
# 4 0.0000 0.0000 0.0000 25.4025 0.0000 0.0000
# 5 0.0000 0.0000 0.0000 0.0000 30.8378 0.0000
# 6 0.0000 0.0000 0.0000 0.0000 0.0000 5.1383
#
#
#
# Elastic Compliance Matrix: (Units=1/GPa)
#
#
# Indices 1 2 3 4 5 6 
#
# 1 0.011074 -0.004707 -0.002899 0.000000 0.000000 0.000000
# 2 -0.004707 0.020793 -0.004835 0.000000 0.000000 0.000000
# 3 -0.002899 -0.004835 0.009021 0.000000 0.000000 0.000000
# 4 0.000000 0.000000 0.000000 0.039366 0.000000 0.000000
# 5 0.000000 0.000000 0.000000 0.000000 0.032428 0.000000
# 6 0.000000 0.000000 0.000000 0.000000 0.000000 0.194619
#
#
# Mechanical properties :
#
#
# Convention : Reuss Voigt Hill
#
# Bulk Modulus (GPa) = 62.48308 74.31296 68.39802
# Shear Modulus (GPa) = 14.81403 25.34188 20.07795
#
# Velocity S-wave (km/s) = 2.70147 3.53332 3.14502
# Velocity P-wave (km/s) = 6.36491 7.29761 6.84716
#
# Compressibility (1/GPa) = 0.01600433
#
# Stress axis : x y z
#
# Youngs Moduli (GPa) = 90.30371 48.09391 110.85099
#
# Poissons Ratio (x) = 0.22637 0.32140
# Poissons Ratio (y) = 0.42504 0.53601
# Poissons Ratio (z) = 0.26182 0.23255
#
# Static dielectric constant tensor:
#      x y z
#    x 3.627830 0.000000 0.000000 
#    y 0.000000 3.473700 0.000000 
#    z 0.000000 0.000000 3.908130 
# 
# 
# High freq. dielectric constant tensor:
#      x y z
#    x 1.782110 0.000000 0.000000 
#    y 0.000000 1.782670 0.000000 
#    z 0.000000 0.000000 1.804810 
# 
# From -- ./inp_files/6541.got.cif
#   From: 2010.03.12/outbox.cif.g09.slc.cpg/sg49_4_cif.got.tgz:6541.got - 2010.04.14 03:58:27.
