data_PCOD8202121
_publ_section_title
;
Structure prediction by ZEFSAII (Michael W. Deem and Ramdas Pophale) SiO2 
 PCOD8202121
Probable space group: P N N N
;
_chemical_formula_sum "Si O2"
_cell_formula_units_Z 56
_cell_length_a 15.545099
_cell_length_b 19.778903
_cell_length_c 8.304884
_cell_angle_alpha 90.000000
_cell_angle_beta 90.000000
_cell_angle_gamma 90.000000
_cell_volume 2553.461203
_symmetry_space_group_name_H-M "P N N N"
_symmetry_group_IT_number 48
_space_group.IT_coordinate_system_code '2'
_symmetry_cell_setting 'orthorhombic'
loop_
_space_group_symop_operation_xyz
x,y,z
1/2-x,1/2-y,z
x,1/2-y,1/2-z
1/2-x,y,1/2-z
-x,-y,-z
1/2+x,1/2+y,-z
-x,1/2+y,1/2+z
1/2+x,-y,1/2+z
loop_
_atom_site_type_symbol
_atom_site_label
_atom_site_fract_x
_atom_site_fract_y
_atom_site_fract_z
Si Si1 0.090233 0.320974 0.820436
Si Si2 0.066028 0.882836 0.137857
Si Si3 0.159035 0.464649 0.821317
Si Si4 0.845484 0.495806 0.810207
Si Si5 0.512641 0.055141 0.323686
Si Si6 0.844479 0.241213 0.940489
Si Si7 0.011860 0.810043 0.630860
O O1 0.128641 0.250000 0.750000
O O2 0.156561 0.383147 0.801797
O O3 0.004216 0.335488 0.720213
O O4 0.068761 0.316891 0.009908
O O5 0.124757 0.835309 0.024746
O O6 0.125334 0.918681 0.273412
O O7 0.023208 0.937465 0.017119
O O8 0.250000 0.490482 0.750000
O O9 0.075925 0.494997 0.731751
O O10 0.150097 0.489542 0.002510
O O11 0.750000 0.511292 0.750000
O O12 0.912684 0.542224 0.714377
O O13 0.535078 0.123227 0.229217
O O14 0.750000 0.250000 0.012271
O O15 0.847700 0.250000 0.750000
O O16 0.902866 0.295257 0.029613
O O17 0.986382 0.750000 0.750000
#
# Coordination Sequence:
#
# PCOD8202121 Si02
#       7
#     8   8   8   8   8   8   8
#     4  12  23  45  76  97 137 183 235 288 358 416
#     4  12  23  43  71 101 139 193 229 284 358 428
#     4  12  28  48  71 106 140 183 244 298 347 423
#     4  12  27  44  71 104 141 185 232 296 356 423
#     4  12  25  45  75 103 141 188 236 292 352 421
#     4  11  24  39  61 100 139 180 229 285 344 428
#     4  12  22  43  69 104 136 183 235 286 354 420
#
# _framework density 21.931016
#
# number of rings (size 3 to 8) (size 9 to 14) (size 15 to 20)
#    0.000    0.143    7.143    2.571    4.000    1.714 
#    0.000    0.000    0.000    0.429    0.000    0.000 
#    0.000    0.000    0.000    0.000    0.000    0.000 
#
# Total GULP energy -694505.158622 kJ/mol
# GULP energy per Si atom -12401.877833 kJ/mol
# Density = 2.188110 g / cm^3
# Si number density = 21.931016 Si / 1000 Ang^3
#
#
#
# Elastic Constant Matrix: (Units=GPa)
#
#
# Indices 1 2 3 4 5 6 
#
# 1 117.9487 30.0039 34.3094 0.0000 0.0000 0.0000
# 2 30.0039 113.8111 24.8790 0.0000 0.0000 0.0000
# 3 34.3094 24.8790 111.6267 0.0000 0.0000 0.0000
# 4 0.0000 0.0000 0.0000 44.2149 0.0000 0.0000
# 5 0.0000 0.0000 0.0000 0.0000 29.2635 0.0000
# 6 0.0000 0.0000 0.0000 0.0000 0.0000 20.1961
#
#
#
# Elastic Compliance Matrix: (Units=1/GPa)
#
#
# Indices 1 2 3 4 5 6 
#
# 1 0.009729 -0.002009 -0.002542 0.000000 0.000000 0.000000
# 2 -0.002009 0.009651 -0.001534 0.000000 0.000000 0.000000
# 3 -0.002542 -0.001534 0.010082 0.000000 0.000000 0.000000
# 4 0.000000 0.000000 0.000000 0.022617 0.000000 0.000000
# 5 0.000000 0.000000 0.000000 0.000000 0.034172 0.000000
# 6 0.000000 0.000000 0.000000 0.000000 0.000000 0.049515
#
#
# Mechanical properties :
#
#
# Convention : Reuss Voigt Hill
#
# Bulk Modulus (GPa) = 57.83104 57.97456 57.90280
# Shear Modulus (GPa) = 32.53095 35.68116 34.10606
#
# Velocity S-wave (km/s) = 3.85558 4.03795 3.94782
# Velocity P-wave (km/s) = 6.80055 6.94496 6.87313
#
# Compressibility (1/GPa) = 0.01729175
#
# Stress axis : x y z
#
# Youngs Moduli (GPa) = 102.78660 103.61220 99.18977
#
# Poissons Ratio (x) = 0.20816 0.25219
# Poissons Ratio (y) = 0.20650 0.15212
# Poissons Ratio (z) = 0.26133 0.15890
#
# Static dielectric constant tensor:
#      x y z
#    x 3.916870 0.000000 0.000000 
#    y 0.000000 4.243890 0.000000 
#    z 0.000000 0.000000 4.141090 
# 
# 
# High freq. dielectric constant tensor:
#      x y z
#    x 1.846250 0.000000 0.000000 
#    y 0.000000 1.881030 0.000000 
#    z 0.000000 0.000000 1.874880 
# 
# From -- ./inp_files/13109.got.cif
#   From: 2010.06.25/outbox.cif.g09.slc.cpg/sg48_7_cif.got.tgz:13109.got - 2010.06.26 18:06:46.
