data_PCOD8202108
_publ_section_title
;
Structure prediction by ZEFSAII (Michael W. Deem and Ramdas Pophale) SiO2 
 PCOD8202108
Probable space group: P N N N
;
_chemical_formula_sum "Si O2"
_cell_formula_units_Z 44
_cell_length_a 9.212552
_cell_length_b 16.758767
_cell_length_c 13.518778
_cell_angle_alpha 90.000000
_cell_angle_beta 90.000000
_cell_angle_gamma 90.000000
_cell_volume 2087.177822
_symmetry_space_group_name_H-M "P N N N"
_symmetry_group_IT_number 48
_space_group.IT_coordinate_system_code '2'
_symmetry_cell_setting 'orthorhombic'
loop_
_space_group_symop_operation_xyz
x,y,z
1/2-x,1/2-y,z
x,1/2-y,1/2-z
1/2-x,y,1/2-z
-x,-y,-z
1/2+x,1/2+y,-z
-x,1/2+y,1/2+z
1/2+x,-y,1/2+z
loop_
_atom_site_type_symbol
_atom_site_label
_atom_site_fract_x
_atom_site_fract_y
_atom_site_fract_z
Si Si1 0.594684 0.631205 0.390347
Si Si2 0.750000 0.750000 0.250000
Si Si3 0.231591 0.838953 0.366144
Si Si4 0.908804 0.010677 0.900763
Si Si5 0.898211 0.025954 0.286397
Si Si6 0.250000 0.250000 0.250000
Si Si7 0.149047 0.384229 0.110969
O O1 0.641877 0.701426 0.318638
O O2 0.422287 0.624755 0.394387
O O3 0.660002 0.548829 0.349928
O O4 0.652794 0.647499 0.499652
O O5 0.250000 0.750000 0.411912
O O6 0.250000 0.835413 0.250000
O O7 0.349153 0.899488 0.410875
O O8 0.781857 0.946402 0.878883
O O9 0.011663 0.004864 0.806667
O O10 0.000000 0.000000 0.000000
O O11 0.750000 0.070890 0.250000
O O12 0.994423 0.077857 0.360899
O O13 0.155509 0.307302 0.180982
#
# Coordination Sequence:
#
# PCOD8202108 Si02
#       7
#     8   2   8   8   8   2   8
#     4  12  25  42  74 103 144 185 238 296 364 426
#     4  12  26  44  66 118 148 178 228 312 368 434
#     4  11  23  42  69 103 145 180 228 295 363 423
#     4  12  25  43  75 105 141 194 245 289 365 444
#     4  12  24  45  71 105 141 183 247 302 350 430
#     4  12  26  52  74  98 150 200 244 300 352 454
#     4  12  26  49  74 102 139 200 244 292 368 438
#
# _framework density 21.081098999999998
#
# number of rings (size 3 to 8) (size 9 to 14) (size 15 to 20)
#    0.000    0.182    6.364    3.273    2.545    1.455 
#    0.000    0.455    0.000    0.000    0.000    0.000 
#    0.000    0.000    0.000    0.000    0.000    0.000 
#
# Total GULP energy -545645.131176 kJ/mol
# GULP energy per Si atom -12401.025709 kJ/mol
# Density = 2.103312 g / cm^3
# Si number density = 21.081099 Si / 1000 Ang^3
#
#
#
# Elastic Constant Matrix: (Units=GPa)
#
#
# Indices 1 2 3 4 5 6 
#
# 1 120.0549 42.4360 38.2462 0.0000 0.0000 0.0000
# 2 42.4360 132.4418 56.0380 0.0000 0.0000 0.0000
# 3 38.2462 56.0380 144.8251 0.0000 0.0000 0.0000
# 4 0.0000 0.0000 0.000016331.5003 0.0000 0.0000
# 5 0.0000 0.0000 0.0000 0.0000 36.3402 0.0000
# 6 0.0000 0.0000 0.0000 0.0000 0.0000 53.1320
#
#
#
# Elastic Compliance Matrix: (Units=1/GPa)
#
#
# Indices 1 2 3 4 5 6 
#
# 1 0.009703 -0.002421 -0.001626 0.000000 0.000000 0.000000
# 2 -0.002421 0.009633 -0.003088 0.000000 0.000000 0.000000
# 3 -0.001626 -0.003088 0.008529 0.000000 0.000000 0.000000
# 4 0.000000 0.000000 0.000000 0.000061 0.000000 0.000000
# 5 0.000000 0.000000 0.000000 0.000000 0.027518 0.000000
# 6 0.000000 0.000000 0.000000 0.000000 0.000000 0.018821
#
#
# Mechanical properties :
#
#
# Convention : Reuss Voigt Hill
#
# Bulk Modulus (GPa) = 73.55317 74.52913 74.04115
# Shear Modulus (GPa) = 53.72514 3301.56795 1677.64654
#
# Velocity S-wave (km/s) = 5.05374 39.61726 28.24064
# Velocity P-wave (km/s) = 8.30783 46.13169 33.14478
#
# Compressibility (1/GPa) = 0.01359561
#
# Stress axis : x y z
#
# Youngs Moduli (GPa) = 103.05845 103.81210 117.24713
#
# Poissons Ratio (x) = 0.25135 0.19060
# Poissons Ratio (y) = 0.24953 0.36204
# Poissons Ratio (z) = 0.16754 0.32056
#
# Static dielectric constant tensor:
#      x y z
#    x 4.130050 0.000000 0.000000 
#    y 0.000000 4.130500 0.000000 
#    z 0.000000 0.000000 3.889880 
# 
# 
# High freq. dielectric constant tensor:
#      x y z
#    x 1.835360 0.000000 0.000000 
#    y 0.000000 1.822200 0.000000 
#    z 0.000000 0.000000 1.837120 
# 
# From -- ./inp_files/25350.got.cif
#   From: 2010.06.25/outbox.cif.g09.slc.cpg/sg48_13_cif.got.tgz:25350.got - 2010.06.26 18:06:46.
