data_PCOD8202270
_publ_section_title
;
Structure prediction by ZEFSAII (Michael W. Deem and Ramdas Pophale) SiO2 
 PCOD8202270
Probable space group: P C C M
;
_chemical_formula_sum "Si O2"
_cell_formula_units_Z 64
_cell_length_a 19.699306
_cell_length_b 20.438896
_cell_length_c 8.677213
_cell_angle_alpha 90.000000
_cell_angle_beta 90.000000
_cell_angle_gamma 90.000000
_cell_volume 3493.724203
_symmetry_space_group_name_H-M "P C C M"
_symmetry_group_IT_number 49
_symmetry_cell_setting 'orthorhombic'
loop_
_space_group_symop_operation_xyz
x,y,z
-x,-y,z
x,-y,1/2-z
-x,y,1/2-z
-x,-y,-z
x,y,-z
-x,y,1/2+z
x,-y,1/2+z
loop_
_atom_site_type_symbol
_atom_site_label
_atom_site_fract_x
_atom_site_fract_y
_atom_site_fract_z
Si Si1 0.713466 0.768085 0.323974
Si Si2 0.071356 0.070234 0.681723
Si Si3 0.435300 0.758887 0.179777
Si Si4 0.843043 0.181813 0.679683
Si Si5 0.074122 0.691562 0.682192
Si Si6 0.843246 0.567279 0.181953
Si Si7 0.707521 0.384912 0.180198
Si Si8 0.431614 0.617117 0.680907
O O1 0.736673 0.778015 0.500000
O O2 0.636702 0.795983 0.299096
O O3 0.763394 0.808461 0.213894
O O4 0.714884 0.691701 0.280058
O O5 0.064133 0.064318 0.500000
O O6 0.130614 0.120082 0.725158
O O7 0.000000 0.095806 0.750000
O O8 0.090690 0.000000 0.750000
O O9 0.500000 0.799751 0.250000
O O10 0.433151 0.693704 0.281068
O O11 0.445610 0.741244 0.000000
O O12 0.854003 0.168524 0.500000
O O13 0.882762 0.246056 0.737239
O O14 0.069417 0.689406 0.500000
O O15 0.110845 0.626634 0.746561
O O16 0.000000 0.697305 0.750000
O O17 0.873110 0.500000 0.250000
O O18 0.765960 0.575654 0.233853
O O19 0.846523 0.564616 0.000000
O O20 0.635700 0.413036 0.240569
O O21 0.713095 0.398194 0.000000
O O22 0.500000 0.583704 0.750000
O O23 0.428534 0.605007 0.500000
#
# Coordination Sequence:
#
# PCOD8202270 Si02
#       8
#     8   8   8   8   8   8   8   8
#     4   9  18  30  47  73 104 138 176 219 266 316
#     4  11  22  38  58  82 112 148 186 224 264 314
#     4   9  16  26  40  64  98 136 177 216 263 315
#     4  11  21  35  55  82 112 145 181 222 266 317
#     4  10  23  39  57  80 106 134 172 215 266 321
#     4  11  23  40  57  78 101 132 173 219 270 325
#     4  10  19  33  52  74 100 133 171 215 265 318
#     4  10  17  26  43  68  98 131 167 210 256 310
#
# _framework density 18.318562
#
# number of rings (size 3 to 8) (size 9 to 14) (size 15 to 20)
#    0.000    1.875    1.250    6.000    0.000    5.750 
#    0.000    1.250    0.000    0.375    0.000    2.625 
#    0.000    0.500    0.000    5.250    0.000    3.000 
#
# Total GULP energy -793564.900192 kJ/mol
# GULP energy per Si atom -12399.451566 kJ/mol
# Density = 1.827687 g / cm^3
# Si number density = 18.318562 Si / 1000 Ang^3
#
#
#
# Elastic Constant Matrix: (Units=GPa)
#
#
# Indices 1 2 3 4 5 6 
#
# 1 121.4729 37.0154 30.6860 0.0000 0.0000 0.0000
# 2 37.0154 67.3822 30.1624 0.0000 0.0000 0.0000
# 3 30.6860 30.1624 85.0594 0.0000 0.0000 0.0000
# 4 0.0000 0.0000 0.0000 20.9102 0.0000 0.0000
# 5 0.0000 0.0000 0.0000 0.0000 35.5876 0.0000
# 6 0.0000 0.0000 0.0000 0.0000 0.0000 -16.5536
#
#
#
# Elastic Compliance Matrix: (Units=1/GPa)
#
#
# Indices 1 2 3 4 5 6 
#
# 1 0.010167 -0.004687 -0.002006 0.000000 0.000000 0.000000
# 2 -0.004687 0.019802 -0.005331 0.000000 0.000000 0.000000
# 3 -0.002006 -0.005331 0.014370 0.000000 0.000000 0.000000
# 4 0.000000 0.000000 0.000000 0.047824 0.000000 0.000000
# 5 0.000000 0.000000 0.000000 0.000000 0.028100 0.000000
# 6 0.000000 0.000000 0.000000 0.000000 0.000000 -0.060410
#
#
# Mechanical properties :
#
#
# Convention : Reuss Voigt Hill
#
# Bulk Modulus (GPa) = 49.28136 52.18247 50.73191
# Shear Modulus (GPa) = 55.14806 19.72556 37.43681
#
# Velocity S-wave (km/s) = 5.49276 3.28503 4.52558
# Velocity P-wave (km/s) = 8.19683 6.55260 7.42040
#
# Compressibility (1/GPa) = 0.02029165
#
# Stress axis : x y z
#
# Youngs Moduli (GPa) = 98.35415 50.50021 69.58743
#
# Poissons Ratio (x) = 0.23672 0.13958
# Poissons Ratio (y) = 0.46103 0.37096
# Poissons Ratio (z) = 0.19728 0.26921
#
# Static dielectric constant tensor:
#      x y z
#    x 3.718480 0.000000 0.000000 
#    y 0.000000 3.052460 0.000000 
#    z 0.000000 0.000000 3.392870 
# 
# 
# High freq. dielectric constant tensor:
#      x y z
#    x 1.725380 0.000000 0.000000 
#    y 0.000000 1.657900 0.000000 
#    z 0.000000 0.000000 1.721120 
# 
# From -- ./inp_files/5265.got.cif
#   From: 2010.03.12/outbox.cif.g09.slc.cpg/sg49_3_cif.got.tgz:5265.got - 2010.04.14 03:58:27.
