data_PCOD8202004
_publ_section_title
;
Structure prediction by ZEFSAII (Michael W. Deem and Ramdas Pophale) SiO2 
 PCOD8202004
Probable space group: P N N N
;
_chemical_formula_sum "Si O2"
_cell_formula_units_Z 56
_cell_length_a 11.908497
_cell_length_b 12.438887
_cell_length_c 19.138872
_cell_angle_alpha 90.000000
_cell_angle_beta 90.000000
_cell_angle_gamma 90.000000
_cell_volume 2835.011416
_symmetry_space_group_name_H-M "P N N N"
_symmetry_group_IT_number 48
_space_group.IT_coordinate_system_code '2'
_symmetry_cell_setting 'orthorhombic'
loop_
_space_group_symop_operation_xyz
x,y,z
1/2-x,1/2-y,z
x,1/2-y,1/2-z
1/2-x,y,1/2-z
-x,-y,-z
1/2+x,1/2+y,-z
-x,1/2+y,1/2+z
1/2+x,-y,1/2+z
loop_
_atom_site_type_symbol
_atom_site_label
_atom_site_fract_x
_atom_site_fract_y
_atom_site_fract_z
Si Si1 0.330580 0.342069 0.943149
Si Si2 0.947824 0.113167 0.413223
Si Si3 0.381675 0.874949 0.759752
Si Si4 0.691484 0.360585 0.899539
Si Si5 0.478973 0.484816 0.861009
Si Si6 0.668487 0.522873 0.532574
Si Si7 0.542486 0.166381 0.471377
O O1 0.250000 0.250000 0.912590
O O2 0.368459 0.413245 0.876762
O O3 0.269198 0.405011 0.004885
O O4 0.441961 0.292595 0.978692
O O5 0.915517 0.079546 0.335239
O O6 0.877120 0.043420 0.467010
O O7 0.921089 0.239881 0.418602
O O8 0.078199 0.097623 0.429708
O O9 0.412825 0.750000 0.750000
O O10 0.250000 0.894723 0.750000
O O11 0.457022 0.944384 0.706811
O O12 0.750000 0.250000 0.871348
O O13 0.589381 0.407838 0.851466
O O14 0.791303 0.446645 0.904164
O O15 0.649535 0.351724 0.979437
O O16 0.494128 0.559787 0.929563
#
# Coordination Sequence:
#
# PCOD8202004 Si02
#       7
#     8   8   8   8   8   8   8
#     4  11  20  34  58  91 125 163 200 258 313 358
#     4  11  23  35  58  93 122 155 204 251 308 372
#     4  11  24  40  63  89 127 165 196 248 316 392
#     4  11  21  35  62  93 124 164 208 262 312 360
#     4  11  22  38  60  92 131 168 205 250 313 383
#     4  11  21  36  59  85 123 156 202 263 305 348
#     4  11  19  33  59  96 126 154 201 255 315 371
#
# _framework density 19.753007
#
# number of rings (size 3 to 8) (size 9 to 14) (size 15 to 20)
#    0.000    1.000    7.143    1.714    0.000    0.000 
#    0.000    0.714    0.000    9.857    0.000    0.000 
#    0.000    0.000    0.000    0.000    0.000    0.000 
#
# Total GULP energy -694290.329546 kJ/mol
# GULP energy per Si atom -12398.041599 kJ/mol
# Density = 1.970805 g / cm^3
# Si number density = 19.753007 Si / 1000 Ang^3
#
#
#
# Elastic Constant Matrix: (Units=GPa)
#
#
# Indices 1 2 3 4 5 6 
#
# 1 78.2154 33.6662 42.1607 0.0000 0.0000 0.0000
# 2 33.6662 103.3445 34.3962 0.0000 0.0000 0.0000
# 3 42.1607 34.3962 72.6048 0.0000 0.0000 0.0000
# 4 0.0000 0.0000 0.0000 30.3457 0.0000 0.0000
# 5 0.0000 0.0000 0.0000 0.0000 17.6587 0.0000
# 6 0.0000 0.0000 0.0000 0.0000 0.0000 34.4724
#
#
#
# Elastic Compliance Matrix: (Units=1/GPa)
#
#
# Indices 1 2 3 4 5 6 
#
# 1 0.019388 -0.003050 -0.009813 0.000000 0.000000 0.000000
# 2 -0.003050 0.011967 -0.003899 0.000000 0.000000 0.000000
# 3 -0.009813 -0.003899 0.021319 0.000000 0.000000 0.000000
# 4 0.000000 0.000000 0.000000 0.032954 0.000000 0.000000
# 5 0.000000 0.000000 0.000000 0.000000 0.056629 0.000000
# 6 0.000000 0.000000 0.000000 0.000000 0.000000 0.029009
#
#
# Mechanical properties :
#
#
# Convention : Reuss Voigt Hill
#
# Bulk Modulus (GPa) = 52.21829 52.73456 52.47643
# Shear Modulus (GPa) = 23.67735 26.09146 24.88441
#
# Velocity S-wave (km/s) = 3.46594 3.63834 3.55319
# Velocity P-wave (km/s) = 6.51997 6.66371 6.59223
#
# Compressibility (1/GPa) = 0.01915038
#
# Stress axis : x y z
#
# Youngs Moduli (GPa) = 51.57929 83.56008 46.90724
#
# Poissons Ratio (x) = 0.25483 0.46032
# Poissons Ratio (y) = 0.15730 0.18287
# Poissons Ratio (z) = 0.50617 0.32577
#
# Static dielectric constant tensor:
#      x y z
#    x 3.684230 0.000000 0.000000 
#    y 0.000000 3.734010 0.000000 
#    z 0.000000 0.000000 3.176950 
# 
# 
# High freq. dielectric constant tensor:
#      x y z
#    x 1.781730 0.000000 0.000000 
#    y 0.000000 1.779220 0.000000 
#    z 0.000000 0.000000 1.729190 
# 
# From -- ./inp_files/20244.got.cif
#   From: 2010.06.25/outbox.cif.g09.slc.cpg/sg48_11_cif.got.tgz:20244.got - 2010.06.26 18:06:46.
