data_PCOD8202498
_publ_section_title
;
Structure prediction by ZEFSAII (Michael W. Deem and Ramdas Pophale) SiO2 
 PCOD8202498
Probable space group: P C C M
;
_chemical_formula_sum "Si O2"
_cell_formula_units_Z 64
_cell_length_a 4.952133
_cell_length_b 29.758304
_cell_length_c 24.360170
_cell_angle_alpha 90.000000
_cell_angle_beta 90.000000
_cell_angle_gamma 90.000000
_cell_volume 3589.887103
_symmetry_space_group_name_H-M "P C C M"
_symmetry_group_IT_number 49
_symmetry_cell_setting 'orthorhombic'
loop_
_space_group_symop_operation_xyz
x,y,z
-x,-y,z
x,-y,1/2-z
-x,y,1/2-z
-x,-y,-z
x,y,-z
-x,y,1/2+z
x,-y,1/2+z
loop_
_atom_site_type_symbol
_atom_site_label
_atom_site_fract_x
_atom_site_fract_y
_atom_site_fract_z
Si Si1 0.797599 0.806978 0.561002
Si Si2 0.034506 0.364129 0.686969
Si Si3 0.573670 0.574143 0.936537
Si Si4 0.715005 0.748673 0.938163
Si Si5 0.526135 0.894031 0.561838
Si Si6 0.042033 0.951445 0.562126
Si Si7 0.531449 0.338449 0.622231
Si Si8 0.912580 0.451929 0.871193
O O1 0.881661 0.823853 0.500000
O O2 0.582113 0.767978 0.558463
O O3 0.658928 0.850015 0.592085
O O4 0.070071 0.785099 0.587492
O O5 0.247636 0.331287 0.654992
O O6 0.125561 0.416116 0.678306
O O7 0.000000 0.350893 0.750000
O O8 0.733897 0.360452 0.664887
O O9 0.486004 0.626431 0.927509
O O10 0.369653 0.542114 0.903107
O O11 0.876309 0.566238 0.916024
O O12 0.555375 0.562040 0.000000
O O13 0.679801 0.706115 0.899237
O O14 0.813528 0.735291 0.000000
O O15 0.445731 0.878706 0.500000
O O16 0.745479 0.932335 0.562533
O O17 0.258091 0.916445 0.590219
O O18 0.150064 0.959423 0.500000
O O19 0.000000 0.000000 0.591763
O O20 0.000000 0.500000 0.846350
#
# Coordination Sequence:
#
# PCOD8202498 Si02
#       8
#     8   8   8   8   8   8   8   8
#     4   9  17  26  38  57  80 110 140 170 217 270
#     4  10  21  37  54  70  90 115 144 181 223 258
#     4  10  20  33  49  70  98 126 148 174 212 255
#     4  10  18  29  45  65  89 113 140 173 215 269
#     4   9  15  23  32  44  67  95 129 173 218 265
#     4   9  15  21  30  43  60  89 131 179 227 264
#     4  10  20  34  51  71  91 114 146 180 216 262
#     4  10  21  34  50  73  95 119 152 180 208 255
#
# _framework density 17.827857999999999
#
# number of rings (size 3 to 8) (size 9 to 14) (size 15 to 20)
#    0.000    2.375    0.000    3.375    0.000    6.250 
#    0.000    3.750    0.000    4.500    0.000    0.000 
#    0.000    0.000    0.000    0.000    0.000    0.000 
#
# Total GULP energy -792895.267980 kJ/mol
# GULP energy per Si atom -12388.988562 kJ/mol
# Density = 1.778728 g / cm^3
# Si number density = 17.827858 Si / 1000 Ang^3
#
#
#
# Elastic Constant Matrix: (Units=GPa)
#
#
# Indices 1 2 3 4 5 6 
#
# 1 87.5726 9.9774 7.7459 0.0000 0.0000 0.0000
# 2 9.9774 80.7806 10.8842 0.0000 0.0000 0.0000
# 3 7.7459 10.8842 36.3954 0.0000 0.0000 0.0000
# 4 0.0000 0.0000 0.0000 5.7929 0.0000 0.0000
# 5 0.0000 0.0000 0.0000 0.0000 14.0303 0.0000
# 6 0.0000 0.0000 0.0000 0.0000 0.0000 39.5648
#
#
#
# Elastic Compliance Matrix: (Units=1/GPa)
#
#
# Indices 1 2 3 4 5 6 
#
# 1 0.011742 -0.001160 -0.002152 0.000000 0.000000 0.000000
# 2 -0.001160 0.013014 -0.003645 0.000000 0.000000 0.000000
# 3 -0.002152 -0.003645 0.029024 0.000000 0.000000 0.000000
# 4 0.000000 0.000000 0.000000 0.172624 0.000000 0.000000
# 5 0.000000 0.000000 0.000000 0.000000 0.071274 0.000000
# 6 0.000000 0.000000 0.000000 0.000000 0.000000 0.025275
#
#
# Mechanical properties :
#
#
# Convention : Reuss Voigt Hill
#
# Bulk Modulus (GPa) = 25.08461 29.10708 27.09584
# Shear Modulus (GPa) = 14.27938 23.62034 18.94986
#
# Velocity S-wave (km/s) = 2.83319 3.64388 3.26381
# Velocity P-wave (km/s) = 4.98033 5.83661 5.42539
#
# Compressibility (1/GPa) = 0.03986508
#
# Stress axis : x y z
#
# Youngs Moduli (GPa) = 85.16707 76.84254 34.45425
#
# Poissons Ratio (x) = 0.08916 0.07414
# Poissons Ratio (y) = 0.09882 0.12558
# Poissons Ratio (z) = 0.18328 0.28008
#
# Static dielectric constant tensor:
#      x y z
#    x 3.504080 0.000000 0.000000 
#    y 0.000000 3.415770 0.000000 
#    z 0.000000 0.000000 2.656720 
# 
# 
# High freq. dielectric constant tensor:
#      x y z
#    x 1.718930 0.000000 0.000000 
#    y 0.000000 1.694830 0.000000 
#    z 0.000000 0.000000 1.594830 
# 
# From -- ./inp_files/21963.got.cif
#   From: 2010.03.12/outbox.cif.g09.slc.cpg/sg49_11_cif.got.tgz:21963.got - 2010.04.14 03:58:27.
