data_PCOD8202168
_publ_section_title
;
Structure prediction by ZEFSAII (Michael W. Deem and Ramdas Pophale) SiO2 
 PCOD8202168
Probable space group: P N N N
;
_chemical_formula_sum "Si O2"
_cell_formula_units_Z 32
_cell_length_a 13.208617
_cell_length_b 6.098772
_cell_length_c 16.523894
_cell_angle_alpha 90.000000
_cell_angle_beta 90.000000
_cell_angle_gamma 90.000000
_cell_volume 1331.104481
_symmetry_space_group_name_H-M "P N N N"
_symmetry_group_IT_number 48
_space_group.IT_coordinate_system_code '2'
_symmetry_cell_setting 'orthorhombic'
loop_
_space_group_symop_operation_xyz
x,y,z
1/2-x,1/2-y,z
x,1/2-y,1/2-z
1/2-x,y,1/2-z
-x,-y,-z
1/2+x,1/2+y,-z
-x,1/2+y,1/2+z
1/2+x,-y,1/2+z
loop_
_atom_site_type_symbol
_atom_site_label
_atom_site_fract_x
_atom_site_fract_y
_atom_site_fract_z
Si Si1 0.402869 0.908732 0.673939
Si Si2 0.750000 0.750000 0.250000
Si Si3 0.616945 0.053389 0.621248
Si Si4 0.108068 0.891272 0.517945
Si Si5 0.750000 0.250000 0.750000
Si Si6 0.250000 0.250000 0.024199
O O1 0.420113 0.750000 0.750000
O O2 0.380339 0.759186 0.596496
O O3 0.317462 0.090649 0.693029
O O4 0.502187 0.042507 0.650466
O O5 0.633852 0.256443 0.562000
O O6 0.682567 0.084455 0.700014
O O7 0.655448 0.833242 0.578036
O O8 0.198176 0.066185 0.531392
O O9 0.000000 0.000000 0.500000
#
# Coordination Sequence:
#
# PCOD8202168 Si02
#       6
#     8   2   8   8   2   4
#     4  12  31  53  84 118 165 217 278 338 409 490
#     4  12  32  58  80 118 168 222 268 354 388 496
#     4  12  28  50  80 120 161 210 268 339 417 488
#     4  12  28  54  79 120 161 220 271 336 414 487
#     4  12  26  46  80 122 156 200 270 334 416 490
#     4  12  26  50  84 114 166 212 266 339 401 495
#
# _framework density 24.040188000000001
#
# number of rings (size 3 to 8) (size 9 to 14) (size 15 to 20)
#    0.000    0.000    5.000    1.875   10.500    6.000 
#    0.000    0.000    0.000    0.000    0.000    0.000 
#    0.000    0.000    0.000    0.000    0.000    0.000 
#
# Total GULP energy -396813.502815 kJ/mol
# GULP energy per Si atom -12400.421963 kJ/mol
# Density = 2.398547 g / cm^3
# Si number density = 24.040188 Si / 1000 Ang^3
#
#
#
# Elastic Constant Matrix: (Units=GPa)
#
#
# Indices 1 2 3 4 5 6 
#
# 1 180.6362 85.1635 70.7879 0.0000 0.0000 0.0000
# 2 85.1635 146.5189 74.6522 0.0000 0.0000 0.0000
# 3 70.7879 74.6522 151.6491 0.0000 0.0000 0.0000
# 4 0.0000 0.0000 0.0000 -39.2853 0.0000 0.0000
# 5 0.0000 0.0000 0.0000 0.0000 40.4762 0.0000
# 6 0.0000 0.0000 0.0000 0.0000 0.0000 72.7101
#
#
#
# Elastic Compliance Matrix: (Units=1/GPa)
#
#
# Indices 1 2 3 4 5 6 
#
# 1 0.008030 -0.003681 -0.001936 0.000000 0.000000 0.000000
# 2 -0.003681 0.010797 -0.003597 0.000000 0.000000 0.000000
# 3 -0.001936 -0.003597 0.009269 0.000000 0.000000 0.000000
# 4 0.000000 0.000000 0.000000 -0.025455 0.000000 0.000000
# 5 0.000000 0.000000 0.000000 0.000000 0.024706 0.000000
# 6 0.000000 0.000000 0.000000 0.000000 0.000000 0.013753
#
#
# Mechanical properties :
#
#
# Convention : Reuss Voigt Hill
#
# Bulk Modulus (GPa) = 103.43771 104.44572 103.94172
# Shear Modulus (GPa) = 79.67909 31.32690 55.50299
#
# Velocity S-wave (km/s) = 5.76334 3.61377 4.81017
# Velocity P-wave (km/s) = 9.34925 7.80724 8.61283
#
# Compressibility (1/GPa) = 0.00966765
#
# Stress axis : x y z
#
# Youngs Moduli (GPa) = 124.52884 92.61612 107.88971
#
# Poissons Ratio (x) = 0.34092 0.20892
# Poissons Ratio (y) = 0.45838 0.38807
# Poissons Ratio (z) = 0.24114 0.33313
#
# Static dielectric constant tensor:
#      x y z
#    x 4.726870 0.000000 0.000000 
#    y 0.000000 4.670740 0.000000 
#    z 0.000000 0.000000 4.627800 
# 
# 
# High freq. dielectric constant tensor:
#      x y z
#    x 1.980030 0.000000 0.000000 
#    y 0.000000 1.968940 0.000000 
#    z 0.000000 0.000000 1.965170 
# 
# From -- ./inp_files/4065.got.cif
#   From: 2010.06.25/outbox.cif.g09.slc.cpg/sg48_3_cif.got.tgz:4065.got - 2010.06.26 18:06:46.
