data_PCOD8202451
_publ_section_title
;
Structure prediction by ZEFSAII (Michael W. Deem and Ramdas Pophale) SiO2 
 PCOD8202451
Probable space group: P C C M
;
_chemical_formula_sum "Si O2"
_cell_formula_units_Z 64
_cell_length_a 24.608221
_cell_length_b 18.467956
_cell_length_c 8.837526
_cell_angle_alpha 90.000000
_cell_angle_beta 90.000000
_cell_angle_gamma 90.000000
_cell_volume 4016.333374
_symmetry_space_group_name_H-M "P C C M"
_symmetry_group_IT_number 49
_symmetry_cell_setting 'orthorhombic'
loop_
_space_group_symop_operation_xyz
x,y,z
-x,-y,z
x,-y,1/2-z
-x,y,1/2-z
-x,-y,-z
x,y,-z
-x,y,1/2+z
x,-y,1/2+z
loop_
_atom_site_type_symbol
_atom_site_label
_atom_site_fract_x
_atom_site_fract_y
_atom_site_fract_z
Si Si1 0.656448 0.073602 0.323646
Si Si2 0.050901 0.204122 0.826818
Si Si3 0.380986 0.703157 0.824252
Si Si4 0.442633 0.423695 0.179750
Si Si5 0.714636 0.221134 0.324884
Si Si6 0.103487 0.077905 0.322064
Si Si7 0.832608 0.809032 0.174063
Si Si8 0.558226 0.849794 0.677377
O O1 0.647351 0.061346 0.500000
O O2 0.699208 0.137785 0.291383
O O3 0.598614 0.092047 0.249394
O O4 0.679540 0.000000 0.250000
O O5 0.053803 0.125263 0.746062
O O6 0.111703 0.240276 0.807355
O O7 0.000000 0.247395 0.750000
O O8 0.035844 0.194510 0.000000
O O9 0.397665 0.635023 0.723079
O O10 0.319829 0.724855 0.779026
O O11 0.421377 0.768893 0.785993
O O12 0.382730 0.682059 0.000000
O O13 0.424355 0.500000 0.250000
O O14 0.500000 0.399026 0.250000
O O15 0.448154 0.430474 0.000000
O O16 0.703564 0.240194 0.500000
O O17 0.777900 0.233185 0.278811
O O18 0.098310 0.071677 0.500000
O O19 0.159971 0.118471 0.275038
O O20 0.102004 0.000000 0.250000
O O21 0.826691 0.834161 0.000000
O O22 0.500000 0.861218 0.750000
O O23 0.555038 0.863888 0.500000
#
# Coordination Sequence:
#
# PCOD8202451 Si02
#       8
#     8   8   8   8   8   8   8   8
#     4  10  20  33  48  63  82 105 135 175 224 274
#     4   9  17  29  43  59  80 104 134 173 218 271
#     4  10  20  33  50  73  97 122 153 186 219 263
#     4  11  21  34  52  75 104 134 161 191 225 264
#     4   9  18  34  51  66  86 115 148 186 229 272
#     4  10  18  28  40  55  75 100 132 171 218 270
#     4   8  17  31  44  59  80 104 135 174 216 263
#     4  10  20  33  49  67  87 109 139 175 216 263
#
# _framework density 15.934932999999999
#
# number of rings (size 3 to 8) (size 9 to 14) (size 15 to 20)
#    0.750    1.625    0.000    4.125    0.000    4.500 
#    0.000    3.750    0.000    0.000    0.000    0.000 
#    0.000    0.000    0.000    0.000    0.000    0.625 
#
# Total GULP energy -793059.568330 kJ/mol
# GULP energy per Si atom -12391.555755 kJ/mol
# Density = 1.589866 g / cm^3
# Si number density = 15.934933 Si / 1000 Ang^3
#
#
#
# Elastic Constant Matrix: (Units=GPa)
#
#
# Indices 1 2 3 4 5 6 
#
# 1 108.9488 23.6725 37.1923 0.0000 0.0000 0.0000
# 2 23.6725 50.8647 27.6199 0.0000 0.0000 0.0000
# 3 37.1923 27.6199 101.2738 0.0000 0.0000 0.0000
# 4 0.0000 0.0000 0.0000 20.2615 0.0000 0.0000
# 5 0.0000 0.0000 0.0000 0.0000 25.8237 0.0000
# 6 0.0000 0.0000 0.0000 0.0000 0.0000 12.1995
#
#
#
# Elastic Compliance Matrix: (Units=1/GPa)
#
#
# Indices 1 2 3 4 5 6 
#
# 1 0.010981 -0.003429 -0.003098 0.000000 0.000000 0.000000
# 2 -0.003429 0.024148 -0.005327 0.000000 0.000000 0.000000
# 3 -0.003098 -0.005327 0.012465 0.000000 0.000000 0.000000
# 4 0.000000 0.000000 0.000000 0.049355 0.000000 0.000000
# 5 0.000000 0.000000 0.000000 0.000000 0.038724 0.000000
# 6 0.000000 0.000000 0.000000 0.000000 0.000000 0.081970
#
#
# Mechanical properties :
#
#
# Convention : Reuss Voigt Hill
#
# Bulk Modulus (GPa) = 41.86222 48.67296 45.26759
# Shear Modulus (GPa) = 20.05526 23.16379 21.60953
#
# Velocity S-wave (km/s) = 3.55148 3.81681 3.68654
# Velocity P-wave (km/s) = 6.56850 7.07356 6.82570
#
# Compressibility (1/GPa) = 0.02388789
#
# Stress axis : x y z
#
# Youngs Moduli (GPa) = 91.06602 41.41118 80.22753
#
# Poissons Ratio (x) = 0.14198 0.24852
# Poissons Ratio (y) = 0.31222 0.42735
# Poissons Ratio (z) = 0.28209 0.22058
#
# Static dielectric constant tensor:
#      x y z
#    x 3.145580 0.000000 0.000000 
#    y 0.000000 2.642500 0.000000 
#    z 0.000000 0.000000 3.114320 
# 
# 
# High freq. dielectric constant tensor:
#      x y z
#    x 1.611600 0.000000 0.000000 
#    y 0.000000 1.556010 0.000000 
#    z 0.000000 0.000000 1.629360 
# 
# From -- ./inp_files/6783.got.cif
#   From: 2010.03.12/outbox.cif.g09.slc.cpg/sg49_4_cif.got.tgz:6783.got - 2010.04.14 03:58:27.
