data_PCOD8202655
_publ_section_title
;
Structure prediction by ZEFSAII (Michael W. Deem and Ramdas Pophale) SiO2 
 PCOD8202655
Probable space group: P C C M
;
_chemical_formula_sum "Si O2"
_cell_formula_units_Z 64
_cell_length_a 31.183573
_cell_length_b 14.345293
_cell_length_c 8.681582
_cell_angle_alpha 90.000000
_cell_angle_beta 90.000000
_cell_angle_gamma 90.000000
_cell_volume 3883.597114
_symmetry_space_group_name_H-M "P C C M"
_symmetry_group_IT_number 49
_symmetry_cell_setting 'orthorhombic'
loop_
_space_group_symop_operation_xyz
x,y,z
-x,-y,z
x,-y,1/2-z
-x,y,1/2-z
-x,-y,-z
x,y,-z
-x,y,1/2+z
x,-y,1/2+z
loop_
_atom_site_type_symbol
_atom_site_label
_atom_site_fract_x
_atom_site_fract_y
_atom_site_fract_z
Si Si1 0.955165 0.601251 0.316612
Si Si2 0.126915 0.288629 0.317924
Si Si3 0.743725 0.096793 0.317708
Si Si4 0.364172 0.397204 0.180530
Si Si5 0.540920 0.398806 0.322537
Si Si6 0.710000 0.722555 0.681643
Si Si7 0.837140 0.903962 0.317618
Si Si8 0.791060 0.398293 0.182343
O O1 0.944431 0.500000 0.250000
O O2 0.957831 0.595074 0.500000
O O3 0.918283 0.671531 0.257800
O O4 0.000000 0.639112 0.250000
O O5 0.128906 0.296663 0.500000
O O6 0.131509 0.180552 0.268188
O O7 0.166148 0.349459 0.250113
O O8 0.746784 0.089683 0.500000
O O9 0.711629 0.178309 0.267091
O O10 0.790530 0.117737 0.249391
O O11 0.725692 0.000000 0.250000
O O12 0.359052 0.500000 0.250000
O O13 0.412097 0.354689 0.207007
O O14 0.333386 0.327464 0.269304
O O15 0.352793 0.402101 0.000000
O O16 0.542254 0.500000 0.250000
O O17 0.500000 0.342384 0.250000
O O18 0.531296 0.408526 0.500000
O O19 0.710704 0.739144 0.500000
O O20 0.750235 0.660980 0.736654
O O21 0.832836 0.912452 0.500000
O O22 0.856301 0.000000 0.250000
O O23 0.786511 0.500000 0.250000
O O24 0.792868 0.405325 0.000000
#
# Coordination Sequence:
#
# PCOD8202655 Si02
#       8
#     8   8   8   8   8   8   8   8
#     4  10  19  33  52  73  97 127 156 192 236 279
#     4   9  18  33  51  69  96 127 155 193 240 282
#     4  11  21  34  52  73  96 124 160 201 244 289
#     4  10  20  32  45  66  96 132 170 206 247 294
#     4   9  16  26  42  62  87 119 160 207 249 290
#     4  11  21  34  50  67  95 131 165 201 242 286
#     4  10  18  33  52  73  98 123 156 195 240 287
#     4  10  20  33  46  65  93 126 160 195 231 274
#
# _framework density 16.479566999999999
#
# number of rings (size 3 to 8) (size 9 to 14) (size 15 to 20)
#    0.000    2.000    1.250    5.250    0.000    3.500 
#    0.000    3.125    0.000    0.375    0.000    2.625 
#    0.000    0.500    0.000    5.250    0.000    2.875 
#
# Total GULP energy -793419.299744 kJ/mol
# GULP energy per Si atom -12397.176558 kJ/mol
# Density = 1.644206 g / cm^3
# Si number density = 16.479567 Si / 1000 Ang^3
#
#
#
# Elastic Constant Matrix: (Units=GPa)
#
#
# Indices 1 2 3 4 5 6 
#
# 1 117.4273 60.5982 37.4453 0.0000 0.0000 0.0000
# 2 60.5982 113.3342 37.1432 0.0000 0.0000 0.0000
# 3 37.4453 37.1432 80.5421 0.0000 0.0000 0.0000
# 4 0.0000 0.0000 0.0000 24.5378 0.0000 0.0000
# 5 0.0000 0.0000 0.0000 0.0000 19.7659 0.0000
# 6 0.0000 0.0000 0.0000 0.0000 0.0000 6.8786
#
#
#
# Elastic Compliance Matrix: (Units=1/GPa)
#
#
# Indices 1 2 3 4 5 6 
#
# 1 0.012422 -0.005595 -0.003195 0.000000 0.000000 0.000000
# 2 -0.005595 0.012914 -0.003355 0.000000 0.000000 0.000000
# 3 -0.003195 -0.003355 0.015448 0.000000 0.000000 0.000000
# 4 0.000000 0.000000 0.000000 0.040753 0.000000 0.000000
# 5 0.000000 0.000000 0.000000 0.000000 0.050592 0.000000
# 6 0.000000 0.000000 0.000000 0.000000 0.000000 0.145379
#
#
# Mechanical properties :
#
#
# Convention : Reuss Voigt Hill
#
# Bulk Modulus (GPa) = 60.62128 64.63079 62.62604
# Shear Modulus (GPa) = 16.27093 21.97757 19.12425
#
# Velocity S-wave (km/s) = 3.14561 3.65585 3.41028
# Velocity P-wave (km/s) = 7.07522 7.55805 7.32062
#
# Compressibility (1/GPa) = 0.01649586
#
# Stress axis : x y z
#
# Youngs Moduli (GPa) = 80.50307 77.43379 64.73205
#
# Poissons Ratio (x) = 0.43322 0.20682
# Poissons Ratio (y) = 0.45039 0.21715
# Poissons Ratio (z) = 0.25721 0.25976
#
# Static dielectric constant tensor:
#      x y z
#    x 3.579170 0.000000 0.000000 
#    y 0.000000 3.117290 0.000000 
#    z 0.000000 0.000000 3.134040 
# 
# 
# High freq. dielectric constant tensor:
#      x y z
#    x 1.627870 0.000000 0.000000 
#    y 0.000000 1.614420 0.000000 
#    z 0.000000 0.000000 1.642160 
# 
# From -- ./inp_files/7052.got.cif
#   From: 2010.03.12/outbox.cif.g09.slc.cpg/sg49_4_cif.got.tgz:7052.got - 2010.04.14 03:58:27.
