data_PCOD8202165
_publ_section_title
;
Structure prediction by ZEFSAII (Michael W. Deem and Ramdas Pophale) SiO2 
 PCOD8202165
Probable space group: P N N N
;
_chemical_formula_sum "Si O2"
_cell_formula_units_Z 30
_cell_length_a 19.854221
_cell_length_b 12.395694
_cell_length_c 5.594471
_cell_angle_alpha 90.000000
_cell_angle_beta 90.000000
_cell_angle_gamma 90.000000
_cell_volume 1376.837625
_symmetry_space_group_name_H-M "P N N N"
_symmetry_group_IT_number 48
_space_group.IT_coordinate_system_code '2'
_symmetry_cell_setting 'orthorhombic'
loop_
_space_group_symop_operation_xyz
x,y,z
1/2-x,1/2-y,z
x,1/2-y,1/2-z
1/2-x,y,1/2-z
-x,-y,-z
1/2+x,1/2+y,-z
-x,1/2+y,1/2+z
1/2+x,-y,1/2+z
loop_
_atom_site_type_symbol
_atom_site_label
_atom_site_fract_x
_atom_site_fract_y
_atom_site_fract_z
Si Si1 0.817766 0.899381 0.639710
Si Si2 0.967748 0.250000 0.250000
Si Si3 0.413534 0.335723 0.950742
Si Si4 0.750000 0.750000 0.250000
Si Si5 0.572156 0.025997 0.112572
O O1 0.750000 0.950400 0.750000
O O2 0.797518 0.825296 0.414331
O O3 0.867519 0.995152 0.564871
O O4 0.856553 0.830699 0.844009
O O5 0.920496 0.346489 0.157039
O O6 0.013909 0.298873 0.457254
O O7 0.391908 0.250000 0.750000
O O8 0.420004 0.457262 0.854413
O O9 0.500000 0.000000 0.000000
#
# Coordination Sequence:
#
# PCOD8202165 Si02
#       5
#     8   4   8   2   8
#     4  12  29  43  71 108 150 193 238 313 375 450
#     4  12  26  44  71 107 152 196 242 306 366 440
#     4  12  25  44  73 113 149 186 242 302 379 440
#     4  12  30  48  74 106 152 190 242 306 382 440
#     4  12  26  44  72 110 147 194 245 304 372 449
#
# _framework density 21.789059999999999
#
# number of rings (size 3 to 8) (size 9 to 14) (size 15 to 20)
#    0.000    0.000    5.333    2.800   18.667    0.000 
#    0.000    0.000    0.000   12.000    0.000    0.000 
#    0.000    0.000    0.000    0.000    0.000    0.000 
#
# Total GULP energy -371916.836868 kJ/mol
# GULP energy per Si atom -12397.227896 kJ/mol
# Density = 2.173947 g / cm^3
# Si number density = 21.789060 Si / 1000 Ang^3
#
#
#
# Elastic Constant Matrix: (Units=GPa)
#
#
# Indices 1 2 3 4 5 6 
#
# 1 164.6824 75.8774 65.7335 0.0000 0.0000 0.0000
# 2 75.8774 158.1674 58.0364 0.0000 0.0000 0.0000
# 3 65.7335 58.0364 140.3954 0.0000 0.0000 0.0000
# 4 0.0000 0.0000 0.0000 32.9151 0.0000 0.0000
# 5 0.0000 0.0000 0.0000 0.0000 30.7125 0.0000
# 6 0.0000 0.0000 0.0000 0.0000 0.0000 48.9720
#
#
#
# Elastic Compliance Matrix: (Units=1/GPa)
#
#
# Indices 1 2 3 4 5 6 
#
# 1 0.008604 -0.003123 -0.002737 0.000000 0.000000 0.000000
# 2 -0.003123 0.008587 -0.002087 0.000000 0.000000 0.000000
# 3 -0.002737 -0.002087 0.009267 0.000000 0.000000 0.000000
# 4 0.000000 0.000000 0.000000 0.030381 0.000000 0.000000
# 5 0.000000 0.000000 0.000000 0.000000 0.032560 0.000000
# 6 0.000000 0.000000 0.000000 0.000000 0.000000 0.020420
#
#
# Mechanical properties :
#
#
# Convention : Reuss Voigt Hill
#
# Bulk Modulus (GPa) = 94.67695 95.83775 95.25735
# Shear Modulus (GPa) = 38.68929 40.09313 39.39121
#
# Velocity S-wave (km/s) = 4.21839 4.29424 4.25649
# Velocity P-wave (km/s) = 8.20197 8.28657 8.24438
#
# Compressibility (1/GPa) = 0.01056223
#
# Stress axis : x y z
#
# Youngs Moduli (GPa) = 116.22662 116.46149 107.90772
#
# Poissons Ratio (x) = 0.36372 0.29538
# Poissons Ratio (y) = 0.36299 0.22523
# Poissons Ratio (z) = 0.31815 0.24308
#
# Static dielectric constant tensor:
#      x y z
#    x 4.211550 0.000000 0.000000 
#    y 0.000000 3.982480 0.000000 
#    z 0.000000 0.000000 4.787890 
# 
# 
# High freq. dielectric constant tensor:
#      x y z
#    x 1.862020 0.000000 0.000000 
#    y 0.000000 1.835410 0.000000 
#    z 0.000000 0.000000 1.880640 
# 
# From -- ./inp_files/4891.got.cif
#   From: 2010.06.25/outbox.cif.g09.slc.cpg/sg48_3_cif.got.tgz:4891.got - 2010.06.26 18:06:46.
