data_PCOD8202896
_publ_section_title
;
Structure prediction by ZEFSAII (Michael W. Deem and Ramdas Pophale) SiO2 
 PCOD8202896
Probable space group: P C C M
;
_chemical_formula_sum "Si O2"
_cell_formula_units_Z 64
_cell_length_a 15.048560
_cell_length_b 24.749159
_cell_length_c 9.077832
_cell_angle_alpha 90.000000
_cell_angle_beta 90.000000
_cell_angle_gamma 90.000000
_cell_volume 3380.940526
_symmetry_space_group_name_H-M "P C C M"
_symmetry_group_IT_number 49
_symmetry_cell_setting 'orthorhombic'
loop_
_space_group_symop_operation_xyz
x,y,z
-x,-y,z
x,-y,1/2-z
-x,y,1/2-z
-x,-y,-z
x,y,-z
-x,y,1/2+z
x,-y,1/2+z
loop_
_atom_site_type_symbol
_atom_site_label
_atom_site_fract_x
_atom_site_fract_y
_atom_site_fract_z
Si Si1 0.360778 0.706007 0.170080
Si Si2 0.222458 0.446336 0.326062
Si Si3 0.583998 0.411199 0.168151
Si Si4 0.176063 0.667841 0.175129
Si Si5 0.220662 0.862722 0.170359
Si Si6 0.909431 0.058034 0.677606
Si Si7 0.915757 0.228850 0.168427
Si Si8 0.412639 0.178425 0.326581
O O1 0.422763 0.653658 0.189459
O O2 0.266679 0.691372 0.245173
O O3 0.401938 0.760561 0.239506
O O4 0.344101 0.720011 0.000000
O O5 0.184254 0.500000 0.250000
O O6 0.218857 0.454406 0.500000
O O7 0.323214 0.434968 0.271075
O O8 0.161964 0.394693 0.275665
O O9 0.500000 0.437836 0.250000
O O10 0.575318 0.427535 0.000000
O O11 0.098347 0.708945 0.223327
O O12 0.188362 0.667668 0.000000
O O13 0.175202 0.905930 0.278217
O O14 0.173343 0.805096 0.196836
O O15 0.324470 0.856413 0.212231
O O16 0.209620 0.880858 0.000000
O O17 0.918151 0.054548 0.500000
O O18 0.000000 0.082462 0.750000
O O19 0.893173 0.000000 0.750000
O O20 0.000000 0.203148 0.250000
O O21 0.942526 0.228094 0.000000
O O22 0.500000 0.152523 0.250000
O O23 0.429017 0.178125 0.500000
#
# Coordination Sequence:
#
# PCOD8202896 Si02
#       8
#     8   8   8   8   8   8   8   8
#     4   8  13  26  46  66  90 127 171 208 249 305
#     4   9  18  31  47  64  83 115 160 205 250 305
#     4   9  17  27  41  61  86 116 154 200 250 305
#     4   8  14  29  50  68  91 128 167 200 247 314
#     4  10  20  35  55  81 115 153 187 222 268 321
#     4  11  22  38  61  88 119 153 190 230 271 320
#     4  10  19  32  53  79 107 138 171 208 258 321
#     4  10  19  31  50  75 106 145 187 227 267 315
#
# _framework density 18.929645000000001
#
# number of rings (size 3 to 8) (size 9 to 14) (size 15 to 20)
#    0.000    2.625    1.250    3.750    0.000    2.750 
#    0.000    1.875    0.000    2.250    0.000    5.250 
#    0.000    0.000    0.000    0.000    0.000    0.000 
#
# Total GULP energy -792980.745674 kJ/mol
# GULP energy per Si atom -12390.324151 kJ/mol
# Density = 1.888656 g / cm^3
# Si number density = 18.929645 Si / 1000 Ang^3
#
#
#
# Elastic Constant Matrix: (Units=GPa)
#
#
# Indices 1 2 3 4 5 6 
#
# 1 100.3187 36.1969 39.2283 0.0000 0.0000 0.0000
# 2 36.1969 84.1092 37.4310 0.0000 0.0000 0.0000
# 3 39.2283 37.4310 60.4242 0.0000 0.0000 0.0000
# 4 0.0000 0.0000 0.0000 1.3448 0.0000 0.0000
# 5 0.0000 0.0000 0.0000 0.0000 23.2791 0.0000
# 6 0.0000 0.0000 0.0000 0.0000 0.0000 14.5149
#
#
#
# Elastic Compliance Matrix: (Units=1/GPa)
#
#
# Indices 1 2 3 4 5 6 
#
# 1 0.013788 -0.002692 -0.007283 0.000000 0.000000 0.000000
# 2 -0.002692 0.016940 -0.008746 0.000000 0.000000 0.000000
# 3 -0.007283 -0.008746 0.026696 0.000000 0.000000 0.000000
# 4 0.000000 0.000000 0.000000 0.743623 0.000000 0.000000
# 5 0.000000 0.000000 0.000000 0.000000 0.042957 0.000000
# 6 0.000000 0.000000 0.000000 0.000000 0.000000 0.068895
#
#
# Mechanical properties :
#
#
# Convention : Reuss Voigt Hill
#
# Bulk Modulus (GPa) = 50.04886 52.28494 51.16690
# Shear Modulus (GPa) = 5.22465 16.62747 10.92606
#
# Velocity S-wave (km/s) = 1.66314 2.96697 2.40509
# Velocity P-wave (km/s) = 5.49407 6.27836 5.89927
#
# Compressibility (1/GPa) = 0.01998047
#
# Stress axis : x y z
#
# Youngs Moduli (GPa) = 72.52813 59.03112 37.45872
#
# Poissons Ratio (x) = 0.15893 0.27283
# Poissons Ratio (y) = 0.19527 0.32762
# Poissons Ratio (z) = 0.52825 0.51629
#
# Static dielectric constant tensor:
#      x y z
#    x 3.348340 0.000000 0.000000 
#    y 0.000000 3.494210 0.000000 
#    z 0.000000 0.000000 3.106770 
# 
# 
# High freq. dielectric constant tensor:
#      x y z
#    x 1.720850 0.000000 0.000000 
#    y 0.000000 1.727840 0.000000 
#    z 0.000000 0.000000 1.700760 
# 
# From -- ./inp_files/4362.got.cif
#   From: 2010.03.12/outbox.cif.g09.slc.cpg/sg49_3_cif.got.tgz:4362.got - 2010.04.14 03:58:27.
