data_PCOD8202456
_publ_section_title
;
Structure prediction by ZEFSAII (Michael W. Deem and Ramdas Pophale) SiO2 
 PCOD8202456
Probable space group: P C C M
;
_chemical_formula_sum "Si O2"
_cell_formula_units_Z 58
_cell_length_a 13.524552
_cell_length_b 29.125595
_cell_length_c 8.761403
_cell_angle_alpha 90.000000
_cell_angle_beta 90.000000
_cell_angle_gamma 90.000000
_cell_volume 3451.209724
_symmetry_space_group_name_H-M "P C C M"
_symmetry_group_IT_number 49
_symmetry_cell_setting 'orthorhombic'
loop_
_space_group_symop_operation_xyz
x,y,z
-x,-y,z
x,-y,1/2-z
-x,y,1/2-z
-x,-y,-z
x,y,-z
-x,y,1/2+z
x,-y,1/2+z
loop_
_atom_site_type_symbol
_atom_site_label
_atom_site_fract_x
_atom_site_fract_y
_atom_site_fract_z
Si Si1 0.102716 0.223891 0.822734
Si Si2 0.500000 0.500000 0.750000
Si Si3 0.304514 0.732436 0.679807
Si Si4 0.604475 0.180543 0.818543
Si Si5 0.105728 0.951681 0.181480
Si Si6 0.390844 0.364814 0.818556
Si Si7 0.788987 0.132592 0.681088
Si Si8 0.686951 0.456989 0.663839
O O1 0.189651 0.259378 0.776115
O O2 0.133599 0.172532 0.772296
O O3 0.000000 0.239475 0.750000
O O4 0.084657 0.225285 0.000000
O O5 0.570514 0.469260 0.642378
O O6 0.321131 0.741843 0.500000
O O7 0.373361 0.766849 0.774255
O O8 0.335304 0.681567 0.729504
O O9 0.500000 0.165862 0.750000
O O10 0.681507 0.146587 0.738953
O O11 0.606495 0.174818 0.000000
O O12 0.183823 0.913590 0.230960
O O13 0.000000 0.937885 0.250000
O O14 0.141803 0.000000 0.250000
O O15 0.098013 0.955140 0.000000
O O16 0.500000 0.366003 0.750000
O O17 0.319288 0.406566 0.756391
O O18 0.399756 0.369398 0.000000
O O19 0.787481 0.124681 0.500000
O O20 0.740684 0.500000 0.750000
O O21 0.739826 0.453235 0.500000
#
# Coordination Sequence:
#
# PCOD8202456 Si02
#       8
#     8   2   8   8   8   8   8   8
#     4   9  18  31  48  68  91 119 148 184 228 273
#     4   8  14  20  34  48  74  96 140 172 214 248
#     4   9  19  33  46  64  91 120 153 191 230 274
#     4  11  21  34  51  71  96 127 162 198 236 276
#     4  11  21  34  52  77 107 138 167 200 244 290
#     4  10  18  28  41  58  83 116 150 183 221 265
#     4  10  20  35  53  75 100 127 162 200 237 281
#     4   9  16  24  36  53  75 106 142 178 216 260
#
# _framework density 16.805700999999999
#
# number of rings (size 3 to 8) (size 9 to 14) (size 15 to 20)
#    0.414    1.793    0.690    5.172    0.000    6.069 
#    0.000    0.000    0.000    0.414    0.000    2.897 
#    0.000    0.552    0.000    6.897    0.000    0.000 
#
# Total GULP energy -718691.937471 kJ/mol
# GULP energy per Si atom -12391.240301 kJ/mol
# Density = 1.676745 g / cm^3
# Si number density = 16.805701 Si / 1000 Ang^3
#
#
#
# Elastic Constant Matrix: (Units=GPa)
#
#
# Indices 1 2 3 4 5 6 
#
# 1 75.9505 43.4323 25.8230 0.0000 0.0000 0.0000
# 2 43.4323 133.0772 37.0387 0.0000 0.0000 0.0000
# 3 25.8230 37.0387 74.9705 0.0000 0.0000 0.0000
# 4 0.0000 0.0000 0.0000 24.9318 0.0000 0.0000
# 5 0.0000 0.0000 0.0000 0.0000 23.2631 0.0000
# 6 0.0000 0.0000 0.0000 0.0000 0.0000 24.6539
#
#
#
# Elastic Compliance Matrix: (Units=1/GPa)
#
#
# Indices 1 2 3 4 5 6 
#
# 1 0.016990 -0.004541 -0.003609 0.000000 0.000000 0.000000
# 2 -0.004541 0.009926 -0.003340 0.000000 0.000000 0.000000
# 3 -0.003609 -0.003340 0.016232 0.000000 0.000000 0.000000
# 4 0.000000 0.000000 0.000000 0.040109 0.000000 0.000000
# 5 0.000000 0.000000 0.000000 0.000000 0.042987 0.000000
# 6 0.000000 0.000000 0.000000 0.000000 0.000000 0.040562
#
#
# Mechanical properties :
#
#
# Convention : Reuss Voigt Hill
#
# Bulk Modulus (GPa) = 49.58101 55.17625 52.37863
# Shear Modulus (GPa) = 25.44444 26.41670 25.93057
#
# Velocity S-wave (km/s) = 3.89528 3.96901 3.93232
# Velocity P-wave (km/s) = 7.05674 7.34215 7.20086
#
# Compressibility (1/GPa) = 0.02016901
#
# Stress axis : x y z
#
# Youngs Moduli (GPa) = 58.85818 100.74643 61.60800
#
# Poissons Ratio (x) = 0.45745 0.22233
# Poissons Ratio (y) = 0.26725 0.20576
# Poissons Ratio (z) = 0.21241 0.33648
#
# Static dielectric constant tensor:
#      x y z
#    x 2.992390 0.000000 0.000000 
#    y 0.000000 3.316470 0.000000 
#    z 0.000000 0.000000 3.117500 
# 
# 
# High freq. dielectric constant tensor:
#      x y z
#    x 1.612030 0.000000 0.000000 
#    y 0.000000 1.651380 0.000000 
#    z 0.000000 0.000000 1.650710 
# 
# From -- ./inp_files/3076.got.cif
#   From: 2010.03.12/outbox.cif.g09.slc.cpg/sg49_2_cif.got.tgz:3076.got - 2010.04.14 03:58:27.
