data_PCOD8202030
_publ_section_title
;
Structure prediction by ZEFSAII (Michael W. Deem and Ramdas Pophale) SiO2 
 PCOD8202030
Probable space group: P N N N
;
_chemical_formula_sum "Si O2"
_cell_formula_units_Z 64
_cell_length_a 9.977910
_cell_length_b 16.211719
_cell_length_c 20.742506
_cell_angle_alpha 90.000000
_cell_angle_beta 90.000000
_cell_angle_gamma 90.000000
_cell_volume 3355.288545
_symmetry_space_group_name_H-M "P N N N"
_symmetry_group_IT_number 48
_space_group.IT_coordinate_system_code '2'
_symmetry_cell_setting 'orthorhombic'
loop_
_space_group_symop_operation_xyz
x,y,z
1/2-x,1/2-y,z
x,1/2-y,1/2-z
1/2-x,y,1/2-z
-x,-y,-z
1/2+x,1/2+y,-z
-x,1/2+y,1/2+z
1/2+x,-y,1/2+z
loop_
_atom_site_type_symbol
_atom_site_label
_atom_site_fract_x
_atom_site_fract_y
_atom_site_fract_z
Si Si1 0.891783 0.230849 0.323523
Si Si2 0.731314 0.522139 0.675681
Si Si3 0.789784 0.942570 0.448198
Si Si4 0.954038 0.428795 0.119496
Si Si5 0.143888 0.178090 0.119842
Si Si6 0.459671 0.142914 0.513893
Si Si7 0.024386 0.665027 0.014657
Si Si8 0.230257 0.567609 0.446111
O O1 0.750000 0.250000 0.358912
O O2 0.882624 0.250000 0.250000
O O3 0.913834 0.133189 0.324385
O O4 0.006553 0.284731 0.355334
O O5 0.750000 0.493543 0.750000
O O6 0.580282 0.521347 0.647571
O O7 0.795897 0.613305 0.670806
O O8 0.802071 0.455023 0.628645
O O9 0.648970 0.894817 0.435068
O O10 0.907203 0.876304 0.444691
O O11 0.828666 0.010333 0.394007
O O12 0.794071 0.988915 0.517425
O O13 0.984968 0.368722 0.058399
O O14 0.250000 0.250000 0.106186
O O15 0.113392 0.128860 0.054400
O O16 0.498049 0.238038 0.521454
O O17 0.592773 0.089102 0.517932
O O18 0.166865 0.644155 0.047593
#
# Coordination Sequence:
#
# PCOD8202030 Si02
#       8
#     8   8   8   8   8   8   8   8
#     4  11  25  39  54  85 131 172 208 239 288 360
#     4  12  23  39  62  86 123 166 211 250 290 371
#     4  11  21  36  60  86 127 159 196 248 311 370
#     4  11  20  38  61  86 121 173 199 241 308 369
#     4  12  23  37  60  91 129 162 206 241 296 369
#     4  12  23  35  60  95 124 150 202 268 311 357
#     4  11  20  38  62  84 125 163 198 245 315 380
#     4  11  23  38  57  93 123 158 200 257 315 362
#
# _framework density 19.074366000000001
#
# number of rings (size 3 to 8) (size 9 to 14) (size 15 to 20)
#    0.000    0.625    6.250    3.375    3.500    0.000 
#    0.000    0.000    0.000    1.500    0.000    0.000 
#    7.500    0.000    0.000    0.000    0.000    0.000 
#
# Total GULP energy -793353.012031 kJ/mol
# GULP energy per Si atom -12396.140813 kJ/mol
# Density = 1.903095 g / cm^3
# Si number density = 19.074366 Si / 1000 Ang^3
#
#
#
# Elastic Constant Matrix: (Units=GPa)
#
#
# Indices 1 2 3 4 5 6 
#
# 1 134.2738 32.6211 28.0257 0.0000 0.0000 0.0000
# 2 32.6211 77.6861 35.7112 0.0000 0.0000 0.0000
# 3 28.0257 35.7112 87.0686 0.0000 0.0000 0.0000
# 4 0.0000 0.0000 0.0000 36.6065 0.0000 0.0000
# 5 0.0000 0.0000 0.0000 0.0000 15.7035 0.0000
# 6 0.0000 0.0000 0.0000 0.0000 0.0000 34.5439
#
#
#
# Elastic Compliance Matrix: (Units=1/GPa)
#
#
# Indices 1 2 3 4 5 6 
#
# 1 0.008462 -0.002836 -0.001561 0.000000 0.000000 0.000000
# 2 -0.002836 0.016814 -0.005983 0.000000 0.000000 0.000000
# 3 -0.001561 -0.005983 0.014442 0.000000 0.000000 0.000000
# 4 0.000000 0.000000 0.000000 0.027318 0.000000 0.000000
# 5 0.000000 0.000000 0.000000 0.000000 0.063680 0.000000
# 6 0.000000 0.000000 0.000000 0.000000 0.000000 0.028949
#
#
# Mechanical properties :
#
#
# Convention : Reuss Voigt Hill
#
# Bulk Modulus (GPa) = 52.74919 54.63827 53.69373
# Shear Modulus (GPa) = 26.77482 30.88214 28.82848
#
# Velocity S-wave (km/s) = 3.75067 4.02809 3.89186
# Velocity P-wave (km/s) = 6.81698 7.09515 6.95745
#
# Compressibility (1/GPa) = 0.01895764
#
# Stress axis : x y z
#
# Youngs Moduli (GPa) = 118.17281 59.47580 69.24451
#
# Poissons Ratio (x) = 0.16867 0.10807
# Poissons Ratio (y) = 0.33513 0.41431
# Poissons Ratio (z) = 0.18443 0.35586
#
# Static dielectric constant tensor:
#      x y z
#    x 1.660860 0.000000 0.000000 
#    y 0.000000 3.657680 0.000000 
#    z 0.000000 0.000000 3.470250 
# 
# 
# High freq. dielectric constant tensor:
#      x y z
#    x 1.760970 0.000000 0.000000 
#    y 0.000000 1.743080 0.000000 
#    z 0.000000 0.000000 1.699090 
# 
# From -- ./inp_files/30607.got.cif
#   From: 2010.06.25/outbox.cif.g09.slc.cpg/sg48_16_cif.got.tgz:30607.got - 2010.06.26 18:06:46.
