data_PCOD8202120
_publ_section_title
;
Structure prediction by ZEFSAII (Michael W. Deem and Ramdas Pophale) SiO2 
 PCOD8202120
Probable space group: P N N N
;
_chemical_formula_sum "Si O2"
_cell_formula_units_Z 34
_cell_length_a 8.785504
_cell_length_b 15.654219
_cell_length_c 10.235882
_cell_angle_alpha 90.000000
_cell_angle_beta 90.000000
_cell_angle_gamma 90.000000
_cell_volume 1407.742936
_symmetry_space_group_name_H-M "P N N N"
_symmetry_group_IT_number 48
_space_group.IT_coordinate_system_code '2'
_symmetry_cell_setting 'orthorhombic'
loop_
_space_group_symop_operation_xyz
x,y,z
1/2-x,1/2-y,z
x,1/2-y,1/2-z
1/2-x,y,1/2-z
-x,-y,-z
1/2+x,1/2+y,-z
-x,1/2+y,1/2+z
1/2+x,-y,1/2+z
loop_
_atom_site_type_symbol
_atom_site_label
_atom_site_fract_x
_atom_site_fract_y
_atom_site_fract_z
Si Si1 0.328782 0.559522 0.616364
Si Si2 0.054608 0.292809 0.114396
Si Si3 0.250000 0.750000 0.250000
Si Si4 0.252122 0.372879 0.601880
Si Si5 0.416414 0.849737 0.460070
O O1 0.250000 0.581544 0.750000
O O2 0.485653 0.612087 0.625841
O O3 0.358027 0.458097 0.601321
O O4 0.215285 0.585170 0.500299
O O5 0.117803 0.250000 0.250000
O O6 0.315226 0.196352 0.002589
O O7 0.926078 0.227813 0.064012
O O8 0.365830 0.810185 0.324883
O O9 0.250000 0.335088 0.750000
O O10 0.079550 0.396122 0.557707
#
# Coordination Sequence:
#
# PCOD8202120 Si02
#       5
#     8   8   2   8   8
#     4  11  23  47  73 103 147 199 241 300 375 450
#     4  12  24  46  76 108 144 194 254 311 369 447
#     4  12  24  40  72  96 144 192 252 310 376 440
#     4  11  27  46  70 108 155 191 240 310 384 445
#     4  12  24  43  70 101 138 192 253 302 363 453
#
# _framework density 24.152137
#
# number of rings (size 3 to 8) (size 9 to 14) (size 15 to 20)
#    0.000    0.471    4.706    3.529    0.000    2.824 
#    0.000    0.000    0.000    0.000    0.000    0.000 
#    0.000    0.000    0.000    0.000    0.000    0.000 
#
# Total GULP energy -421412.437966 kJ/mol
# GULP energy per Si atom -12394.483470 kJ/mol
# Density = 2.409717 g / cm^3
# Si number density = 24.152137 Si / 1000 Ang^3
#
#
#
# Elastic Constant Matrix: (Units=GPa)
#
#
# Indices 1 2 3 4 5 6 
#
# 1 82.3572 33.8869 32.4652 0.0000 0.0000 0.0000
# 2 33.8869 113.8176 45.2902 0.0000 0.0000 0.0000
# 3 32.4652 45.2902 183.4149 0.0000 0.0000 0.0000
# 4 0.0000 0.0000 0.0000 38.3144 0.0000 0.0000
# 5 0.0000 0.0000 0.0000 0.0000 31.8620 0.0000
# 6 0.0000 0.0000 0.0000 0.0000 0.0000 37.5212
#
#
#
# Elastic Compliance Matrix: (Units=1/GPa)
#
#
# Indices 1 2 3 4 5 6 
#
# 1 0.014267 -0.003596 -0.001637 0.000000 0.000000 0.000000
# 2 -0.003596 0.010650 -0.001993 0.000000 0.000000 0.000000
# 3 -0.001637 -0.001993 0.006234 0.000000 0.000000 0.000000
# 4 0.000000 0.000000 0.000000 0.026100 0.000000 0.000000
# 5 0.000000 0.000000 0.000000 0.000000 0.031385 0.000000
# 6 0.000000 0.000000 0.000000 0.000000 0.000000 0.026652
#
#
# Mechanical properties :
#
#
# Convention : Reuss Voigt Hill
#
# Bulk Modulus (GPa) = 59.88858 66.98605 63.43731
# Shear Modulus (GPa) = 36.95279 39.40267 38.17773
#
# Velocity S-wave (km/s) = 3.91577 4.04349 3.98014
# Velocity P-wave (km/s) = 6.73012 7.04237 6.88801
#
# Compressibility (1/GPa) = 0.01669767
#
# Stress axis : x y z
#
# Youngs Moduli (GPa) = 70.08979 93.89818 160.40771
#
# Poissons Ratio (x) = 0.33769 0.26265
# Poissons Ratio (y) = 0.25206 0.31972
# Poissons Ratio (z) = 0.11476 0.18716
#
# Static dielectric constant tensor:
#      x y z
#    x 3.135890 0.000000 0.000000 
#    y 0.000000 4.268910 0.000000 
#    z 0.000000 0.000000 4.511840 
# 
# 
# High freq. dielectric constant tensor:
#      x y z
#    x 1.957120 0.000000 0.000000 
#    y 0.000000 1.962600 0.000000 
#    z 0.000000 0.000000 1.967090 
# 
# From -- ./inp_files/19699.got.cif
#   From: 2010.06.25/outbox.cif.g09.slc.cpg/sg48_10_cif.got.tgz:19699.got - 2010.06.26 18:06:46.
