data_PCOD8202403
_publ_section_title
;
Structure prediction by ZEFSAII (Michael W. Deem and Ramdas Pophale) SiO2 
 PCOD8202403
Probable space group: P C C M
;
_chemical_formula_sum "Si O2"
_cell_formula_units_Z 64
_cell_length_a 19.233884
_cell_length_b 19.271226
_cell_length_c 8.957144
_cell_angle_alpha 90.000000
_cell_angle_beta 90.000000
_cell_angle_gamma 90.000000
_cell_volume 3320.059701
_symmetry_space_group_name_H-M "P C C M"
_symmetry_group_IT_number 49
_symmetry_cell_setting 'orthorhombic'
loop_
_space_group_symop_operation_xyz
x,y,z
-x,-y,z
x,-y,1/2-z
-x,y,1/2-z
-x,-y,-z
x,y,-z
-x,y,1/2+z
x,-y,1/2+z
loop_
_atom_site_type_symbol
_atom_site_label
_atom_site_fract_x
_atom_site_fract_y
_atom_site_fract_z
Si Si1 0.072290 0.202637 0.327208
Si Si2 0.791529 0.280468 0.170856
Si Si3 0.317922 0.190892 0.832970
Si Si4 0.923547 0.932886 0.178810
Si Si5 0.573980 0.925860 0.180406
Si Si6 0.561497 0.296345 0.665901
Si Si7 0.760480 0.568136 0.333161
Si Si8 0.404039 0.433890 0.666139
O O1 0.057920 0.182386 0.500000
O O2 0.126380 0.265553 0.314984
O O3 0.109419 0.138463 0.239046
O O4 0.000000 0.225182 0.250000
O O5 0.749081 0.215363 0.240311
O O6 0.780100 0.357162 0.243589
O O7 0.766618 0.283871 0.000000
O O8 0.363117 0.125809 0.770648
O O9 0.366655 0.257237 0.831429
O O10 0.292706 0.172820 0.000000
O O11 0.000000 0.931574 0.250000
O O12 0.884156 0.000000 0.250000
O O13 0.923982 0.937133 0.000000
O O14 0.500000 0.901385 0.250000
O O15 0.594035 0.000000 0.250000
O O16 0.567023 0.928620 0.000000
O O17 0.500000 0.253714 0.750000
O O18 0.535776 0.309934 0.500000
O O19 0.569099 0.368156 0.748006
O O20 0.791681 0.500000 0.250000
O O21 0.791659 0.566294 0.500000
O O22 0.678495 0.563027 0.334898
O O23 0.435087 0.500000 0.750000
O O24 0.433916 0.432334 0.500000
#
# Coordination Sequence:
#
# PCOD8202403 Si02
#       8
#     8   8   8   8   8   8   8   8
#     4  10  20  35  55  81 112 145 183 225 273 331
#     4  10  21  37  58  83 111 143 179 221 274 328
#     4  10  22  37  55  80 109 138 178 225 271 324
#     4  10  17  28  48  74 105 140 178 215 254 302
#     4  10  20  36  57  83 110 145 188 232 278 326
#     4  11  22  35  51  74 103 138 176 217 265 315
#     4   9  18  33  54  80 106 137 176 219 265 320
#     4  10  19  33  52  73 102 136 174 216 262 312
#
# _framework density 19.276761
#
# number of rings (size 3 to 8) (size 9 to 14) (size 15 to 20)
#    0.000    2.000    1.250    4.500    0.000    3.750 
#    0.000    1.875    0.000    1.875    0.000    2.625 
#    0.000    0.000    0.000    0.000    0.000    0.000 
#
# Total GULP energy -793008.864042 kJ/mol
# GULP energy per Si atom -12390.763501 kJ/mol
# Density = 1.923289 g / cm^3
# Si number density = 19.276761 Si / 1000 Ang^3
#
#
#
# Elastic Constant Matrix: (Units=GPa)
#
#
# Indices 1 2 3 4 5 6 
#
# 1 59.9035 37.7187 34.5779 0.0000 0.0000 0.0000
# 2 37.7187 120.7804 44.3248 0.0000 0.0000 0.0000
# 3 34.5779 44.3248 128.1257 0.0000 0.0000 0.0000
# 4 0.0000 0.0000 0.0000 28.2967 0.0000 0.0000
# 5 0.0000 0.0000 0.0000 0.0000 19.6619 0.0000
# 6 0.0000 0.0000 0.0000 0.0000 0.0000 19.4559
#
#
#
# Elastic Compliance Matrix: (Units=1/GPa)
#
#
# Indices 1 2 3 4 5 6 
#
# 1 0.022583 -0.005516 -0.004186 0.000000 0.000000 0.000000
# 2 -0.005516 0.010831 -0.002258 0.000000 0.000000 0.000000
# 3 -0.004186 -0.002258 0.009716 0.000000 0.000000 0.000000
# 4 0.000000 0.000000 0.000000 0.035340 0.000000 0.000000
# 5 0.000000 0.000000 0.000000 0.000000 0.050860 0.000000
# 6 0.000000 0.000000 0.000000 0.000000 0.000000 0.051398
#
#
# Mechanical properties :
#
#
# Convention : Reuss Voigt Hill
#
# Bulk Modulus (GPa) = 52.06042 60.22803 56.14423
# Shear Modulus (GPa) = 23.69081 26.29546 24.99314
#
# Velocity S-wave (km/s) = 3.50949 3.69738 3.60466
# Velocity P-wave (km/s) = 6.59450 7.03841 6.82007
#
# Compressibility (1/GPa) = 0.01920845
#
# Stress axis : x y z
#
# Youngs Moduli (GPa) = 44.28051 92.32842 102.92459
#
# Poissons Ratio (x) = 0.50931 0.43088
# Poissons Ratio (y) = 0.24426 0.23243
# Poissons Ratio (z) = 0.18537 0.20850
#
# Static dielectric constant tensor:
#      x y z
#    x 3.196890 0.000000 0.000000 
#    y 0.000000 3.950390 0.000000 
#    z 0.000000 0.000000 3.806610 
# 
# 
# High freq. dielectric constant tensor:
#      x y z
#    x 1.717850 0.000000 0.000000 
#    y 0.000000 1.757730 0.000000 
#    z 0.000000 0.000000 1.756310 
# 
# From -- ./inp_files/5308.got.cif
#   From: 2010.03.12/outbox.cif.g09.slc.cpg/sg49_3_cif.got.tgz:5308.got - 2010.04.14 03:58:27.
