data_PCOD8202069
_publ_section_title
;
Structure prediction by ZEFSAII (Michael W. Deem and Ramdas Pophale) SiO2 
 PCOD8202069
Probable space group: P N N N
;
_chemical_formula_sum "Si O2"
_cell_formula_units_Z 32
_cell_length_a 9.823707
_cell_length_b 16.526324
_cell_length_c 9.703851
_cell_angle_alpha 90.000000
_cell_angle_beta 90.000000
_cell_angle_gamma 90.000000
_cell_volume 1575.417927
_symmetry_space_group_name_H-M "P N N N"
_symmetry_group_IT_number 48
_space_group.IT_coordinate_system_code '2'
_symmetry_cell_setting 'orthorhombic'
loop_
_space_group_symop_operation_xyz
x,y,z
1/2-x,1/2-y,z
x,1/2-y,1/2-z
1/2-x,y,1/2-z
-x,-y,-z
1/2+x,1/2+y,-z
-x,1/2+y,1/2+z
1/2+x,-y,1/2+z
loop_
_atom_site_type_symbol
_atom_site_label
_atom_site_fract_x
_atom_site_fract_y
_atom_site_fract_z
Si Si1 0.627708 0.554394 0.982017
Si Si2 0.591393 0.735090 0.908539
Si Si3 0.471923 0.678253 0.338664
Si Si4 0.250000 0.392953 0.750000
Si Si5 0.750000 0.050229 0.750000
O O1 0.566871 0.642232 0.946271
O O2 0.713321 0.514405 0.863748
O O3 0.500000 0.500000 0.000000
O O4 0.724429 0.552324 0.116042
O O5 0.750000 0.750000 0.937788
O O6 0.551585 0.750000 0.750000
O O7 0.496135 0.794179 0.002139
O O8 0.404379 0.750000 0.250000
O O9 0.617745 0.661890 0.270440
O O10 0.371534 0.602356 0.318465
#
# Coordination Sequence:
#
# PCOD8202069 Si02
#       5
#     8   8   8   4   4
#     4  12  25  44  64 104 140 173 227 290 337 404
#     4  11  22  40  68  99 133 176 231 282 327 412
#     4  12  22  43  70 100 130 185 235 271 337 414
#     4  12  23  42  72  92 133 180 228 270 335 408
#     4  12  27  42  69 102 146 178 218 294 361 388
#
# _framework density 20.312072000000001
#
# number of rings (size 3 to 8) (size 9 to 14) (size 15 to 20)
#    0.000    0.250    7.500    2.250    0.000    3.000 
#    0.000    0.000    0.000    6.000    0.000    0.000 
#    0.000    0.000    0.000    0.000    0.000    0.000 
#
# Total GULP energy -396679.150216 kJ/mol
# GULP energy per Si atom -12396.223444 kJ/mol
# Density = 2.026584 g / cm^3
# Si number density = 20.312072 Si / 1000 Ang^3
#
#
#
# Elastic Constant Matrix: (Units=GPa)
#
#
# Indices 1 2 3 4 5 6 
#
# 1 67.7631 35.9875 37.0377 0.0000 0.0000 0.0000
# 2 35.9875 115.7674 63.1130 0.0000 0.0000 0.0000
# 3 37.0377 63.1130 186.0434 0.0000 0.0000 0.0000
# 4 0.0000 0.0000 0.0000 36.5897 0.0000 0.0000
# 5 0.0000 0.0000 0.0000 0.0000 30.5724 0.0000
# 6 0.0000 0.0000 0.0000 0.0000 0.0000 36.5184
#
#
#
# Elastic Compliance Matrix: (Units=1/GPa)
#
#
# Indices 1 2 3 4 5 6 
#
# 1 0.018323 -0.004549 -0.002105 0.000000 0.000000 0.000000
# 2 -0.004549 0.011727 -0.003073 0.000000 0.000000 0.000000
# 3 -0.002105 -0.003073 0.006837 0.000000 0.000000 0.000000
# 4 0.000000 0.000000 0.000000 0.027330 0.000000 0.000000
# 5 0.000000 0.000000 0.000000 0.000000 0.032709 0.000000
# 6 0.000000 0.000000 0.000000 0.000000 0.000000 0.027383
#
#
# Mechanical properties :
#
#
# Convention : Reuss Voigt Hill
#
# Bulk Modulus (GPa) = 57.35646 71.31667 64.33657
# Shear Modulus (GPa) = 33.42837 36.29849 34.86343
#
# Velocity S-wave (km/s) = 4.06117 4.23193 4.14743
# Velocity P-wave (km/s) = 7.09153 7.68542 7.39444
#
# Compressibility (1/GPa) = 0.01743483
#
# Stress axis : x y z
#
# Youngs Moduli (GPa) = 54.57522 85.27218 146.27337
#
# Poissons Ratio (x) = 0.38786 0.30787
# Poissons Ratio (y) = 0.24824 0.44946
# Poissons Ratio (z) = 0.11487 0.26202
#
# Static dielectric constant tensor:
#      x y z
#    x 3.537760 0.000000 0.000000 
#    y 0.000000 3.638320 0.000000 
#    z 0.000000 0.000000 3.998490 
# 
# 
# High freq. dielectric constant tensor:
#      x y z
#    x 1.781190 0.000000 0.000000 
#    y 0.000000 1.803680 0.000000 
#    z 0.000000 0.000000 1.814070 
# 
# From -- ./inp_files/10313.got.cif
#   From: 2010.06.25/outbox.cif.g09.slc.cpg/sg48_6_cif.got.tgz:10313.got - 2010.06.26 18:06:46.
