data_PCOD8202493
_publ_section_title
;
Structure prediction by ZEFSAII (Michael W. Deem and Ramdas Pophale) SiO2 
 PCOD8202493
Probable space group: P C C M
;
_chemical_formula_sum "Si O2"
_cell_formula_units_Z 64
_cell_length_a 23.699830
_cell_length_b 19.205321
_cell_length_c 8.702886
_cell_angle_alpha 90.000000
_cell_angle_beta 90.000000
_cell_angle_gamma 90.000000
_cell_volume 3961.230332
_symmetry_space_group_name_H-M "P C C M"
_symmetry_group_IT_number 49
_symmetry_cell_setting 'orthorhombic'
loop_
_space_group_symop_operation_xyz
x,y,z
-x,-y,z
x,-y,1/2-z
-x,y,1/2-z
-x,-y,-z
x,y,-z
-x,y,1/2+z
x,-y,1/2+z
loop_
_atom_site_type_symbol
_atom_site_label
_atom_site_fract_x
_atom_site_fract_y
_atom_site_fract_z
Si Si1 0.755737 0.069237 0.179094
Si Si2 0.441608 0.576186 0.816504
Si Si3 0.883856 0.929354 0.318650
Si Si4 0.780764 0.424957 0.817312
Si Si5 0.331067 0.350000 0.319448
Si Si6 0.939056 0.787013 0.317149
Si Si7 0.735366 0.220004 0.819282
Si Si8 0.839261 0.703209 0.818218
O O1 0.819522 0.078441 0.241096
O O2 0.721108 0.139606 0.222404
O O3 0.727008 0.000000 0.250000
O O4 0.755956 0.057367 0.000000
O O5 0.430210 0.500000 0.750000
O O6 0.500000 0.606773 0.750000
O O7 0.391440 0.625934 0.753326
O O8 0.444788 0.572547 0.000000
O O9 0.885811 0.933956 0.500000
O O10 0.919156 0.863280 0.259629
O O11 0.910809 0.000000 0.250000
O O12 0.793921 0.500000 0.750000
O O13 0.719167 0.399429 0.758084
O O14 0.827596 0.372505 0.753169
O O15 0.783746 0.426268 0.000000
O O16 0.334094 0.358191 0.500000
O O17 0.317496 0.269581 0.273982
O O18 0.939154 0.782395 0.500000
O O19 0.898272 0.728472 0.249646
O O20 0.000000 0.771349 0.250000
O O21 0.790704 0.242533 0.728032
O O22 0.749695 0.227773 0.000000
O O23 0.842918 0.697398 0.000000
#
# Coordination Sequence:
#
# PCOD8202493 Si02
#       8
#     8   8   8   8   8   8   8   8
#     4   9  16  27  44  65  90 121 151 182 226 277
#     4  10  18  29  43  63  90 127 165 196 228 266
#     4   9  18  31  47  66  90 120 151 186 225 270
#     4  10  19  33  52  74  98 123 150 189 231 275
#     4   8  16  28  46  68  93 124 159 194 230 270
#     4  11  22  37  52  69  91 119 154 192 232 274
#     4   9  16  31  49  66  91 123 154 191 234 276
#     4  11  21  33  50  72  94 120 151 186 229 280
#
# _framework density 16.156597000000001
#
# number of rings (size 3 to 8) (size 9 to 14) (size 15 to 20)
#    0.000    2.375    1.250    3.750    0.000    1.750 
#    0.000    6.875    0.000    0.375    0.000    2.625 
#    0.000    0.500    0.000    6.250    0.000    0.000 
#
# Total GULP energy -793384.408944 kJ/mol
# GULP energy per Si atom -12396.631390 kJ/mol
# Density = 1.611982 g / cm^3
# Si number density = 16.156597 Si / 1000 Ang^3
#
#
#
# Elastic Constant Matrix: (Units=GPa)
#
#
# Indices 1 2 3 4 5 6 
#
# 1 105.3568 70.6876 31.1835 0.0000 0.0000 0.0000
# 2 70.6876 150.6434 41.6049 0.0000 0.0000 0.0000
# 3 31.1835 41.6049 62.8220 0.0000 0.0000 0.0000
# 4 0.0000 0.0000 0.0000 25.8474 0.0000 0.0000
# 5 0.0000 0.0000 0.0000 0.0000 15.7465 0.0000
# 6 0.0000 0.0000 0.0000 0.0000 0.0000-2854.6659
#
#
#
# Elastic Compliance Matrix: (Units=1/GPa)
#
#
# Indices 1 2 3 4 5 6 
#
# 1 0.014381 -0.005846 -0.003267 0.000000 0.000000 0.000000
# 2 -0.005846 0.010500 -0.004052 0.000000 0.000000 0.000000
# 3 -0.003267 -0.004052 0.020223 0.000000 0.000000 0.000000
# 4 0.000000 0.000000 0.000000 0.038689 0.000000 0.000000
# 5 0.000000 0.000000 0.000000 0.000000 0.063506 0.000000
# 6 0.000000 0.000000 0.000000 0.000000 0.000000 -0.000350
#
#
# Mechanical properties :
#
#
# Convention : Reuss Voigt Hill
#
# Bulk Modulus (GPa) = 53.26367 67.30825 60.28596
# Shear Modulus (GPa) = 27.84950 -550.92465 -261.53757
#
# Velocity S-wave (km/s) = 4.15628 -18.48596 -12.73688
# Velocity P-wave (km/s) = 7.48810 20.34430 13.37571
#
# Compressibility (1/GPa) = 0.01877452
#
# Stress axis : x y z
#
# Youngs Moduli (GPa) = 69.53850 95.23454 49.44785
#
# Poissons Ratio (x) = 0.55671 0.16154
# Poissons Ratio (y) = 0.40650 0.20038
# Poissons Ratio (z) = 0.22717 0.38593
#
# Static dielectric constant tensor:
#      x y z
#    x 3.044090 0.000000 0.000000 
#    y 0.000000 3.242490 0.000000 
#    z 0.000000 0.000000 2.982160 
# 
# 
# High freq. dielectric constant tensor:
#      x y z
#    x 1.586720 0.000000 0.000000 
#    y 0.000000 1.624050 0.000000 
#    z 0.000000 0.000000 1.619450 
# 
# From -- ./inp_files/6094.got.cif
#   From: 2010.03.12/outbox.cif.g09.slc.cpg/sg49_4_cif.got.tgz:6094.got - 2010.04.14 03:58:27.
