data_PCOD8202103
_publ_section_title
;
Structure prediction by ZEFSAII (Michael W. Deem and Ramdas Pophale) SiO2 
 PCOD8202103
Probable space group: P N N N
;
_chemical_formula_sum "Si O2"
_cell_formula_units_Z 40
_cell_length_a 12.978096
_cell_length_b 13.412121
_cell_length_c 12.051116
_cell_angle_alpha 90.000000
_cell_angle_beta 90.000000
_cell_angle_gamma 90.000000
_cell_volume 2097.662972
_symmetry_space_group_name_H-M "P N N N"
_symmetry_group_IT_number 48
_space_group.IT_coordinate_system_code '2'
_symmetry_cell_setting 'orthorhombic'
loop_
_space_group_symop_operation_xyz
x,y,z
1/2-x,1/2-y,z
x,1/2-y,1/2-z
1/2-x,y,1/2-z
-x,-y,-z
1/2+x,1/2+y,-z
-x,1/2+y,1/2+z
1/2+x,-y,1/2+z
loop_
_atom_site_type_symbol
_atom_site_label
_atom_site_fract_x
_atom_site_fract_y
_atom_site_fract_z
Si Si1 0.871127 0.639693 0.228292
Si Si2 0.530279 0.468647 0.121253
Si Si3 0.967314 0.612235 0.990606
Si Si4 0.132272 0.137202 0.268547
Si Si5 0.369254 0.763553 0.619626
O O1 0.911901 0.750000 0.250000
O O2 0.750000 0.629372 0.250000
O O3 0.922670 0.559163 0.308707
O O4 0.904637 0.631886 0.101592
O O5 0.430069 0.433418 0.186810
O O6 0.609663 0.379498 0.099343
O O7 0.500000 0.500000 0.000000
O O8 0.882658 0.613407 0.896112
O O9 0.060869 0.688856 0.956826
O O10 0.000000 0.500000 0.000000
O O11 0.097026 0.250000 0.250000
O O12 0.250000 0.116760 0.250000
O O13 0.250000 0.750000 0.587835
O O14 0.391127 0.750000 0.750000
#
# Coordination Sequence:
#
# PCOD8202103 Si02
#       5
#     8   8   8   8   8
#     4  11  27  43  67  99 132 175 218 273 344 401
#     4  12  24  43  66  94 133 173 222 275 327 402
#     4  12  22  43  67  96 137 169 220 281 331 399
#     4  11  24  41  66  97 127 173 222 272 334 391
#     4  11  23  41  69 100 131 173 228 276 332 401
#
# _framework density 19.068839000000001
#
# number of rings (size 3 to 8) (size 9 to 14) (size 15 to 20)
#    0.000    0.600    6.000    1.200    8.400    1.600 
#    0.000    0.000    0.000    0.000    0.000    0.000 
#    0.000    0.000    0.000    0.000    0.000    0.000 
#
# Total GULP energy -495650.719223 kJ/mol
# GULP energy per Si atom -12391.267981 kJ/mol
# Density = 1.902544 g / cm^3
# Si number density = 19.068839 Si / 1000 Ang^3
#
#
#
# Elastic Constant Matrix: (Units=GPa)
#
#
# Indices 1 2 3 4 5 6 
#
# 1 103.4898 71.7688 82.4077 0.0000 0.0000 0.0000
# 2 71.7688 181.8269 82.6557 0.0000 0.0000 0.0000
# 3 82.4077 82.6557 199.4225 0.0000 0.0000 0.0000
# 4 0.0000 0.0000 0.0000 45.2423 0.0000 0.0000
# 5 0.0000 0.0000 0.0000 0.0000 37.0174 0.0000
# 6 0.0000 0.0000 0.0000 0.0000 0.0000 24.2676
#
#
#
# Elastic Compliance Matrix: (Units=1/GPa)
#
#
# Indices 1 2 3 4 5 6 
#
# 1 0.016709 -0.004259 -0.005139 0.000000 0.000000 0.000000
# 2 -0.004259 0.007862 -0.001499 0.000000 0.000000 0.000000
# 3 -0.005139 -0.001499 0.007759 0.000000 0.000000 0.000000
# 4 0.000000 0.000000 0.000000 0.022103 0.000000 0.000000
# 5 0.000000 0.000000 0.000000 0.000000 0.027014 0.000000
# 6 0.000000 0.000000 0.000000 0.000000 0.000000 0.041207
#
#
# Mechanical properties :
#
#
# Convention : Reuss Voigt Hill
#
# Bulk Modulus (GPa) = 94.91031 106.48931 100.69981
# Shear Modulus (GPa) = 33.79275 37.83258 35.81267
#
# Velocity S-wave (km/s) = 4.21425 4.45904 4.33838
# Velocity P-wave (km/s) = 8.57674 9.08167 8.83281
#
# Compressibility (1/GPa) = 0.01053626
#
# Stress axis : x y z
#
# Youngs Moduli (GPa) = 59.84940 127.19372 128.87547
#
# Poissons Ratio (x) = 0.54169 0.66234
# Poissons Ratio (y) = 0.25488 0.19315
# Poissons Ratio (z) = 0.30759 0.19063
#
# Static dielectric constant tensor:
#      x y z
#    x 3.543750 0.000000 0.000000 
#    y 0.000000 4.684150 0.000000 
#    z 0.000000 0.000000 3.668820 
# 
# 
# High freq. dielectric constant tensor:
#      x y z
#    x 1.750360 0.000000 0.000000 
#    y 0.000000 1.762140 0.000000 
#    z 0.000000 0.000000 1.754610 
# 
# From -- ./inp_files/19789.got.cif
#   From: 2010.06.25/outbox.cif.g09.slc.cpg/sg48_10_cif.got.tgz:19789.got - 2010.06.26 18:06:46.
