data_PCOD8202055
_publ_section_title
;
Structure prediction by ZEFSAII (Michael W. Deem and Ramdas Pophale) SiO2 
 PCOD8202055
Probable space group: P N N N
;
_chemical_formula_sum "Si O2"
_cell_formula_units_Z 58
_cell_length_a 11.904010
_cell_length_b 9.448457
_cell_length_c 28.909963
_cell_angle_alpha 90.000000
_cell_angle_beta 90.000000
_cell_angle_gamma 90.000000
_cell_volume 3251.634403
_symmetry_space_group_name_H-M "P N N N"
_symmetry_group_IT_number 48
_space_group.IT_coordinate_system_code '2'
_symmetry_cell_setting 'orthorhombic'
loop_
_space_group_symop_operation_xyz
x,y,z
1/2-x,1/2-y,z
x,1/2-y,1/2-z
1/2-x,y,1/2-z
-x,-y,-z
1/2+x,1/2+y,-z
-x,1/2+y,1/2+z
1/2+x,-y,1/2+z
loop_
_atom_site_type_symbol
_atom_site_label
_atom_site_fract_x
_atom_site_fract_y
_atom_site_fract_z
Si Si1 0.494923 0.039147 0.393922
Si Si2 0.865907 0.191549 0.407869
Si Si3 0.649036 0.890725 0.115973
Si Si4 0.122122 0.364274 0.667652
Si Si5 0.070039 0.197854 0.959760
Si Si6 0.294552 0.101408 0.450424
Si Si7 0.750000 0.750000 0.250000
Si Si8 0.105758 0.599048 0.008231
O O1 0.533653 0.200167 0.399981
O O2 0.364521 0.032280 0.407964
O O3 0.523215 0.980506 0.341449
O O4 0.565774 0.938965 0.427695
O O5 0.750000 0.250000 0.386188
O O6 0.840105 0.153640 0.460958
O O7 0.903751 0.046964 0.382523
O O8 0.777579 0.901071 0.132070
O O9 0.578461 0.792052 0.151843
O O10 0.644449 0.823313 0.063980
O O11 0.169858 0.354093 0.719796
O O12 0.943303 0.260875 0.966182
O O13 0.124147 0.143924 0.007206
O O14 0.250000 0.250000 0.431056
O O15 0.198592 0.987714 0.462891
O O16 0.000000 0.500000 0.000000
#
# Coordination Sequence:
#
# PCOD8202055 Si02
#       8
#     8   8   8   8   8   8   2   8
#     4  11  23  34  49  76 107 143 185 243 279 319
#     4  12  20  30  47  70 100 145 188 221 272 308
#     4   9  18  30  51  71 101 141 178 218 264 321
#     4   9  19  35  57  84 106 137 171 217 277 348
#     4  11  22  36  48  68 102 150 209 241 269 303
#     4  12  23  34  48  69 109 155 206 246 277 317
#     4   8  16  36  68  86 108 142 164 202 296 362
#     4  12  23  33  47  64  95 157 207 248 266 307
#
# _framework density 17.837183
#
# number of rings (size 3 to 8) (size 9 to 14) (size 15 to 20)
#    0.000    1.379    5.517    1.241    9.655    0.000 
#    0.000    0.000    0.000    6.621    0.000    0.000 
#    0.000   19.862    6.621    0.000    0.000    0.000 
#
# Total GULP energy -718559.378653 kJ/mol
# GULP energy per Si atom -12388.954804 kJ/mol
# Density = 1.779659 g / cm^3
# Si number density = 17.837183 Si / 1000 Ang^3
#
#
#
# Elastic Constant Matrix: (Units=GPa)
#
#
# Indices 1 2 3 4 5 6 
#
# 1 88.2858 35.5244 34.8456 0.0000 0.0000 0.0000
# 2 35.5244 117.8804 31.0543 0.0000 0.0000 0.0000
# 3 34.8456 31.0543 74.4291 0.0000 0.0000 0.0000
# 4 0.0000 0.0000 0.0000 11.6652 0.0000 0.0000
# 5 0.0000 0.0000 0.0000 0.0000 22.6310 0.0000
# 6 0.0000 0.0000 0.0000 0.0000 0.0000 34.9901
#
#
#
# Elastic Compliance Matrix: (Units=1/GPa)
#
#
# Indices 1 2 3 4 5 6 
#
# 1 0.014755 -0.002951 -0.005676 0.000000 0.000000 0.000000
# 2 -0.002951 0.010121 -0.002841 0.000000 0.000000 0.000000
# 3 -0.005676 -0.002841 0.017279 0.000000 0.000000 0.000000
# 4 0.000000 0.000000 0.000000 0.085725 0.000000 0.000000
# 5 0.000000 0.000000 0.000000 0.000000 0.044187 0.000000
# 6 0.000000 0.000000 0.000000 0.000000 0.000000 0.028580
#
#
# Mechanical properties :
#
#
# Convention : Reuss Voigt Hill
#
# Bulk Modulus (GPa) = 52.03766 53.71600 52.87683
# Shear Modulus (GPa) = 21.74018 25.80200 23.77109
#
# Velocity S-wave (km/s) = 3.49494 3.80745 3.65454
# Velocity P-wave (km/s) = 6.74708 7.03626 6.89319
#
# Compressibility (1/GPa) = 0.01921685
#
# Stress axis : x y z
#
# Youngs Moduli (GPa) = 67.77470 98.80454 57.87497
#
# Poissons Ratio (x) = 0.29158 0.32853
# Poissons Ratio (y) = 0.20001 0.16443
# Poissons Ratio (z) = 0.38472 0.28072
#
# Static dielectric constant tensor:
#      x y z
#    x 3.318890 0.000000 0.000000 
#    y 0.000000 3.871260 0.000000 
#    z 0.000000 0.000000 2.988020 
# 
# 
# High freq. dielectric constant tensor:
#      x y z
#    x 1.669780 0.000000 0.000000 
#    y 0.000000 1.713380 0.000000 
#    z 0.000000 0.000000 1.625550 
# 
# From -- ./inp_files/38946.got.cif
#   From: 2010.06.25/outbox.cif.g09.slc.cpg/sg48_20_cif.got.tgz:38946.got - 2010.06.26 18:06:46.
