data_PCOD8202581
_publ_section_title
;
Structure prediction by ZEFSAII (Michael W. Deem and Ramdas Pophale) SiO2 
 PCOD8202581
Probable space group: P C C M
;
_chemical_formula_sum "Si O2"
_cell_formula_units_Z 48
_cell_length_a 13.249754
_cell_length_b 13.055085
_cell_length_c 15.377237
_cell_angle_alpha 90.000000
_cell_angle_beta 90.000000
_cell_angle_gamma 90.000000
_cell_volume 2659.903169
_symmetry_space_group_name_H-M "P C C M"
_symmetry_group_IT_number 49
_symmetry_cell_setting 'orthorhombic'
loop_
_space_group_symop_operation_xyz
x,y,z
-x,-y,z
x,-y,1/2-z
-x,y,1/2-z
-x,-y,-z
x,y,-z
-x,y,1/2+z
x,-y,1/2+z
loop_
_atom_site_type_symbol
_atom_site_label
_atom_site_fract_x
_atom_site_fract_y
_atom_site_fract_z
Si Si1 0.612172 0.772633 0.277451
Si Si2 0.052978 0.607718 0.098642
Si Si3 0.775733 0.383121 0.759486
Si Si4 0.139698 0.263401 0.099824
Si Si5 0.755173 0.922026 0.824389
Si Si6 0.595383 0.054896 0.097498
O O1 0.500000 0.741785 0.250000
O O2 0.674735 0.669826 0.293759
O O3 0.668661 0.845654 0.209005
O O4 0.609697 0.831612 0.367726
O O5 0.137021 0.634361 0.169434
O O6 0.000000 0.500000 0.124443
O O7 0.977177 0.704167 0.102880
O O8 0.096766 0.598109 0.000000
O O9 0.748685 0.500000 0.750000
O O10 0.802402 0.340454 0.663883
O O11 0.154563 0.145648 0.133296
O O12 0.179951 0.274049 0.000000
O O13 0.797293 0.000000 0.750000
O O14 0.699099 0.990802 0.896004
O O15 0.500000 0.000000 0.146134
O O16 0.563498 0.071227 0.000000
#
# Coordination Sequence:
#
# PCOD8202581 Si02
#       6
#     8   8   8   8   8   8
#     4  10  20  35  51  77 109 147 185 231 283 334
#     4  10  20  36  60  85 112 146 191 244 292 338
#     4  11  22  35  57  82 112 152 193 240 287 345
#     4  10  20  34  56  88 117 149 189 235 287 347
#     4   9  18  32  55  81 112 148 188 234 281 340
#     4  10  18  30  54  80 104 142 185 235 283 334
#
# _framework density 18.045770999999998
#
# number of rings (size 3 to 8) (size 9 to 14) (size 15 to 20)
#    0.000    2.000    3.333    1.000    0.000    1.000 
#    0.000    0.000    0.000   17.000    0.000   35.000 
#    0.000    0.000    0.000    0.000    0.000    0.000 
#
# Total GULP energy -594859.316727 kJ/mol
# GULP energy per Si atom -12392.902432 kJ/mol
# Density = 1.800470 g / cm^3
# Si number density = 18.045771 Si / 1000 Ang^3
#
#
#
# Elastic Constant Matrix: (Units=GPa)
#
#
# Indices 1 2 3 4 5 6 
#
# 1 96.5930 68.8074 49.1671 0.0000 0.0000 0.0000
# 2 68.8074 130.4926 58.6353 0.0000 0.0000 0.0000
# 3 49.1671 58.6353 112.9616 0.0000 0.0000 0.0000
# 4 0.0000 0.0000 0.0000 21.9820 0.0000 0.0000
# 5 0.0000 0.0000 0.0000 0.0000 17.7156 0.0000
# 6 0.0000 0.0000 0.0000 0.0000 0.0000 34.9994
#
#
#
# Elastic Compliance Matrix: (Units=1/GPa)
#
#
# Indices 1 2 3 4 5 6 
#
# 1 0.017710 -0.007661 -0.003731 0.000000 0.000000 0.000000
# 2 -0.007661 0.013309 -0.003574 0.000000 0.000000 0.000000
# 3 -0.003731 -0.003574 0.012332 0.000000 0.000000 0.000000
# 4 0.000000 0.000000 0.000000 0.045492 0.000000 0.000000
# 5 0.000000 0.000000 0.000000 0.000000 0.056448 0.000000
# 6 0.000000 0.000000 0.000000 0.000000 0.000000 0.028572
#
#
# Mechanical properties :
#
#
# Convention : Reuss Voigt Hill
#
# Bulk Modulus (GPa) = 74.53066 77.02965 75.78015
# Shear Modulus (GPa) = 24.00772 25.83523 24.92147
#
# Velocity S-wave (km/s) = 3.65139 3.78782 3.72023
# Velocity P-wave (km/s) = 7.69204 7.86819 7.78061
#
# Compressibility (1/GPa) = 0.01341730
#
# Stress axis : x y z
#
# Youngs Moduli (GPa) = 56.46644 75.13817 81.09266
#
# Poissons Ratio (x) = 0.57567 0.30258
# Poissons Ratio (y) = 0.43262 0.28979
# Poissons Ratio (z) = 0.21070 0.26851
#
# Static dielectric constant tensor:
#      x y z
#    x 3.336060 0.000000 0.000000 
#    y 0.000000 3.562270 0.000000 
#    z 0.000000 0.000000 3.408120 
# 
# 
# High freq. dielectric constant tensor:
#      x y z
#    x 1.676480 0.000000 0.000000 
#    y 0.000000 1.697070 0.000000 
#    z 0.000000 0.000000 1.704040 
# 
# From -- ./inp_files/13468.got.cif
#   From: 2010.03.12/outbox.cif.g09.slc.cpg/sg49_7_cif.got.tgz:13468.got - 2010.04.14 03:58:27.
