data_PCOD8202091
_publ_section_title
;
Structure prediction by ZEFSAII (Michael W. Deem and Ramdas Pophale) SiO2 
 PCOD8202091
Probable space group: P N N N
;
_chemical_formula_sum "Si O2"
_cell_formula_units_Z 56
_cell_length_a 20.778785
_cell_length_b 14.397147
_cell_length_c 8.749731
_cell_angle_alpha 90.000000
_cell_angle_beta 90.000000
_cell_angle_gamma 90.000000
_cell_volume 2617.527721
_symmetry_space_group_name_H-M "P N N N"
_symmetry_group_IT_number 48
_space_group.IT_coordinate_system_code '2'
_symmetry_cell_setting 'orthorhombic'
loop_
_space_group_symop_operation_xyz
x,y,z
1/2-x,1/2-y,z
x,1/2-y,1/2-z
1/2-x,y,1/2-z
-x,-y,-z
1/2+x,1/2+y,-z
-x,1/2+y,1/2+z
1/2+x,-y,1/2+z
loop_
_atom_site_type_symbol
_atom_site_label
_atom_site_fract_x
_atom_site_fract_y
_atom_site_fract_z
Si Si1 0.851491 0.250000 0.750000
Si Si2 0.250000 0.908474 0.250000
Si Si3 0.436899 0.660880 0.459101
Si Si4 0.920003 0.858851 0.502111
Si Si5 0.445595 0.493897 0.234939
Si Si6 0.182450 0.280041 0.575023
Si Si7 0.590579 0.027098 0.222972
Si Si8 0.165745 0.491143 0.496848
O O1 0.810569 0.157335 0.718899
O O2 0.896250 0.251746 0.596585
O O3 0.273053 0.969422 0.397982
O O4 0.509861 0.688719 0.493707
O O5 0.439471 0.593002 0.314317
O O6 0.403406 0.611339 0.603038
O O7 0.914439 0.917489 0.655100
O O8 0.872684 0.772370 0.518038
O O9 0.903427 0.926663 0.359794
O O10 0.519912 0.469963 0.198204
O O11 0.402396 0.493993 0.086297
O O12 0.250000 0.250000 0.504758
O O13 0.175809 0.250000 0.750000
O O14 0.180663 0.388632 0.550249
O O15 0.648795 0.044321 0.343843
#
# Coordination Sequence:
#
# PCOD8202091 Si02
#       8
#     4   4   8   8   8   8   8   8
#     4  11  22  46  70  90 129 162 238 280 337 416
#     4  11  28  44  63 100 122 180 227 280 342 405
#     4   9  19  38  71  96 129 174 215 288 346 398
#     4   9  19  39  62  99 136 171 227 266 336 412
#     4   9  19  37  64 101 132 168 219 277 342 404
#     4  11  25  41  60  93 132 181 227 270 325 407
#     4   9  19  38  67 100 133 168 218 280 342 411
#     4  12  23  42  67  91 137 177 225 278 339 418
#
# _framework density 21.394233
#
# number of rings (size 3 to 8) (size 9 to 14) (size 15 to 20)
#    0.000    2.000    2.857    2.143    3.000    0.571 
#    2.571    0.714    0.000    1.714    0.000    0.000 
#    0.000    0.000    0.000    0.000    0.000    0.000 
#
# Total GULP energy -693801.841583 kJ/mol
# GULP energy per Si atom -12389.318600 kJ/mol
# Density = 2.134554 g / cm^3
# Si number density = 21.394233 Si / 1000 Ang^3
#
#
#
# Elastic Constant Matrix: (Units=GPa)
#
#
# Indices 1 2 3 4 5 6 
#
# 1 102.2318 56.3891 49.3362 0.0000 0.0000 0.0000
# 2 56.3891 92.3514 43.0878 0.0000 0.0000 0.0000
# 3 49.3362 43.0878 95.3711 0.0000 0.0000 0.0000
# 4 0.0000 0.0000 0.0000 22.7877 0.0000 0.0000
# 5 0.0000 0.0000 0.0000 0.0000 27.4753 0.0000
# 6 0.0000 0.0000 0.0000 0.0000 0.0000 38.7244
#
#
#
# Elastic Compliance Matrix: (Units=1/GPa)
#
#
# Indices 1 2 3 4 5 6 
#
# 1 0.016459 -0.007701 -0.005035 0.000000 0.000000 0.000000
# 2 -0.007701 0.017323 -0.003843 0.000000 0.000000 0.000000
# 3 -0.005035 -0.003843 0.014826 0.000000 0.000000 0.000000
# 4 0.000000 0.000000 0.000000 0.043883 0.000000 0.000000
# 5 0.000000 0.000000 0.000000 0.000000 0.036396 0.000000
# 6 0.000000 0.000000 0.000000 0.000000 0.000000 0.025823
#
#
# Mechanical properties :
#
#
# Convention : Reuss Voigt Hill
#
# Bulk Modulus (GPa) = 64.72074 65.28673 65.00373
# Shear Modulus (GPa) = 25.90408 27.20689 26.55549
#
# Velocity S-wave (km/s) = 3.48343 3.56995 3.52695
# Velocity P-wave (km/s) = 6.81881 6.89746 6.85825
#
# Compressibility (1/GPa) = 0.01545100
#
# Stress axis : x y z
#
# Youngs Moduli (GPa) = 60.75618 57.72663 67.44723
#
# Poissons Ratio (x) = 0.44453 0.33963
# Poissons Ratio (y) = 0.46786 0.25919
# Poissons Ratio (z) = 0.30594 0.22183
#
# Static dielectric constant tensor:
#      x y z
#    x 5.891590 0.000000 0.000000 
#    y 0.000000 3.708800 0.000000 
#    z 0.000000 0.000000 3.824020 
# 
# 
# High freq. dielectric constant tensor:
#      x y z
#    x 1.846440 0.000000 0.000000 
#    y 0.000000 1.826120 0.000000 
#    z 0.000000 0.000000 1.829210 
# 
# From -- ./inp_files/15334.got.cif
#   From: 2010.06.25/outbox.cif.g09.slc.cpg/sg48_8_cif.got.tgz:15334.got - 2010.06.26 18:06:46.
