data_PCOD8202644
_publ_section_title
;
Structure prediction by ZEFSAII (Michael W. Deem and Ramdas Pophale) SiO2 
 PCOD8202644
Probable space group: P C C M
;
_chemical_formula_sum "Si O2"
_cell_formula_units_Z 48
_cell_length_a 14.473509
_cell_length_b 20.714306
_cell_length_c 8.678045
_cell_angle_alpha 90.000000
_cell_angle_beta 90.000000
_cell_angle_gamma 90.000000
_cell_volume 2601.753341
_symmetry_space_group_name_H-M "P C C M"
_symmetry_group_IT_number 49
_symmetry_cell_setting 'orthorhombic'
loop_
_space_group_symop_operation_xyz
x,y,z
-x,-y,z
x,-y,1/2-z
-x,y,1/2-z
-x,-y,-z
x,y,-z
-x,y,1/2+z
x,-y,1/2+z
loop_
_atom_site_type_symbol
_atom_site_label
_atom_site_fract_x
_atom_site_fract_y
_atom_site_fract_z
Si Si1 0.100421 0.067370 0.316587
Si Si2 0.405454 0.762994 0.181892
Si Si3 0.787804 0.432185 0.679466
Si Si4 0.211549 0.190489 0.317365
Si Si5 0.407724 0.376959 0.821000
Si Si6 0.101456 0.314400 0.317386
O O1 0.094486 0.063464 0.500000
O O2 0.168818 0.123439 0.257638
O O3 0.000000 0.082926 0.250000
O O4 0.138629 0.000000 0.250000
O O5 0.500000 0.792804 0.250000
O O6 0.317900 0.805160 0.238962
O O7 0.389223 0.690318 0.236623
O O8 0.413079 0.763244 0.000000
O O9 0.819228 0.500000 0.750000
O O10 0.812713 0.429972 0.500000
O O11 0.678413 0.423781 0.707986
O O12 0.843329 0.377021 0.765625
O O13 0.207166 0.193310 0.500000
O O14 0.153232 0.250906 0.251790
O O15 0.500000 0.409806 0.750000
O O16 0.423495 0.362659 0.000000
O O17 0.095944 0.313394 0.500000
O O18 0.000000 0.316038 0.250000
#
# Coordination Sequence:
#
# PCOD8202644 Si02
#       6
#     8   8   8   8   8   8
#     4  10  19  34  53  80 113 148 183 219 264 316
#     4  10  18  32  53  80 109 141 176 217 268 319
#     4  11  24  40  57  79 106 141 181 224 271 326
#     4   9  19  34  56  81 111 145 178 218 269 318
#     4  10  20  34  54  80 108 138 175 219 269 323
#     4  11  22  39  59  81 107 139 177 225 274 322
#
# _framework density 18.449096999999998
#
# number of rings (size 3 to 8) (size 9 to 14) (size 15 to 20)
#    0.000    1.833    1.667    4.500    0.000    2.667 
#    0.000    9.167    0.000    0.500    0.000    3.500 
#    0.000    0.000    0.000    0.000    0.000    0.000 
#
# Total GULP energy -595222.095595 kJ/mol
# GULP energy per Si atom -12400.460325 kJ/mol
# Density = 1.840711 g / cm^3
# Si number density = 18.449097 Si / 1000 Ang^3
#
#
#
# Elastic Constant Matrix: (Units=GPa)
#
#
# Indices 1 2 3 4 5 6 
#
# 1 108.7086 60.2651 41.8407 0.0000 0.0000 0.0000
# 2 60.2651 126.2022 32.8178 0.0000 0.0000 0.0000
# 3 41.8407 32.8178 83.9776 0.0000 0.0000 0.0000
# 4 0.0000 0.0000 0.0000 17.8082 0.0000 0.0000
# 5 0.0000 0.0000 0.0000 0.0000 26.7068 0.0000
# 6 0.0000 0.0000 0.0000 0.0000 0.0000 32.2701
#
#
#
# Elastic Compliance Matrix: (Units=1/GPa)
#
#
# Indices 1 2 3 4 5 6 
#
# 1 0.014114 -0.005467 -0.004896 0.000000 0.000000 0.000000
# 2 -0.005467 0.010937 -0.001551 0.000000 0.000000 0.000000
# 3 -0.004896 -0.001551 0.014953 0.000000 0.000000 0.000000
# 4 0.000000 0.000000 0.000000 0.056154 0.000000 0.000000
# 5 0.000000 0.000000 0.000000 0.000000 0.037444 0.000000
# 6 0.000000 0.000000 0.000000 0.000000 0.000000 0.030988
#
#
# Mechanical properties :
#
#
# Convention : Reuss Voigt Hill
#
# Bulk Modulus (GPa) = 61.81035 65.41506 63.61271
# Shear Modulus (GPa) = 25.79858 27.62133 26.70996
#
# Velocity S-wave (km/s) = 3.74353 3.87352 3.80908
# Velocity P-wave (km/s) = 7.22920 7.45249 7.34169
#
# Compressibility (1/GPa) = 0.01617852
#
# Stress axis : x y z
#
# Youngs Moduli (GPa) = 70.85291 91.42864 66.87574
#
# Poissons Ratio (x) = 0.49981 0.32740
# Poissons Ratio (y) = 0.38733 0.10370
# Poissons Ratio (z) = 0.34687 0.14177
#
# Static dielectric constant tensor:
#      x y z
#    x 3.660790 0.000000 0.000000 
#    y 0.000000 3.403240 0.000000 
#    z 0.000000 0.000000 3.392180 
# 
# 
# High freq. dielectric constant tensor:
#      x y z
#    x 1.724740 0.000000 0.000000 
#    y 0.000000 1.700240 0.000000 
#    z 0.000000 0.000000 1.718270 
# 
# From -- ./inp_files/3745.got.cif
#   From: 2010.03.12/outbox.cif.g09.slc.cpg/sg49_2_cif.got.tgz:3745.got - 2010.04.14 03:58:27.
