data_PCOD8202610
_publ_section_title
;
Structure prediction by ZEFSAII (Michael W. Deem and Ramdas Pophale) SiO2 
 PCOD8202610
Probable space group: P C C M
;
_chemical_formula_sum "Si O2"
_cell_formula_units_Z 40
_cell_length_a 9.780561
_cell_length_b 25.729177
_cell_length_c 8.522738
_cell_angle_alpha 90.000000
_cell_angle_beta 90.000000
_cell_angle_gamma 90.000000
_cell_volume 2144.711095
_symmetry_space_group_name_H-M "P C C M"
_symmetry_group_IT_number 49
_symmetry_cell_setting 'orthorhombic'
loop_
_space_group_symop_operation_xyz
x,y,z
-x,-y,z
x,-y,1/2-z
-x,y,1/2-z
-x,-y,-z
x,y,-z
-x,y,1/2+z
x,-y,1/2+z
loop_
_atom_site_type_symbol
_atom_site_label
_atom_site_fract_x
_atom_site_fract_y
_atom_site_fract_z
Si Si1 0.647438 0.444651 0.184890
Si Si2 0.151073 0.646219 0.814410
Si Si3 0.645751 0.943524 0.185383
Si Si4 0.153002 0.858491 0.185593
Si Si5 0.847673 0.247845 0.314222
O O1 0.697015 0.500000 0.250000
O O2 0.500000 0.428708 0.250000
O O3 0.756235 0.401832 0.239304
O O4 0.637172 0.448481 0.000000
O O5 0.221684 0.698215 0.740899
O O6 0.000000 0.635865 0.750000
O O7 0.144454 0.652806 0.000000
O O8 0.500000 0.924328 0.250000
O O9 0.762014 0.904542 0.239146
O O10 0.684062 0.000000 0.250000
O O11 0.638134 0.946056 0.000000
O O12 0.220992 0.803379 0.237477
O O13 0.000000 0.862229 0.250000
O O14 0.153234 0.863657 0.000000
O O15 0.844569 0.242041 0.500000
O O16 0.000000 0.251645 0.250000
#
# Coordination Sequence:
#
# PCOD8202610 Si02
#       5
#     8   8   8   8   8
#     4  10  21  36  55  76 103 137 175 214 261 313
#     4  10  20  34  53  79 106 137 174 216 261 312
#     4  11  22  39  59  82 110 145 183 222 270 323
#     4  11  21  36  57  83 112 144 181 225 269 318
#     4  10  18  31  52  78 107 141 175 215 265 318
#
# _framework density 18.650528999999999
#
# number of rings (size 3 to 8) (size 9 to 14) (size 15 to 20)
#    0.000    1.600    0.000   10.200    0.000    4.000 
#    0.000    5.000    0.000    2.400    0.000    0.000 
#    0.000    0.000    0.000    0.000    0.000    0.000 
#
# Total GULP energy -495990.537755 kJ/mol
# GULP energy per Si atom -12399.763444 kJ/mol
# Density = 1.860808 g / cm^3
# Si number density = 18.650529 Si / 1000 Ang^3
#
#
#
# Elastic Constant Matrix: (Units=GPa)
#
#
# Indices 1 2 3 4 5 6 
#
# 1 76.0243 77.5036 35.4912 0.0000 0.0000 0.0000
# 2 77.5036 156.4860 59.8009 0.0000 0.0000 0.0000
# 3 35.4912 59.8009 147.7989 0.0000 0.0000 0.0000
# 4 0.0000 0.0000 0.0000 42.5092 0.0000 0.0000
# 5 0.0000 0.0000 0.0000 0.0000 24.5446 0.0000
# 6 0.0000 0.0000 0.0000 0.0000 0.0000 -1.2434
#
#
#
# Elastic Compliance Matrix: (Units=1/GPa)
#
#
# Indices 1 2 3 4 5 6 
#
# 1 0.026765 -0.012775 -0.001258 0.000000 0.000000 0.000000
# 2 -0.012775 0.013657 -0.002458 0.000000 0.000000 0.000000
# 3 -0.001258 -0.002458 0.008063 0.000000 0.000000 0.000000
# 4 0.000000 0.000000 0.000000 0.023524 0.000000 0.000000
# 5 0.000000 0.000000 0.000000 0.000000 0.040742 0.000000
# 6 0.000000 0.000000 0.000000 0.000000 0.000000 -0.804253
#
#
# Mechanical properties :
#
#
# Convention : Reuss Voigt Hill
#
# Bulk Modulus (GPa) = 64.50893 80.65562 72.58227
# Shear Modulus (GPa) = -7.65284 26.99631 9.67174
#
# Velocity S-wave (km/s) = -2.02785 3.80871 2.27970
# Velocity P-wave (km/s) = 5.40189 7.91715 6.77723
#
# Compressibility (1/GPa) = 0.01550173
#
# Stress axis : x y z
#
# Youngs Moduli (GPa) = 37.36263 73.22338 124.02953
#
# Poissons Ratio (x) = 0.93544 0.15605
# Poissons Ratio (y) = 0.47731 0.30486
# Poissons Ratio (z) = 0.04701 0.17998
#
# Static dielectric constant tensor:
#      x y z
#    x 3.228200 0.000000 0.000000 
#    y 0.000000 3.464090 0.000000 
#    z 0.000000 0.000000 3.617510 
# 
# 
# High freq. dielectric constant tensor:
#      x y z
#    x 1.692700 0.000000 0.000000 
#    y 0.000000 1.745550 0.000000 
#    z 0.000000 0.000000 1.749170 
# 
# From -- ./inp_files/1931.got.cif
#   From: 2010.03.12/outbox.cif.g09.slc.cpg/sg49_1_cif.got.tgz:1931.got - 2010.04.14 03:58:27.
