data_PCOD8202104
_publ_section_title
;
Structure prediction by ZEFSAII (Michael W. Deem and Ramdas Pophale) SiO2 
 PCOD8202104
Probable space group: P N N N
;
_chemical_formula_sum "Si O2"
_cell_formula_units_Z 48
_cell_length_a 9.047246
_cell_length_b 8.251214
_cell_length_c 28.367855
_cell_angle_alpha 90.000000
_cell_angle_beta 90.000000
_cell_angle_gamma 90.000000
_cell_volume 2117.682016
_symmetry_space_group_name_H-M "P N N N"
_symmetry_group_IT_number 48
_space_group.IT_coordinate_system_code '2'
_symmetry_cell_setting 'orthorhombic'
loop_
_space_group_symop_operation_xyz
x,y,z
1/2-x,1/2-y,z
x,1/2-y,1/2-z
1/2-x,y,1/2-z
-x,-y,-z
1/2+x,1/2+y,-z
-x,1/2+y,1/2+z
1/2+x,-y,1/2+z
loop_
_atom_site_type_symbol
_atom_site_label
_atom_site_fract_x
_atom_site_fract_y
_atom_site_fract_z
Si Si1 0.289016 0.436448 0.901422
Si Si2 0.542794 0.063929 0.153981
Si Si3 0.823649 0.562952 0.000041
Si Si4 0.205681 0.931098 0.400789
Si Si5 0.580553 0.441504 0.750693
Si Si6 0.541397 0.929905 0.650070
O O1 0.250000 0.250000 0.899133
O O2 0.213913 0.534602 0.857982
O O3 0.244417 0.511756 0.952221
O O4 0.461293 0.462607 0.890539
O O5 0.502015 0.246491 0.144333
O O6 0.464551 0.952872 0.113754
O O7 0.508254 0.014012 0.207077
O O8 0.750000 0.750000 0.998236
O O9 0.755882 0.478129 0.954241
O O10 0.000000 0.500000 0.000000
O O11 0.250000 0.750000 0.390065
O O12 0.286956 0.047029 0.362724
O O13 0.569241 0.250000 0.750000
O O14 0.750000 0.500563 0.750000
O O15 0.503885 0.508333 0.797658
#
# Coordination Sequence:
#
# PCOD8202104 Si02
#       6
#     8   8   8   8   8   8
#     4  11  25  46  71  98 143 182 232 289 362 429
#     4  12  24  44  69  99 140 179 231 295 352 428
#     4  11  25  47  75 105 144 191 243 302 370 442
#     4  12  25  43  70  99 138 184 240 288 358 428
#     4  11  23  41  69 100 136 180 234 288 353 426
#     4  12  26  42  69 106 135 183 234 292 357 421
#
# _framework density 22.666293
#
# number of rings (size 3 to 8) (size 9 to 14) (size 15 to 20)
#    0.000    0.500    3.333    5.500    2.333    3.333 
#    0.000    3.333    0.000    0.000    0.000    0.000 
#    0.000    0.000    0.000    0.000    0.000    0.000 
#
# Total GULP energy -594703.662636 kJ/mol
# GULP energy per Si atom -12389.659638 kJ/mol
# Density = 2.261470 g / cm^3
# Si number density = 22.666293 Si / 1000 Ang^3
#
#
#
# Elastic Constant Matrix: (Units=GPa)
#
#
# Indices 1 2 3 4 5 6 
#
# 1 52.0151 16.1932 23.0769 0.0000 0.0000 0.0000
# 2 16.1932 97.3450 15.5207 0.0000 0.0000 0.0000
# 3 23.0769 15.5207 160.4963 0.0000 0.0000 0.0000
# 4 0.0000 0.0000 0.0000 27.8794 0.0000 0.0000
# 5 0.0000 0.0000 0.0000 0.0000 42.4677 0.0000
# 6 0.0000 0.0000 0.0000 0.0000 0.0000 38.3140
#
#
#
# Elastic Compliance Matrix: (Units=1/GPa)
#
#
# Indices 1 2 3 4 5 6 
#
# 1 0.021430 -0.003122 -0.002779 0.000000 0.000000 0.000000
# 2 -0.003122 0.010888 -0.000604 0.000000 0.000000 0.000000
# 3 -0.002779 -0.000604 0.006689 0.000000 0.000000 0.000000
# 4 0.000000 0.000000 0.000000 0.035869 0.000000 0.000000
# 5 0.000000 0.000000 0.000000 0.000000 0.023547 0.000000
# 6 0.000000 0.000000 0.000000 0.000000 0.000000 0.026100
#
#
# Mechanical properties :
#
#
# Convention : Reuss Voigt Hill
#
# Bulk Modulus (GPa) = 38.46640 46.60423 42.53531
# Shear Modulus (GPa) = 34.19985 38.73659 36.46822
#
# Velocity S-wave (km/s) = 3.88860 4.13848 4.01548
# Velocity P-wave (km/s) = 6.09665 6.59103 6.34866
#
# Compressibility (1/GPa) = 0.02599672
#
# Stress axis : x y z
#
# Youngs Moduli (GPa) = 46.66328 91.84132 149.50513
#
# Poissons Ratio (x) = 0.28670 0.41554
# Poissons Ratio (y) = 0.14567 0.09032
# Poissons Ratio (z) = 0.12970 0.05548
#
# Static dielectric constant tensor:
#      x y z
#    x 5.103620 0.000000 0.000000 
#    y 0.000000 4.154500 0.000000 
#    z 0.000000 0.000000 4.218120 
# 
# 
# High freq. dielectric constant tensor:
#      x y z
#    x 1.898500 0.000000 0.000000 
#    y 0.000000 1.896390 0.000000 
#    z 0.000000 0.000000 1.912110 
# 
# From -- ./inp_files/38696.got.cif
#   From: 2010.06.25/outbox.cif.g09.slc.cpg/sg48_20_cif.got.tgz:38696.got - 2010.06.26 18:06:46.
