data_PCOD8202472
_publ_section_title
;
Structure prediction by ZEFSAII (Michael W. Deem and Ramdas Pophale) SiO2 
 PCOD8202472
Probable space group: P C C M
;
_chemical_formula_sum "Si O2"
_cell_formula_units_Z 56
_cell_length_a 21.351933
_cell_length_b 18.533248
_cell_length_c 8.731787
_cell_angle_alpha 90.000000
_cell_angle_beta 90.000000
_cell_angle_gamma 90.000000
_cell_volume 3455.348598
_symmetry_space_group_name_H-M "P C C M"
_symmetry_group_IT_number 49
_symmetry_cell_setting 'orthorhombic'
loop_
_space_group_symop_operation_xyz
x,y,z
-x,-y,z
x,-y,1/2-z
-x,y,1/2-z
-x,-y,-z
x,y,-z
-x,y,1/2+z
x,-y,1/2+z
loop_
_atom_site_type_symbol
_atom_site_label
_atom_site_fract_x
_atom_site_fract_y
_atom_site_fract_z
Si Si1 0.935438 0.421208 0.817089
Si Si2 0.688940 0.422556 0.819768
Si Si3 0.258393 0.209737 0.321008
Si Si4 0.630316 0.705335 0.177546
Si Si5 0.813035 0.655694 0.322558
Si Si6 0.690557 0.078307 0.317772
Si Si7 0.435683 0.155854 0.821095
O O1 0.923026 0.500000 0.750000
O O2 0.879237 0.370397 0.754232
O O3 0.000000 0.389114 0.750000
O O4 0.939638 0.424683 0.000000
O O5 0.675751 0.500000 0.750000
O O6 0.631579 0.369103 0.773271
O O7 0.754179 0.389489 0.753403
O O8 0.690428 0.429304 0.000000
O O9 0.277709 0.210592 0.500000
O O10 0.309123 0.248045 0.215711
O O11 0.195257 0.257706 0.297109
O O12 0.254153 0.128275 0.256292
O O13 0.572551 0.758732 0.219484
O O14 0.629895 0.684819 0.000000
O O15 0.813756 0.636684 0.500000
O O16 0.696943 0.077866 0.500000
O O17 0.623000 0.108425 0.261001
O O18 0.700952 0.000000 0.250000
O O19 0.500000 0.126605 0.750000
O O20 0.440140 0.144530 0.000000
#
# Coordination Sequence:
#
# PCOD8202472 Si02
#       7
#     8   8   8   8   8   8   8
#     4  10  18  29  41  58  86 121 157 191 222 257
#     4  10  18  28  43  64  85 110 141 179 225 268
#     4   9  16  29  47  66  86 113 144 178 218 260
#     4   9  17  30  44  62  86 111 139 176 216 260
#     4   8  16  28  43  62  86 114 148 183 218 258
#     4  10  20  33  47  68  94 120 144 173 211 255
#     4   9  19  32  47  65  86 112 145 176 208 249
#
# _framework density 16.206758000000001
#
# number of rings (size 3 to 8) (size 9 to 14) (size 15 to 20)
#    0.000    2.714    0.000    4.714    0.000    3.714 
#    0.000    9.286    0.000    0.429    0.000    3.000 
#    0.000    0.571    0.000    6.571    0.000    2.000 
#
# Total GULP energy -693841.276649 kJ/mol
# GULP energy per Si atom -12390.022797 kJ/mol
# Density = 1.616987 g / cm^3
# Si number density = 16.206758 Si / 1000 Ang^3
#
#
#
# Elastic Constant Matrix: (Units=GPa)
#
#
# Indices 1 2 3 4 5 6 
#
# 1 45.4171 28.1658 15.1989 0.0000 0.0000 0.0000
# 2 28.1658 117.8008 25.7325 0.0000 0.0000 0.0000
# 3 15.1989 25.7325 43.7458 0.0000 0.0000 0.0000
# 4 0.0000 0.0000 0.0000 23.5860 0.0000 0.0000
# 5 0.0000 0.0000 0.0000 0.0000 16.9844 0.0000
# 6 0.0000 0.0000 0.0000 0.0000 0.0000 19.1339
#
#
#
# Elastic Compliance Matrix: (Units=1/GPa)
#
#
# Indices 1 2 3 4 5 6 
#
# 1 0.027370 -0.005125 -0.006494 0.000000 0.000000 0.000000
# 2 -0.005125 0.010700 -0.004513 0.000000 0.000000 0.000000
# 3 -0.006494 -0.004513 0.027771 0.000000 0.000000 0.000000
# 4 0.000000 0.000000 0.000000 0.042398 0.000000 0.000000
# 5 0.000000 0.000000 0.000000 0.000000 0.058878 0.000000
# 6 0.000000 0.000000 0.000000 0.000000 0.000000 0.052263
#
#
# Mechanical properties :
#
#
# Convention : Reuss Voigt Hill
#
# Bulk Modulus (GPa) = 29.78459 38.35090 34.06775
# Shear Modulus (GPa) = 19.02311 21.13196 20.07753
#
# Velocity S-wave (km/s) = 3.42976 3.61487 3.52353
# Velocity P-wave (km/s) = 5.83970 6.41389 6.13352
#
# Compressibility (1/GPa) = 0.03357440
#
# Stress axis : x y z
#
# Youngs Moduli (GPa) = 36.53625 93.45530 36.00916
#
# Poissons Ratio (x) = 0.47900 0.23386
# Poissons Ratio (y) = 0.18726 0.16253
# Poissons Ratio (z) = 0.23728 0.42181
#
# Static dielectric constant tensor:
#      x y z
#    x 3.145040 0.000000 0.000000 
#    y 0.000000 3.302320 0.000000 
#    z 0.000000 0.000000 3.050530 
# 
# 
# High freq. dielectric constant tensor:
#      x y z
#    x 1.583590 0.000000 0.000000 
#    y 0.000000 1.619030 0.000000 
#    z 0.000000 0.000000 1.626930 
# 
# From -- ./inp_files/5201.got.cif
#   From: 2010.03.12/outbox.cif.g09.slc.cpg/sg49_3_cif.got.tgz:5201.got - 2010.04.14 03:58:27.
