data_PCOD8202246
_publ_section_title
;
Structure prediction by ZEFSAII (Michael W. Deem and Ramdas Pophale) SiO2 
 PCOD8202246
Probable space group: P C C M
;
_chemical_formula_sum "Si O2"
_cell_formula_units_Z 64
_cell_length_a 20.769733
_cell_length_b 20.020597
_cell_length_c 8.750632
_cell_angle_alpha 90.000000
_cell_angle_beta 90.000000
_cell_angle_gamma 90.000000
_cell_volume 3638.709274
_symmetry_space_group_name_H-M "P C C M"
_symmetry_group_IT_number 49
_symmetry_cell_setting 'orthorhombic'
loop_
_space_group_symop_operation_xyz
x,y,z
-x,-y,z
x,-y,1/2-z
-x,y,1/2-z
-x,-y,-z
x,y,-z
-x,y,1/2+z
x,-y,1/2+z
loop_
_atom_site_type_symbol
_atom_site_label
_atom_site_fract_x
_atom_site_fract_y
_atom_site_fract_z
Si Si1 0.762005 0.291038 0.179390
Si Si2 0.566217 0.841730 0.319940
Si Si3 0.067118 0.927802 0.817703
Si Si4 0.616443 0.700204 0.319390
Si Si5 0.189267 0.153606 0.681621
Si Si6 0.381371 0.433826 0.819479
Si Si7 0.239813 0.435638 0.679737
Si Si8 0.686939 0.927094 0.318431
O O1 0.689173 0.288434 0.242220
O O2 0.803715 0.229541 0.247431
O O3 0.794295 0.363920 0.215617
O O4 0.757587 0.279710 0.000000
O O5 0.500000 0.869230 0.250000
O O6 0.562601 0.847953 0.500000
O O7 0.575705 0.764753 0.270229
O O8 0.625168 0.886161 0.258003
O O9 0.122262 0.877183 0.759980
O O10 0.000000 0.900855 0.750000
O O11 0.083672 0.000000 0.750000
O O12 0.062836 0.932788 0.000000
O O13 0.616177 0.688441 0.500000
O O14 0.585372 0.634713 0.239136
O O15 0.189630 0.153459 0.500000
O O16 0.248902 0.109631 0.742178
O O17 0.416198 0.500000 0.750000
O O18 0.308707 0.433136 0.759083
O O19 0.384050 0.437434 0.000000
O O20 0.201436 0.500000 0.750000
O O21 0.248751 0.445700 0.500000
O O22 0.687178 0.931185 0.500000
O O23 0.684293 0.000000 0.250000
#
# Coordination Sequence:
#
# PCOD8202246 Si02
#       8
#     8   8   8   8   8   8   8   8
#     4   8  13  24  44  66  87 116 156 193 228 273
#     4  10  21  36  54  71  92 122 155 195 241 291
#     4  10  19  31  49  70  97 130 162 197 232 278
#     4   9  16  30  49  66  87 118 153 191 235 282
#     4   9  16  29  50  73  95 124 163 198 232 277
#     4  10  17  25  40  64  92 120 151 188 229 277
#     4   9  15  23  38  59  89 125 156 189 229 275
#     4  10  20  35  54  74  95 121 155 197 240 285
#
# _framework density 17.588653999999998
#
# number of rings (size 3 to 8) (size 9 to 14) (size 15 to 20)
#    0.000    2.625    1.250    4.125    0.000    1.250 
#    0.000    1.875    0.000    7.875    0.000    2.625 
#    0.000    0.500    0.000    6.250    0.000    0.125 
#
# Total GULP energy -793067.725600 kJ/mol
# GULP energy per Si atom -12391.683212 kJ/mol
# Density = 1.754862 g / cm^3
# Si number density = 17.588654 Si / 1000 Ang^3
#
#
#
# Elastic Constant Matrix: (Units=GPa)
#
#
# Indices 1 2 3 4 5 6 
#
# 1 94.3518 61.8287 20.4470 0.0000 0.0000 0.0000
# 2 61.8287 156.1202 38.1347 0.0000 0.0000 0.0000
# 3 20.4470 38.1347 56.4132 0.0000 0.0000 0.0000
# 4 0.0000 0.0000 0.0000 24.6357 0.0000 0.0000
# 5 0.0000 0.0000 0.0000 0.0000 11.8792 0.0000
# 6 0.0000 0.0000 0.0000 0.0000 0.0000 16.3648
#
#
#
# Elastic Compliance Matrix: (Units=1/GPa)
#
#
# Indices 1 2 3 4 5 6 
#
# 1 0.014439 -0.005318 -0.001638 0.000000 0.000000 0.000000
# 2 -0.005318 0.009631 -0.004583 0.000000 0.000000 0.000000
# 3 -0.001638 -0.004583 0.021418 0.000000 0.000000 0.000000
# 4 0.000000 0.000000 0.000000 0.040591 0.000000 0.000000
# 5 0.000000 0.000000 0.000000 0.000000 0.084181 0.000000
# 6 0.000000 0.000000 0.000000 0.000000 0.000000 0.061107
#
#
# Mechanical properties :
#
#
# Convention : Reuss Voigt Hill
#
# Bulk Modulus (GPa) = 44.62464 60.85622 52.74043
# Shear Modulus (GPa) = 19.09020 23.00760 21.04890
#
# Velocity S-wave (km/s) = 3.29807 3.62068 3.46313
# Velocity P-wave (km/s) = 6.31897 7.22177 6.78540
#
# Compressibility (1/GPa) = 0.02240914
#
# Stress axis : x y z
#
# Youngs Moduli (GPa) = 69.25915 103.83341 46.68945
#
# Poissons Ratio (x) = 0.55218 0.07650
# Poissons Ratio (y) = 0.36831 0.21397
# Poissons Ratio (z) = 0.11347 0.47585
#
# Static dielectric constant tensor:
#      x y z
#    x 3.097390 0.000000 0.000000 
#    y 0.000000 4.049230 0.000000 
#    z 0.000000 0.000000 3.046490 
# 
# 
# High freq. dielectric constant tensor:
#      x y z
#    x 1.629070 0.000000 0.000000 
#    y 0.000000 1.702220 0.000000 
#    z 0.000000 0.000000 1.659240 
# 
# From -- ./inp_files/6056.got.cif
#   From: 2010.03.12/outbox.cif.g09.slc.cpg/sg49_4_cif.got.tgz:6056.got - 2010.04.14 03:58:27.
