data_PCOD8202152
_publ_section_title
;
Structure prediction by ZEFSAII (Michael W. Deem and Ramdas Pophale) SiO2 
 PCOD8202152
Probable space group: P N N N
;
_chemical_formula_sum "Si O2"
_cell_formula_units_Z 22
_cell_length_a 6.739231
_cell_length_b 14.096793
_cell_length_c 10.651454
_cell_angle_alpha 90.000000
_cell_angle_beta 90.000000
_cell_angle_gamma 90.000000
_cell_volume 1011.904580
_symmetry_space_group_name_H-M "P N N N"
_symmetry_group_IT_number 48
_space_group.IT_coordinate_system_code '2'
_symmetry_cell_setting 'orthorhombic'
loop_
_space_group_symop_operation_xyz
x,y,z
1/2-x,1/2-y,z
x,1/2-y,1/2-z
1/2-x,y,1/2-z
-x,-y,-z
1/2+x,1/2+y,-z
-x,1/2+y,1/2+z
1/2+x,-y,1/2+z
loop_
_atom_site_type_symbol
_atom_site_label
_atom_site_fract_x
_atom_site_fract_y
_atom_site_fract_z
Si Si1 0.471476 0.348194 0.794440
Si Si2 0.750000 0.508737 0.750000
Si Si3 0.589486 0.665812 0.918540
Si Si4 0.250000 0.750000 0.750000
O O1 0.574408 0.250000 0.750000
O O2 0.250000 0.347291 0.750000
O O3 0.567047 0.438025 0.723877
O O4 0.489985 0.356359 0.943809
O O5 0.706409 0.573540 0.870358
O O6 0.750000 0.750000 0.915165
O O7 0.394333 0.685233 0.834737
#
# Coordination Sequence:
#
# PCOD8202152 Si02
#       4
#     8   4   8   2
#     4  11  26  47  72 102 146 188 231 294 359 419
#     4  12  26  44  72 112 136 186 244 290 348 424
#     4  12  25  49  70 105 144 183 242 290 355 428
#     4  12  26  44  78  94 150 192 226 290 364 402
#
# _framework density 21.741181999999998
#
# number of rings (size 3 to 8) (size 9 to 14) (size 15 to 20)
#    0.000    0.364    7.273    1.636    7.636    1.455 
#    0.000    0.000    0.000    0.000    0.000    0.000 
#    0.000    0.000    0.000    0.000    0.000    0.000 
#
# Total GULP energy -272762.032882 kJ/mol
# GULP energy per Si atom -12398.274222 kJ/mol
# Density = 2.169170 g / cm^3
# Si number density = 21.741182 Si / 1000 Ang^3
#
#
#
# Elastic Constant Matrix: (Units=GPa)
#
#
# Indices 1 2 3 4 5 6 
#
# 1 116.6383 53.2567 50.7884 0.0000 0.0000 0.0000
# 2 53.2567 188.4838 58.5087 0.0000 0.0000 0.0000
# 3 50.7884 58.5087 162.7272 0.0000 0.0000 0.0000
# 4 0.0000 0.0000 0.0000 24.9565 0.0000 0.0000
# 5 0.0000 0.0000 0.0000 0.0000 19.0087 0.0000
# 6 0.0000 0.0000 0.0000 0.0000 0.0000 43.3191
#
#
#
# Elastic Compliance Matrix: (Units=1/GPa)
#
#
# Indices 1 2 3 4 5 6 
#
# 1 0.010698 -0.002236 -0.002535 0.000000 0.000000 0.000000
# 2 -0.002236 0.006439 -0.001617 0.000000 0.000000 0.000000
# 3 -0.002535 -0.001617 0.007518 0.000000 0.000000 0.000000
# 4 0.000000 0.000000 0.000000 0.040070 0.000000 0.000000
# 5 0.000000 0.000000 0.000000 0.000000 0.052607 0.000000
# 6 0.000000 0.000000 0.000000 0.000000 0.000000 0.023085
#
#
# Mechanical properties :
#
#
# Convention : Reuss Voigt Hill
#
# Bulk Modulus (GPa) = 84.18356 88.10631 86.14494
# Shear Modulus (GPa) = 31.81598 37.80990 34.81294
#
# Velocity S-wave (km/s) = 3.82959 4.17477 4.00590
# Velocity P-wave (km/s) = 7.63932 7.99070 7.81698
#
# Compressibility (1/GPa) = 0.01187880
#
# Stress axis : x y z
#
# Youngs Moduli (GPa) = 93.47293 155.29557 133.01367
#
# Poissons Ratio (x) = 0.34722 0.33720
# Poissons Ratio (y) = 0.20900 0.21514
# Poissons Ratio (z) = 0.23696 0.25118
#
# Static dielectric constant tensor:
#      x y z
#    x 4.030010 0.000000 0.000000 
#    y 0.000000 4.348080 0.000000 
#    z 0.000000 0.000000 4.333610 
# 
# 
# High freq. dielectric constant tensor:
#      x y z
#    x 1.868600 0.000000 0.000000 
#    y 0.000000 1.869080 0.000000 
#    z 0.000000 0.000000 1.853280 
# 
# From -- ./inp_files/1465.got.cif
#   From: 2010.06.25/outbox.cif.g09.slc.cpg/sg48_1_cif.got.tgz:1465.got - 2010.06.26 18:06:46.
