data_PCOD8202045
_publ_section_title
;
Structure prediction by ZEFSAII (Michael W. Deem and Ramdas Pophale) SiO2 
 PCOD8202045
Probable space group: P N N N
;
_chemical_formula_sum "Si O2"
_cell_formula_units_Z 48
_cell_length_a 8.138336
_cell_length_b 27.190370
_cell_length_c 10.186381
_cell_angle_alpha 90.000000
_cell_angle_beta 90.000000
_cell_angle_gamma 90.000000
_cell_volume 2254.086872
_symmetry_space_group_name_H-M "P N N N"
_symmetry_group_IT_number 48
_space_group.IT_coordinate_system_code '2'
_symmetry_cell_setting 'orthorhombic'
loop_
_space_group_symop_operation_xyz
x,y,z
1/2-x,1/2-y,z
x,1/2-y,1/2-z
1/2-x,y,1/2-z
-x,-y,-z
1/2+x,1/2+y,-z
-x,1/2+y,1/2+z
1/2+x,-y,1/2+z
loop_
_atom_site_type_symbol
_atom_site_label
_atom_site_fract_x
_atom_site_fract_y
_atom_site_fract_z
Si Si1 0.975313 0.600457 0.973707
Si Si2 0.095140 0.116394 0.991329
Si Si3 0.592512 0.307109 0.342725
Si Si4 0.915161 0.781556 0.899785
Si Si5 0.058643 0.047198 0.221252
Si Si6 0.941703 0.436543 0.746412
O O1 0.030799 0.566336 0.852079
O O2 0.079262 0.650572 0.952882
O O3 0.785421 0.613013 0.977265
O O4 0.008923 0.570691 0.104242
O O5 0.040326 0.100846 0.846121
O O6 0.054140 0.174235 0.998640
O O7 0.003623 0.081264 0.098138
O O8 0.750000 0.313771 0.250000
O O9 0.427942 0.306036 0.247288
O O10 0.576866 0.254085 0.415290
O O11 0.750000 0.750000 0.926220
O O12 0.250000 0.049748 0.250000
O O13 0.008215 0.990797 0.195709
O O14 0.750000 0.425981 0.750000
#
# Coordination Sequence:
#
# PCOD8202045 Si02
#       6
#     8   8   8   8   8   8
#     4  11  22  40  66  93 127 170 215 258 323 384
#     4  11  22  41  68  94 126 171 217 269 320 387
#     4  11  23  37  62 100 130 153 204 272 330 373
#     4  11  21  38  67  98 123 158 217 270 318 387
#     4   9  20  39  67  96 121 165 222 270 314 378
#     4  11  25  42  60  91 137 173 211 263 328 386
#
# _framework density 21.294654999999999
#
# number of rings (size 3 to 8) (size 9 to 14) (size 15 to 20)
#    0.000    1.333    3.333    3.500    2.333    0.000 
#    0.000    4.167    0.000    1.000    0.000    0.000 
#    0.000    0.000    0.000    0.000    0.000    0.000 
#
# Total GULP energy -594783.897418 kJ/mol
# GULP energy per Si atom -12391.331196 kJ/mol
# Density = 2.124619 g / cm^3
# Si number density = 21.294655 Si / 1000 Ang^3
#
#
#
# Elastic Constant Matrix: (Units=GPa)
#
#
# Indices 1 2 3 4 5 6 
#
# 1 56.1662 43.4810 24.9710 0.0000 0.0000 0.0000
# 2 43.4810 124.9121 31.7153 0.0000 0.0000 0.0000
# 3 24.9710 31.7153 91.3545 0.0000 0.0000 0.0000
# 4 0.0000 0.0000 0.0000 33.8790 0.0000 0.0000
# 5 0.0000 0.0000 0.0000 0.0000 29.1790 0.0000
# 6 0.0000 0.0000 0.0000 0.0000 0.0000 23.5632
#
#
#
# Elastic Compliance Matrix: (Units=1/GPa)
#
#
# Indices 1 2 3 4 5 6 
#
# 1 0.025839 -0.007897 -0.004321 0.000000 0.000000 0.000000
# 2 -0.007897 0.011193 -0.001727 0.000000 0.000000 0.000000
# 3 -0.004321 -0.001727 0.012727 0.000000 0.000000 0.000000
# 4 0.000000 0.000000 0.000000 0.029517 0.000000 0.000000
# 5 0.000000 0.000000 0.000000 0.000000 0.034271 0.000000
# 6 0.000000 0.000000 0.000000 0.000000 0.000000 0.042439
#
#
# Mechanical properties :
#
#
# Convention : Reuss Voigt Hill
#
# Bulk Modulus (GPa) = 45.72893 52.52971 49.12932
# Shear Modulus (GPa) = 26.15510 28.80862 27.48186
#
# Velocity S-wave (km/s) = 3.50844 3.68211 3.59632
# Velocity P-wave (km/s) = 6.15899 6.54208 6.35342
#
# Compressibility (1/GPa) = 0.02186799
#
# Stress axis : x y z
#
# Youngs Moduli (GPa) = 38.70099 89.34027 78.57198
#
# Poissons Ratio (x) = 0.70554 0.33953
# Poissons Ratio (y) = 0.30563 0.13571
# Poissons Ratio (z) = 0.16724 0.15431
#
# Static dielectric constant tensor:
#      x y z
#    x 3.622220 0.000000 0.000000 
#    y 0.000000 4.197170 0.000000 
#    z 0.000000 0.000000 3.464170 
# 
# 
# High freq. dielectric constant tensor:
#      x y z
#    x 1.826910 0.000000 0.000000 
#    y 0.000000 1.852100 0.000000 
#    z 0.000000 0.000000 1.805020 
# 
# From -- ./inp_files/9450.got.cif
#   From: 2010.06.25/outbox.cif.g09.slc.cpg/sg48_5_cif.got.tgz:9450.got - 2010.06.26 18:06:46.
