data_PCOD8202605
_publ_section_title
;
Structure prediction by ZEFSAII (Michael W. Deem and Ramdas Pophale) SiO2 
 PCOD8202605
Probable space group: P C C M
;
_chemical_formula_sum "Si O2"
_cell_formula_units_Z 64
_cell_length_a 20.365587
_cell_length_b 19.617982
_cell_length_c 8.974444
_cell_angle_alpha 90.000000
_cell_angle_beta 90.000000
_cell_angle_gamma 90.000000
_cell_volume 3585.575040
_symmetry_space_group_name_H-M "P C C M"
_symmetry_group_IT_number 49
_symmetry_cell_setting 'orthorhombic'
loop_
_space_group_symop_operation_xyz
x,y,z
-x,-y,z
x,-y,1/2-z
-x,y,1/2-z
-x,-y,-z
x,y,-z
-x,y,1/2+z
x,-y,1/2+z
loop_
_atom_site_type_symbol
_atom_site_label
_atom_site_fract_x
_atom_site_fract_y
_atom_site_fract_z
Si Si1 0.804603 0.652382 0.672246
Si Si2 0.234034 0.933705 0.666807
Si Si3 0.689586 0.427260 0.675508
Si Si4 0.564898 0.338411 0.323650
Si Si5 0.762349 0.799773 0.328147
Si Si6 0.933115 0.429411 0.825492
Si Si7 0.389848 0.203915 0.675113
Si Si8 0.390556 0.067110 0.830657
O O1 0.784066 0.642211 0.500000
O O2 0.755393 0.609737 0.773040
O O3 0.802424 0.732021 0.715780
O O4 0.878067 0.627208 0.703295
O O5 0.207216 0.936379 0.500000
O O6 0.207859 0.863748 0.739368
O O7 0.312244 0.934718 0.673274
O O8 0.205357 0.000000 0.750000
O O9 0.683281 0.500000 0.750000
O O10 0.692873 0.437094 0.500000
O O11 0.626978 0.383217 0.725176
O O12 0.500000 0.371856 0.250000
O O13 0.557082 0.335051 0.500000
O O14 0.571282 0.262783 0.258871
O O15 0.769610 0.818618 0.500000
O O16 0.686708 0.786554 0.287416
O O17 0.910495 0.500000 0.750000
O O18 0.000000 0.402733 0.750000
O O19 0.944732 0.442165 0.000000
O O20 0.404148 0.207319 0.500000
O O21 0.416151 0.132387 0.739556
O O22 0.419085 0.000000 0.750000
O O23 0.416361 0.070035 0.000000
#
# Coordination Sequence:
#
# PCOD8202605 Si02
#       8
#     8   8   8   8   8   8   8   8
#     4  10  20  35  55  80 109 141 175 214 259 308
#     4   9  16  25  39  62  95 133 170 208 250 298
#     4  11  24  39  58  81 105 132 167 211 260 313
#     4  11  24  40  57  77  99 129 168 212 261 314
#     4   9  17  29  47  71 100 133 167 207 256 304
#     4  10  20  34  53  76 106 142 181 217 256 303
#     4  10  18  31  52  73  98 131 165 207 258 308
#     4   9  16  26  42  67  98 129 166 207 249 301
#
# _framework density 17.849298999999998
#
# number of rings (size 3 to 8) (size 9 to 14) (size 15 to 20)
#    0.000    2.125    1.250    3.000    0.000    7.750 
#    0.000    1.250    0.000    0.375    0.000    2.625 
#    0.000    0.500    0.000    5.750    0.000    2.000 
#
# Total GULP energy -793738.519734 kJ/mol
# GULP energy per Si atom -12402.164371 kJ/mol
# Density = 1.780867 g / cm^3
# Si number density = 17.849299 Si / 1000 Ang^3
#
#
#
# Elastic Constant Matrix: (Units=GPa)
#
#
# Indices 1 2 3 4 5 6 
#
# 1 67.2277 46.0498 39.5556 0.0000 0.0000 0.0000
# 2 46.0498 129.2575 55.8166 0.0000 0.0000 0.0000
# 3 39.5556 55.8166 99.7882 0.0000 0.0000 0.0000
# 4 0.0000 0.0000 0.0000 30.3221 0.0000 0.0000
# 5 0.0000 0.0000 0.0000 0.0000 18.2989 0.0000
# 6 0.0000 0.0000 0.0000 0.0000 0.0000 11.8637
#
#
#
# Elastic Compliance Matrix: (Units=1/GPa)
#
#
# Indices 1 2 3 4 5 6 
#
# 1 0.021877 -0.005339 -0.005686 0.000000 0.000000 0.000000
# 2 -0.005339 0.011503 -0.004318 0.000000 0.000000 0.000000
# 3 -0.005686 -0.004318 0.014690 0.000000 0.000000 0.000000
# 4 0.000000 0.000000 0.000000 0.032979 0.000000 0.000000
# 5 0.000000 0.000000 0.000000 0.000000 0.054648 0.000000
# 6 0.000000 0.000000 0.000000 0.000000 0.000000 0.084291
#
#
# Mechanical properties :
#
#
# Convention : Reuss Voigt Hill
#
# Bulk Modulus (GPa) = 57.51917 64.34639 60.93278
# Shear Modulus (GPa) = 19.49550 22.42036 20.95793
#
# Velocity S-wave (km/s) = 3.30847 3.54798 3.43032
# Velocity P-wave (km/s) = 6.84759 7.27409 7.06406
#
# Compressibility (1/GPa) = 0.01738551
#
# Stress axis : x y z
#
# Youngs Moduli (GPa) = 45.70965 86.93281 68.07204
#
# Poissons Ratio (x) = 0.46412 0.38704
# Poissons Ratio (y) = 0.24403 0.29394
# Poissons Ratio (z) = 0.25989 0.37538
#
# Static dielectric constant tensor:
#      x y z
#    x 3.005260 0.000000 0.000000 
#    y 0.000000 3.474320 0.000000 
#    z 0.000000 0.000000 3.427990 
# 
# 
# High freq. dielectric constant tensor:
#      x y z
#    x 1.645780 0.000000 0.000000 
#    y 0.000000 1.699570 0.000000 
#    z 0.000000 0.000000 1.704610 
# 
# From -- ./inp_files/5331.got.cif
#   From: 2010.03.12/outbox.cif.g09.slc.cpg/sg49_3_cif.got.tgz:5331.got - 2010.04.14 03:58:27.
