data_PCOD8202365
_publ_section_title
;
Structure prediction by ZEFSAII (Michael W. Deem and Ramdas Pophale) SiO2 
 PCOD8202365
Probable space group: P C C M
;
_chemical_formula_sum "Si O2"
_cell_formula_units_Z 48
_cell_length_a 9.669653
_cell_length_b 31.058451
_cell_length_c 8.560804
_cell_angle_alpha 90.000000
_cell_angle_beta 90.000000
_cell_angle_gamma 90.000000
_cell_volume 2571.018701
_symmetry_space_group_name_H-M "P C C M"
_symmetry_group_IT_number 49
_symmetry_cell_setting 'orthorhombic'
loop_
_space_group_symop_operation_xyz
x,y,z
-x,-y,z
x,-y,1/2-z
-x,y,1/2-z
-x,-y,-z
x,y,-z
-x,y,1/2+z
x,-y,1/2+z
loop_
_atom_site_type_symbol
_atom_site_label
_atom_site_fract_x
_atom_site_fract_y
_atom_site_fract_z
Si Si1 0.845664 0.456882 0.315543
Si Si2 0.151968 0.369398 0.316796
Si Si3 0.147427 0.046334 0.184174
Si Si4 0.654628 0.882487 0.683742
Si Si5 0.649981 0.203269 0.680298
Si Si6 0.346775 0.298408 0.181622
O O1 0.769412 0.500000 0.250000
O O2 0.845030 0.458375 0.500000
O O3 0.776743 0.412540 0.255626
O O4 0.000000 0.456366 0.250000
O O5 0.139253 0.375659 0.500000
O O6 0.248010 0.329392 0.277591
O O7 0.000000 0.360697 0.250000
O O8 0.262810 0.079952 0.232948
O O9 0.000000 0.061541 0.250000
O O10 0.190606 0.000000 0.250000
O O11 0.136822 0.043194 0.000000
O O12 0.500000 0.883050 0.750000
O O13 0.656339 0.890025 0.500000
O O14 0.724421 0.836009 0.726966
O O15 0.500000 0.209234 0.750000
O O16 0.640842 0.189680 0.500000
O O17 0.719393 0.250274 0.701055
O O18 0.500000 0.301861 0.250000
O O19 0.350850 0.311441 0.000000
#
# Coordination Sequence:
#
# PCOD8202365 Si02
#       6
#     8   8   8   8   8   8
#     4  10  17  28  46  70  99 131 169 211 257 309
#     4  11  21  34  52  76 106 138 173 217 266 311
#     4  11  22  39  59  81 109 143 180 216 260 314
#     4  11  21  35  56  83 111 140 176 220 266 309
#     4   9  17  31  52  77 105 137 174 216 261 310
#     4  10  20  35  55  79 106 139 178 216 258 312
#
# _framework density 18.669644000000002
#
# number of rings (size 3 to 8) (size 9 to 14) (size 15 to 20)
#    0.000    1.667    0.000   10.000    0.000    2.333 
#    0.000    2.500    0.000    4.500    0.000    3.500 
#    0.000    0.000    0.000    0.000    0.000    0.000 
#
# Total GULP energy -594986.480713 kJ/mol
# GULP energy per Si atom -12395.551682 kJ/mol
# Density = 1.862715 g / cm^3
# Si number density = 18.669644 Si / 1000 Ang^3
#
#
#
# Elastic Constant Matrix: (Units=GPa)
#
#
# Indices 1 2 3 4 5 6 
#
# 1 50.8406 49.2875 27.4669 0.0000 0.0000 0.0000
# 2 49.2875 143.1463 55.6062 0.0000 0.0000 0.0000
# 3 27.4669 55.6062 171.0363 0.0000 0.0000 0.0000
# 4 0.0000 0.0000 0.0000 37.7638 0.0000 0.0000
# 5 0.0000 0.0000 0.0000 0.0000 26.2266 0.0000
# 6 0.0000 0.0000 0.0000 0.0000 0.0000 18.3683
#
#
#
# Elastic Compliance Matrix: (Units=1/GPa)
#
#
# Indices 1 2 3 4 5 6 
#
# 1 0.029934 -0.009659 -0.001667 0.000000 0.000000 0.000000
# 2 -0.009659 0.011113 -0.002062 0.000000 0.000000 0.000000
# 3 -0.001667 -0.002062 0.006785 0.000000 0.000000 0.000000
# 4 0.000000 0.000000 0.000000 0.026480 0.000000 0.000000
# 5 0.000000 0.000000 0.000000 0.000000 0.038129 0.000000
# 6 0.000000 0.000000 0.000000 0.000000 0.000000 0.054442
#
#
# Mechanical properties :
#
#
# Convention : Reuss Voigt Hill
#
# Bulk Modulus (GPa) = 47.49280 69.97158 58.73219
# Shear Modulus (GPa) = 24.91574 31.98258 28.44916
#
# Velocity S-wave (km/s) = 3.65712 4.14343 3.90785
# Velocity P-wave (km/s) = 6.58229 7.77501 7.20338
#
# Compressibility (1/GPa) = 0.02105583
#
# Stress axis : x y z
#
# Youngs Moduli (GPa) = 33.40683 89.98831 147.39148
#
# Poissons Ratio (x) = 0.86922 0.24567
# Poissons Ratio (y) = 0.32269 0.30387
# Poissons Ratio (z) = 0.05568 0.18552
#
# Static dielectric constant tensor:
#      x y z
#    x 2.983300 0.000000 0.000000 
#    y 0.000000 4.387030 0.000000 
#    z 0.000000 0.000000 3.543670 
# 
# 
# High freq. dielectric constant tensor:
#      x y z
#    x 1.669750 0.000000 0.000000 
#    y 0.000000 1.752840 0.000000 
#    z 0.000000 0.000000 1.751260 
# 
# From -- ./inp_files/2963.got.cif
#   From: 2010.03.12/outbox.cif.g09.slc.cpg/sg49_2_cif.got.tgz:2963.got - 2010.04.14 03:58:27.
