data_PCOD8202229
_publ_section_title
;
Structure prediction by ZEFSAII (Michael W. Deem and Ramdas Pophale) SiO2 
 PCOD8202229
Probable space group: P C C M
;
_chemical_formula_sum "Si O2"
_cell_formula_units_Z 64
_cell_length_a 5.198939
_cell_length_b 26.366074
_cell_length_c 27.563166
_cell_angle_alpha 90.000000
_cell_angle_beta 90.000000
_cell_angle_gamma 90.000000
_cell_volume 3778.237804
_symmetry_space_group_name_H-M "P C C M"
_symmetry_group_IT_number 49
_symmetry_cell_setting 'orthorhombic'
loop_
_space_group_symop_operation_xyz
x,y,z
-x,-y,z
x,-y,1/2-z
-x,y,1/2-z
-x,-y,-z
x,y,-z
-x,y,1/2+z
x,-y,1/2+z
loop_
_atom_site_type_symbol
_atom_site_label
_atom_site_fract_x
_atom_site_fract_y
_atom_site_fract_z
Si Si1 0.997717 0.939991 0.362137
Si Si2 0.602190 0.802161 0.055666
Si Si3 0.749975 0.466607 0.880505
Si Si4 0.327309 0.690576 0.442628
Si Si5 0.252593 0.556954 0.771138
Si Si6 0.883898 0.135442 0.944094
Si Si7 0.502117 0.939834 0.304362
Si Si8 0.167819 0.369727 0.442802
O O1 0.952394 0.915134 0.414508
O O2 0.765766 0.921455 0.328252
O O3 0.259934 0.921035 0.336397
O O4 0.000000 0.000000 0.370455
O O5 0.633785 0.746733 0.080244
O O6 0.369478 0.836165 0.077749
O O7 0.876217 0.827751 0.061676
O O8 0.522881 0.794321 0.000000
O O9 0.500000 0.500000 0.894059
O O10 0.719246 0.440049 0.828672
O O11 0.806032 0.425493 0.921340
O O12 0.000000 0.500000 0.877225
O O13 0.291547 0.695633 0.500000
O O14 0.577309 0.659699 0.427664
O O15 0.076991 0.661339 0.421637
O O16 0.251199 0.500000 0.750000
O O17 0.500000 0.586261 0.750000
O O18 0.000000 0.585027 0.750000
O O19 0.840716 0.119032 0.000000
O O20 0.500000 0.916879 0.250000
O O21 0.500000 0.000000 0.301310
O O22 0.140014 0.376447 0.500000
#
# Coordination Sequence:
#
# PCOD8202229 Si02
#       8
#     8   8   8   8   8   8   8   8
#     4  10  19  30  45  67 100 136 162 191 237 291
#     4   9  17  30  50  69  88 120 160 206 248 271
#     4  12  21  31  48  68  95 130 155 183 220 268
#     4   9  17  33  51  66  89 121 156 199 244 272
#     4  10  16  30  47  65  86 116 152 191 230 251
#     4  10  19  30  45  71 101 128 163 197 228 284
#     4   9  17  30  47  65  87 123 163 207 247 273
#     4  10  21  33  46  68  97 126 157 187 221 281
#
# _framework density 16.939115000000001
#
# number of rings (size 3 to 8) (size 9 to 14) (size 15 to 20)
#    0.000    2.125    2.500    2.625    0.000    5.250 
#    0.000    0.000    0.000    4.500    0.000    0.000 
#    0.000   35.000    0.000    0.000    0.000    0.000 
#
# Total GULP energy -793283.603898 kJ/mol
# GULP energy per Si atom -12395.056311 kJ/mol
# Density = 1.690056 g / cm^3
# Si number density = 16.939115 Si / 1000 Ang^3
#
#
#
# Elastic Constant Matrix: (Units=GPa)
#
#
# Indices 1 2 3 4 5 6 
#
# 1 152.4503 33.6495 33.3072 0.0000 0.0000 0.0000
# 2 33.6495 55.6222 31.5077 0.0000 0.0000 0.0000
# 3 33.3072 31.5077 57.5151 0.0000 0.0000 0.0000
# 4 0.0000 0.0000 0.0000 2.2675 0.0000 0.0000
# 5 0.0000 0.0000 0.0000 0.0000 18.6014 0.0000
# 6 0.0000 0.0000 0.0000 0.0000 0.0000 55.2172
#
#
#
# Elastic Compliance Matrix: (Units=1/GPa)
#
#
# Indices 1 2 3 4 5 6 
#
# 1 0.007875 -0.003162 -0.002828 0.000000 0.000000 0.000000
# 2 -0.003162 0.027337 -0.013145 0.000000 0.000000 0.000000
# 3 -0.002828 -0.013145 0.026225 0.000000 0.000000 0.000000
# 4 0.000000 0.000000 0.000000 0.441020 0.000000 0.000000
# 5 0.000000 0.000000 0.000000 0.000000 0.053759 0.000000
# 6 0.000000 0.000000 0.000000 0.000000 0.000000 0.018110
#
#
# Mechanical properties :
#
#
# Convention : Reuss Voigt Hill
#
# Bulk Modulus (GPa) = 43.16318 51.39071 47.27695
# Shear Modulus (GPa) = 8.06034 26.35877 17.20955
#
# Velocity S-wave (km/s) = 2.18375 3.94901 3.19088
# Velocity P-wave (km/s) = 5.64757 7.15522 6.44563
#
# Compressibility (1/GPa) = 0.02316790
#
# Stress axis : x y z
#
# Youngs Moduli (GPa) = 126.97710 36.58001 38.13085
#
# Poissons Ratio (x) = 0.11567 0.10785
# Poissons Ratio (y) = 0.40153 0.50121
# Poissons Ratio (z) = 0.35914 0.48083
#
# Static dielectric constant tensor:
#      x y z
#    x 2.094330 0.000000 0.000000 
#    y 0.000000 2.948360 0.000000 
#    z 0.000000 0.000000 3.155990 
# 
# 
# High freq. dielectric constant tensor:
#      x y z
#    x 1.685720 0.000000 0.000000 
#    y 0.000000 1.616930 0.000000 
#    z 0.000000 0.000000 1.622880 
# 
# From -- ./inp_files/21956.got.cif
#   From: 2010.03.12/outbox.cif.g09.slc.cpg/sg49_11_cif.got.tgz:21956.got - 2010.04.14 03:58:27.
