data_PCOD8202032
_publ_section_title
;
Structure prediction by ZEFSAII (Michael W. Deem and Ramdas Pophale) SiO2 
 PCOD8202032
Probable space group: P N N N
;
_chemical_formula_sum "Si O2"
_cell_formula_units_Z 64
_cell_length_a 10.701609
_cell_length_b 8.384034
_cell_length_c 31.568910
_cell_angle_alpha 90.000000
_cell_angle_beta 90.000000
_cell_angle_gamma 90.000000
_cell_volume 2832.446380
_symmetry_space_group_name_H-M "P N N N"
_symmetry_group_IT_number 48
_space_group.IT_coordinate_system_code '2'
_symmetry_cell_setting 'orthorhombic'
loop_
_space_group_symop_operation_xyz
x,y,z
1/2-x,1/2-y,z
x,1/2-y,1/2-z
1/2-x,y,1/2-z
-x,-y,-z
1/2+x,1/2+y,-z
-x,1/2+y,1/2+z
1/2+x,-y,1/2+z
loop_
_atom_site_type_symbol
_atom_site_label
_atom_site_fract_x
_atom_site_fract_y
_atom_site_fract_z
Si Si1 0.129156 0.573595 0.230783
Si Si2 0.224593 0.422841 0.589764
Si Si3 0.378835 0.926582 0.734674
Si Si4 0.248524 0.062978 0.153531
Si Si5 0.563829 0.167944 0.075464
Si Si6 0.026431 0.921680 0.856156
Si Si7 0.363398 0.943733 0.511773
Si Si8 0.698631 0.574317 0.557246
O O1 0.135154 0.750000 0.250000
O O2 0.250000 0.478437 0.250000
O O3 0.153955 0.546487 0.180479
O O4 0.995499 0.509443 0.243415
O O5 0.250000 0.250000 0.608374
O O6 0.336675 0.548423 0.596861
O O7 0.093931 0.465097 0.611010
O O8 0.198038 0.416189 0.539754
O O9 0.378055 0.750000 0.750000
O O10 0.250000 0.012876 0.750000
O O11 0.382650 0.914102 0.684054
O O12 0.250000 0.250000 0.165827
O O13 0.277297 0.025936 0.105204
O O14 0.104648 0.007544 0.160552
O O15 0.505574 0.258117 0.116780
O O16 0.631293 0.281259 0.040228
O O17 0.452156 0.074805 0.051160
O O18 0.500000 0.000000 0.500000
O O19 0.269496 0.939334 0.471239
O O20 0.750000 0.750000 0.546571
#
# Coordination Sequence:
#
# PCOD8202032 Si02
#       8
#     8   8   8   8   8   8   8   8
#     4  11  25  46  69 102 149 189 227 292 367 430
#     4  11  27  47  68  99 139 196 235 286 358 426
#     4  11  26  42  72 108 134 183 246 294 348 431
#     4  11  21  41  77 108 138 188 238 293 354 429
#     4  11  24  44  74  99 141 191 231 299 363 423
#     4  11  21  45  70 101 139 174 237 295 355 423
#     4  11  21  41  72 101 144 179 227 297 359 418
#     4  11  20  38  69 113 140 176 239 297 354 431
#
# _framework density 22.595307999999999
#
# number of rings (size 3 to 8) (size 9 to 14) (size 15 to 20)
#    0.000    1.000    5.000    3.375    3.500    0.750 
#    6.750    0.000    5.500    0.000    0.000    0.000 
#    0.000    0.000    0.000    0.000    0.000    0.000 
#
# Total GULP energy -792887.132909 kJ/mol
# GULP energy per Si atom -12388.861452 kJ/mol
# Density = 2.254388 g / cm^3
# Si number density = 22.595308 Si / 1000 Ang^3
#
#
#
# Elastic Constant Matrix: (Units=GPa)
#
#
# Indices 1 2 3 4 5 6 
#
# 1 185.5305 46.5888 48.0783 0.0000 0.0000 0.0000
# 2 46.5888 80.3094 34.5167 0.0000 0.0000 0.0000
# 3 48.0783 34.5167 138.8273 0.0000 0.0000 0.0000
# 4 0.0000 0.0000 0.0000 16.4678 0.0000 0.0000
# 5 0.0000 0.0000 0.0000 0.0000 43.6923 0.0000
# 6 0.0000 0.0000 0.0000 0.0000 0.0000 25.3618
#
#
#
# Elastic Compliance Matrix: (Units=1/GPa)
#
#
# Indices 1 2 3 4 5 6 
#
# 1 0.006572 -0.003174 -0.001487 0.000000 0.000000 0.000000
# 2 -0.003174 0.015474 -0.002748 0.000000 0.000000 0.000000
# 3 -0.001487 -0.002748 0.008401 0.000000 0.000000 0.000000
# 4 0.000000 0.000000 0.000000 0.060725 0.000000 0.000000
# 5 0.000000 0.000000 0.000000 0.000000 0.022887 0.000000
# 6 0.000000 0.000000 0.000000 0.000000 0.000000 0.039429
#
#
# Mechanical properties :
#
#
# Convention : Reuss Voigt Hill
#
# Bulk Modulus (GPa) = 63.97921 73.67054 68.82488
# Shear Modulus (GPa) = 28.81565 35.46994 32.14279
#
# Velocity S-wave (km/s) = 3.57500 3.96636 3.77575
# Velocity P-wave (km/s) = 6.73926 7.32469 7.03806
#
# Compressibility (1/GPa) = 0.01563008
#
# Stress axis : x y z
#
# Youngs Moduli (GPa) = 152.15594 64.62434 119.02657
#
# Poissons Ratio (x) = 0.20509 0.17700
# Poissons Ratio (y) = 0.48287 0.32712
# Poissons Ratio (z) = 0.22626 0.17761
#
# Static dielectric constant tensor:
#      x y z
#    x 3.503920 0.000000 0.000000 
#    y 0.000000 3.704430 0.000000 
#    z 0.000000 0.000000 4.154860 
# 
# 
# High freq. dielectric constant tensor:
#      x y z
#    x 1.917250 0.000000 0.000000 
#    y 0.000000 1.852400 0.000000 
#    z 0.000000 0.000000 1.900550 
# 
# From -- ./inp_files/38972.got.cif
#   From: 2010.06.25/outbox.cif.g09.slc.cpg/sg48_20_cif.got.tgz:38972.got - 2010.06.26 18:06:46.
