data_PCOD8202590
_publ_section_title
;
Structure prediction by ZEFSAII (Michael W. Deem and Ramdas Pophale) SiO2 
 PCOD8202590
Probable space group: P C C M
;
_chemical_formula_sum "Si O2"
_cell_formula_units_Z 64
_cell_length_a 19.631492
_cell_length_b 20.453095
_cell_length_c 9.109363
_cell_angle_alpha 90.000000
_cell_angle_beta 90.000000
_cell_angle_gamma 90.000000
_cell_volume 3657.634891
_symmetry_space_group_name_H-M "P C C M"
_symmetry_group_IT_number 49
_symmetry_cell_setting 'orthorhombic'
loop_
_space_group_symop_operation_xyz
x,y,z
-x,-y,z
x,-y,1/2-z
-x,y,1/2-z
-x,-y,-z
x,y,-z
-x,y,1/2+z
x,-y,1/2+z
loop_
_atom_site_type_symbol
_atom_site_label
_atom_site_fract_x
_atom_site_fract_y
_atom_site_fract_z
Si Si1 0.927876 0.311160 0.674442
Si Si2 0.563261 0.234340 0.161800
Si Si3 0.709539 0.248375 0.171138
Si Si4 0.434612 0.609598 0.165430
Si Si5 0.070534 0.934509 0.827089
Si Si6 0.146687 0.196054 0.668054
Si Si7 0.843494 0.564003 0.832022
Si Si8 0.698963 0.617968 0.830214
O O1 0.936300 0.308538 0.500000
O O2 0.893702 0.243996 0.725437
O O3 0.881013 0.371357 0.727793
O O4 0.000000 0.320140 0.750000
O O5 0.500000 0.203858 0.250000
O O6 0.638393 0.213439 0.221254
O O7 0.561576 0.312477 0.166554
O O8 0.552642 0.206747 0.000000
O O9 0.772274 0.199554 0.197431
O O10 0.722296 0.312813 0.265436
O O11 0.702316 0.269027 0.000000
O O12 0.500000 0.580187 0.250000
O O13 0.365721 0.586926 0.246870
O O14 0.433970 0.582085 0.000000
O O15 0.125196 0.877904 0.798339
O O16 0.000000 0.914000 0.750000
O O17 0.099061 0.000000 0.750000
O O18 0.058385 0.946431 0.000000
O O19 0.129606 0.215365 0.500000
O O20 0.870836 0.500000 0.750000
O O21 0.762399 0.569610 0.809778
O O22 0.862974 0.554402 0.000000
O O23 0.679613 0.627948 0.000000
#
# Coordination Sequence:
#
# PCOD8202590 Si02
#       8
#     8   8   8   8   8   8   8   8
#     4  11  23  39  56  79 103 128 163 205 255 307
#     4   8  14  23  36  58  90 125 159 193 232 282
#     4   9  17  29  46  69  97 130 166 202 247 297
#     4   9  16  26  42  67  94 126 161 198 244 296
#     4  10  20  34  52  75 103 137 174 208 247 295
#     4  10  20  34  54  79 105 136 171 209 251 299
#     4  10  23  39  55  74  97 126 165 208 256 309
#     4  10  18  31  48  70  97 125 160 205 249 299
#
# _framework density 17.497647000000001
#
# number of rings (size 3 to 8) (size 9 to 14) (size 15 to 20)
#    0.000    2.375    1.250    3.000    0.000    7.250 
#    0.000    1.250    0.000    0.375    0.000    2.625 
#    0.000    0.500    0.000    6.250    0.000    0.125 
#
# Total GULP energy -793450.188029 kJ/mol
# GULP energy per Si atom -12397.659188 kJ/mol
# Density = 1.745782 g / cm^3
# Si number density = 17.497647 Si / 1000 Ang^3
#
#
#
# Elastic Constant Matrix: (Units=GPa)
#
#
# Indices 1 2 3 4 5 6 
#
# 1 109.0840 37.0971 53.2070 0.0000 0.0000 0.0000
# 2 37.0971 70.6526 38.1225 0.0000 0.0000 0.0000
# 3 53.2070 38.1225 96.4670 0.0000 0.0000 0.0000
# 4 0.0000 0.0000 0.0000 19.0964 0.0000 0.0000
# 5 0.0000 0.0000 0.0000 0.0000 28.9997 0.0000
# 6 0.0000 0.0000 0.0000 0.0000 0.0000 12.0618
#
#
#
# Elastic Compliance Matrix: (Units=1/GPa)
#
#
# Indices 1 2 3 4 5 6 
#
# 1 0.013317 -0.003850 -0.005824 0.000000 0.000000 0.000000
# 2 -0.003850 0.019103 -0.005426 0.000000 0.000000 0.000000
# 3 -0.005824 -0.005426 0.015722 0.000000 0.000000 0.000000
# 4 0.000000 0.000000 0.000000 0.052366 0.000000 0.000000
# 5 0.000000 0.000000 0.000000 0.000000 0.034483 0.000000
# 6 0.000000 0.000000 0.000000 0.000000 0.000000 0.082906
#
#
# Mechanical properties :
#
#
# Convention : Reuss Voigt Hill
#
# Bulk Modulus (GPa) = 55.72990 59.22854 57.47922
# Shear Modulus (GPa) = 19.67903 21.88338 20.78121
#
# Velocity S-wave (km/s) = 3.35724 3.54029 3.44998
# Velocity P-wave (km/s) = 6.85180 7.11579 6.98504
#
# Compressibility (1/GPa) = 0.01794369
#
# Stress axis : x y z
#
# Youngs Moduli (GPa) = 75.09140 52.34828 63.60318
#
# Poissons Ratio (x) = 0.20154 0.37040
# Poissons Ratio (y) = 0.28910 0.34509
# Poissons Ratio (z) = 0.43731 0.28403
#
# Static dielectric constant tensor:
#      x y z
#    x 3.522060 0.000000 0.000000 
#    y 0.000000 2.848080 0.000000 
#    z 0.000000 0.000000 3.380230 
# 
# 
# High freq. dielectric constant tensor:
#      x y z
#    x 1.689110 0.000000 0.000000 
#    y 0.000000 1.625400 0.000000 
#    z 0.000000 0.000000 1.684810 
# 
# From -- ./inp_files/6010.got.cif
#   From: 2010.03.12/outbox.cif.g09.slc.cpg/sg49_4_cif.got.tgz:6010.got - 2010.04.14 03:58:27.
