data_PCOD8202370
_publ_section_title
;
Structure prediction by ZEFSAII (Michael W. Deem and Ramdas Pophale) SiO2 
 PCOD8202370
Probable space group: P C C M
;
_chemical_formula_sum "Si O2"
_cell_formula_units_Z 48
_cell_length_a 15.202313
_cell_length_b 20.934400
_cell_length_c 8.668278
_cell_angle_alpha 90.000000
_cell_angle_beta 90.000000
_cell_angle_gamma 90.000000
_cell_volume 2758.690753
_symmetry_space_group_name_H-M "P C C M"
_symmetry_group_IT_number 49
_symmetry_cell_setting 'orthorhombic'
loop_
_space_group_symop_operation_xyz
x,y,z
-x,-y,z
x,-y,1/2-z
-x,y,1/2-z
-x,-y,-z
x,y,-z
-x,y,1/2+z
x,-y,1/2+z
loop_
_atom_site_type_symbol
_atom_site_label
_atom_site_fract_x
_atom_site_fract_y
_atom_site_fract_z
Si Si1 0.412228 0.775859 0.329193
Si Si2 0.584973 0.075225 0.329983
Si Si3 0.227686 0.793140 0.183312
Si Si4 0.764108 0.936964 0.322418
Si Si5 0.096631 0.307035 0.817419
Si Si6 0.097887 0.563721 0.183409
O O1 0.500000 0.745325 0.250000
O O2 0.399813 0.745004 0.500000
O O3 0.428690 0.850096 0.349031
O O4 0.324070 0.766152 0.228166
O O5 0.500000 0.044655 0.250000
O O6 0.603059 0.045814 0.500000
O O7 0.661220 0.056488 0.211660
O O8 0.209180 0.866405 0.240404
O O9 0.155052 0.752947 0.271859
O O10 0.217476 0.787283 0.000000
O O11 0.785600 0.939694 0.500000
O O12 0.812715 0.000000 0.250000
O O13 0.142065 0.370975 0.745269
O O14 0.000000 0.295747 0.750000
O O15 0.090540 0.314338 0.000000
O O16 0.146257 0.500000 0.250000
O O17 0.000000 0.564369 0.250000
O O18 0.097997 0.562083 0.000000
#
# Coordination Sequence:
#
# PCOD8202370 Si02
#       6
#     8   8   8   8   8   8
#     4   9  16  27  44  66  91 122 156 195 240 289
#     4   9  16  26  40  58  82 109 142 181 228 284
#     4  10  20  34  50  70  95 125 160 202 247 294
#     4  10  20  32  46  62  83 111 148 192 242 293
#     4  11  21  34  52  75 102 133 166 200 238 283
#     4  10  17  28  46  71 103 136 166 194 227 273
#
# _framework density 17.399559
#
# number of rings (size 3 to 8) (size 9 to 14) (size 15 to 20)
#    0.000    2.167    0.000    6.500    0.000    6.333 
#    0.000    1.667    0.000    0.500    0.000    3.500 
#    0.000    0.667    0.000    6.667    0.000    4.333 
#
# Total GULP energy -594685.557458 kJ/mol
# GULP energy per Si atom -12389.282447 kJ/mol
# Density = 1.735996 g / cm^3
# Si number density = 17.399559 Si / 1000 Ang^3
#
#
#
# Elastic Constant Matrix: (Units=GPa)
#
#
# Indices 1 2 3 4 5 6 
#
# 1 54.8048 40.7053 28.1812 0.0000 0.0000 0.0000
# 2 40.7053 112.7158 42.2554 0.0000 0.0000 0.0000
# 3 28.1812 42.2554 122.7000 0.0000 0.0000 0.0000
# 4 0.0000 0.0000 0.0000 27.1875 0.0000 0.0000
# 5 0.0000 0.0000 0.0000 0.0000 21.8501 0.0000
# 6 0.0000 0.0000 0.0000 0.0000 0.0000 -2.3617
#
#
#
# Elastic Compliance Matrix: (Units=1/GPa)
#
#
# Indices 1 2 3 4 5 6 
#
# 1 0.025945 -0.008194 -0.003137 0.000000 0.000000 0.000000
# 2 -0.008194 0.012775 -0.002517 0.000000 0.000000 0.000000
# 3 -0.003137 -0.002517 0.009737 0.000000 0.000000 0.000000
# 4 0.000000 0.000000 0.000000 0.036782 0.000000 0.000000
# 5 0.000000 0.000000 0.000000 0.000000 0.045766 0.000000
# 6 0.000000 0.000000 0.000000 0.000000 0.000000 -0.423417
#
#
# Mechanical properties :
#
#
# Convention : Reuss Voigt Hill
#
# Bulk Modulus (GPa) = 48.16773 56.94496 52.55635
# Shear Modulus (GPa) = -19.39532 21.27374 0.93921
#
# Velocity S-wave (km/s) = -3.34234 3.50045 0.73550
# Velocity P-wave (km/s) = 3.58447 7.00974 5.56708
#
# Compressibility (1/GPa) = 0.02076079
#
# Stress axis : x y z
#
# Youngs Moduli (GPa) = 38.54239 78.28041 102.69589
#
# Poissons Ratio (x) = 0.64140 0.32219
# Poissons Ratio (y) = 0.31580 0.25853
# Poissons Ratio (z) = 0.12092 0.19707
#
# Static dielectric constant tensor:
#      x y z
#    x 2.860480 0.000000 0.000000 
#    y 0.000000 3.834260 0.000000 
#    z 0.000000 0.000000 3.479380 
# 
# 
# High freq. dielectric constant tensor:
#      x y z
#    x 1.618100 0.000000 0.000000 
#    y 0.000000 1.662460 0.000000 
#    z 0.000000 0.000000 1.694300 
# 
# From -- ./inp_files/3840.got.cif
#   From: 2010.03.12/outbox.cif.g09.slc.cpg/sg49_2_cif.got.tgz:3840.got - 2010.04.14 03:58:27.
