data_PCOD8202361
_publ_section_title
;
Structure prediction by ZEFSAII (Michael W. Deem and Ramdas Pophale) SiO2 
 PCOD8202361
Probable space group: P C C M
;
_chemical_formula_sum "Si O2"
_cell_formula_units_Z 26
_cell_length_a 15.682045
_cell_length_b 10.357754
_cell_length_c 8.686697
_cell_angle_alpha 90.000000
_cell_angle_beta 90.000000
_cell_angle_gamma 90.000000
_cell_volume 1410.986833
_symmetry_space_group_name_H-M "P C C M"
_symmetry_group_IT_number 49
_symmetry_cell_setting 'orthorhombic'
loop_
_space_group_symop_operation_xyz
x,y,z
-x,-y,z
x,-y,1/2-z
-x,y,1/2-z
-x,-y,-z
x,y,-z
-x,y,1/2+z
x,-y,1/2+z
loop_
_atom_site_type_symbol
_atom_site_label
_atom_site_fract_x
_atom_site_fract_y
_atom_site_fract_z
Si Si1 0.500000 0.500000 0.250000
Si Si2 0.915072 0.143563 0.816993
Si Si3 0.417951 0.252558 0.669604
Si Si4 0.742993 0.141438 0.318270
O O1 0.561764 0.594047 0.349193
O O2 0.827685 0.207985 0.755772
O O3 0.000000 0.214527 0.750000
O O4 0.913791 0.000000 0.750000
O O5 0.917811 0.143259 0.000000
O O6 0.500000 0.183674 0.750000
O O7 0.402368 0.193218 0.500000
O O8 0.335998 0.232559 0.776527
O O9 0.754632 0.131631 0.500000
O O10 0.725844 0.000000 0.250000
#
# Coordination Sequence:
#
# PCOD8202361 Si02
#       4
#     2   8   8   8
#     4   8  22  36  60  72 100 120 170 206 254 292
#     4  10  17  28  45  67  97 132 168 203 241 289
#     4  10  20  35  54  75  99 129 165 207 250 295
#     4  11  21  33  49  73 104 136 169 205 248 298
#
# _framework density 18.426819999999999
#
# number of rings (size 3 to 8) (size 9 to 14) (size 15 to 20)
#    0.923    0.923    0.000    9.692    0.000    0.615 
#    0.000    3.077    0.000    0.000    0.000    1.077 
#    0.000    7.385    0.000    0.000    0.000    0.000 
#
# Total GULP energy -322106.263388 kJ/mol
# GULP energy per Si atom -12388.702438 kJ/mol
# Density = 1.838488 g / cm^3
# Si number density = 18.426820 Si / 1000 Ang^3
#
#
#
# Elastic Constant Matrix: (Units=GPa)
#
#
# Indices 1 2 3 4 5 6 
#
# 1 185.3750 28.3719 65.8778 0.0000 0.0000 0.0000
# 2 28.3719 34.0044 13.8713 0.0000 0.0000 0.0000
# 3 65.8778 13.8713 187.1408 0.0000 0.0000 0.0000
# 4 0.0000 0.0000 0.0000 14.5776 0.0000 0.0000
# 5 0.0000 0.0000 0.0000 0.0000 24.7363 0.0000
# 6 0.0000 0.0000 0.0000 0.0000 0.0000 1.5069
#
#
#
# Elastic Compliance Matrix: (Units=1/GPa)
#
#
# Indices 1 2 3 4 5 6 
#
# 1 0.006875 -0.004897 -0.002057 0.000000 0.000000 0.000000
# 2 -0.004897 0.033813 -0.000782 0.000000 0.000000 0.000000
# 3 -0.002057 -0.000782 0.006126 0.000000 0.000000 0.000000
# 4 0.000000 0.000000 0.000000 0.068598 0.000000 0.000000
# 5 0.000000 0.000000 0.000000 0.000000 0.040426 0.000000
# 6 0.000000 0.000000 0.000000 0.000000 0.000000 0.663627
#
#
# Mechanical properties :
#
#
# Convention : Reuss Voigt Hill
#
# Bulk Modulus (GPa) = 31.90765 69.19582 50.55174
# Shear Modulus (GPa) = 5.91446 28.05744 16.98595
#
# Velocity S-wave (km/s) = 1.79351 3.90634 3.03942
# Velocity P-wave (km/s) = 4.65213 7.61441 6.30958
#
# Compressibility (1/GPa) = 0.03134044
#
# Stress axis : x y z
#
# Youngs Moduli (GPa) = 145.45340 29.57440 163.24554
#
# Poissons Ratio (x) = 0.14483 0.33583
# Poissons Ratio (y) = 0.71230 0.12773
# Poissons Ratio (z) = 0.29923 0.02314
#
# Static dielectric constant tensor:
#      x y z
#    x 4.341280 0.000000 0.000000 
#    y 0.000000 2.449520 0.000000 
#    z 0.000000 0.000000 3.435170 
# 
# 
# High freq. dielectric constant tensor:
#      x y z
#    x 1.738910 0.000000 0.000000 
#    y 0.000000 1.633960 0.000000 
#    z 0.000000 0.000000 1.735960 
# 
# From -- ./inp_files/2390.got.cif
#   From: 2010.03.12/outbox.cif.g09.slc.cpg/sg49_2_cif.got.tgz:2390.got - 2010.04.14 03:58:27.
