data_PCOD8202732
_publ_section_title
;
Structure prediction by ZEFSAII (Michael W. Deem and Ramdas Pophale) SiO2 
 PCOD8202732
Probable space group: P C C M
;
_chemical_formula_sum "Si O2"
_cell_formula_units_Z 56
_cell_length_a 22.841971
_cell_length_b 17.665685
_cell_length_c 9.075350
_cell_angle_alpha 90.000000
_cell_angle_beta 90.000000
_cell_angle_gamma 90.000000
_cell_volume 3662.076742
_symmetry_space_group_name_H-M "P C C M"
_symmetry_group_IT_number 49
_symmetry_cell_setting 'orthorhombic'
loop_
_space_group_symop_operation_xyz
x,y,z
-x,-y,z
x,-y,1/2-z
-x,y,1/2-z
-x,-y,-z
x,y,-z
-x,y,1/2+z
x,-y,1/2+z
loop_
_atom_site_type_symbol
_atom_site_label
_atom_site_fract_x
_atom_site_fract_y
_atom_site_fract_z
Si Si1 0.315893 0.918617 0.671539
Si Si2 0.939519 0.580468 0.822099
Si Si3 0.130578 0.068428 0.338318
Si Si4 0.151347 0.294390 0.163237
Si Si5 0.946349 0.168538 0.662787
Si Si6 0.770558 0.190991 0.836435
Si Si7 0.446689 0.920100 0.329875
O O1 0.300013 0.930744 0.500000
O O2 0.277346 0.851357 0.738052
O O3 0.381906 0.885674 0.689756
O O4 0.306363 0.000000 0.750000
O O5 0.925078 0.500000 0.750000
O O6 0.884893 0.633636 0.775705
O O7 0.000000 0.611474 0.750000
O O8 0.946510 0.576138 0.000000
O O9 0.112442 0.039958 0.500000
O O10 0.072758 0.092956 0.249388
O O11 0.174237 0.137397 0.351325
O O12 0.161551 0.000000 0.250000
O O13 0.106797 0.225644 0.153623
O O14 0.206982 0.270180 0.263936
O O15 0.175799 0.312455 0.000000
O O16 0.967503 0.146116 0.500000
O O17 0.000000 0.206956 0.750000
O O18 0.745289 0.208459 0.000000
O O19 0.500000 0.873034 0.250000
O O20 0.462871 0.929436 0.500000
O O21 0.444275 0.000000 0.250000
#
# Coordination Sequence:
#
# PCOD8202732 Si02
#       7
#     8   8   8   8   8   8   8
#     4  10  19  29  42  60  83 110 143 181 219 255
#     4  10  19  31  48  70  92 113 135 163 200 243
#     4  10  20  32  43  56  72  92 121 158 198 238
#     4   9  19  33  47  62  83 108 131 159 197 239
#     4  10  19  31  45  59  74  94 120 152 191 235
#     4  10  20  31  45  62  79 103 135 169 206 245
#     4   9  16  25  38  56  78 106 137 174 216 255
#
# _framework density 15.291869
#
# number of rings (size 3 to 8) (size 9 to 14) (size 15 to 20)
#    0.000    2.286    0.000    4.286    0.000    6.571 
#    0.000    1.429    0.000    0.000    0.000    0.000 
#    0.000    0.000    0.000    0.000    0.000    0.714 
#
# Total GULP energy -693849.302252 kJ/mol
# GULP energy per Si atom -12390.166112 kJ/mol
# Density = 1.525706 g / cm^3
# Si number density = 15.291869 Si / 1000 Ang^3
#
#
#
# Elastic Constant Matrix: (Units=GPa)
#
#
# Indices 1 2 3 4 5 6 
#
# 1 76.0108 27.1628 50.3922 0.0000 0.0000 0.0000
# 2 27.1628 54.8618 33.6080 0.0000 0.0000 0.0000
# 3 50.3922 33.6080 132.7913 0.0000 0.0000 0.0000
# 4 0.0000 0.0000 0.0000 15.1674 0.0000 0.0000
# 5 0.0000 0.0000 0.0000 0.0000 19.6967 0.0000
# 6 0.0000 0.0000 0.0000 0.0000 0.0000 8.8331
#
#
#
# Elastic Compliance Matrix: (Units=1/GPa)
#
#
# Indices 1 2 3 4 5 6 
#
# 1 0.019081 -0.005931 -0.005740 0.000000 0.000000 0.000000
# 2 -0.005931 0.023416 -0.003676 0.000000 0.000000 0.000000
# 3 -0.005740 -0.003676 0.010639 0.000000 0.000000 0.000000
# 4 0.000000 0.000000 0.000000 0.065931 0.000000 0.000000
# 5 0.000000 0.000000 0.000000 0.000000 0.050770 0.000000
# 6 0.000000 0.000000 0.000000 0.000000 0.000000 0.113210
#
#
# Mechanical properties :
#
#
# Convention : Reuss Voigt Hill
#
# Bulk Modulus (GPa) = 44.55755 53.99889 49.27822
# Shear Modulus (GPa) = 15.56567 18.90618 17.23592
#
# Velocity S-wave (km/s) = 3.19392 3.52000 3.36092
# Velocity P-wave (km/s) = 6.54239 7.20481 6.88158
#
# Compressibility (1/GPa) = 0.02244289
#
# Stress axis : x y z
#
# Youngs Moduli (GPa) = 52.40890 42.70625 93.99374
#
# Poissons Ratio (x) = 0.25329 0.53950
# Poissons Ratio (y) = 0.31084 0.34548
# Poissons Ratio (z) = 0.30082 0.15697
#
# Static dielectric constant tensor:
#      x y z
#    x 3.383590 0.000000 0.000000 
#    y 0.000000 2.648310 0.000000 
#    z 0.000000 0.000000 3.434610 
# 
# 
# High freq. dielectric constant tensor:
#      x y z
#    x 1.566840 0.000000 0.000000 
#    y 0.000000 1.535830 0.000000 
#    z 0.000000 0.000000 1.611830 
# 
# From -- ./inp_files/5359.got.cif
#   From: 2010.03.12/outbox.cif.g09.slc.cpg/sg49_3_cif.got.tgz:5359.got - 2010.04.14 03:58:27.
