data_PCOD8202128
_publ_section_title
;
Structure prediction by ZEFSAII (Michael W. Deem and Ramdas Pophale) SiO2 
 PCOD8202128
Probable space group: P N N N
;
_chemical_formula_sum "Si O2"
_cell_formula_units_Z 48
_cell_length_a 14.857673
_cell_length_b 5.018887
_cell_length_c 28.231072
_cell_angle_alpha 90.000000
_cell_angle_beta 90.000000
_cell_angle_gamma 90.000000
_cell_volume 2105.162296
_symmetry_space_group_name_H-M "P N N N"
_symmetry_group_IT_number 48
_space_group.IT_coordinate_system_code '2'
_symmetry_cell_setting 'orthorhombic'
loop_
_space_group_symop_operation_xyz
x,y,z
1/2-x,1/2-y,z
x,1/2-y,1/2-z
1/2-x,y,1/2-z
-x,-y,-z
1/2+x,1/2+y,-z
-x,1/2+y,1/2+z
1/2+x,-y,1/2+z
loop_
_atom_site_type_symbol
_atom_site_label
_atom_site_fract_x
_atom_site_fract_y
_atom_site_fract_z
Si Si1 0.558619 0.860459 0.799538
Si Si2 0.554008 0.305033 0.033143
Si Si3 0.509828 0.623231 0.147084
Si Si4 0.189994 0.998406 0.891841
Si Si5 0.576113 0.403533 0.563790
Si Si6 0.250000 0.750000 0.116974
Si Si7 0.250000 0.250000 0.325152
O O1 0.518066 0.750000 0.750000
O O2 0.532797 0.658013 0.840353
O O3 0.667531 0.873617 0.794945
O O4 0.521235 0.149737 0.815326
O O5 0.639462 0.421008 0.059961
O O6 0.485905 0.165873 0.070676
O O7 0.500000 0.500000 0.000000
O O8 0.593343 0.108745 0.992601
O O9 0.618166 0.586934 0.148459
O O10 0.481445 0.676717 0.091985
O O11 0.250000 0.750000 0.873442
O O12 0.250000 0.250000 0.904620
O O13 0.673771 0.407710 0.587700
O O14 0.292001 0.504307 0.146481
#
# Coordination Sequence:
#
# PCOD8202128 Si02
#       7
#     8   8   8   8   8   4   4
#     4  12  25  44  74 108 144 185 233 287 357 436
#     4  11  25  41  68  97 142 186 240 297 345 403
#     4  12  24  47  72  98 142 189 235 290 361 428
#     4  12  27  47  71 105 137 186 243 299 359 416
#     4  11  24  43  62 100 139 196 234 289 338 412
#     4  12  26  38  69  98 146 194 236 274 345 424
#     4  12  23  44  64 110 146 190 232 280 346 418
#
# _framework density 22.801093999999999
#
# number of rings (size 3 to 8) (size 9 to 14) (size 15 to 20)
#    0.000    0.333    5.000    3.750    5.833    0.000 
#    0.000    2.500    0.000    7.500    0.000    0.000 
#    0.000    0.000    0.000    0.000    0.000    0.000 
#
# Total GULP energy -594753.871545 kJ/mol
# GULP energy per Si atom -12390.705657 kJ/mol
# Density = 2.274920 g / cm^3
# Si number density = 22.801094 Si / 1000 Ang^3
#
#
#
# Elastic Constant Matrix: (Units=GPa)
#
#
# Indices 1 2 3 4 5 6 
#
# 1 140.5844 30.6594 22.0073 0.0000 0.0000 0.0000
# 2 30.6594 96.4671 8.8307 0.0000 0.0000 0.0000
# 3 22.0073 8.8307 79.9014 0.0000 0.0000 0.0000
# 4 0.0000 0.0000 0.0000 33.4014 0.0000 0.0000
# 5 0.0000 0.0000 0.0000 0.0000 16.9021 0.0000
# 6 0.0000 0.0000 0.0000 0.0000 0.0000 49.5511
#
#
#
# Elastic Compliance Matrix: (Units=1/GPa)
#
#
# Indices 1 2 3 4 5 6 
#
# 1 0.007925 -0.002343 -0.001924 0.000000 0.000000 0.000000
# 2 -0.002343 0.011165 -0.000589 0.000000 0.000000 0.000000
# 3 -0.001924 -0.000589 0.013110 0.000000 0.000000 0.000000
# 4 0.000000 0.000000 0.000000 0.029939 0.000000 0.000000
# 5 0.000000 0.000000 0.000000 0.000000 0.059164 0.000000
# 6 0.000000 0.000000 0.000000 0.000000 0.000000 0.020181
#
#
# Mechanical properties :
#
#
# Convention : Reuss Voigt Hill
#
# Bulk Modulus (GPa) = 44.46479 48.88308 46.67394
# Shear Modulus (GPa) = 31.50761 37.00128 34.25444
#
# Velocity S-wave (km/s) = 3.72135 4.03275 3.88018
# Velocity P-wave (km/s) = 6.16507 6.57036 6.37094
#
# Compressibility (1/GPa) = 0.02248970
#
# Stress axis : x y z
#
# Youngs Moduli (GPa) = 126.17900 89.56820 76.27537
#
# Poissons Ratio (x) = 0.20983 0.14675
# Poissons Ratio (y) = 0.29560 0.04490
# Poissons Ratio (z) = 0.24276 0.05273
#
# Static dielectric constant tensor:
#      x y z
#    x 4.161180 0.000000 0.000000 
#    y 0.000000 4.726510 0.000000 
#    z 0.000000 0.000000 11.653860 
# 
# 
# High freq. dielectric constant tensor:
#      x y z
#    x 1.898470 0.000000 0.000000 
#    y 0.000000 1.919310 0.000000 
#    z 0.000000 0.000000 1.883970 
# 
# From -- ./inp_files/37909.got.cif
#   From: 2010.06.25/outbox.cif.g09.slc.cpg/sg48_19_cif.got.tgz:37909.got - 2010.06.26 18:06:46.
