data_PCOD8202230
_publ_section_title
;
Structure prediction by ZEFSAII (Michael W. Deem and Ramdas Pophale) SiO2 
 PCOD8202230
Probable space group: P C C M
;
_chemical_formula_sum "Si O2"
_cell_formula_units_Z 56
_cell_length_a 5.134915
_cell_length_b 31.032759
_cell_length_c 17.952888
_cell_angle_alpha 90.000000
_cell_angle_beta 90.000000
_cell_angle_gamma 90.000000
_cell_volume 2860.803110
_symmetry_space_group_name_H-M "P C C M"
_symmetry_group_IT_number 49
_symmetry_cell_setting 'orthorhombic'
loop_
_space_group_symop_operation_xyz
x,y,z
-x,-y,z
x,-y,1/2-z
-x,y,1/2-z
-x,-y,-z
x,y,-z
-x,y,1/2+z
x,-y,1/2+z
loop_
_atom_site_type_symbol
_atom_site_label
_atom_site_fract_x
_atom_site_fract_y
_atom_site_fract_z
Si Si1 0.753845 0.693719 0.414277
Si Si2 0.250694 0.519320 0.833014
Si Si3 0.749721 0.618113 0.700156
Si Si4 0.752090 0.251205 0.414132
Si Si5 0.966309 0.085930 0.667122
Si Si6 0.766697 0.179127 0.296716
Si Si7 0.526608 0.949068 0.584961
O O1 0.795462 0.681121 0.500000
O O2 0.767171 0.649965 0.368814
O O3 0.475744 0.714894 0.399731
O O4 0.978136 0.726902 0.389108
O O5 0.500000 0.500000 0.875997
O O6 0.250014 0.500000 0.750000
O O7 0.258363 0.570520 0.833567
O O8 0.000000 0.500000 0.875528
O O9 0.500000 0.628131 0.750000
O O10 0.000000 0.624859 0.750000
O O11 0.761134 0.236339 0.500000
O O12 0.690524 0.209309 0.365319
O O13 0.910119 0.136795 0.671155
O O14 0.720537 0.065910 0.629051
O O15 0.000000 0.066849 0.750000
O O16 0.219331 0.072710 0.620417
O O17 0.500000 0.169066 0.250000
O O18 0.000000 0.202145 0.250000
O O19 0.518010 0.933187 0.500000
O O20 0.500000 0.000000 0.589540
#
# Coordination Sequence:
#
# PCOD8202230 Si02
#       7
#     8   8   8   8   8   8   8
#     4  10  23  40  55  79 119 151 183 235 292 348
#     4  10  16  30  48  74 107 136 170 229 282 323
#     4  12  21  32  56  86 104 141 190 233 277 340
#     4  10  22  41  61  82 112 158 198 231 289 360
#     4  11  23  41  62  91 125 160 202 246 310 373
#     4  11  23  40  63  90 123 154 192 254 304 345
#     4  11  24  41  62  90 125 163 207 259 303 346
#
# _framework density 19.574921
#
# number of rings (size 3 to 8) (size 9 to 14) (size 15 to 20)
#    0.000    1.286    2.857    4.714    0.000    7.429 
#    0.000    1.429    0.000    0.857    0.000    0.000 
#    0.000    0.000    0.000    0.000    0.000    0.000 
#
# Total GULP energy -694211.755837 kJ/mol
# GULP energy per Si atom -12396.638497 kJ/mol
# Density = 1.953037 g / cm^3
# Si number density = 19.574921 Si / 1000 Ang^3
#
#
#
# Elastic Constant Matrix: (Units=GPa)
#
#
# Indices 1 2 3 4 5 6 
#
# 1 164.8259 37.2100 59.5857 0.0000 0.0000 0.0000
# 2 37.2100 105.8923 70.4489 0.0000 0.0000 0.0000
# 3 59.5857 70.4489 114.4757 0.0000 0.0000 0.0000
# 4 0.0000 0.0000 0.0000 25.7862 0.0000 0.0000
# 5 0.0000 0.0000 0.0000 0.0000 -11.6489 0.0000
# 6 0.0000 0.0000 0.0000 0.0000 0.0000 31.6435
#
#
#
# Elastic Compliance Matrix: (Units=1/GPa)
#
#
# Indices 1 2 3 4 5 6 
#
# 1 0.007473 -0.000065 -0.003850 0.000000 0.000000 0.000000
# 2 -0.000065 0.015991 -0.009807 0.000000 0.000000 0.000000
# 3 -0.003850 -0.009807 0.016775 0.000000 0.000000 0.000000
# 4 0.000000 0.000000 0.000000 0.038780 0.000000 0.000000
# 5 0.000000 0.000000 0.000000 0.000000 -0.085845 0.000000
# 6 0.000000 0.000000 0.000000 0.000000 0.000000 0.031602
#
#
# Mechanical properties :
#
#
# Convention : Reuss Voigt Hill
#
# Bulk Modulus (GPa) = 78.15454 79.96477 79.05966
# Shear Modulus (GPa) = 88.51707 23.68611 56.10159
#
# Velocity S-wave (km/s) = 6.73185 3.48231 5.35930
# Velocity P-wave (km/s) = 10.02179 7.55698 8.87537
#
# Compressibility (1/GPa) = 0.01279516
#
# Stress axis : x y z
#
# Youngs Moduli (GPa) = 133.80622 62.53549 59.61247
#
# Poissons Ratio (x) = 0.00404 0.22952
# Poissons Ratio (y) = 0.00864 0.58463
# Poissons Ratio (z) = 0.51519 0.61330
#
# Static dielectric constant tensor:
#      x y z
#    x 3.555300 0.000000 0.000000 
#    y 0.000000 3.622910 0.000000 
#    z 0.000000 0.000000 3.557370 
# 
# 
# High freq. dielectric constant tensor:
#      x y z
#    x 1.795350 0.000000 0.000000 
#    y 0.000000 1.764730 0.000000 
#    z 0.000000 0.000000 1.745660 
# 
# From -- ./inp_files/10769.got.cif
#   From: 2010.03.12/outbox.cif.g09.slc.cpg/sg49_6_cif.got.tgz:10769.got - 2010.04.14 03:58:27.
