data_PCOD8202429
_publ_section_title
;
Structure prediction by ZEFSAII (Michael W. Deem and Ramdas Pophale) SiO2 
 PCOD8202429
Probable space group: P C C M
;
_chemical_formula_sum "Si O2"
_cell_formula_units_Z 64
_cell_length_a 15.880242
_cell_length_b 8.993596
_cell_length_c 22.285558
_cell_angle_alpha 90.000000
_cell_angle_beta 90.000000
_cell_angle_gamma 90.000000
_cell_volume 3182.834111
_symmetry_space_group_name_H-M "P C C M"
_symmetry_group_IT_number 49
_symmetry_cell_setting 'orthorhombic'
loop_
_space_group_symop_operation_xyz
x,y,z
-x,-y,z
x,-y,1/2-z
-x,y,1/2-z
-x,-y,-z
x,y,-z
-x,y,1/2+z
x,-y,1/2+z
loop_
_atom_site_type_symbol
_atom_site_label
_atom_site_fract_x
_atom_site_fract_y
_atom_site_fract_z
Si Si1 0.161346 0.740010 0.065897
Si Si2 0.323378 0.313402 0.628436
Si Si3 0.329883 0.632375 0.570205
Si Si4 0.091278 0.930507 0.159623
Si Si5 0.490216 0.323076 0.566818
Si Si6 0.762419 0.165169 0.238200
Si Si7 0.912775 0.568367 0.066838
Si Si8 0.188626 0.217142 0.865029
O O1 0.255223 0.777372 0.088942
O O2 0.086168 0.808189 0.106829
O O3 0.156790 0.561369 0.065957
O O4 0.148156 0.806626 0.000000
O O5 0.319574 0.489766 0.614213
O O6 0.418826 0.261307 0.612457
O O7 0.298607 0.266730 0.696617
O O8 0.328831 0.581458 0.500000
O O9 0.415255 0.727416 0.584465
O O10 0.255829 0.749458 0.582613
O O11 0.139758 0.854952 0.215819
O O12 0.157420 0.049085 0.133308
O O13 0.000000 0.000000 0.176734
O O14 0.500000 0.500000 0.568119
O O15 0.464603 0.269474 0.500000
O O16 0.771044 0.255523 0.300352
O O17 0.722989 0.000000 0.250000
O O18 0.892317 0.683279 0.119511
O O19 0.000000 0.500000 0.086253
O O20 0.918317 0.641417 0.000000
#
# Coordination Sequence:
#
# PCOD8202429 Si02
#       8
#     8   8   8   8   8   8   8   8
#     4  10  19  32  53  83 115 147 185 231 292 355
#     4  10  17  33  57  81 117 150 189 233 285 338
#     4  10  19  33  57  91 122 147 182 237 304 354
#     4  10  22  40  59  78 107 150 205 249 285 335
#     4   8  15  28  53  88 118 146 181 227 284 350
#     4   9  22  39  57  79 108 153 202 242 280 334
#     4  10  20  34  53  81 116 145 177 233 298 349
#     4  11  21  36  58  79 114 153 188 235 295 340
#
# _framework density 20.107865
#
# number of rings (size 3 to 8) (size 9 to 14) (size 15 to 20)
#    0.000    2.250    1.250    3.000    0.000    4.000 
#    0.000    0.625    0.000   11.250    0.000   16.625 
#    0.000    0.000    0.000    0.000    0.000    0.000 
#
# Total GULP energy -792862.036662 kJ/mol
# GULP energy per Si atom -12388.469323 kJ/mol
# Density = 2.006210 g / cm^3
# Si number density = 20.107865 Si / 1000 Ang^3
#
#
#
# Elastic Constant Matrix: (Units=GPa)
#
#
# Indices 1 2 3 4 5 6 
#
# 1 107.5529 14.2543 27.0199 0.0000 0.0000 0.0000
# 2 14.2543 41.3060 33.5861 0.0000 0.0000 0.0000
# 3 27.0199 33.5861 101.3497 0.0000 0.0000 0.0000
# 4 0.0000 0.0000 0.0000 29.2923 0.0000 0.0000
# 5 0.0000 0.0000 0.0000 0.0000 28.6910 0.0000
# 6 0.0000 0.0000 0.0000 0.0000 0.0000 24.1804
#
#
#
# Elastic Compliance Matrix: (Units=1/GPa)
#
#
# Indices 1 2 3 4 5 6 
#
# 1 0.010058 -0.001767 -0.002096 0.000000 0.000000 0.000000
# 2 -0.001767 0.033449 -0.010614 0.000000 0.000000 0.000000
# 3 -0.002096 -0.010614 0.013943 0.000000 0.000000 0.000000
# 4 0.000000 0.000000 0.000000 0.034139 0.000000 0.000000
# 5 0.000000 0.000000 0.000000 0.000000 0.034854 0.000000
# 6 0.000000 0.000000 0.000000 0.000000 0.000000 0.041356
#
#
# Mechanical properties :
#
#
# Convention : Reuss Voigt Hill
#
# Bulk Modulus (GPa) = 35.09067 44.43658 39.76362
# Shear Modulus (GPa) = 24.24225 28.12264 26.18245
#
# Velocity S-wave (km/s) = 3.47596 3.74383 3.61238
# Velocity P-wave (km/s) = 5.79645 6.39026 6.10058
#
# Compressibility (1/GPa) = 0.02849761
#
# Stress axis : x y z
#
# Youngs Moduli (GPa) = 99.41845 29.89603 71.72101
#
# Poissons Ratio (x) = 0.05282 0.15034
# Poissons Ratio (y) = 0.17564 0.76122
# Poissons Ratio (z) = 0.20839 0.31731
#
# Static dielectric constant tensor:
#      x y z
#    x 4.042890 0.000000 0.000000 
#    y 0.000000 3.391660 0.000000 
#    z 0.000000 0.000000 3.632170 
# 
# 
# High freq. dielectric constant tensor:
#      x y z
#    x 1.791760 0.000000 0.000000 
#    y 0.000000 1.749940 0.000000 
#    z 0.000000 0.000000 1.775390 
# 
# From -- ./inp_files/21080.got.cif
#   From: 2010.03.12/outbox.cif.g09.slc.cpg/sg49_11_cif.got.tgz:21080.got - 2010.04.14 03:58:27.
