data_PCOD8202991
_publ_section_title
;
Structure prediction by ZEFSAII (Michael W. Deem and Ramdas Pophale) SiO2 
 PCOD8202991
Probable space group: P C C M
;
_chemical_formula_sum "Si O2"
_cell_formula_units_Z 56
_cell_length_a 32.057298
_cell_length_b 5.105277
_cell_length_c 17.701744
_cell_angle_alpha 90.000000
_cell_angle_beta 90.000000
_cell_angle_gamma 90.000000
_cell_volume 2897.091961
_symmetry_space_group_name_H-M "P C C M"
_symmetry_group_IT_number 49
_symmetry_cell_setting 'orthorhombic'
loop_
_space_group_symop_operation_xyz
x,y,z
-x,-y,z
x,-y,1/2-z
-x,y,1/2-z
-x,-y,-z
x,y,-z
-x,y,1/2+z
x,-y,1/2+z
loop_
_atom_site_type_symbol
_atom_site_label
_atom_site_fract_x
_atom_site_fract_y
_atom_site_fract_z
Si Si1 0.041465 0.381697 0.915386
Si Si2 0.742626 0.740435 0.700398
Si Si3 0.618378 0.732103 0.089641
Si Si4 0.094277 0.895006 0.085171
Si Si5 0.835931 0.253965 0.200949
Si Si6 0.669266 0.231112 0.910518
Si Si7 0.475224 0.750041 0.590164
O O1 0.073747 0.613899 0.916179
O O2 0.000000 0.500000 0.873195
O O3 0.063512 0.121538 0.878837
O O4 0.027752 0.296381 0.000000
O O5 0.725679 0.500000 0.750000
O O6 0.789644 0.673264 0.671611
O O7 0.714833 0.766737 0.625931
O O8 0.740342 0.000000 0.750000
O O9 0.641660 0.473443 0.118020
O O10 0.571669 0.745021 0.123231
O O11 0.644692 0.977804 0.118674
O O12 0.615561 0.734477 0.000000
O O13 0.135582 0.842609 0.132388
O O14 0.106399 0.984860 0.000000
O O15 0.854354 0.500000 0.250000
O O16 0.831038 0.000000 0.250000
O O17 0.675913 0.233407 0.000000
O O18 0.500000 0.500000 0.620666
O O19 0.473838 0.753145 0.500000
O O20 0.500000 0.000000 0.621441
#
# Coordination Sequence:
#
# PCOD8202991 Si02
#       7
#     8   8   8   8   8   8   8
#     4   9  17  30  50  78 109 137 169 212 256 295
#     4  10  21  37  55  75 101 134 173 212 253 310
#     4   9  17  28  43  68 101 132 163 203 254 304
#     4  10  19  32  54  81 105 135 178 218 249 297
#     4  10  21  37  55  75 104 140 171 210 266 313
#     4  10  19  32  51  74 102 133 164 208 262 305
#     4   9  15  23  37  59  92 132 164 192 237 299
#
# _framework density 19.329729
#
# number of rings (size 3 to 8) (size 9 to 14) (size 15 to 20)
#    0.000    2.429    0.000    3.000    0.000    5.714 
#    0.000    0.000    0.000   16.714    0.000    0.000 
#    0.000   40.000    0.000    0.000    0.000    0.000 
#
# Total GULP energy -694030.671531 kJ/mol
# GULP energy per Si atom -12393.404849 kJ/mol
# Density = 1.928573 g / cm^3
# Si number density = 19.329729 Si / 1000 Ang^3
#
#
#
# Elastic Constant Matrix: (Units=GPa)
#
#
# Indices 1 2 3 4 5 6 
#
# 1 122.7067 28.6303 44.5641 0.0000 0.0000 0.0000
# 2 28.6303 127.4477 18.5890 0.0000 0.0000 0.0000
# 3 44.5641 18.5890 37.3206 0.0000 0.0000 0.0000
# 4 0.0000 0.0000 0.0000 13.4882 0.0000 0.0000
# 5 0.0000 0.0000 0.0000 0.0000 8.7258 0.0000
# 6 0.0000 0.0000 0.0000 0.0000 0.0000 42.9344
#
#
#
# Elastic Compliance Matrix: (Units=1/GPa)
#
#
# Indices 1 2 3 4 5 6 
#
# 1 0.014463 -0.000787 -0.016878 0.000000 0.000000 0.000000
# 2 -0.000787 0.008504 -0.003296 0.000000 0.000000 0.000000
# 3 -0.016878 -0.003296 0.048590 0.000000 0.000000 0.000000
# 4 0.000000 0.000000 0.000000 0.074139 0.000000 0.000000
# 5 0.000000 0.000000 0.000000 0.000000 0.114603 0.000000
# 6 0.000000 0.000000 0.000000 0.000000 0.000000 0.023291
#
#
# Mechanical properties :
#
#
# Convention : Reuss Voigt Hill
#
# Bulk Modulus (GPa) = 33.74347 52.33796 43.04072
# Shear Modulus (GPa) = 14.90804 26.07577 20.49190
#
# Velocity S-wave (km/s) = 2.78015 3.67686 3.25949
# Velocity P-wave (km/s) = 5.27260 6.72018 6.03992
#
# Compressibility (1/GPa) = 0.02963536
#
# Stress axis : x y z
#
# Youngs Moduli (GPa) = 69.14285 117.59312 20.58036
#
# Poissons Ratio (x) = 0.09258 0.34735
# Poissons Ratio (y) = 0.05443 0.06783
# Poissons Ratio (z) = 1.16698 0.38754
#
# Static dielectric constant tensor:
#      x y z
#    x 3.798490 0.000000 0.000000 
#    y 0.000000 3.982070 0.000000 
#    z 0.000000 0.000000 2.973540 
# 
# 
# High freq. dielectric constant tensor:
#      x y z
#    x 1.762540 0.000000 0.000000 
#    y 0.000000 1.777700 0.000000 
#    z 0.000000 0.000000 1.689600 
# 
# From -- ./inp_files/14615.got.cif
#   From: 2010.03.12/outbox.cif.g09.slc.cpg/sg49_8_cif.got.tgz:14615.got - 2010.04.14 03:58:27.
