data_PCOD8202780
_publ_section_title
;
Structure prediction by ZEFSAII (Michael W. Deem and Ramdas Pophale) SiO2 
 PCOD8202780
Probable space group: P C C M
;
_chemical_formula_sum "Si O2"
_cell_formula_units_Z 64
_cell_length_a 18.971891
_cell_length_b 23.451598
_cell_length_c 9.045980
_cell_angle_alpha 90.000000
_cell_angle_beta 90.000000
_cell_angle_gamma 90.000000
_cell_volume 4024.747924
_symmetry_space_group_name_H-M "P C C M"
_symmetry_group_IT_number 49
_symmetry_cell_setting 'orthorhombic'
loop_
_space_group_symop_operation_xyz
x,y,z
-x,-y,z
x,-y,1/2-z
-x,y,1/2-z
-x,-y,-z
x,y,-z
-x,y,1/2+z
x,-y,1/2+z
loop_
_atom_site_type_symbol
_atom_site_label
_atom_site_fract_x
_atom_site_fract_y
_atom_site_fract_z
Si Si1 0.425772 0.556965 0.174649
Si Si2 0.643237 0.326479 0.169483
Si Si3 0.429243 0.775156 0.671469
Si Si4 0.785372 0.939922 0.675579
Si Si5 0.289714 0.159173 0.828011
Si Si6 0.932578 0.752342 0.330009
Si Si7 0.930540 0.883157 0.673180
Si Si8 0.220412 0.262119 0.329568
O O1 0.394275 0.500000 0.250000
O O2 0.500000 0.572123 0.250000
O O3 0.371383 0.607865 0.208742
O O4 0.436511 0.547450 0.000000
O O5 0.594592 0.286169 0.267968
O O6 0.726223 0.314522 0.199136
O O7 0.623581 0.313471 0.000000
O O8 0.500000 0.796430 0.750000
O O9 0.444487 0.767027 0.500000
O O10 0.370413 0.823000 0.701773
O O11 0.779321 0.944664 0.500000
O O12 0.725339 0.897375 0.734625
O O13 0.862108 0.917707 0.726519
O O14 0.770627 0.000000 0.750000
O O15 0.239010 0.209627 0.774916
O O16 0.275238 0.147819 0.000000
O O17 0.951592 0.749475 0.500000
O O18 0.920894 0.817529 0.278218
O O19 0.859932 0.718415 0.293830
O O20 0.000000 0.724215 0.250000
O O21 0.940854 0.889216 0.500000
O O22 0.000000 0.909448 0.750000
O O23 0.224536 0.240797 0.500000
#
# Coordination Sequence:
#
# PCOD8202780 Si02
#       8
#     8   8   8   8   8   8   8   8
#     4  10  19  30  44  64  90 127 165 195 227 263
#     4   9  18  30  47  69  94 124 158 193 229 267
#     4  10  20  32  49  73  97 120 148 182 226 271
#     4  11  22  36  51  68  89 116 150 185 225 270
#     4  10  20  33  49  70  92 115 146 183 222 270
#     4   9  16  27  43  64  89 119 150 179 219 269
#     4   9  18  31  46  65  88 117 149 181 218 262
#     4   9  16  30  48  66  91 121 151 186 227 272
#
# _framework density 15.901617
#
# number of rings (size 3 to 8) (size 9 to 14) (size 15 to 20)
#    0.000    2.375    1.250    2.250    0.000    5.250 
#    0.000    1.250    0.000    0.375    0.000    2.625 
#    0.000    0.500    0.000    6.250    0.000    0.000 
#
# Total GULP energy -793526.486722 kJ/mol
# GULP energy per Si atom -12398.851355 kJ/mol
# Density = 1.586542 g / cm^3
# Si number density = 15.901617 Si / 1000 Ang^3
#
#
#
# Elastic Constant Matrix: (Units=GPa)
#
#
# Indices 1 2 3 4 5 6 
#
# 1 121.9624 54.6862 54.9417 0.0000 0.0000 0.0000
# 2 54.6862 89.5766 42.7545 0.0000 0.0000 0.0000
# 3 54.9417 42.7545 76.8310 0.0000 0.0000 0.0000
# 4 0.0000 0.0000 0.0000 20.5490 0.0000 0.0000
# 5 0.0000 0.0000 0.0000 0.0000 26.7610 0.0000
# 6 0.0000 0.0000 0.0000 0.0000 0.0000 22.6521
#
#
#
# Elastic Compliance Matrix: (Units=1/GPa)
#
#
# Indices 1 2 3 4 5 6 
#
# 1 0.013544 -0.004964 -0.006923 0.000000 0.000000 0.000000
# 2 -0.004964 0.017021 -0.005922 0.000000 0.000000 0.000000
# 3 -0.006923 -0.005922 0.021261 0.000000 0.000000 0.000000
# 4 0.000000 0.000000 0.000000 0.048664 0.000000 0.000000
# 5 0.000000 0.000000 0.000000 0.000000 0.037368 0.000000
# 6 0.000000 0.000000 0.000000 0.000000 0.000000 0.044146
#
#
# Mechanical properties :
#
#
# Convention : Reuss Voigt Hill
#
# Bulk Modulus (GPa) = 61.69586 65.90387 63.79987
# Shear Modulus (GPa) = 22.41919 23.05825 22.73872
#
# Velocity S-wave (km/s) = 3.75890 3.81209 3.78559
# Velocity P-wave (km/s) = 7.59748 7.80454 7.70171
#
# Compressibility (1/GPa) = 0.01620854
#
# Stress axis : x y z
#
# Youngs Moduli (GPa) = 73.83561 58.75209 47.03420
#
# Poissons Ratio (x) = 0.29166 0.32560
# Poissons Ratio (y) = 0.36654 0.27852
# Poissons Ratio (z) = 0.51113 0.34791
#
# Static dielectric constant tensor:
#      x y z
#    x 3.195890 0.000000 0.000000 
#    y 0.000000 2.832160 0.000000 
#    z 0.000000 0.000000 3.103940 
# 
# 
# High freq. dielectric constant tensor:
#      x y z
#    x 1.610850 0.000000 0.000000 
#    y 0.000000 1.573790 0.000000 
#    z 0.000000 0.000000 1.621320 
# 
# From -- ./inp_files/6095.got.cif
#   From: 2010.03.12/outbox.cif.g09.slc.cpg/sg49_4_cif.got.tgz:6095.got - 2010.04.14 03:58:27.
