data_PCOD8202029
_publ_section_title
;
Structure prediction by ZEFSAII (Michael W. Deem and Ramdas Pophale) SiO2 
 PCOD8202029
Probable space group: P N N N
;
_chemical_formula_sum "Si O2"
_cell_formula_units_Z 44
_cell_length_a 19.337481
_cell_length_b 12.470108
_cell_length_c 8.090535
_cell_angle_alpha 90.000000
_cell_angle_beta 90.000000
_cell_angle_gamma 90.000000
_cell_volume 1950.955465
_symmetry_space_group_name_H-M "P N N N"
_symmetry_group_IT_number 48
_space_group.IT_coordinate_system_code '2'
_symmetry_cell_setting 'orthorhombic'
loop_
_space_group_symop_operation_xyz
x,y,z
1/2-x,1/2-y,z
x,1/2-y,1/2-z
1/2-x,y,1/2-z
-x,-y,-z
1/2+x,1/2+y,-z
-x,1/2+y,1/2+z
1/2+x,-y,1/2+z
loop_
_atom_site_type_symbol
_atom_site_label
_atom_site_fract_x
_atom_site_fract_y
_atom_site_fract_z
Si Si1 0.977256 0.750000 0.750000
Si Si2 0.559303 0.372212 0.731489
Si Si3 0.179155 0.489392 0.810322
Si Si4 0.426206 0.171476 0.907049
Si Si5 0.180587 0.692550 0.021069
Si Si6 0.585423 0.112957 0.413052
O O1 0.931830 0.769858 0.585009
O O2 0.024017 0.645059 0.711984
O O3 0.535705 0.250000 0.750000
O O4 0.494277 0.407449 0.617705
O O5 0.637699 0.372662 0.661558
O O6 0.557395 0.429554 0.909614
O O7 0.250000 0.434031 0.750000
O O8 0.139387 0.407600 0.930146
O O9 0.201430 0.602761 0.890035
O O10 0.128632 0.514027 0.656897
O O11 0.410817 0.250000 0.750000
O O12 0.250000 0.750000 0.090313
O O13 0.130855 0.779942 0.939797
#
# Coordination Sequence:
#
# PCOD8202029 Si02
#       6
#     4   8   8   8   8   8
#     4  12  20  42  75  99 132 178 220 288 348 394
#     4   9  19  38  61  98 131 178 218 263 339 402
#     4  12  25  40  64 100 128 180 231 277 344 416
#     4  11  24  46  68  93 131 175 235 288 334 391
#     4  11  20  37  62  96 145 175 211 271 347 426
#     4  11  20  37  66  99 136 171 212 271 345 415
#
# _framework density 22.553052000000001
#
# number of rings (size 3 to 8) (size 9 to 14) (size 15 to 20)
#    0.000    1.091    9.091    0.000    0.000    7.273 
#    3.273    0.000    0.000    1.091    0.000    0.000 
#    0.000    0.000    0.000    0.000    0.000    0.000 
#
# Total GULP energy -545100.359044 kJ/mol
# GULP energy per Si atom -12388.644524 kJ/mol
# Density = 2.250172 g / cm^3
# Si number density = 22.553052 Si / 1000 Ang^3
#
#
#
# Elastic Constant Matrix: (Units=GPa)
#
#
# Indices 1 2 3 4 5 6 
#
# 1 128.0007 32.8734 37.5929 0.0000 0.0000 0.0000
# 2 32.8734 43.4235 23.6063 0.0000 0.0000 0.0000
# 3 37.5929 23.6063 136.3699 0.0000 0.0000 0.0000
# 4 0.0000 0.0000 0.0000 14.3611 0.0000 0.0000
# 5 0.0000 0.0000 0.0000 0.0000 26.1351 0.0000
# 6 0.0000 0.0000 0.0000 0.0000 0.0000 22.6494
#
#
#
# Elastic Compliance Matrix: (Units=1/GPa)
#
#
# Indices 1 2 3 4 5 6 
#
# 1 0.010003 -0.006705 -0.001597 0.000000 0.000000 0.000000
# 2 -0.006705 0.029915 -0.003330 0.000000 0.000000 0.000000
# 3 -0.001597 -0.003330 0.008350 0.000000 0.000000 0.000000
# 4 0.000000 0.000000 0.000000 0.069632 0.000000 0.000000
# 5 0.000000 0.000000 0.000000 0.000000 0.038263 0.000000
# 6 0.000000 0.000000 0.000000 0.000000 0.000000 0.044151
#
#
# Mechanical properties :
#
#
# Convention : Reuss Voigt Hill
#
# Bulk Modulus (GPa) = 39.99297 55.10436 47.54867
# Shear Modulus (GPa) = 21.55975 26.87723 24.21849
#
# Velocity S-wave (km/s) = 3.09521 3.45589 3.28051
# Velocity P-wave (km/s) = 5.52676 6.35693 5.95633
#
# Compressibility (1/GPa) = 0.02500439
#
# Stress axis : x y z
#
# Youngs Moduli (GPa) = 99.96561 33.42775 119.76474
#
# Poissons Ratio (x) = 0.22413 0.19126
# Poissons Ratio (y) = 0.67026 0.39884
# Poissons Ratio (z) = 0.15964 0.11132
#
# Static dielectric constant tensor:
#      x y z
#    x 4.140840 0.000000 0.000000 
#    y 0.000000 3.631280 0.000000 
#    z 0.000000 0.000000 4.374580 
# 
# 
# High freq. dielectric constant tensor:
#      x y z
#    x 1.886510 0.000000 0.000000 
#    y 0.000000 1.847030 0.000000 
#    z 0.000000 0.000000 1.891310 
# 
# From -- ./inp_files/14051.got.cif
#   From: 2010.06.25/outbox.cif.g09.slc.cpg/sg48_8_cif.got.tgz:14051.got - 2010.06.26 18:06:46.
