data_PCOD8202421
_publ_section_title
;
Structure prediction by ZEFSAII (Michael W. Deem and Ramdas Pophale) SiO2 
 PCOD8202421
Probable space group: P C C M
;
_chemical_formula_sum "Si O2"
_cell_formula_units_Z 40
_cell_length_a 14.975176
_cell_length_b 15.017972
_cell_length_c 8.611276
_cell_angle_alpha 90.000000
_cell_angle_beta 90.000000
_cell_angle_gamma 90.000000
_cell_volume 1936.648191
_symmetry_space_group_name_H-M "P C C M"
_symmetry_group_IT_number 49
_symmetry_cell_setting 'orthorhombic'
loop_
_space_group_symop_operation_xyz
x,y,z
-x,-y,z
x,-y,1/2-z
-x,y,1/2-z
-x,-y,-z
x,y,-z
-x,y,1/2+z
x,-y,1/2+z
loop_
_atom_site_type_symbol
_atom_site_label
_atom_site_fract_x
_atom_site_fract_y
_atom_site_fract_z
Si Si1 0.902847 0.718680 0.682348
Si Si2 0.098080 0.913781 0.818072
Si Si3 0.598932 0.270844 0.315647
Si Si4 0.400441 0.089336 0.684604
Si Si5 0.259008 0.598313 0.815054
O O1 0.914701 0.713829 0.500000
O O2 0.863798 0.816686 0.729733
O O3 0.831518 0.646840 0.741442
O O4 0.000000 0.697316 0.750000
O O5 0.000000 0.916786 0.750000
O O6 0.152108 0.000000 0.750000
O O7 0.096277 0.925213 0.000000
O O8 0.500000 0.284286 0.250000
O O9 0.595068 0.264789 0.500000
O O10 0.644551 0.180274 0.247044
O O11 0.656210 0.354481 0.261132
O O12 0.500000 0.089895 0.750000
O O13 0.398622 0.088191 0.500000
O O14 0.351785 0.000000 0.750000
O O15 0.254525 0.500000 0.750000
O O16 0.268919 0.599351 0.000000
#
# Coordination Sequence:
#
# PCOD8202421 Si02
#       5
#     8   8   8   8   8
#     4   9  20  37  59  84 116 152 190 233 284 339
#     4   9  15  26  46  76 109 146 183 222 268 322
#     4  11  22  39  62  89 118 154 194 238 290 348
#     4  10  17  29  51  82 118 156 194 235 280 336
#     4  11  24  43  62  85 114 148 190 244 298 351
#
# _framework density 20.654242
#
# number of rings (size 3 to 8) (size 9 to 14) (size 15 to 20)
#    0.000    2.000    0.000    7.200    0.000    3.200 
#    0.000    5.000    0.000    2.400    0.000    0.000 
#    0.000    0.000    0.000    0.000    0.000    0.000 
#
# Total GULP energy -495697.919328 kJ/mol
# GULP energy per Si atom -12392.447983 kJ/mol
# Density = 2.060723 g / cm^3
# Si number density = 20.654242 Si / 1000 Ang^3
#
#
#
# Elastic Constant Matrix: (Units=GPa)
#
#
# Indices 1 2 3 4 5 6 
#
# 1 86.4860 71.3158 39.5649 0.0000 0.0000 0.0000
# 2 71.3158 219.7471 74.7766 0.0000 0.0000 0.0000
# 3 39.5649 74.7766 142.9825 0.0000 0.0000 0.0000
# 4 0.0000 0.0000 0.0000 41.6247 0.0000 0.0000
# 5 0.0000 0.0000 0.0000 0.0000 15.4129 0.0000
# 6 0.0000 0.0000 0.0000 0.0000 0.0000 300.6360
#
#
#
# Elastic Compliance Matrix: (Units=1/GPa)
#
#
# Indices 1 2 3 4 5 6 
#
# 1 0.016300 -0.004568 -0.002121 0.000000 0.000000 0.000000
# 2 -0.004568 0.006816 -0.002301 0.000000 0.000000 0.000000
# 3 -0.002121 -0.002301 0.008784 0.000000 0.000000 0.000000
# 4 0.000000 0.000000 0.000000 0.024024 0.000000 0.000000
# 5 0.000000 0.000000 0.000000 0.000000 0.064881 0.000000
# 6 0.000000 0.000000 0.000000 0.000000 0.000000 0.003326
#
#
# Mechanical properties :
#
#
# Convention : Reuss Voigt Hill
#
# Bulk Modulus (GPa) = 71.83969 91.17002 81.50485
# Shear Modulus (GPa) = 34.07132 89.10529 61.58830
#
# Velocity S-wave (km/s) = 4.06594 6.57534 5.46658
# Velocity P-wave (km/s) = 7.54321 10.09374 8.91021
#
# Compressibility (1/GPa) = 0.01391988
#
# Stress axis : x y z
#
# Youngs Moduli (GPa) = 61.35056 146.71313 113.84286
#
# Poissons Ratio (x) = 0.67018 0.24150
# Poissons Ratio (y) = 0.28025 0.26191
# Poissons Ratio (z) = 0.13015 0.33753
#
# Static dielectric constant tensor:
#      x y z
#    x 3.487660 0.000000 0.000000 
#    y 0.000000 5.405500 0.000000 
#    z 0.000000 0.000000 3.884910 
# 
# 
# High freq. dielectric constant tensor:
#      x y z
#    x 1.778240 0.000000 0.000000 
#    y 0.000000 1.829620 0.000000 
#    z 0.000000 0.000000 1.817960 
# 
# From -- ./inp_files/3429.got.cif
#   From: 2010.03.12/outbox.cif.g09.slc.cpg/sg49_2_cif.got.tgz:3429.got - 2010.04.14 03:58:27.
