data_PCOD8202736
_publ_section_title
;
Structure prediction by ZEFSAII (Michael W. Deem and Ramdas Pophale) SiO2 
 PCOD8202736
Probable space group: P C C M
;
_chemical_formula_sum "Si O2"
_cell_formula_units_Z 64
_cell_length_a 21.518468
_cell_length_b 21.575822
_cell_length_c 8.737975
_cell_angle_alpha 90.000000
_cell_angle_beta 90.000000
_cell_angle_gamma 90.000000
_cell_volume 4056.855108
_symmetry_space_group_name_H-M "P C C M"
_symmetry_group_IT_number 49
_symmetry_cell_setting 'orthorhombic'
loop_
_space_group_symop_operation_xyz
x,y,z
-x,-y,z
x,-y,1/2-z
-x,y,1/2-z
-x,-y,-z
x,y,-z
-x,y,1/2+z
x,-y,1/2+z
loop_
_atom_site_type_symbol
_atom_site_label
_atom_site_fract_x
_atom_site_fract_y
_atom_site_fract_z
Si Si1 0.557627 0.740260 0.832618
Si Si2 0.253241 0.244083 0.669090
Si Si3 0.067992 0.564896 0.317391
Si Si4 0.724413 0.434428 0.678704
Si Si5 0.640089 0.654692 0.330913
Si Si6 0.829973 0.646462 0.318220
Si Si7 0.339840 0.842799 0.331183
Si Si8 0.564916 0.067514 0.181610
O O1 0.500000 0.774407 0.750000
O O2 0.574895 0.680772 0.730028
O O3 0.615196 0.785158 0.846563
O O4 0.536979 0.718065 0.000000
O O5 0.235828 0.219801 0.500000
O O6 0.310965 0.289868 0.658474
O O7 0.194446 0.284640 0.735211
O O8 0.273570 0.183206 0.766704
O O9 0.095774 0.500000 0.250000
O O10 0.066165 0.560304 0.500000
O O11 0.107009 0.625510 0.266132
O O12 0.000000 0.575058 0.250000
O O13 0.710925 0.500000 0.750000
O O14 0.741258 0.437105 0.500000
O O15 0.662076 0.395395 0.706999
O O16 0.780051 0.404868 0.773843
O O17 0.631493 0.625313 0.500000
O O18 0.839563 0.646096 0.500000
O O19 0.327578 0.871494 0.500000
O O20 0.373945 0.892668 0.223477
O O21 0.500000 0.094883 0.250000
O O22 0.576241 0.000000 0.250000
O O23 0.558166 0.064647 0.000000
#
# Coordination Sequence:
#
# PCOD8202736 Si02
#       8
#     8   8   8   8   8   8   8   8
#     4  10  19  29  43  62  81 103 129 161 200 245
#     4   8  16  29  45  63  84 109 136 170 213 255
#     4  11  21  33  47  64  88 119 154 189 225 264
#     4  11  20  30  44  62  81 102 129 161 201 247
#     4   9  17  30  44  59  79 100 124 159 201 245
#     4  10  19  32  47  65  88 112 141 177 216 256
#     4  10  19  30  45  65  88 111 140 175 213 253
#     4  11  21  33  47  63  87 117 152 187 223 262
#
# _framework density 15.775767
#
# number of rings (size 3 to 8) (size 9 to 14) (size 15 to 20)
#    0.000    2.000    0.000    7.125    0.000    6.000 
#    0.000    0.000    0.000    0.375    0.000    2.625 
#    0.000    0.000    0.000    0.000    0.000    0.625 
#
# Total GULP energy -793047.807392 kJ/mol
# GULP energy per Si atom -12391.371991 kJ/mol
# Density = 1.573986 g / cm^3
# Si number density = 15.775767 Si / 1000 Ang^3
#
#
#
# Elastic Constant Matrix: (Units=GPa)
#
#
# Indices 1 2 3 4 5 6 
#
# 1 52.8776 28.8912 32.5619 0.0000 0.0000 0.0000
# 2 28.8912 55.4156 29.8765 0.0000 0.0000 0.0000
# 3 32.5619 29.8765 118.6856 0.0000 0.0000 0.0000
# 4 0.0000 0.0000 0.0000 23.0567 0.0000 0.0000
# 5 0.0000 0.0000 0.0000 0.0000 22.7090 0.0000
# 6 0.0000 0.0000 0.0000 0.0000 0.0000 27.2901
#
#
#
# Elastic Compliance Matrix: (Units=1/GPa)
#
#
# Indices 1 2 3 4 5 6 
#
# 1 0.028569 -0.012344 -0.004731 0.000000 0.000000 0.000000
# 2 -0.012344 0.026213 -0.003212 0.000000 0.000000 0.000000
# 3 -0.004731 -0.003212 0.010532 0.000000 0.000000 0.000000
# 4 0.000000 0.000000 0.000000 0.043371 0.000000 0.000000
# 5 0.000000 0.000000 0.000000 0.000000 0.044035 0.000000
# 6 0.000000 0.000000 0.000000 0.000000 0.000000 0.036643
#
#
# Mechanical properties :
#
#
# Convention : Reuss Voigt Hill
#
# Bulk Modulus (GPa) = 40.41940 45.51534 42.96737
# Shear Modulus (GPa) = 20.99210 23.65444 22.32327
#
# Velocity S-wave (km/s) = 3.65177 3.87643 3.76578
# Velocity P-wave (km/s) = 6.59222 6.99640 6.79732
#
# Compressibility (1/GPa) = 0.02474060
#
# Stress axis : x y z
#
# Youngs Moduli (GPa) = 35.00243 38.14927 94.94858
#
# Poissons Ratio (x) = 0.47093 0.44918
# Poissons Ratio (y) = 0.43208 0.30495
# Poissons Ratio (z) = 0.16559 0.12253
#
# Static dielectric constant tensor:
#      x y z
#    x 2.923140 0.000000 0.000000 
#    y 0.000000 2.882290 0.000000 
#    z 0.000000 0.000000 3.403930 
# 
# 
# High freq. dielectric constant tensor:
#      x y z
#    x 1.570630 0.000000 0.000000 
#    y 0.000000 1.572370 0.000000 
#    z 0.000000 0.000000 1.627630 
# 
# From -- ./inp_files/6107.got.cif
#   From: 2010.03.12/outbox.cif.g09.slc.cpg/sg49_4_cif.got.tgz:6107.got - 2010.04.14 03:58:27.
