data_PCOD8202420
_publ_section_title
;
Structure prediction by ZEFSAII (Michael W. Deem and Ramdas Pophale) SiO2 
 PCOD8202420
Probable space group: P C C M
;
_chemical_formula_sum "Si O2"
_cell_formula_units_Z 64
_cell_length_a 25.431269
_cell_length_b 14.584887
_cell_length_c 8.636469
_cell_angle_alpha 90.000000
_cell_angle_beta 90.000000
_cell_angle_gamma 90.000000
_cell_volume 3203.371584
_symmetry_space_group_name_H-M "P C C M"
_symmetry_group_IT_number 49
_symmetry_cell_setting 'orthorhombic'
loop_
_space_group_symop_operation_xyz
x,y,z
-x,-y,z
x,-y,1/2-z
-x,y,1/2-z
-x,-y,-z
x,y,-z
-x,y,1/2+z
x,-y,1/2+z
loop_
_atom_site_type_symbol
_atom_site_label
_atom_site_fract_x
_atom_site_fract_y
_atom_site_fract_z
Si Si1 0.558625 0.591846 0.684229
Si Si2 0.253826 0.212337 0.683717
Si Si3 0.153786 0.899300 0.183933
Si Si4 0.944832 0.216970 0.183428
Si Si5 0.780184 0.593402 0.682785
Si Si6 0.645627 0.099666 0.184461
Si Si7 0.099935 0.593371 0.182865
Si Si8 0.441915 0.778565 0.316090
O O1 0.587409 0.500000 0.750000
O O2 0.500000 0.592249 0.750000
O O3 0.559171 0.590746 0.500000
O O4 0.584959 0.685444 0.747176
O O5 0.250806 0.211172 0.500000
O O6 0.203730 0.156889 0.749116
O O7 0.251912 0.317725 0.743228
O O8 0.307331 0.165552 0.741355
O O9 0.100698 0.850610 0.243693
O O10 0.156265 0.000000 0.250000
O O11 0.155034 0.902646 0.000000
O O12 0.932924 0.319775 0.244756
O O13 0.000000 0.181975 0.250000
O O14 0.946949 0.215726 0.000000
O O15 0.754832 0.500000 0.750000
O O16 0.777696 0.587477 0.500000
O O17 0.840121 0.603906 0.741224
O O18 0.592024 0.135295 0.260749
O O19 0.658179 0.000000 0.250000
O O20 0.640158 0.096982 0.000000
O O21 0.074788 0.500000 0.250000
O O22 0.098182 0.589276 0.000000
O O23 0.500000 0.792924 0.250000
O O24 0.444317 0.772591 0.500000
#
# Coordination Sequence:
#
# PCOD8202420 Si02
#       8
#     8   8   8   8   8   8   8   8
#     4  10  17  29  51  82 117 154 195 238 283 333
#     4   9  18  36  62  84 111 147 183 224 278 337
#     4  10  20  37  58  80 104 139 183 230 281 335
#     4  10  21  36  53  74 107 145 183 227 278 334
#     4   9  16  31  55  83 111 144 181 220 269 326
#     4  11  23  40  61  87 115 148 188 236 291 346
#     4   9  17  31  52  76 105 141 180 222 269 326
#     4  11  22  39  61  87 119 157 198 241 286 341
#
# _framework density 19.978949
#
# number of rings (size 3 to 8) (size 9 to 14) (size 15 to 20)
#    0.000    2.125    1.250    4.125    0.000    1.750 
#    0.000    6.875    0.000    1.500    0.000    0.000 
#    0.000    0.000    0.000    0.000    0.000    0.000 
#
# Total GULP energy -793513.259919 kJ/mol
# GULP energy per Si atom -12398.644686 kJ/mol
# Density = 1.993348 g / cm^3
# Si number density = 19.978949 Si / 1000 Ang^3
#
#
#
# Elastic Constant Matrix: (Units=GPa)
#
#
# Indices 1 2 3 4 5 6 
#
# 1 102.7772 65.2204 29.5578 0.0000 0.0000 0.0000
# 2 65.2204 165.8701 35.0461 0.0000 0.0000 0.0000
# 3 29.5578 35.0461 78.6445 0.0000 0.0000 0.0000
# 4 0.0000 0.0000 0.0000 37.2206 0.0000 0.0000
# 5 0.0000 0.0000 0.0000 0.0000 24.5674 0.0000
# 6 0.0000 0.0000 0.0000 0.0000 0.0000 35.1255
#
#
#
# Elastic Compliance Matrix: (Units=1/GPa)
#
#
# Indices 1 2 3 4 5 6 
#
# 1 0.013580 -0.004704 -0.003008 0.000000 0.000000 0.000000
# 2 -0.004704 0.008285 -0.001924 0.000000 0.000000 0.000000
# 3 -0.003008 -0.001924 0.014703 0.000000 0.000000 0.000000
# 4 0.000000 0.000000 0.000000 0.026867 0.000000 0.000000
# 5 0.000000 0.000000 0.000000 0.000000 0.040704 0.000000
# 6 0.000000 0.000000 0.000000 0.000000 0.000000 0.028469
#
#
# Mechanical properties :
#
#
# Convention : Reuss Voigt Hill
#
# Bulk Modulus (GPa) = 57.81475 67.43782 62.62628
# Shear Modulus (GPa) = 31.71668 33.88052 32.79860
#
# Velocity S-wave (km/s) = 3.98867 4.12249 4.05613
# Velocity P-wave (km/s) = 7.08614 7.51582 7.30414
#
# Compressibility (1/GPa) = 0.01729662
#
# Stress axis : x y z
#
# Youngs Moduli (GPa) = 73.63820 120.69972 68.01235
#
# Poissons Ratio (x) = 0.56779 0.20455
# Poissons Ratio (y) = 0.34641 0.13086
# Poissons Ratio (z) = 0.22147 0.23223
#
# Static dielectric constant tensor:
#      x y z
#    x 3.577210 0.000000 0.000000 
#    y 0.000000 4.378020 0.000000 
#    z 0.000000 0.000000 3.383560 
# 
# 
# High freq. dielectric constant tensor:
#      x y z
#    x 1.758920 0.000000 0.000000 
#    y 0.000000 1.798470 0.000000 
#    z 0.000000 0.000000 1.762150 
# 
# From -- ./inp_files/6543.got.cif
#   From: 2010.03.12/outbox.cif.g09.slc.cpg/sg49_4_cif.got.tgz:6543.got - 2010.04.14 03:58:27.
