data_PCOD8202999
_publ_section_title
;
Structure prediction by ZEFSAII (Michael W. Deem and Ramdas Pophale) SiO2 
 PCOD8202999
Probable space group: P C C M
;
_chemical_formula_sum "Si O2"
_cell_formula_units_Z 48
_cell_length_a 14.580509
_cell_length_b 20.553986
_cell_length_c 9.029028
_cell_angle_alpha 90.000000
_cell_angle_beta 90.000000
_cell_angle_gamma 90.000000
_cell_volume 2705.887532
_symmetry_space_group_name_H-M "P C C M"
_symmetry_group_IT_number 49
_symmetry_cell_setting 'orthorhombic'
loop_
_space_group_symop_operation_xyz
x,y,z
-x,-y,z
x,-y,1/2-z
-x,y,1/2-z
-x,-y,-z
x,y,-z
-x,y,1/2+z
x,-y,1/2+z
loop_
_atom_site_type_symbol
_atom_site_label
_atom_site_fract_x
_atom_site_fract_y
_atom_site_fract_z
Si Si1 0.909548 0.619599 0.173162
Si Si2 0.597945 0.688777 0.175678
Si Si3 0.090743 0.229856 0.826554
Si Si4 0.714174 0.189763 0.325217
Si Si5 0.717291 0.434132 0.674860
Si Si6 0.596336 0.066865 0.323101
O O1 0.896527 0.694844 0.215964
O O2 0.820341 0.581270 0.230340
O O3 0.000000 0.590178 0.250000
O O4 0.922199 0.611011 0.000000
O O5 0.500000 0.688668 0.250000
O O6 0.653986 0.750781 0.238326
O O7 0.650789 0.623834 0.224809
O O8 0.586446 0.692604 0.000000
O O9 0.181236 0.192711 0.765631
O O10 0.000000 0.200474 0.750000
O O11 0.078479 0.219898 0.000000
O O12 0.717273 0.198669 0.500000
O O13 0.670147 0.121295 0.279184
O O14 0.681761 0.500000 0.750000
O O15 0.715072 0.442662 0.500000
O O16 0.500000 0.087039 0.250000
O O17 0.584791 0.059477 0.500000
O O18 0.631489 0.000000 0.250000
#
# Coordination Sequence:
#
# PCOD8202999 Si02
#       6
#     8   8   8   8   8   8
#     4   9  17  31  51  72  96 126 158 199 247 296
#     4  10  20  36  54  73  96 126 165 208 249 292
#     4   9  16  30  51  75 100 127 161 201 246 293
#     4   9  17  32  55  76 100 134 167 200 246 295
#     4  10  21  36  52  69  96 131 164 201 249 300
#     4  10  19  32  51  76 106 139 169 202 244 292
#
# _framework density 17.739096
#
# number of rings (size 3 to 8) (size 9 to 14) (size 15 to 20)
#    0.000    2.500    1.667    1.500    0.000    2.000 
#    0.000    6.667    0.000    0.500    0.000    3.500 
#    0.000    0.000    0.000    0.000    0.000    0.000 
#
# Total GULP energy -595144.997857 kJ/mol
# GULP energy per Si atom -12398.854122 kJ/mol
# Density = 1.769872 g / cm^3
# Si number density = 17.739096 Si / 1000 Ang^3
#
#
#
# Elastic Constant Matrix: (Units=GPa)
#
#
# Indices 1 2 3 4 5 6 
#
# 1 160.4216 83.5442 36.8488 0.0000 0.0000 0.0000
# 2 83.5442 118.7832 36.8646 0.0000 0.0000 0.0000
# 3 36.8488 36.8646 34.0410 0.0000 0.0000 0.0000
# 4 0.0000 0.0000 0.0000 30.0408 0.0000 0.0000
# 5 0.0000 0.0000 0.0000 0.0000 29.5505 0.0000
# 6 0.0000 0.0000 0.0000 0.0000 0.0000 27.8789
#
#
#
# Elastic Compliance Matrix: (Units=1/GPa)
#
#
# Indices 1 2 3 4 5 6 
#
# 1 0.010375 -0.005741 -0.005013 0.000000 0.000000 0.000000
# 2 -0.005741 0.015858 -0.010958 0.000000 0.000000 0.000000
# 3 -0.005013 -0.010958 0.046670 0.000000 0.000000 0.000000
# 4 0.000000 0.000000 0.000000 0.033288 0.000000 0.000000
# 5 0.000000 0.000000 0.000000 0.000000 0.033840 0.000000
# 6 0.000000 0.000000 0.000000 0.000000 0.000000 0.035869
#
#
# Mechanical properties :
#
#
# Convention : Reuss Voigt Hill
#
# Bulk Modulus (GPa) = 33.92422 69.75124 51.83773
# Shear Modulus (GPa) = 21.81957 27.89325 24.85641
#
# Velocity S-wave (km/s) = 3.51098 3.96967 3.74735
# Velocity P-wave (km/s) = 5.96670 7.77284 6.92887
#
# Compressibility (1/GPa) = 0.02947746
#
# Stress axis : x y z
#
# Youngs Moduli (GPa) = 96.38502 63.06139 21.42689
#
# Poissons Ratio (x) = 0.36205 0.10742
# Poissons Ratio (y) = 0.55337 0.23480
# Poissons Ratio (z) = 0.48322 0.69104
#
# Static dielectric constant tensor:
#      x y z
#    x 3.501210 0.000000 0.000000 
#    y 0.000000 3.272230 0.000000 
#    z 0.000000 0.000000 3.056830 
# 
# 
# High freq. dielectric constant tensor:
#      x y z
#    x 1.695100 0.000000 0.000000 
#    y 0.000000 1.674190 0.000000 
#    z 0.000000 0.000000 1.665470 
# 
# From -- ./inp_files/3696.got.cif
#   From: 2010.03.12/outbox.cif.g09.slc.cpg/sg49_2_cif.got.tgz:3696.got - 2010.04.14 03:58:27.
