data_PCOD8202688
_publ_section_title
;
Structure prediction by ZEFSAII (Michael W. Deem and Ramdas Pophale) SiO2 
 PCOD8202688
Probable space group: P C C M
;
_chemical_formula_sum "Si O2"
_cell_formula_units_Z 60
_cell_length_a 11.586886
_cell_length_b 14.432783
_cell_length_c 19.363631
_cell_angle_alpha 90.000000
_cell_angle_beta 90.000000
_cell_angle_gamma 90.000000
_cell_volume 3238.199594
_symmetry_space_group_name_H-M "P C C M"
_symmetry_group_IT_number 49
_symmetry_cell_setting 'orthorhombic'
loop_
_space_group_symop_operation_xyz
x,y,z
-x,-y,z
x,-y,1/2-z
-x,y,1/2-z
-x,-y,-z
x,y,-z
-x,y,1/2+z
x,-y,1/2+z
loop_
_atom_site_type_symbol
_atom_site_label
_atom_site_fract_x
_atom_site_fract_y
_atom_site_fract_z
Si Si1 0.371445 0.039915 0.679858
Si Si2 0.000000 0.000000 0.619747
Si Si3 0.276441 0.761014 0.816358
Si Si4 0.972404 0.805278 0.672795
Si Si5 0.763146 0.074321 0.422654
Si Si6 0.346840 0.408864 0.077656
Si Si7 0.614266 0.381046 0.920782
Si Si8 0.215712 0.256281 0.156290
O O1 0.362092 0.151035 0.680612
O O2 0.500000 0.000000 0.676251
O O3 0.312051 0.000000 0.750000
O O4 0.304951 0.009847 0.611548
O O5 0.038675 0.083795 0.668431
O O6 0.896974 0.042845 0.573794
O O7 0.151770 0.770739 0.853451
O O8 0.336462 0.681235 0.859789
O O9 0.250052 0.738782 0.736553
O O10 0.000000 0.777391 0.750000
O O11 0.080036 0.755699 0.634638
O O12 0.718694 0.090930 0.500000
O O13 0.728677 0.165275 0.378561
O O14 0.331516 0.517819 0.091300
O O15 0.478059 0.380664 0.091227
O O16 0.260831 0.352236 0.125980
O O17 0.311621 0.384499 0.000000
O O18 0.641580 0.347978 0.000000
#
# Coordination Sequence:
#
# PCOD8202688 Si02
#       8
#     8   4   8   8   8   8   8   8
#     4  11  24  39  54  80 119 157 191 236 281 331
#     4  10  18  34  56  78 111 146 197 248 275 322
#     4  11  21  38  59  84 116 149 193 235 286 338
#     4   9  19  33  55  82 110 150 193 231 287 344
#     4  11  22  36  55  82 111 152 196 234 283 337
#     4   9  19  40  62  85 115 148 186 235 292 345
#     4   9  21  39  62  86 113 149 190 235 287 346
#     4  10  21  35  59  84 113 149 189 241 283 340
#
# _framework density 18.528814000000001
#
# number of rings (size 3 to 8) (size 9 to 14) (size 15 to 20)
#    0.000    2.000    2.667    1.600    1.867    1.867 
#    0.000    3.333    0.000    4.000    0.000    0.000 
#    0.000    0.000    0.000    0.000    0.000    0.000 
#
# Total GULP energy -743409.202138 kJ/mol
# GULP energy per Si atom -12390.153369 kJ/mol
# Density = 1.848664 g / cm^3
# Si number density = 18.528814 Si / 1000 Ang^3
#
#
#
# Elastic Constant Matrix: (Units=GPa)
#
#
# Indices 1 2 3 4 5 6 
#
# 1 77.1215 54.3232 44.4704 0.0000 0.0000 0.0000
# 2 54.3232 114.6323 57.0290 0.0000 0.0000 0.0000
# 3 44.4704 57.0290 107.5262 0.0000 0.0000 0.0000
# 4 0.0000 0.0000 0.0000 32.5669 0.0000 0.0000
# 5 0.0000 0.0000 0.0000 0.0000 21.1840 0.0000
# 6 0.0000 0.0000 0.0000 0.0000 0.0000 33.5772
#
#
#
# Elastic Compliance Matrix: (Units=1/GPa)
#
#
# Indices 1 2 3 4 5 6 
#
# 1 0.021038 -0.007663 -0.004637 0.000000 0.000000 0.000000
# 2 -0.007663 0.014642 -0.004596 0.000000 0.000000 0.000000
# 3 -0.004637 -0.004596 0.013655 0.000000 0.000000 0.000000
# 4 0.000000 0.000000 0.000000 0.030706 0.000000 0.000000
# 5 0.000000 0.000000 0.000000 0.000000 0.047205 0.000000
# 6 0.000000 0.000000 0.000000 0.000000 0.000000 0.029782
#
#
# Mechanical properties :
#
#
# Convention : Reuss Voigt Hill
#
# Bulk Modulus (GPa) = 64.33678 67.88056 66.10867
# Shear Modulus (GPa) = 25.51010 27.02945 26.26977
#
# Velocity S-wave (km/s) = 3.71452 3.82354 3.76943
# Velocity P-wave (km/s) = 7.29348 7.49715 7.39602
#
# Compressibility (1/GPa) = 0.01554321
#
# Stress axis : x y z
#
# Youngs Moduli (GPa) = 47.53354 68.29868 73.23141
#
# Poissons Ratio (x) = 0.52337 0.33954
# Poissons Ratio (y) = 0.36425 0.33659
# Poissons Ratio (z) = 0.22039 0.31392
#
# Static dielectric constant tensor:
#      x y z
#    x 3.567430 0.000000 0.000000 
#    y 0.000000 3.276920 0.000000 
#    z 0.000000 0.000000 3.314900 
# 
# 
# High freq. dielectric constant tensor:
#      x y z
#    x 1.717530 0.000000 0.000000 
#    y 0.000000 1.709800 0.000000 
#    z 0.000000 0.000000 1.714500 
# 
# From -- ./inp_files/20583.got.cif
#   From: 2010.03.12/outbox.cif.g09.slc.cpg/sg49_11_cif.got.tgz:20583.got - 2010.04.14 03:58:27.
