data_PCOD8202505
_publ_section_title
;
Structure prediction by ZEFSAII (Michael W. Deem and Ramdas Pophale) SiO2 
 PCOD8202505
Probable space group: P C C M
;
_chemical_formula_sum "Si O2"
_cell_formula_units_Z 64
_cell_length_a 14.805503
_cell_length_b 28.719630
_cell_length_c 8.777014
_cell_angle_alpha 90.000000
_cell_angle_beta 90.000000
_cell_angle_gamma 90.000000
_cell_volume 3732.061555
_symmetry_space_group_name_H-M "P C C M"
_symmetry_group_IT_number 49
_symmetry_cell_setting 'orthorhombic'
loop_
_space_group_symop_operation_xyz
x,y,z
-x,-y,z
x,-y,1/2-z
-x,y,1/2-z
-x,-y,-z
x,y,-z
-x,y,1/2+z
x,-y,1/2+z
loop_
_atom_site_type_symbol
_atom_site_label
_atom_site_fract_x
_atom_site_fract_y
_atom_site_fract_z
Si Si1 0.901875 0.044423 0.677710
Si Si2 0.278181 0.547596 0.823255
Si Si3 0.907790 0.589840 0.321432
Si Si4 0.594496 0.730103 0.818941
Si Si5 0.098547 0.853079 0.679309
Si Si6 0.093843 0.311127 0.180889
Si Si7 0.221164 0.770747 0.679830
Si Si8 0.594763 0.630251 0.681841
O O1 0.908788 0.035784 0.500000
O O2 0.860303 0.095354 0.714847
O O3 0.000000 0.044826 0.750000
O O4 0.847361 0.000000 0.750000
O O5 0.313726 0.500000 0.750000
O O6 0.172232 0.553847 0.786128
O O7 0.332528 0.592302 0.761885
O O8 0.296716 0.543019 0.000000
O O9 0.921710 0.597867 0.500000
O O10 0.881078 0.638684 0.246560
O O11 0.000000 0.569526 0.250000
O O12 0.500000 0.748357 0.750000
O O13 0.673535 0.766568 0.771493
O O14 0.621326 0.679991 0.751768
O O15 0.585277 0.725492 0.000000
O O16 0.085739 0.846230 0.500000
O O17 0.171634 0.816544 0.747898
O O18 0.000000 0.844753 0.750000
O O19 0.170142 0.275432 0.236554
O O20 0.000000 0.292998 0.250000
O O21 0.085929 0.314199 0.000000
O O22 0.214787 0.773773 0.500000
O O23 0.500000 0.613420 0.750000
O O24 0.589653 0.634748 0.500000
#
# Coordination Sequence:
#
# PCOD8202505 Si02
#       8
#     8   8   8   8   8   8   8   8
#     4   9  15  23  38  56  80 115 156 195 230 263
#     4  10  23  38  53  72  95 119 145 178 218 261
#     4  10  20  35  51  69  91 118 150 184 217 254
#     4  10  19  33  52  72  92 118 149 184 220 262
#     4   9  17  29  42  61  90 125 159 192 227 268
#     4  10  18  29  46  68  91 119 150 181 214 255
#     4   9  18  30  45  65  92 122 152 182 222 270
#     4  10  20  36  55  76  97 118 144 177 216 263
#
# _framework density 17.148699000000001
#
# number of rings (size 3 to 8) (size 9 to 14) (size 15 to 20)
#    0.000    2.375    0.000    4.875    0.000    3.000 
#    0.000    6.250    0.000    0.000    0.000    0.000 
#    0.000    0.500    0.000    6.250    0.000    0.000 
#
# Total GULP energy -793208.674748 kJ/mol
# GULP energy per Si atom -12393.885543 kJ/mol
# Density = 1.710967 g / cm^3
# Si number density = 17.148699 Si / 1000 Ang^3
#
#
#
# Elastic Constant Matrix: (Units=GPa)
#
#
# Indices 1 2 3 4 5 6 
#
# 1 94.5141 59.6274 32.1419 0.0000 0.0000 0.0000
# 2 59.6274 99.2578 34.1509 0.0000 0.0000 0.0000
# 3 32.1419 34.1509 68.6090 0.0000 0.0000 0.0000
# 4 0.0000 0.0000 0.0000 1.0786 0.0000 0.0000
# 5 0.0000 0.0000 0.0000 0.0000 20.0076 0.0000
# 6 0.0000 0.0000 0.0000 0.0000 0.0000 16.5623
#
#
#
# Elastic Compliance Matrix: (Units=1/GPa)
#
#
# Indices 1 2 3 4 5 6 
#
# 1 0.017757 -0.009418 -0.003631 0.000000 0.000000 0.000000
# 2 -0.009418 0.017152 -0.004125 0.000000 0.000000 0.000000
# 3 -0.003631 -0.004125 0.018330 0.000000 0.000000 0.000000
# 4 0.000000 0.000000 0.000000 0.927099 0.000000 0.000000
# 5 0.000000 0.000000 0.000000 0.000000 0.049981 0.000000
# 6 0.000000 0.000000 0.000000 0.000000 0.000000 0.060378
#
#
# Mechanical properties :
#
#
# Convention : Reuss Voigt Hill
#
# Bulk Modulus (GPa) = 52.93772 57.13571 55.03672
# Shear Modulus (GPa) = 4.41953 16.62709 10.52331
#
# Velocity S-wave (km/s) = 1.60710 3.11719 2.47989
# Velocity P-wave (km/s) = 5.86349 6.80779 6.35321
#
# Compressibility (1/GPa) = 0.01889012
#
# Stress axis : x y z
#
# Youngs Moduli (GPa) = 56.31671 58.30309 54.55596
#
# Poissons Ratio (x) = 0.54909 0.19808
# Poissons Ratio (y) = 0.53038 0.22507
# Poissons Ratio (z) = 0.20448 0.24053
#
# Static dielectric constant tensor:
#      x y z
#    x 3.265150 0.000000 0.000000 
#    y 0.000000 3.808710 0.000000 
#    z 0.000000 0.000000 3.184970 
# 
# 
# High freq. dielectric constant tensor:
#      x y z
#    x 1.641010 0.000000 0.000000 
#    y 0.000000 1.654920 0.000000 
#    z 0.000000 0.000000 1.663210 
# 
# From -- ./inp_files/4525.got.cif
#   From: 2010.03.12/outbox.cif.g09.slc.cpg/sg49_3_cif.got.tgz:4525.got - 2010.04.14 03:58:27.
