data_PCOD8202012
_publ_section_title
;
Structure prediction by ZEFSAII (Michael W. Deem and Ramdas Pophale) SiO2 
 PCOD8202012
Probable space group: P N N N
;
_chemical_formula_sum "Si O2"
_cell_formula_units_Z 48
_cell_length_a 11.247444
_cell_length_b 13.990004
_cell_length_c 15.023904
_cell_angle_alpha 90.000000
_cell_angle_beta 90.000000
_cell_angle_gamma 90.000000
_cell_volume 2364.038135
_symmetry_space_group_name_H-M "P N N N"
_symmetry_group_IT_number 48
_space_group.IT_coordinate_system_code '2'
_symmetry_cell_setting 'orthorhombic'
loop_
_space_group_symop_operation_xyz
x,y,z
1/2-x,1/2-y,z
x,1/2-y,1/2-z
1/2-x,y,1/2-z
-x,-y,-z
1/2+x,1/2+y,-z
-x,1/2+y,1/2+z
1/2+x,-y,1/2+z
loop_
_atom_site_type_symbol
_atom_site_label
_atom_site_fract_x
_atom_site_fract_y
_atom_site_fract_z
Si Si1 0.696127 0.474571 0.346547
Si Si2 0.511492 0.427229 0.583426
Si Si3 0.301924 0.442552 0.347187
Si Si4 0.867207 0.028827 0.985184
Si Si5 0.991850 0.302919 0.157310
Si Si6 0.385512 0.765309 0.492268
O O1 0.750000 0.490423 0.250000
O O2 0.616295 0.568959 0.367903
O O3 0.796772 0.462441 0.421497
O O4 0.610962 0.382567 0.345634
O O5 0.500000 0.500000 0.500000
O O6 0.614632 0.464315 0.648799
O O7 0.549719 0.319751 0.561020
O O8 0.250000 0.432960 0.250000
O O9 0.197245 0.454065 0.419645
O O10 0.380261 0.348346 0.367274
O O11 0.883042 0.133915 0.939981
O O12 0.000000 0.000000 0.000000
O O13 0.998052 0.250000 0.250000
O O14 0.959788 0.223475 0.083932
O O15 0.250000 0.750000 0.517860
#
# Coordination Sequence:
#
# PCOD8202012 Si02
#       6
#     8   8   8   8   8   8
#     4  11  22  40  67  95 135 173 217 280 339 395
#     4  11  19  43  68  91 126 178 220 272 338 389
#     4  11  24  43  62  94 141 177 216 271 343 404
#     4  12  26  42  63  99 139 178 223 277 336 410
#     4  11  23  37  66 103 131 165 220 281 348 403
#     4  12  20  40  69  95 122 171 231 276 319 396
#
# _framework density 20.30424
#
# number of rings (size 3 to 8) (size 9 to 14) (size 15 to 20)
#    0.000    0.667    8.333    1.000    7.000    0.333 
#    0.000    4.167    0.000    1.000    0.000    0.000 
#    0.000    0.000    0.000    0.000    0.000    0.000 
#
# Total GULP energy -594805.206251 kJ/mol
# GULP energy per Si atom -12391.775130 kJ/mol
# Density = 2.025803 g / cm^3
# Si number density = 20.304240 Si / 1000 Ang^3
#
#
#
# Elastic Constant Matrix: (Units=GPa)
#
#
# Indices 1 2 3 4 5 6 
#
# 1 164.5869 57.8352 55.8774 0.0000 0.0000 0.0000
# 2 57.8352 78.2475 25.4181 0.0000 0.0000 0.0000
# 3 55.8774 25.4181 86.7493 0.0000 0.0000 0.0000
# 4 0.0000 0.0000 0.0000 29.3559 0.0000 0.0000
# 5 0.0000 0.0000 0.0000 0.0000 39.8121 0.0000
# 6 0.0000 0.0000 0.0000 0.0000 0.0000 28.4325
#
#
#
# Elastic Compliance Matrix: (Units=1/GPa)
#
#
# Indices 1 2 3 4 5 6 
#
# 1 0.009587 -0.005614 -0.004530 0.000000 0.000000 0.000000
# 2 -0.005614 0.017412 -0.001486 0.000000 0.000000 0.000000
# 3 -0.004530 -0.001486 0.014881 0.000000 0.000000 0.000000
# 4 0.000000 0.000000 0.000000 0.034065 0.000000 0.000000
# 5 0.000000 0.000000 0.000000 0.000000 0.025118 0.000000
# 6 0.000000 0.000000 0.000000 0.000000 0.000000 0.035171
#
#
# Mechanical properties :
#
#
# Convention : Reuss Voigt Hill
#
# Bulk Modulus (GPa) = 53.70621 67.53832 60.62226
# Shear Modulus (GPa) = 30.17515 32.21696 31.19605
#
# Velocity S-wave (km/s) = 3.85924 3.98768 3.92399
# Velocity P-wave (km/s) = 6.80930 7.38495 7.10296
#
# Compressibility (1/GPa) = 0.01861982
#
# Stress axis : x y z
#
# Youngs Moduli (GPa) = 104.31278 57.43098 67.20149
#
# Poissons Ratio (x) = 0.32243 0.30442
# Poissons Ratio (y) = 0.58563 0.09984
# Poissons Ratio (z) = 0.47253 0.08532
#
# Static dielectric constant tensor:
#      x y z
#    x 3.927300 0.000000 0.000000 
#    y 0.000000 3.270560 0.000000 
#    z 0.000000 0.000000 3.817720 
# 
# 
# High freq. dielectric constant tensor:
#      x y z
#    x 1.815440 0.000000 0.000000 
#    y 0.000000 1.779960 0.000000 
#    z 0.000000 0.000000 1.778880 
# 
# From -- ./inp_files/26457.got.cif
#   From: 2010.06.25/outbox.cif.g09.slc.cpg/sg48_14_cif.got.tgz:26457.got - 2010.06.26 18:06:46.
