data_PCOD8202174
_publ_section_title
;
Structure prediction by ZEFSAII (Michael W. Deem and Ramdas Pophale) SiO2 
 PCOD8202174
Probable space group: P C C M
;
_chemical_formula_sum "Si O2"
_cell_formula_units_Z 46
_cell_length_a 9.636621
_cell_length_b 10.074976
_cell_length_c 26.139323
_cell_angle_alpha 90.000000
_cell_angle_beta 90.000000
_cell_angle_gamma 90.000000
_cell_volume 2537.833550
_symmetry_space_group_name_H-M "P C C M"
_symmetry_group_IT_number 49
_symmetry_cell_setting 'orthorhombic'
loop_
_space_group_symop_operation_xyz
x,y,z
-x,-y,z
x,-y,1/2-z
-x,y,1/2-z
-x,-y,-z
x,y,-z
-x,y,1/2+z
x,-y,1/2+z
loop_
_atom_site_type_symbol
_atom_site_label
_atom_site_fract_x
_atom_site_fract_y
_atom_site_fract_z
Si Si1 0.835115 0.620332 0.392634
Si Si2 0.748487 0.282930 0.500000
Si Si3 0.855101 0.680350 0.887984
Si Si4 0.740395 0.419537 0.000000
Si Si5 0.346211 0.119809 0.841090
Si Si6 0.500000 0.000000 0.750000
Si Si7 0.450359 0.809936 0.000000
Si Si8 0.629228 0.151454 0.890248
O O1 0.799022 0.468798 0.376557
O O2 0.840793 0.619509 0.453776
O O3 0.716694 0.720040 0.373382
O O4 0.982520 0.676183 0.373877
O O5 0.834199 0.266409 0.553395
O O6 0.689451 0.430568 0.500000
O O7 0.617826 0.182126 0.500000
O O8 0.781828 0.778914 0.847106
O O9 0.594473 0.343432 0.000000
O O10 0.473601 0.182031 0.872319
O O11 0.398823 0.095475 0.783133
O O12 0.303235 0.976849 0.863949
O O13 0.380830 0.879225 0.049232
#
# Coordination Sequence:
#
# PCOD8202174 Si02
#       8
#     8   4   8   4   8   2   4   8
#     4   9  18  32  47  74 111 144 174 209 235 295
#     4  10  16  25  43  73 108 144 181 209 231 297
#     4  10  19  30  51  77 108 144 176 204 249 291
#     4   8  16  26  41  65 107 156 180 193 240 279
#     4  10  20  36  56  77  92 131 167 216 266 316
#     4   8  20  40  60  74 100 116 164 216 272 334
#     4  10  15  26  43  70 105 140 174 218 243 286
#     4   9  19  31  49  73 105 137 173 209 253 290
#
# _framework density 18.125698
#
# number of rings (size 3 to 8) (size 9 to 14) (size 15 to 20)
#    0.000    2.783    1.739    0.783    0.000    5.565 
#    0.000    0.000    0.000   20.870    0.000    9.739 
#    0.000    0.000    0.000    0.000    0.000    0.000 
#
# Total GULP energy -569918.653820 kJ/mol
# GULP energy per Si atom -12389.535953 kJ/mol
# Density = 1.808444 g / cm^3
# Si number density = 18.125698 Si / 1000 Ang^3
#
#
#
# Elastic Constant Matrix: (Units=GPa)
#
#
# Indices 1 2 3 4 5 6 
#
# 1 65.0626 39.6853 17.3486 0.0000 0.0000 0.0000
# 2 39.6853 88.5225 26.3566 0.0000 0.0000 0.0000
# 3 17.3486 26.3566 84.6700 0.0000 0.0000 0.0000
# 4 0.0000 0.0000 0.0000 1.0946 0.0000 0.0000
# 5 0.0000 0.0000 0.0000 0.0000 2.6943 0.0000
# 6 0.0000 0.0000 0.0000 0.0000 0.0000 37.6981
#
#
#
# Elastic Compliance Matrix: (Units=1/GPa)
#
#
# Indices 1 2 3 4 5 6 
#
# 1 0.021334 -0.009107 -0.001536 0.000000 0.000000 0.000000
# 2 -0.009107 0.016338 -0.003220 0.000000 0.000000 0.000000
# 3 -0.001536 -0.003220 0.013128 0.000000 0.000000 0.000000
# 4 0.000000 0.000000 0.000000 0.913614 0.000000 0.000000
# 5 0.000000 0.000000 0.000000 0.000000 0.371155 0.000000
# 6 0.000000 0.000000 0.000000 0.000000 0.000000 0.026527
#
#
# Mechanical properties :
#
#
# Convention : Reuss Voigt Hill
#
# Bulk Modulus (GPa) = 43.33963 45.00402 44.17182
# Shear Modulus (GPa) = 3.57778 18.62170 11.09974
#
# Velocity S-wave (km/s) = 1.40647 3.20873 2.47731
# Velocity P-wave (km/s) = 5.15752 6.21375 5.71011
#
# Compressibility (1/GPa) = 0.02307357
#
# Stress axis : x y z
#
# Youngs Moduli (GPa) = 46.87289 61.20742 76.17505
#
# Poissons Ratio (x) = 0.55741 0.11704
# Poissons Ratio (y) = 0.42686 0.24527
# Poissons Ratio (z) = 0.07202 0.19708
#
# Static dielectric constant tensor:
#      x y z
#    x 3.151630 0.000000 0.000000 
#    y 0.000000 3.337130 0.000000 
#    z 0.000000 0.000000 3.128440 
# 
# 
# High freq. dielectric constant tensor:
#      x y z
#    x 1.690280 0.000000 0.000000 
#    y 0.000000 1.700890 0.000000 
#    z 0.000000 0.000000 1.666340 
# 
# From -- ./inp_files/22445.got.cif
#   From: 2010.03.12/outbox.cif.g09.slc.cpg/sg49_12_cif.got.tgz:22445.got - 2010.04.14 03:58:27.
