data_PCOD8202607
_publ_section_title
;
Structure prediction by ZEFSAII (Michael W. Deem and Ramdas Pophale) SiO2 
 PCOD8202607
Probable space group: P C C M
;
_chemical_formula_sum "Si O2"
_cell_formula_units_Z 56
_cell_length_a 18.933765
_cell_length_b 18.571236
_cell_length_c 8.989599
_cell_angle_alpha 90.000000
_cell_angle_beta 90.000000
_cell_angle_gamma 90.000000
_cell_volume 3160.953528
_symmetry_space_group_name_H-M "P C C M"
_symmetry_group_IT_number 49
_symmetry_cell_setting 'orthorhombic'
loop_
_space_group_symop_operation_xyz
x,y,z
-x,-y,z
x,-y,1/2-z
-x,y,1/2-z
-x,-y,-z
x,y,-z
-x,y,1/2+z
x,-y,1/2+z
loop_
_atom_site_type_symbol
_atom_site_label
_atom_site_fract_x
_atom_site_fract_y
_atom_site_fract_z
Si Si1 0.292777 0.927782 0.174085
Si Si2 0.840314 0.426342 0.823924
Si Si3 0.427941 0.861076 0.323010
Si Si4 0.211835 0.785705 0.170364
Si Si5 0.927868 0.288815 0.829339
Si Si6 0.278946 0.345019 0.173683
Si Si7 0.569003 0.303508 0.672157
O O1 0.365066 0.907085 0.254378
O O2 0.232623 0.867801 0.201120
O O3 0.263141 0.000000 0.250000
O O4 0.307151 0.939512 0.000000
O O5 0.866609 0.500000 0.750000
O O6 0.894592 0.364244 0.772571
O O7 0.762133 0.406082 0.765651
O O8 0.837134 0.434975 0.000000
O O9 0.500000 0.890427 0.250000
O O10 0.429743 0.871222 0.500000
O O11 0.416933 0.778157 0.273993
O O12 0.128216 0.775220 0.200286
O O13 0.255751 0.734974 0.279819
O O14 0.228848 0.762619 0.000000
O O15 0.000000 0.268954 0.750000
O O16 0.946891 0.296928 0.000000
O O17 0.362478 0.352108 0.208283
O O18 0.262987 0.355367 0.000000
O O19 0.500000 0.337169 0.750000
O O20 0.551875 0.302740 0.500000
#
# Coordination Sequence:
#
# PCOD8202607 Si02
#       7
#     8   8   8   8   8   8   8
#     4  11  22  35  52  73 100 136 174 218 266 311
#     4  10  21  36  53  78 110 143 174 206 246 297
#     4  10  19  33  49  71 101 134 173 215 262 314
#     4   9  19  35  53  74 102 134 170 211 254 304
#     4   9  19  35  55  81 108 135 168 203 246 298
#     4  10  18  31  52  77 102 133 173 215 256 302
#     4   9  18  29  46  72 100 130 168 214 259 305
#
# _framework density 17.716173999999999
#
# number of rings (size 3 to 8) (size 9 to 14) (size 15 to 20)
#    0.000    2.286    1.429    2.571    0.000    5.714 
#    0.000    2.857    0.000    0.857    0.000    6.000 
#    0.000    0.000    0.000    0.000    0.000    0.000 
#
# Total GULP energy -694401.693533 kJ/mol
# GULP energy per Si atom -12400.030242 kJ/mol
# Density = 1.767585 g / cm^3
# Si number density = 17.716174 Si / 1000 Ang^3
#
#
#
# Elastic Constant Matrix: (Units=GPa)
#
#
# Indices 1 2 3 4 5 6 
#
# 1 115.8174 42.9651 43.3252 0.0000 0.0000 0.0000
# 2 42.9651 72.0138 29.6220 0.0000 0.0000 0.0000
# 3 43.3252 29.6220 71.1797 0.0000 0.0000 0.0000
# 4 0.0000 0.0000 0.0000 25.6825 0.0000 0.0000
# 5 0.0000 0.0000 0.0000 0.0000 32.4755 0.0000
# 6 0.0000 0.0000 0.0000 0.0000 0.0000 17.3553
#
#
#
# Elastic Compliance Matrix: (Units=1/GPa)
#
#
# Indices 1 2 3 4 5 6 
#
# 1 0.012653 -0.005286 -0.005502 0.000000 0.000000 0.000000
# 2 -0.005286 0.018963 -0.004674 0.000000 0.000000 0.000000
# 3 -0.005502 -0.004674 0.019343 0.000000 0.000000 0.000000
# 4 0.000000 0.000000 0.000000 0.038937 0.000000 0.000000
# 5 0.000000 0.000000 0.000000 0.000000 0.030792 0.000000
# 6 0.000000 0.000000 0.000000 0.000000 0.000000 0.057619
#
#
# Mechanical properties :
#
#
# Convention : Reuss Voigt Hill
#
# Bulk Modulus (GPa) = 49.91274 54.53730 52.22502
# Shear Modulus (GPa) = 23.15775 24.64255 23.90015
#
# Velocity S-wave (km/s) = 3.61938 3.73361 3.67694
# Velocity P-wave (km/s) = 6.76027 7.03116 6.89704
#
# Compressibility (1/GPa) = 0.02003496
#
# Stress axis : x y z
#
# Youngs Moduli (GPa) = 79.02954 52.73522 51.69853
#
# Poissons Ratio (x) = 0.27877 0.28444
# Poissons Ratio (y) = 0.41777 0.24163
# Poissons Ratio (z) = 0.43482 0.24648
#
# Static dielectric constant tensor:
#      x y z
#    x 3.294760 0.000000 0.000000 
#    y 0.000000 3.159590 0.000000 
#    z 0.000000 0.000000 3.326650 
# 
# 
# High freq. dielectric constant tensor:
#      x y z
#    x 1.680330 0.000000 0.000000 
#    y 0.000000 1.659410 0.000000 
#    z 0.000000 0.000000 1.694630 
# 
# From -- ./inp_files/5163.got.cif
#   From: 2010.03.12/outbox.cif.g09.slc.cpg/sg49_3_cif.got.tgz:5163.got - 2010.04.14 03:58:27.
