data_PCOD8202240
_publ_section_title
;
Structure prediction by ZEFSAII (Michael W. Deem and Ramdas Pophale) SiO2 
 PCOD8202240
Probable space group: P C C M
;
_chemical_formula_sum "Si O2"
_cell_formula_units_Z 56
_cell_length_a 5.215773
_cell_length_b 21.765225
_cell_length_c 27.455625
_cell_angle_alpha 90.000000
_cell_angle_beta 90.000000
_cell_angle_gamma 90.000000
_cell_volume 3116.830445
_symmetry_space_group_name_H-M "P C C M"
_symmetry_group_IT_number 49
_symmetry_cell_setting 'orthorhombic'
loop_
_space_group_symop_operation_xyz
x,y,z
-x,-y,z
x,-y,1/2-z
-x,y,1/2-z
-x,-y,-z
x,y,-z
-x,y,1/2+z
x,-y,1/2+z
loop_
_atom_site_type_symbol
_atom_site_label
_atom_site_fract_x
_atom_site_fract_y
_atom_site_fract_z
Si Si1 0.268876 0.871463 0.583738
Si Si2 0.591897 0.258181 0.444533
Si Si3 0.767622 0.065107 0.053241
Si Si4 0.996903 0.427308 0.138206
Si Si5 0.497643 0.427122 0.695547
Si Si6 0.898316 0.335746 0.055233
Si Si7 0.751656 0.977376 0.852921
O O1 0.333026 0.799585 0.589566
O O2 0.498357 0.900129 0.552776
O O3 0.260834 0.904392 0.637421
O O4 0.991439 0.883726 0.559889
O O5 0.548536 0.235216 0.500000
O O6 0.335138 0.292593 0.425337
O O7 0.831923 0.302520 0.441757
O O8 0.769636 0.011970 0.094042
O O9 0.798746 0.034071 0.000000
O O10 0.261675 0.404250 0.163004
O O11 0.000000 0.500000 0.129883
O O12 0.768396 0.404963 0.172903
O O13 0.936957 0.397168 0.086303
O O14 0.500000 0.500000 0.698434
O O15 0.500000 0.399178 0.750000
O O16 0.832570 0.355689 0.000000
O O17 0.500000 0.000000 0.824176
O O18 0.000000 0.000000 0.822408
#
# Coordination Sequence:
#
# PCOD8202240 Si02
#       7
#     8   8   8   8   8   8   8
#     4  10  18  26  36  48  63  89 124 162 216 272
#     4  10  19  30  42  54  73 104 143 189 230 257
#     4  10  17  23  32  47  65  83 110 155 212 270
#     4  10  19  32  51  71  92 120 146 173 220 268
#     4   9  17  30  50  77 102 117 133 162 207 270
#     4  10  21  34  45  61  85 114 154 196 223 248
#     4   8  16  24  31  45  64  83 108 151 209 267
#
# _framework density 17.96697
#
# number of rings (size 3 to 8) (size 9 to 14) (size 15 to 20)
#    0.000    2.429    0.000    3.429    0.000    8.857 
#    0.000    0.000    0.000    5.143    0.000    0.000 
#    0.000    0.000    0.000    0.000    0.000    0.000 
#
# Total GULP energy -693809.438294 kJ/mol
# GULP energy per Si atom -12389.454255 kJ/mol
# Density = 1.792608 g / cm^3
# Si number density = 17.966970 Si / 1000 Ang^3
#
#
#
# Elastic Constant Matrix: (Units=GPa)
#
#
# Indices 1 2 3 4 5 6 
#
# 1 145.6670 26.0805 20.6105 0.0000 0.0000 0.0000
# 2 26.0805 67.4320 31.3595 0.0000 0.0000 0.0000
# 3 20.6105 31.3595 44.8743 0.0000 0.0000 0.0000
# 4 0.0000 0.0000 0.0000 1.2477 0.0000 0.0000
# 5 0.0000 0.0000 0.0000 0.0000 10.0211 0.0000
# 6 0.0000 0.0000 0.0000 0.0000 0.0000 21.9624
#
#
#
# Elastic Compliance Matrix: (Units=1/GPa)
#
#
# Indices 1 2 3 4 5 6 
#
# 1 0.007507 -0.001926 -0.002102 0.000000 0.000000 0.000000
# 2 -0.001926 0.022464 -0.014814 0.000000 0.000000 0.000000
# 3 -0.002102 -0.014814 0.033602 0.000000 0.000000 0.000000
# 4 0.000000 0.000000 0.000000 0.801444 0.000000 0.000000
# 5 0.000000 0.000000 0.000000 0.000000 0.099790 0.000000
# 6 0.000000 0.000000 0.000000 0.000000 0.000000 0.045532
#
#
# Mechanical properties :
#
#
# Convention : Reuss Voigt Hill
#
# Bulk Modulus (GPa) = 38.62553 46.00824 42.31689
# Shear Modulus (GPa) = 4.73192 18.64110 11.68651
#
# Velocity S-wave (km/s) = 1.62462 3.22455 2.55315
# Velocity P-wave (km/s) = 5.00639 6.28700 5.68288
#
# Compressibility (1/GPa) = 0.02588961
#
# Stress axis : x y z
#
# Youngs Moduli (GPa) = 133.20495 44.51593 29.75985
#
# Poissons Ratio (x) = 0.08574 0.06256
# Poissons Ratio (y) = 0.25655 0.44086
# Poissons Ratio (z) = 0.28001 0.65945
#
# Static dielectric constant tensor:
#      x y z
#    x 4.596380 0.000000 0.000000 
#    y 0.000000 3.141980 0.000000 
#    z 0.000000 0.000000 2.847430 
# 
# 
# High freq. dielectric constant tensor:
#      x y z
#    x 1.737150 0.000000 0.000000 
#    y 0.000000 1.667270 0.000000 
#    z 0.000000 0.000000 1.629790 
# 
# From -- ./inp_files/21889.got.cif
#   From: 2010.03.12/outbox.cif.g09.slc.cpg/sg49_11_cif.got.tgz:21889.got - 2010.04.14 03:58:27.
