data_PCOD8202542
_publ_section_title
;
Structure prediction by ZEFSAII (Michael W. Deem and Ramdas Pophale) SiO2 
 PCOD8202542
Probable space group: P C C M
;
_chemical_formula_sum "Si O2"
_cell_formula_units_Z 64
_cell_length_a 17.906201
_cell_length_b 22.415657
_cell_length_c 8.964852
_cell_angle_alpha 90.000000
_cell_angle_beta 90.000000
_cell_angle_gamma 90.000000
_cell_volume 3598.305660
_symmetry_space_group_name_H-M "P C C M"
_symmetry_group_IT_number 49
_symmetry_cell_setting 'orthorhombic'
loop_
_space_group_symop_operation_xyz
x,y,z
-x,-y,z
x,-y,1/2-z
-x,y,1/2-z
-x,-y,-z
x,y,-z
-x,y,1/2+z
x,-y,1/2+z
loop_
_atom_site_type_symbol
_atom_site_label
_atom_site_fract_x
_atom_site_fract_y
_atom_site_fract_z
Si Si1 0.577038 0.935181 0.180140
Si Si2 0.893885 0.443625 0.837121
Si Si3 0.794837 0.766076 0.167991
Si Si4 0.431096 0.747663 0.163515
Si Si5 0.719270 0.444543 0.836587
Si Si6 0.690147 0.848535 0.668028
Si Si7 0.668511 0.331652 0.664495
Si Si8 0.922690 0.689455 0.679193
O O1 0.500000 0.908255 0.250000
O O2 0.649294 0.897577 0.229715
O O3 0.588651 0.000000 0.250000
O O4 0.571295 0.937019 0.000000
O O5 0.929885 0.500000 0.750000
O O6 0.806653 0.455165 0.852027
O O7 0.908987 0.378698 0.762525
O O8 0.931353 0.443304 0.000000
O O9 0.766992 0.826507 0.252545
O O10 0.724916 0.722861 0.155529
O O11 0.859768 0.734313 0.261544
O O12 0.822661 0.782046 0.000000
O O13 0.500000 0.777951 0.250000
O O14 0.363610 0.792702 0.152705
O O15 0.406253 0.688010 0.250133
O O16 0.458438 0.728908 0.000000
O O17 0.681922 0.500000 0.750000
O O18 0.708412 0.384108 0.749943
O O19 0.682385 0.440195 0.000000
O O20 0.707445 0.872936 0.500000
O O21 0.646142 0.353475 0.500000
O O22 0.923013 0.692408 0.500000
O O23 0.000000 0.711985 0.750000
#
# Coordination Sequence:
#
# PCOD8202542 Si02
#       8
#     8   8   8   8   8   8   8   8
#     4  11  21  34  52  77 112 152 191 225 259 301
#     4   9  19  32  48  67  92 123 158 200 247 303
#     4  10  20  34  52  74  98 128 167 210 253 302
#     4  10  20  32  48  70  97 127 160 200 244 290
#     4  10  18  30  47  68  90 115 150 192 240 292
#     4  10  20  34  53  76 104 139 175 215 255 294
#     4  10  19  31  49  70  92 119 153 195 243 293
#     4  11  22  36  51  71  98 132 167 208 259 314
#
# _framework density 17.786149000000002
#
# number of rings (size 3 to 8) (size 9 to 14) (size 15 to 20)
#    0.000    1.875    1.250    4.125    0.000    5.250 
#    0.000    1.250    0.000    0.375    0.000    2.625 
#    0.000    0.500    0.000    5.000    0.000    3.000 
#
# Total GULP energy -793266.441319 kJ/mol
# GULP energy per Si atom -12394.788146 kJ/mol
# Density = 1.774567 g / cm^3
# Si number density = 17.786149 Si / 1000 Ang^3
#
#
#
# Elastic Constant Matrix: (Units=GPa)
#
#
# Indices 1 2 3 4 5 6 
#
# 1 60.4811 28.0161 37.4090 0.0000 0.0000 0.0000
# 2 28.0161 62.4891 41.4166 0.0000 0.0000 0.0000
# 3 37.4090 41.4166 160.3474 0.0000 0.0000 0.0000
# 4 0.0000 0.0000 0.0000 18.8339 0.0000 0.0000
# 5 0.0000 0.0000 0.0000 0.0000 15.8082 0.0000
# 6 0.0000 0.0000 0.0000 0.0000 0.0000 6.3880
#
#
#
# Elastic Compliance Matrix: (Units=1/GPa)
#
#
# Indices 1 2 3 4 5 6 
#
# 1 0.022100 -0.007832 -0.003133 0.000000 0.000000 0.000000
# 2 -0.007832 0.022084 -0.003877 0.000000 0.000000 0.000000
# 3 -0.003133 -0.003877 0.007969 0.000000 0.000000 0.000000
# 4 0.000000 0.000000 0.000000 0.053096 0.000000 0.000000
# 5 0.000000 0.000000 0.000000 0.000000 0.063258 0.000000
# 6 0.000000 0.000000 0.000000 0.000000 0.000000 0.156543
#
#
# Mechanical properties :
#
#
# Convention : Reuss Voigt Hill
#
# Bulk Modulus (GPa) = 44.50582 55.22232 49.86407
# Shear Modulus (GPa) = 13.80369 19.97108 16.88738
#
# Velocity S-wave (km/s) = 2.78886 3.35452 3.08469
# Velocity P-wave (km/s) = 5.95377 6.79110 6.38618
#
# Compressibility (1/GPa) = 0.02246897
#
# Stress axis : x y z
#
# Youngs Moduli (GPa) = 45.24956 45.28267 125.48996
#
# Poissons Ratio (x) = 0.35463 0.39316
# Poissons Ratio (y) = 0.35437 0.48651
# Poissons Ratio (z) = 0.14177 0.17556
#
# Static dielectric constant tensor:
#      x y z
#    x 3.071900 0.000000 0.000000 
#    y 0.000000 3.128930 0.000000 
#    z 0.000000 0.000000 3.820240 
# 
# 
# High freq. dielectric constant tensor:
#      x y z
#    x 1.656970 0.000000 0.000000 
#    y 0.000000 1.660140 0.000000 
#    z 0.000000 0.000000 1.712430 
# 
# From -- ./inp_files/5337.got.cif
#   From: 2010.03.12/outbox.cif.g09.slc.cpg/sg49_3_cif.got.tgz:5337.got - 2010.04.14 03:58:27.
