data_PCOD8202865
_publ_section_title
;
Structure prediction by ZEFSAII (Michael W. Deem and Ramdas Pophale) SiO2 
 PCOD8202865
Probable space group: P C C M
;
_chemical_formula_sum "Si O2"
_cell_formula_units_Z 64
_cell_length_a 24.925276
_cell_length_b 15.073536
_cell_length_c 8.822044
_cell_angle_alpha 90.000000
_cell_angle_beta 90.000000
_cell_angle_gamma 90.000000
_cell_volume 3314.548193
_symmetry_space_group_name_H-M "P C C M"
_symmetry_group_IT_number 49
_symmetry_cell_setting 'orthorhombic'
loop_
_space_group_symop_operation_xyz
x,y,z
-x,-y,z
x,-y,1/2-z
-x,y,1/2-z
-x,-y,-z
x,y,-z
-x,y,1/2+z
x,-y,1/2+z
loop_
_atom_site_type_symbol
_atom_site_label
_atom_site_fract_x
_atom_site_fract_y
_atom_site_fract_z
Si Si1 0.215345 0.128975 0.327614
Si Si2 0.653791 0.282545 0.677830
Si Si3 0.055612 0.276679 0.680086
Si Si4 0.903325 0.911714 0.322051
Si Si5 0.760910 0.667760 0.672387
Si Si6 0.139557 0.591467 0.320352
Si Si7 0.322696 0.912613 0.676334
Si Si8 0.556339 0.407352 0.678587
O O1 0.226985 0.098301 0.500000
O O2 0.158101 0.096668 0.266145
O O3 0.214822 0.234594 0.318360
O O4 0.259872 0.087788 0.218007
O O5 0.666857 0.285482 0.500000
O O6 0.700665 0.334962 0.763625
O O7 0.650425 0.179691 0.733682
O O8 0.598216 0.330029 0.718195
O O9 0.056134 0.289570 0.500000
O O10 0.062968 0.174048 0.728400
O O11 0.104247 0.330353 0.751419
O O12 0.000000 0.311508 0.750000
O O13 0.904675 0.921327 0.500000
O O14 0.929332 0.000000 0.250000
O O15 0.760301 0.632586 0.500000
O O16 0.798442 0.604448 0.772801
O O17 0.118020 0.500000 0.250000
O O18 0.134003 0.589660 0.500000
O O19 0.330397 0.922672 0.500000
O O20 0.350303 0.000000 0.750000
O O21 0.576206 0.500000 0.750000
O O22 0.500000 0.377777 0.750000
O O23 0.549632 0.420523 0.500000
#
# Coordination Sequence:
#
# PCOD8202865 Si02
#       8
#     8   8   8   8   8   8   8   8
#     4   9  17  32  52  77 109 148 184 225 274 326
#     4   9  20  36  54  81 117 156 194 234 282 341
#     4  11  24  45  65  86 114 146 187 238 287 339
#     4  10  21  36  56  82 115 147 185 230 277 335
#     4  10  19  35  58  85 119 152 187 231 279 335
#     4  12  25  42  65  90 116 150 187 230 285 344
#     4  10  19  31  48  75 110 149 190 233 277 328
#     4  10  20  36  58  83 113 147 190 239 287 339
#
# _framework density 19.308816
#
# number of rings (size 3 to 8) (size 9 to 14) (size 15 to 20)
#    0.000    1.875    1.250    3.375    0.000    5.500 
#    0.000    3.750    0.000    0.375    0.000    2.625 
#    0.000    0.000    0.000    0.000    0.000    0.000 
#
# Total GULP energy -793704.074444 kJ/mol
# GULP energy per Si atom -12401.626163 kJ/mol
# Density = 1.926487 g / cm^3
# Si number density = 19.308816 Si / 1000 Ang^3
#
#
#
# Elastic Constant Matrix: (Units=GPa)
#
#
# Indices 1 2 3 4 5 6 
#
# 1 92.3922 49.9321 44.5964 0.0000 0.0000 0.0000
# 2 49.9321 98.0835 50.4324 0.0000 0.0000 0.0000
# 3 44.5964 50.4324 95.7165 0.0000 0.0000 0.0000
# 4 0.0000 0.0000 0.0000 33.2568 0.0000 0.0000
# 5 0.0000 0.0000 0.0000 0.0000 22.6324 0.0000
# 6 0.0000 0.0000 0.0000 0.0000 0.0000 13.4268
#
#
#
# Elastic Compliance Matrix: (Units=1/GPa)
#
#
# Indices 1 2 3 4 5 6 
#
# 1 0.016170 -0.005977 -0.004385 0.000000 0.000000 0.000000
# 2 -0.005977 0.016193 -0.005747 0.000000 0.000000 0.000000
# 3 -0.004385 -0.005747 0.015519 0.000000 0.000000 0.000000
# 4 0.000000 0.000000 0.000000 0.030069 0.000000 0.000000
# 5 0.000000 0.000000 0.000000 0.000000 0.044184 0.000000
# 6 0.000000 0.000000 0.000000 0.000000 0.000000 0.074478
#
#
# Mechanical properties :
#
#
# Convention : Reuss Voigt Hill
#
# Bulk Modulus (GPa) = 63.84156 64.01267 63.92712
# Shear Modulus (GPa) = 21.36266 23.27862 22.32064
#
# Velocity S-wave (km/s) = 3.32982 3.47594 3.40366
# Velocity P-wave (km/s) = 6.92234 7.02378 6.97325
#
# Compressibility (1/GPa) = 0.01566378
#
# Stress axis : x y z
#
# Youngs Moduli (GPa) = 61.84209 61.75328 64.43894
#
# Poissons Ratio (x) = 0.36913 0.28254
# Poissons Ratio (y) = 0.36966 0.37035
# Poissons Ratio (z) = 0.27115 0.35491
#
# Static dielectric constant tensor:
#      x y z
#    x 3.345970 0.000000 0.000000 
#    y 0.000000 3.762640 0.000000 
#    z 0.000000 0.000000 3.525710 
# 
# 
# High freq. dielectric constant tensor:
#      x y z
#    x 1.728480 0.000000 0.000000 
#    y 0.000000 1.759750 0.000000 
#    z 0.000000 0.000000 1.755960 
# 
# From -- ./inp_files/6570.got.cif
#   From: 2010.03.12/outbox.cif.g09.slc.cpg/sg49_4_cif.got.tgz:6570.got - 2010.04.14 03:58:27.
