data_PCOD8202944
_publ_section_title
;
Structure prediction by ZEFSAII (Michael W. Deem and Ramdas Pophale) SiO2 
 PCOD8202944
Probable space group: P C C M
;
_chemical_formula_sum "Si O2"
_cell_formula_units_Z 48
_cell_length_a 24.407206
_cell_length_b 13.726594
_cell_length_c 8.661616
_cell_angle_alpha 90.000000
_cell_angle_beta 90.000000
_cell_angle_gamma 90.000000
_cell_volume 2901.882217
_symmetry_space_group_name_H-M "P C C M"
_symmetry_group_IT_number 49
_symmetry_cell_setting 'orthorhombic'
loop_
_space_group_symop_operation_xyz
x,y,z
-x,-y,z
x,-y,1/2-z
-x,y,1/2-z
-x,-y,-z
x,y,-z
-x,y,1/2+z
x,-y,1/2+z
loop_
_atom_site_type_symbol
_atom_site_label
_atom_site_fract_x
_atom_site_fract_y
_atom_site_fract_z
Si Si1 0.159609 0.102870 0.183649
Si Si2 0.887304 0.395216 0.316767
Si Si3 0.327402 0.393282 0.182243
Si Si4 0.942010 0.210248 0.816487
Si Si5 0.446882 0.392995 0.180561
Si Si6 0.221253 0.709643 0.317863
O O1 0.101592 0.131821 0.255968
O O2 0.205332 0.181727 0.237200
O O3 0.179293 0.000000 0.250000
O O4 0.153635 0.099730 0.000000
O O5 0.902228 0.500000 0.250000
O O6 0.893903 0.394342 0.500000
O O7 0.929439 0.318164 0.245863
O O8 0.825733 0.366109 0.265020
O O9 0.319897 0.500000 0.250000
O O10 0.387367 0.346809 0.223125
O O11 0.279973 0.323234 0.251944
O O12 0.321281 0.403811 0.000000
O O13 0.000000 0.176011 0.750000
O O14 0.942583 0.210513 0.000000
O O15 0.446642 0.500000 0.250000
O O16 0.500000 0.335154 0.250000
O O17 0.455145 0.399024 0.000000
O O18 0.225193 0.709010 0.500000
#
# Coordination Sequence:
#
# PCOD8202944 Si02
#       6
#     8   8   8   8   8   8
#     4  10  20  36  55  74  94 117 143 178 224 274
#     4  10  19  32  49  70  95 125 155 186 223 265
#     4   9  16  26  40  61  87 120 154 185 218 256
#     4  11  22  37  54  73  95 119 149 185 222 265
#     4   9  15  22  34  51  78 114 153 187 218 251
#     4   8  16  30  47  66  91 117 147 184 222 265
#
# _framework density 16.540987999999999
#
# number of rings (size 3 to 8) (size 9 to 14) (size 15 to 20)
#    0.000    2.500    0.000    5.000    0.000    1.333 
#    0.000    7.500    0.000    0.000    0.000    0.000 
#    0.000    0.667    0.000    8.333    0.000    0.000 
#
# Total GULP energy -594871.767379 kJ/mol
# GULP energy per Si atom -12393.161820 kJ/mol
# Density = 1.650334 g / cm^3
# Si number density = 16.540988 Si / 1000 Ang^3
#
#
#
# Elastic Constant Matrix: (Units=GPa)
#
#
# Indices 1 2 3 4 5 6 
#
# 1 140.5760 38.3302 34.8346 0.0000 0.0000 0.0000
# 2 38.3302 82.5256 23.0805 0.0000 0.0000 0.0000
# 3 34.8346 23.0805 79.1333 0.0000 0.0000 0.0000
# 4 0.0000 0.0000 0.0000 22.8128 0.0000 0.0000
# 5 0.0000 0.0000 0.0000 0.0000 -37.5198 0.0000
# 6 0.0000 0.0000 0.0000 0.0000 0.0000 15.6575
#
#
#
# Elastic Compliance Matrix: (Units=1/GPa)
#
#
# Indices 1 2 3 4 5 6 
#
# 1 0.008713 -0.003238 -0.002891 0.000000 0.000000 0.000000
# 2 -0.003238 0.014397 -0.002774 0.000000 0.000000 0.000000
# 3 -0.002891 -0.002774 0.014718 0.000000 0.000000 0.000000
# 4 0.000000 0.000000 0.000000 0.043835 0.000000 0.000000
# 5 0.000000 0.000000 0.000000 0.000000 -0.026653 0.000000
# 6 0.000000 0.000000 0.000000 0.000000 0.000000 0.063867
#
#
# Mechanical properties :
#
#
# Convention : Reuss Voigt Hill
#
# Bulk Modulus (GPa) = 49.94303 54.96951 52.45627
# Shear Modulus (GPa) = 34.87764 13.92275 24.40019
#
# Velocity S-wave (km/s) = 4.59689 2.90437 3.84492
# Velocity P-wave (km/s) = 7.64423 6.67470 7.17586
#
# Compressibility (1/GPa) = 0.02002281
#
# Stress axis : x y z
#
# Youngs Moduli (GPa) = 114.77178 69.45757 67.94173
#
# Poissons Ratio (x) = 0.22493 0.19642
# Poissons Ratio (y) = 0.37167 0.18845
# Poissons Ratio (z) = 0.33180 0.19265
#
# Static dielectric constant tensor:
#      x y z
#    x 3.957810 0.000000 0.000000 
#    y 0.000000 2.875850 0.000000 
#    z 0.000000 0.000000 3.099550 
# 
# 
# High freq. dielectric constant tensor:
#      x y z
#    x 1.644460 0.000000 0.000000 
#    y 0.000000 1.598290 0.000000 
#    z 0.000000 0.000000 1.639570 
# 
# From -- ./inp_files/4159.got.cif
#   From: 2010.03.12/outbox.cif.g09.slc.cpg/sg49_3_cif.got.tgz:4159.got - 2010.04.14 03:58:27.
