data_PCOD8202500
_publ_section_title
;
Structure prediction by ZEFSAII (Michael W. Deem and Ramdas Pophale) SiO2 
 PCOD8202500
Probable space group: P C C M
;
_chemical_formula_sum "Si O2"
_cell_formula_units_Z 64
_cell_length_a 18.936004
_cell_length_b 23.576698
_cell_length_c 8.828407
_cell_angle_alpha 90.000000
_cell_angle_beta 90.000000
_cell_angle_gamma 90.000000
_cell_volume 3941.428600
_symmetry_space_group_name_H-M "P C C M"
_symmetry_group_IT_number 49
_symmetry_cell_setting 'orthorhombic'
loop_
_space_group_symop_operation_xyz
x,y,z
-x,-y,z
x,-y,1/2-z
-x,y,1/2-z
-x,-y,-z
x,y,-z
-x,y,1/2+z
x,-y,1/2+z
loop_
_atom_site_type_symbol
_atom_site_label
_atom_site_fract_x
_atom_site_fract_y
_atom_site_fract_z
Si Si1 0.428991 0.752929 0.677353
Si Si2 0.851045 0.672324 0.324123
Si Si3 0.924548 0.775668 0.820338
Si Si4 0.201589 0.160218 0.321708
Si Si5 0.428914 0.882425 0.678345
Si Si6 0.709948 0.270329 0.173993
Si Si7 0.074725 0.442185 0.677301
Si Si8 0.285103 0.060728 0.819839
O O1 0.500000 0.726817 0.750000
O O2 0.436798 0.748330 0.500000
O O3 0.419238 0.817693 0.733705
O O4 0.360191 0.717770 0.728823
O O5 0.864733 0.688177 0.500000
O O6 0.900612 0.712288 0.223884
O O7 0.768687 0.682355 0.284568
O O8 0.869186 0.607253 0.288586
O O9 0.872243 0.822513 0.752523
O O10 0.000000 0.788855 0.750000
O O11 0.927321 0.780805 0.000000
O O12 0.191210 0.151577 0.500000
O O13 0.258965 0.208660 0.286198
O O14 0.225842 0.102420 0.244163
O O15 0.500000 0.908741 0.750000
O O16 0.436462 0.885187 0.500000
O O17 0.362303 0.918661 0.735169
O O18 0.687864 0.274115 0.000000
O O19 0.104729 0.500000 0.750000
O O20 0.063329 0.451415 0.500000
O O21 0.000000 0.425490 0.750000
O O22 0.269445 0.000000 0.750000
O O23 0.280059 0.058885 0.000000
#
# Coordination Sequence:
#
# PCOD8202500 Si02
#       8
#     8   8   8   8   8   8   8   8
#     4  10  18  29  45  67  93 124 158 192 233 284
#     4   9  19  33  48  71 101 132 166 204 243 284
#     4  11  21  33  52  76 101 127 156 195 238 286
#     4  10  20  35  53  72  95 123 154 192 239 289
#     4   9  19  32  47  66  92 121 156 194 232 279
#     4   9  17  30  48  69  94 123 155 194 241 285
#     4  10  19  31  47  67  97 135 175 210 241 280
#     4  11  22  36  51  71  94 122 158 197 237 284
#
# _framework density 16.237767999999999
#
# number of rings (size 3 to 8) (size 9 to 14) (size 15 to 20)
#    0.000    2.125    1.250    4.125    0.000    5.750 
#    0.000    1.250    0.000    0.375    0.000    2.625 
#    0.000    0.500    0.000    5.750    0.000    1.750 
#
# Total GULP energy -793715.502834 kJ/mol
# GULP energy per Si atom -12401.804732 kJ/mol
# Density = 1.620081 g / cm^3
# Si number density = 16.237768 Si / 1000 Ang^3
#
#
#
# Elastic Constant Matrix: (Units=GPa)
#
#
# Indices 1 2 3 4 5 6 
#
# 1 134.0800 60.6372 59.9749 0.0000 0.0000 0.0000
# 2 60.6372 95.5760 39.2867 0.0000 0.0000 0.0000
# 3 59.9749 39.2867 88.5067 0.0000 0.0000 0.0000
# 4 0.0000 0.0000 0.0000 17.7803 0.0000 0.0000
# 5 0.0000 0.0000 0.0000 0.0000 30.6290 0.0000
# 6 0.0000 0.0000 0.0000 0.0000 0.0000 24.6671
#
#
#
# Elastic Compliance Matrix: (Units=1/GPa)
#
#
# Indices 1 2 3 4 5 6 
#
# 1 0.012718 -0.005536 -0.006160 0.000000 0.000000 0.000000
# 2 -0.005536 0.015208 -0.002999 0.000000 0.000000 0.000000
# 3 -0.006160 -0.002999 0.016804 0.000000 0.000000 0.000000
# 4 0.000000 0.000000 0.000000 0.056242 0.000000 0.000000
# 5 0.000000 0.000000 0.000000 0.000000 0.032649 0.000000
# 6 0.000000 0.000000 0.000000 0.000000 0.000000 0.040540
#
#
# Mechanical properties :
#
#
# Convention : Reuss Voigt Hill
#
# Bulk Modulus (GPa) = 65.19539 70.88447 68.03993
# Shear Modulus (GPa) = 23.96189 25.16622 24.56405
#
# Velocity S-wave (km/s) = 3.84564 3.94109 3.89366
# Velocity P-wave (km/s) = 7.74314 8.02860 7.88716
#
# Compressibility (1/GPa) = 0.01533851
#
# Stress axis : x y z
#
# Youngs Moduli (GPa) = 78.63139 65.75444 59.50876
#
# Poissons Ratio (x) = 0.36404 0.36659
# Poissons Ratio (y) = 0.43533 0.17847
# Poissons Ratio (z) = 0.48440 0.19720
#
# Static dielectric constant tensor:
#      x y z
#    x 3.143040 0.000000 0.000000 
#    y 0.000000 2.883130 0.000000 
#    z 0.000000 0.000000 3.105320 
# 
# 
# High freq. dielectric constant tensor:
#      x y z
#    x 1.623970 0.000000 0.000000 
#    y 0.000000 1.590270 0.000000 
#    z 0.000000 0.000000 1.636770 
# 
# From -- ./inp_files/5427.got.cif
#   From: 2010.03.12/outbox.cif.g09.slc.cpg/sg49_3_cif.got.tgz:5427.got - 2010.04.14 03:58:27.
