data_PCOD8202594
_publ_section_title
;
Structure prediction by ZEFSAII (Michael W. Deem and Ramdas Pophale) SiO2 
 PCOD8202594
Probable space group: P C C M
;
_chemical_formula_sum "Si O2"
_cell_formula_units_Z 64
_cell_length_a 20.439254
_cell_length_b 19.699394
_cell_length_c 8.900941
_cell_angle_alpha 90.000000
_cell_angle_beta 90.000000
_cell_angle_gamma 90.000000
_cell_volume 3583.883052
_symmetry_space_group_name_H-M "P C C M"
_symmetry_group_IT_number 49
_symmetry_cell_setting 'orthorhombic'
loop_
_space_group_symop_operation_xyz
x,y,z
-x,-y,z
x,-y,1/2-z
-x,y,1/2-z
-x,-y,-z
x,y,-z
-x,y,1/2+z
x,-y,1/2+z
loop_
_atom_site_type_symbol
_atom_site_label
_atom_site_fract_x
_atom_site_fract_y
_atom_site_fract_z
Si Si1 0.378943 0.201889 0.325766
Si Si2 0.307987 0.573464 0.179952
Si Si3 0.434376 0.344369 0.326665
Si Si4 0.614190 0.933965 0.167844
Si Si5 0.229718 0.935332 0.665589
Si Si6 0.815019 0.352604 0.324062
Si Si7 0.069867 0.428709 0.680491
Si Si8 0.242851 0.789778 0.674769
O O1 0.370851 0.185638 0.500000
O O2 0.427544 0.264198 0.294674
O O3 0.408802 0.135180 0.247821
O O4 0.308542 0.224879 0.265333
O O5 0.316115 0.500000 0.250000
O O6 0.371018 0.615953 0.233751
O O7 0.244797 0.607834 0.251189
O O8 0.300368 0.570725 0.000000
O O9 0.500000 0.372082 0.250000
O O10 0.441977 0.360251 0.500000
O O11 0.692152 0.937921 0.170001
O O12 0.584445 0.000000 0.250000
O O13 0.586272 0.933144 0.000000
O O14 0.201385 0.942738 0.500000
O O15 0.209658 0.860956 0.731325
O O16 0.199031 0.000000 0.750000
O O17 0.820647 0.371584 0.500000
O O18 0.880235 0.371148 0.233673
O O19 0.807006 0.271834 0.301542
O O20 0.094197 0.500000 0.750000
O O21 0.066078 0.433230 0.500000
O O22 0.000000 0.409559 0.750000
O O23 0.262611 0.798677 0.500000
#
# Coordination Sequence:
#
# PCOD8202594 Si02
#       8
#     8   8   8   8   8   8   8   8
#     4  10  18  31  49  71  98 128 164 211 259 310
#     4  11  23  40  57  80 105 132 169 214 264 319
#     4  10  23  39  56  75  99 129 169 215 266 322
#     4   9  16  26  42  67  95 127 163 202 249 305
#     4   8  14  24  37  60  93 129 166 203 244 294
#     4  11  21  35  56  82 110 144 179 218 263 309
#     4  11  22  38  58  81 111 146 183 221 259 309
#     4   9  18  30  47  71 101 136 174 212 256 308
#
# _framework density 17.857726
#
# number of rings (size 3 to 8) (size 9 to 14) (size 15 to 20)
#    0.000    2.125    1.250    4.125    0.000    5.750 
#    0.000    1.250    0.000    0.375    0.000    2.625 
#    0.000    0.500    0.000    5.750    0.000    1.875 
#
# Total GULP energy -793431.889780 kJ/mol
# GULP energy per Si atom -12397.373278 kJ/mol
# Density = 1.781708 g / cm^3
# Si number density = 17.857726 Si / 1000 Ang^3
#
#
#
# Elastic Constant Matrix: (Units=GPa)
#
#
# Indices 1 2 3 4 5 6 
#
# 1 69.1407 34.6318 37.4535 0.0000 0.0000 0.0000
# 2 34.6318 95.7269 53.5180 0.0000 0.0000 0.0000
# 3 37.4535 53.5180 109.9717 0.0000 0.0000 0.0000
# 4 0.0000 0.0000 0.0000 30.4696 0.0000 0.0000
# 5 0.0000 0.0000 0.0000 0.0000 23.5288 0.0000
# 6 0.0000 0.0000 0.0000 0.0000 0.0000 5.0707
#
#
#
# Elastic Compliance Matrix: (Units=1/GPa)
#
#
# Indices 1 2 3 4 5 6 
#
# 1 0.019039 -0.004482 -0.004303 0.000000 0.000000 0.000000
# 2 -0.004482 0.015406 -0.005971 0.000000 0.000000 0.000000
# 3 -0.004303 -0.005971 0.013464 0.000000 0.000000 0.000000
# 4 0.000000 0.000000 0.000000 0.032820 0.000000 0.000000
# 5 0.000000 0.000000 0.000000 0.000000 0.042501 0.000000
# 6 0.000000 0.000000 0.000000 0.000000 0.000000 0.197211
#
#
# Mechanical properties :
#
#
# Convention : Reuss Voigt Hill
#
# Bulk Modulus (GPa) = 54.35493 58.44954 56.40223
# Shear Modulus (GPa) = 14.04155 21.76290 17.90223
#
# Velocity S-wave (km/s) = 2.80715 3.49475 3.16965
# Velocity P-wave (km/s) = 6.40395 7.00615 6.71181
#
# Compressibility (1/GPa) = 0.01839760
#
# Stress axis : x y z
#
# Youngs Moduli (GPa) = 52.52283 64.90934 74.26962
#
# Poissons Ratio (x) = 0.29095 0.31958
# Poissons Ratio (y) = 0.23542 0.44345
# Poissons Ratio (z) = 0.22600 0.38756
#
# Static dielectric constant tensor:
#      x y z
#    x 2.930210 0.000000 0.000000 
#    y 0.000000 4.027300 0.000000 
#    z 0.000000 0.000000 3.472950 
# 
# 
# High freq. dielectric constant tensor:
#      x y z
#    x 1.642280 0.000000 0.000000 
#    y 0.000000 1.706150 0.000000 
#    z 0.000000 0.000000 1.701780 
# 
# From -- ./inp_files/6048.got.cif
#   From: 2010.03.12/outbox.cif.g09.slc.cpg/sg49_4_cif.got.tgz:6048.got - 2010.04.14 03:58:27.
