data_PCOD8202979
_publ_section_title
;
Structure prediction by ZEFSAII (Michael W. Deem and Ramdas Pophale) SiO2 
 PCOD8202979
Probable space group: P C C M
;
_chemical_formula_sum "Si O2"
_cell_formula_units_Z 64
_cell_length_a 20.085583
_cell_length_b 19.889393
_cell_length_c 8.786217
_cell_angle_alpha 90.000000
_cell_angle_beta 90.000000
_cell_angle_gamma 90.000000
_cell_volume 3510.006303
_symmetry_space_group_name_H-M "P C C M"
_symmetry_group_IT_number 49
_symmetry_cell_setting 'orthorhombic'
loop_
_space_group_symop_operation_xyz
x,y,z
-x,-y,z
x,-y,1/2-z
-x,y,1/2-z
-x,-y,-z
x,y,-z
-x,y,1/2+z
x,-y,1/2+z
loop_
_atom_site_type_symbol
_atom_site_label
_atom_site_fract_x
_atom_site_fract_y
_atom_site_fract_z
Si Si1 0.693208 0.840659 0.325422
Si Si2 0.763245 0.288422 0.174614
Si Si3 0.201647 0.932396 0.321155
Si Si4 0.794422 0.566167 0.677194
Si Si5 0.429673 0.070753 0.679711
Si Si6 0.932592 0.116327 0.178942
Si Si7 0.103936 0.249192 0.827227
Si Si8 0.067175 0.398942 0.174313
O O1 0.707775 0.860764 0.500000
O O2 0.697511 0.758963 0.305257
O O3 0.750579 0.871190 0.221082
O O4 0.621481 0.869606 0.276604
O O5 0.750664 0.366989 0.217419
O O6 0.819386 0.258901 0.283290
O O7 0.788766 0.285132 0.000000
O O8 0.196748 0.939596 0.500000
O O9 0.128729 0.922021 0.253520
O O10 0.232747 0.000000 0.250000
O O11 0.760069 0.500000 0.750000
O O12 0.798139 0.554012 0.500000
O O13 0.869359 0.572439 0.738216
O O14 0.500000 0.092304 0.750000
O O15 0.437225 0.061565 0.500000
O O16 0.404910 0.000000 0.750000
O O17 0.929793 0.195733 0.215463
O O18 0.000000 0.085797 0.250000
O O19 0.931678 0.104699 0.000000
O O20 0.064598 0.318510 0.812084
O O21 0.101750 0.221312 0.000000
O O22 0.000000 0.428010 0.250000
O O23 0.071283 0.422435 0.000000
#
# Coordination Sequence:
#
# PCOD8202979 Si02
#       8
#     8   8   8   8   8   8   8   8
#     4  10  20  36  58  84 110 142 180 222 263 310
#     4   9  18  33  54  76 102 134 170 212 262 311
#     4  12  25  40  57  78 102 133 172 217 269 321
#     4  10  20  34  51  71  97 131 165 206 261 319
#     4  10  20  34  54  81 117 155 191 221 259 306
#     4  12  24  38  54  72  96 127 167 217 271 327
#     4  10  19  32  50  74  98 125 162 208 264 318
#     4  10  20  32  47  68  94 122 161 207 255 319
#
# _framework density 18.233585999999999
#
# number of rings (size 3 to 8) (size 9 to 14) (size 15 to 20)
#    0.000    1.625    1.250    4.875    0.000    5.500 
#    0.000    2.500    0.000    0.000    0.000    0.000 
#    0.000    0.500    0.000    6.250    0.000    0.000 
#
# Total GULP energy -793534.483008 kJ/mol
# GULP energy per Si atom -12398.976297 kJ/mol
# Density = 1.819209 g / cm^3
# Si number density = 18.233586 Si / 1000 Ang^3
#
#
#
# Elastic Constant Matrix: (Units=GPa)
#
#
# Indices 1 2 3 4 5 6 
#
# 1 85.1616 49.8559 37.8508 0.0000 0.0000 0.0000
# 2 49.8559 117.6198 42.9383 0.0000 0.0000 0.0000
# 3 37.8508 42.9383 115.9105 0.0000 0.0000 0.0000
# 4 0.0000 0.0000 0.0000 27.1607 0.0000 0.0000
# 5 0.0000 0.0000 0.0000 0.0000 18.1555 0.0000
# 6 0.0000 0.0000 0.0000 0.0000 0.0000 6.0587
#
#
#
# Elastic Compliance Matrix: (Units=1/GPa)
#
#
# Indices 1 2 3 4 5 6 
#
# 1 0.016618 -0.005855 -0.003258 0.000000 0.000000 0.000000
# 2 -0.005855 0.011894 -0.002494 0.000000 0.000000 0.000000
# 3 -0.003258 -0.002494 0.010615 0.000000 0.000000 0.000000
# 4 0.000000 0.000000 0.000000 0.036818 0.000000 0.000000
# 5 0.000000 0.000000 0.000000 0.000000 0.055080 0.000000
# 6 0.000000 0.000000 0.000000 0.000000 0.000000 0.165053
#
#
# Mechanical properties :
#
#
# Convention : Reuss Voigt Hill
#
# Bulk Modulus (GPa) = 62.83846 64.44244 63.64045
# Shear Modulus (GPa) = 15.40380 22.81142 19.10761
#
# Velocity S-wave (km/s) = 2.90970 3.54088 3.24069
# Velocity P-wave (km/s) = 6.76952 7.22056 6.99867
#
# Compressibility (1/GPa) = 0.01591382
#
# Stress axis : x y z
#
# Youngs Moduli (GPa) = 60.17663 84.07520 94.20474
#
# Poissons Ratio (x) = 0.49222 0.30690
# Poissons Ratio (y) = 0.35231 0.23497
# Poissons Ratio (z) = 0.19604 0.20971
#
# Static dielectric constant tensor:
#      x y z
#    x 3.076060 0.000000 0.000000 
#    y 0.000000 3.662720 0.000000 
#    z 0.000000 0.000000 3.458540 
# 
# 
# High freq. dielectric constant tensor:
#      x y z
#    x 1.657750 0.000000 0.000000 
#    y 0.000000 1.712290 0.000000 
#    z 0.000000 0.000000 1.720910 
# 
# From -- ./inp_files/6106.got.cif
#   From: 2010.03.12/outbox.cif.g09.slc.cpg/sg49_4_cif.got.tgz:6106.got - 2010.04.14 03:58:27.
