data_PCOD8202116
_publ_section_title
;
Structure prediction by ZEFSAII (Michael W. Deem and Ramdas Pophale) SiO2 
 PCOD8202116
Probable space group: P N N N
;
_chemical_formula_sum "Si O2"
_cell_formula_units_Z 32
_cell_length_a 15.186055
_cell_length_b 8.531780
_cell_length_c 10.951392
_cell_angle_alpha 90.000000
_cell_angle_beta 90.000000
_cell_angle_gamma 90.000000
_cell_volume 1418.907033
_symmetry_space_group_name_H-M "P N N N"
_symmetry_group_IT_number 48
_space_group.IT_coordinate_system_code '2'
_symmetry_cell_setting 'orthorhombic'
loop_
_space_group_symop_operation_xyz
x,y,z
1/2-x,1/2-y,z
x,1/2-y,1/2-z
1/2-x,y,1/2-z
-x,-y,-z
1/2+x,1/2+y,-z
-x,1/2+y,1/2+z
1/2+x,-y,1/2+z
loop_
_atom_site_type_symbol
_atom_site_label
_atom_site_fract_x
_atom_site_fract_y
_atom_site_fract_z
Si Si1 0.679228 0.140293 0.497922
Si Si2 0.750000 0.502479 0.250000
Si Si3 0.998609 0.813782 0.490911
Si Si4 0.099318 0.250000 0.750000
Si Si5 0.163894 0.313563 0.383576
O O1 0.750000 0.250000 0.567758
O O2 0.591234 0.238560 0.472024
O O3 0.727322 0.096909 0.370352
O O4 0.658017 0.998461 0.590214
O O5 0.838774 0.600960 0.228574
O O6 0.966361 0.739265 0.363717
O O7 0.928132 0.763549 0.589079
O O8 0.000000 0.000000 0.500000
O O9 0.250000 0.250000 0.460957
O O10 0.182513 0.250000 0.250000
#
# Coordination Sequence:
#
# PCOD8202116 Si02
#       5
#     8   4   8   4   8
#     4  12  26  47  73 113 149 200 262 319 385 461
#     4  11  23  44  78 108 150 204 258 322 374 452
#     4  12  27  45  73 111 153 199 259 316 388 459
#     4  11  24  44  75 108 154 198 259 322 377 452
#     4  11  25  47  71 102 148 196 245 313 385 460
#
# _framework density 22.552569999999999
#
# number of rings (size 3 to 8) (size 9 to 14) (size 15 to 20)
#    0.000    0.500    2.500    5.625    3.500    2.000 
#    0.000    0.000    0.000    0.000    0.000    0.000 
#    0.000    0.000    0.000    0.000    0.000    0.000 
#
# Total GULP energy -396473.513093 kJ/mol
# GULP energy per Si atom -12389.797284 kJ/mol
# Density = 2.250124 g / cm^3
# Si number density = 22.552570 Si / 1000 Ang^3
#
#
#
# Elastic Constant Matrix: (Units=GPa)
#
#
# Indices 1 2 3 4 5 6 
#
# 1 206.0680 90.8371 39.2124 0.0000 0.0000 0.0000
# 2 90.8371 185.2317 43.5884 0.0000 0.0000 0.0000
# 3 39.2124 43.5884 105.0015 0.0000 0.0000 0.0000
# 4 0.0000 0.0000 0.0000 26.1254 0.0000 0.0000
# 5 0.0000 0.0000 0.0000 0.0000 39.1066 0.0000
# 6 0.0000 0.0000 0.0000 0.0000 0.0000 57.1212
#
#
#
# Elastic Compliance Matrix: (Units=1/GPa)
#
#
# Indices 1 2 3 4 5 6 
#
# 1 0.006323 -0.002820 -0.001190 0.000000 0.000000 0.000000
# 2 -0.002820 0.007241 -0.001953 0.000000 0.000000 0.000000
# 3 -0.001190 -0.001953 0.010779 0.000000 0.000000 0.000000
# 4 0.000000 0.000000 0.000000 0.038277 0.000000 0.000000
# 5 0.000000 0.000000 0.000000 0.000000 0.025571 0.000000
# 6 0.000000 0.000000 0.000000 0.000000 0.000000 0.017507
#
#
# Mechanical properties :
#
#
# Convention : Reuss Voigt Hill
#
# Bulk Modulus (GPa) = 80.54331 93.73077 87.13704
# Shear Modulus (GPa) = 41.06339 45.98151 43.52245
#
# Velocity S-wave (km/s) = 4.27170 4.52027 4.39774
# Velocity P-wave (km/s) = 7.75377 8.30030 8.03169
#
# Compressibility (1/GPa) = 0.01241568
#
# Stress axis : x y z
#
# Youngs Moduli (GPa) = 158.16375 138.09665 92.77463
#
# Poissons Ratio (x) = 0.38950 0.11043
# Poissons Ratio (y) = 0.44610 0.18116
# Poissons Ratio (z) = 0.18826 0.26967
#
# Static dielectric constant tensor:
#      x y z
#    x -0.733510 0.000000 0.000000 
#    y 0.000000 4.181790 0.000000 
#    z 0.000000 0.000000 3.920690 
# 
# 
# High freq. dielectric constant tensor:
#      x y z
#    x 1.924400 0.000000 0.000000 
#    y 0.000000 1.902190 0.000000 
#    z 0.000000 0.000000 1.875630 
# 
# From -- ./inp_files/10286.got.cif
#   From: 2010.06.25/outbox.cif.g09.slc.cpg/sg48_6_cif.got.tgz:10286.got - 2010.06.26 18:06:46.
