data_PCOD8202519
_publ_section_title
;
Structure prediction by ZEFSAII (Michael W. Deem and Ramdas Pophale) SiO2 
 PCOD8202519
Probable space group: P C C M
;
_chemical_formula_sum "Si O2"
_cell_formula_units_Z 56
_cell_length_a 5.172412
_cell_length_b 25.339893
_cell_length_c 22.617459
_cell_angle_alpha 90.000000
_cell_angle_beta 90.000000
_cell_angle_gamma 90.000000
_cell_volume 2964.433408
_symmetry_space_group_name_H-M "P C C M"
_symmetry_group_IT_number 49
_symmetry_cell_setting 'orthorhombic'
loop_
_space_group_symop_operation_xyz
x,y,z
-x,-y,z
x,-y,1/2-z
-x,y,1/2-z
-x,-y,-z
x,y,-z
-x,y,1/2+z
x,-y,1/2+z
loop_
_atom_site_type_symbol
_atom_site_label
_atom_site_fract_x
_atom_site_fract_y
_atom_site_fract_z
Si Si1 0.745466 0.523281 0.316287
Si Si2 0.611874 0.632481 0.637289
Si Si3 0.098706 0.769679 0.619145
Si Si4 0.011304 0.881803 0.430880
Si Si5 0.509537 0.059861 0.070662
Si Si6 0.597234 0.253345 0.814587
Si Si7 0.107002 0.344360 0.068261
O O1 0.500000 0.500000 0.351467
O O2 0.747849 0.500000 0.250000
O O3 0.703858 0.586124 0.318154
O O4 0.000000 0.500000 0.348574
O O5 0.601842 0.683783 0.678132
O O6 0.330279 0.626790 0.606865
O O7 0.826600 0.633786 0.585973
O O8 0.022131 0.819674 0.580307
O O9 0.390999 0.774893 0.642511
O O10 0.094381 0.718497 0.577601
O O11 0.888095 0.766454 0.672252
O O12 0.006813 0.891824 0.500000
O O13 0.260470 0.910328 0.403146
O O14 0.758082 0.909465 0.403178
O O15 0.500000 0.000000 0.093943
O O16 0.511876 0.061164 0.000000
O O17 0.500000 0.238323 0.750000
O O18 0.160711 0.356656 0.000000
#
# Coordination Sequence:
#
# PCOD8202519 Si02
#       7
#     8   8   8   8   8   8   8
#     4  10  21  36  55  82 107 132 162 217 266 310
#     4  10  21  36  56  82 107 136 172 209 260 311
#     4  10  20  34  50  79 105 135 179 212 252 308
#     4  10  18  29  48  71 104 142 172 214 254 299
#     4   9  17  28  43  68 102 141 177 210 258 309
#     4  10  21  35  53  75 107 137 163 213 264 322
#     4  10  20  36  57  78 107 144 177 210 244 304
#
# _framework density 18.890623999999999
#
# number of rings (size 3 to 8) (size 9 to 14) (size 15 to 20)
#    0.000    2.143    0.000    3.429    2.000    1.714 
#    5.143    4.286    0.000    8.571    0.000    0.000 
#    0.000   40.000    0.000    0.000    0.000    0.000 
#
# Total GULP energy -694023.722096 kJ/mol
# GULP energy per Si atom -12393.280752 kJ/mol
# Density = 1.884763 g / cm^3
# Si number density = 18.890624 Si / 1000 Ang^3
#
#
#
# Elastic Constant Matrix: (Units=GPa)
#
#
# Indices 1 2 3 4 5 6 
#
# 1 154.0503 47.2340 10.2943 0.0000 0.0000 0.0000
# 2 47.2340 101.5434 11.7017 0.0000 0.0000 0.0000
# 3 10.2943 11.7017 39.3452 0.0000 0.0000 0.0000
# 4 0.0000 0.0000 0.0000 17.0971 0.0000 0.0000
# 5 0.0000 0.0000 0.0000 0.0000 13.7939 0.0000
# 6 0.0000 0.0000 0.0000 0.0000 0.0000 33.6522
#
#
#
# Elastic Compliance Matrix: (Units=1/GPa)
#
#
# Indices 1 2 3 4 5 6 
#
# 1 0.007607 -0.003427 -0.000971 0.000000 0.000000 0.000000
# 2 -0.003427 0.011741 -0.002595 0.000000 0.000000 0.000000
# 3 -0.000971 -0.002595 0.026442 0.000000 0.000000 0.000000
# 4 0.000000 0.000000 0.000000 0.058489 0.000000 0.000000
# 5 0.000000 0.000000 0.000000 0.000000 0.072496 0.000000
# 6 0.000000 0.000000 0.000000 0.000000 0.000000 0.029716
#
#
# Mechanical properties :
#
#
# Convention : Reuss Voigt Hill
#
# Bulk Modulus (GPa) = 31.44280 48.15541 39.79911
# Shear Modulus (GPa) = 21.63771 27.95592 24.79681
#
# Velocity S-wave (km/s) = 3.38808 3.85110 3.62698
# Velocity P-wave (km/s) = 5.65564 6.73214 6.21723
#
# Compressibility (1/GPa) = 0.03180378
#
# Stress axis : x y z
#
# Youngs Moduli (GPa) = 131.45955 85.17180 37.81851
#
# Poissons Ratio (x) = 0.29184 0.03673
# Poissons Ratio (y) = 0.45045 0.09815
# Poissons Ratio (z) = 0.12767 0.22105
#
# Static dielectric constant tensor:
#      x y z
#    x 5.294630 0.000000 0.000000 
#    y 0.000000 3.412960 0.000000 
#    z 0.000000 0.000000 2.894080 
# 
# 
# High freq. dielectric constant tensor:
#      x y z
#    x 1.767130 0.000000 0.000000 
#    y 0.000000 1.728730 0.000000 
#    z 0.000000 0.000000 1.677340 
# 
# From -- ./inp_files/21892.got.cif
#   From: 2010.03.12/outbox.cif.g09.slc.cpg/sg49_11_cif.got.tgz:21892.got - 2010.04.14 03:58:27.
