data_PCOD8202728
_publ_section_title
;
Structure prediction by ZEFSAII (Michael W. Deem and Ramdas Pophale) SiO2 
 PCOD8202728
Probable space group: P C C M
;
_chemical_formula_sum "Si O2"
_cell_formula_units_Z 64
_cell_length_a 20.577638
_cell_length_b 19.761269
_cell_length_c 9.030084
_cell_angle_alpha 90.000000
_cell_angle_beta 90.000000
_cell_angle_gamma 90.000000
_cell_volume 3671.995524
_symmetry_space_group_name_H-M "P C C M"
_symmetry_group_IT_number 49
_symmetry_cell_setting 'orthorhombic'
loop_
_space_group_symop_operation_xyz
x,y,z
-x,-y,z
x,-y,1/2-z
-x,y,1/2-z
-x,-y,-z
x,y,-z
-x,y,1/2+z
x,-y,1/2+z
loop_
_atom_site_type_symbol
_atom_site_label
_atom_site_fract_x
_atom_site_fract_y
_atom_site_fract_z
Si Si1 0.566477 0.429476 0.824338
Si Si2 0.871950 0.789396 0.328314
Si Si3 0.687591 0.662585 0.672816
Si Si4 0.265281 0.788041 0.328398
Si Si5 0.877029 0.937293 0.327916
Si Si6 0.192129 0.571845 0.175092
Si Si7 0.065419 0.652280 0.173226
Si Si8 0.738081 0.937303 0.172639
O O1 0.587461 0.500000 0.750000
O O2 0.500000 0.403267 0.750000
O O3 0.621254 0.375048 0.786572
O O4 0.557527 0.439691 0.000000
O O5 0.851887 0.781297 0.500000
O O6 0.806652 0.781327 0.236132
O O7 0.907421 0.862360 0.301236
O O8 0.921412 0.730331 0.281534
O O9 0.693871 0.676143 0.500000
O O10 0.686168 0.735057 0.752844
O O11 0.748742 0.618875 0.729457
O O12 0.260255 0.770964 0.500000
O O13 0.294909 0.863782 0.303415
O O14 0.871669 0.954128 0.500000
O O15 0.806720 0.934223 0.254461
O O16 0.916308 0.000000 0.250000
O O17 0.200041 0.500000 0.250000
O O18 0.124999 0.605965 0.227524
O O19 0.194569 0.562166 0.000000
O O20 0.000000 0.626413 0.250000
O O21 0.055339 0.644629 0.000000
O O22 0.698475 0.000000 0.250000
O O23 0.747620 0.952844 0.000000
#
# Coordination Sequence:
#
# PCOD8202728 Si02
#       8
#     8   8   8   8   8   8   8   8
#     4  10  20  34  54  77 105 140 175 209 245 291
#     4   9  17  32  49  64  91 127 158 193 244 300
#     4  10  20  35  53  74 103 138 169 199 244 297
#     4  10  19  28  45  73 100 126 163 210 247 284
#     4   9  15  23  40  63  87 118 151 188 235 285
#     4  10  21  37  55  74  97 123 157 199 244 296
#     4  10  21  37  54  70  92 121 158 203 248 300
#     4   9  16  25  37  60  93 127 161 196 239 285
#
# _framework density 17.429216
#
# number of rings (size 3 to 8) (size 9 to 14) (size 15 to 20)
#    0.000    2.375    1.250    3.000    0.000    4.750 
#    0.000    1.250    0.000    0.375    0.000    2.625 
#    0.000    0.500    0.000    5.500    0.000    4.000 
#
# Total GULP energy -793193.581359 kJ/mol
# GULP energy per Si atom -12393.649709 kJ/mol
# Density = 1.738955 g / cm^3
# Si number density = 17.429216 Si / 1000 Ang^3
#
#
#
# Elastic Constant Matrix: (Units=GPa)
#
#
# Indices 1 2 3 4 5 6 
#
# 1 73.7349 43.6384 33.0275 0.0000 0.0000 0.0000
# 2 43.6384 126.4710 49.9268 0.0000 0.0000 0.0000
# 3 33.0275 49.9268 76.7231 0.0000 0.0000 0.0000
# 4 0.0000 0.0000 0.0000 33.5360 0.0000 0.0000
# 5 0.0000 0.0000 0.0000 0.0000 18.0001 0.0000
# 6 0.0000 0.0000 0.0000 0.0000 0.0000 19.4339
#
#
#
# Elastic Compliance Matrix: (Units=1/GPa)
#
#
# Indices 1 2 3 4 5 6 
#
# 1 0.018417 -0.004340 -0.005104 0.000000 0.000000 0.000000
# 2 -0.004340 0.011663 -0.005721 0.000000 0.000000 0.000000
# 3 -0.005104 -0.005721 0.018954 0.000000 0.000000 0.000000
# 4 0.000000 0.000000 0.000000 0.029819 0.000000 0.000000
# 5 0.000000 0.000000 0.000000 0.000000 0.055555 0.000000
# 6 0.000000 0.000000 0.000000 0.000000 0.000000 0.051456
#
#
# Mechanical properties :
#
#
# Convention : Reuss Voigt Hill
#
# Bulk Modulus (GPa) = 53.46544 58.90161 56.18353
# Shear Modulus (GPa) = 22.47911 24.21643 23.34777
#
# Velocity S-wave (km/s) = 3.59519 3.73153 3.66399
# Velocity P-wave (km/s) = 6.92648 7.24112 7.08555
#
# Compressibility (1/GPa) = 0.01870367
#
# Stress axis : x y z
#
# Youngs Moduli (GPa) = 54.29886 85.74124 52.75892
#
# Poissons Ratio (x) = 0.37209 0.26927
# Poissons Ratio (y) = 0.23564 0.30186
# Poissons Ratio (z) = 0.27713 0.49056
#
# Static dielectric constant tensor:
#      x y z
#    x 2.858370 0.000000 0.000000 
#    y 0.000000 3.986550 0.000000 
#    z 0.000000 0.000000 3.288030 
# 
# 
# High freq. dielectric constant tensor:
#      x y z
#    x 1.617830 0.000000 0.000000 
#    y 0.000000 1.693880 0.000000 
#    z 0.000000 0.000000 1.680980 
# 
# From -- ./inp_files/5248.got.cif
#   From: 2010.03.12/outbox.cif.g09.slc.cpg/sg49_3_cif.got.tgz:5248.got - 2010.04.14 03:58:27.
