data_PCOD8202185
_publ_section_title
;
Structure prediction by ZEFSAII (Michael W. Deem and Ramdas Pophale) SiO2 
 PCOD8202185
Probable space group: P C C M
;
_chemical_formula_sum "Si O2"
_cell_formula_units_Z 48
_cell_length_a 10.146094
_cell_length_b 30.669026
_cell_length_c 8.767950
_cell_angle_alpha 90.000000
_cell_angle_beta 90.000000
_cell_angle_gamma 90.000000
_cell_volume 2728.330197
_symmetry_space_group_name_H-M "P C C M"
_symmetry_group_IT_number 49
_symmetry_cell_setting 'orthorhombic'
loop_
_space_group_symop_operation_xyz
x,y,z
-x,-y,z
x,-y,1/2-z
-x,y,1/2-z
-x,-y,-z
x,y,-z
-x,y,1/2+z
x,-y,1/2+z
loop_
_atom_site_type_symbol
_atom_site_label
_atom_site_fract_x
_atom_site_fract_y
_atom_site_fract_z
Si Si1 0.357471 0.872074 0.677707
Si Si2 0.646606 0.956801 0.681004
Si Si3 0.863018 0.288984 0.319431
Si Si4 0.360671 0.453718 0.818437
Si Si5 0.357568 0.775958 0.322459
Si Si6 0.135907 0.612137 0.320600
O O1 0.500000 0.868279 0.750000
O O2 0.367533 0.883575 0.500000
O O3 0.280626 0.912095 0.762574
O O4 0.294330 0.824315 0.705859
O O5 0.500000 0.955111 0.750000
O O6 0.644352 0.959564 0.500000
O O7 0.717926 0.000000 0.750000
O O8 0.872639 0.284982 0.500000
O O9 0.745354 0.258919 0.254303
O O10 0.834595 0.338516 0.266447
O O11 0.000000 0.272146 0.250000
O O12 0.317162 0.500000 0.750000
O O13 0.500000 0.438749 0.750000
O O14 0.254471 0.418263 0.764064
O O15 0.371477 0.457258 0.000000
O O16 0.500000 0.769002 0.250000
O O17 0.378547 0.767998 0.500000
O O18 0.120631 0.609762 0.500000
O O19 0.000000 0.594690 0.250000
#
# Coordination Sequence:
#
# PCOD8202185 Si02
#       6
#     8   8   8   8   8   8
#     4   9  15  24  36  53  78 109 141 178 220 264
#     4  10  16  22  32  48  72 105 142 179 217 264
#     4   9  18  34  51  70  95 124 156 194 234 277
#     4  10  20  34  51  73  99 129 160 195 234 278
#     4   9  18  30  46  67  93 121 153 190 231 276
#     4   9  19  34  52  72  96 124 158 195 235 278
#
# _framework density 17.593178000000002
#
# number of rings (size 3 to 8) (size 9 to 14) (size 15 to 20)
#    0.000    2.667    0.000    4.500    0.000    3.667 
#    0.000    1.667    0.000    0.000    0.000    0.000 
#    0.000    0.667    0.000    7.667    0.000    4.833 
#
# Total GULP energy -594859.405644 kJ/mol
# GULP energy per Si atom -12392.904284 kJ/mol
# Density = 1.755314 g / cm^3
# Si number density = 17.593178 Si / 1000 Ang^3
#
#
#
# Elastic Constant Matrix: (Units=GPa)
#
#
# Indices 1 2 3 4 5 6 
#
# 1 95.2063 84.4848 34.0524 0.0000 0.0000 0.0000
# 2 84.4848 140.5087 46.9952 0.0000 0.0000 0.0000
# 3 34.0524 46.9952 78.6933 0.0000 0.0000 0.0000
# 4 0.0000 0.0000 0.0000 25.4671 0.0000 0.0000
# 5 0.0000 0.0000 0.0000 0.0000 21.0647 0.0000
# 6 0.0000 0.0000 0.0000 0.0000 0.0000 5.4584
#
#
#
# Elastic Compliance Matrix: (Units=1/GPa)
#
#
# Indices 1 2 3 4 5 6 
#
# 1 0.022793 -0.013003 -0.002097 0.000000 0.000000 0.000000
# 2 -0.013003 0.016312 -0.004114 0.000000 0.000000 0.000000
# 3 -0.002097 -0.004114 0.016072 0.000000 0.000000 0.000000
# 4 0.000000 0.000000 0.000000 0.039266 0.000000 0.000000
# 5 0.000000 0.000000 0.000000 0.000000 0.047473 0.000000
# 6 0.000000 0.000000 0.000000 0.000000 0.000000 0.183205
#
#
# Mechanical properties :
#
#
# Convention : Reuss Voigt Hill
#
# Bulk Modulus (GPa) = 59.71439 71.71923 65.71681
# Shear Modulus (GPa) = 13.54525 20.32309 16.93417
#
# Velocity S-wave (km/s) = 2.77774 3.40246 3.10585
# Velocity P-wave (km/s) = 6.65607 7.50264 7.09200
#
# Compressibility (1/GPa) = 0.01674638
#
# Stress axis : x y z
#
# Youngs Moduli (GPa) = 43.87406 61.30591 62.21876
#
# Poissons Ratio (x) = 0.79717 0.13050
# Poissons Ratio (y) = 0.57050 0.25600
# Poissons Ratio (z) = 0.09202 0.25224
#
# Static dielectric constant tensor:
#      x y z
#    x 2.960570 0.000000 0.000000 
#    y 0.000000 4.335640 0.000000 
#    z 0.000000 0.000000 3.294110 
# 
# 
# High freq. dielectric constant tensor:
#      x y z
#    x 1.627420 0.000000 0.000000 
#    y 0.000000 1.701920 0.000000 
#    z 0.000000 0.000000 1.685460 
# 
# From -- ./inp_files/3038.got.cif
#   From: 2010.03.12/outbox.cif.g09.slc.cpg/sg49_2_cif.got.tgz:3038.got - 2010.04.14 03:58:27.
