data_PCOD8202066
_publ_section_title
;
Structure prediction by ZEFSAII (Michael W. Deem and Ramdas Pophale) SiO2 
 PCOD8202066
Probable space group: P N N N
;
_chemical_formula_sum "Si O2"
_cell_formula_units_Z 60
_cell_length_a 21.608106
_cell_length_b 11.613158
_cell_length_c 11.383093
_cell_angle_alpha 90.000000
_cell_angle_beta 90.000000
_cell_angle_gamma 90.000000
_cell_volume 2856.454565
_symmetry_space_group_name_H-M "P N N N"
_symmetry_group_IT_number 48
_space_group.IT_coordinate_system_code '2'
_symmetry_cell_setting 'orthorhombic'
loop_
_space_group_symop_operation_xyz
x,y,z
1/2-x,1/2-y,z
x,1/2-y,1/2-z
1/2-x,y,1/2-z
-x,-y,-z
1/2+x,1/2+y,-z
-x,1/2+y,1/2+z
1/2+x,-y,1/2+z
loop_
_atom_site_type_symbol
_atom_site_label
_atom_site_fract_x
_atom_site_fract_y
_atom_site_fract_z
Si Si1 0.757286 0.614831 0.386783
Si Si2 0.088190 0.994978 0.233573
Si Si3 0.542763 0.088207 0.337632
Si Si4 0.971031 0.250000 0.750000
Si Si5 0.549974 0.809523 0.030184
Si Si6 0.113235 0.080017 0.996471
Si Si7 0.066719 0.662206 0.906666
Si Si8 0.643599 0.513259 0.516645
O O1 0.750000 0.750000 0.409423
O O2 0.750000 0.581990 0.250000
O O3 0.826309 0.581534 0.418196
O O4 0.713059 0.541217 0.474604
O O5 0.072356 0.861353 0.248097
O O6 0.128928 0.038841 0.345429
O O7 0.027461 0.072770 0.207258
O O8 0.129295 0.011391 0.116233
O O9 0.582967 0.111079 0.220886
O O10 0.556440 0.200358 0.417089
O O11 0.561217 0.979910 0.415554
O O12 0.016731 0.255931 0.858549
O O13 0.586902 0.705288 0.967623
O O14 0.500973 0.880292 0.949847
O O15 0.600272 0.905721 0.065197
O O16 0.123050 0.619074 0.989805
#
# Coordination Sequence:
#
# PCOD8202066 Si02
#       8
#     8   8   8   4   8   8   8   8
#     4  11  26  48  71  95 128 175 233 284 327 399
#     4  12  24  40  65  98 143 174 223 275 347 415
#     4  11  22  39  64  97 135 174 212 277 337 401
#     4  12  24  36  66 106 134 178 216 274 348 422
#     4  12  22  37  64  99 137 172 217 271 346 404
#     4  12  25  42  66  99 135 179 223 279 337 409
#     4  11  22  39  62  96 137 172 215 270 340 403
#     4  12  25  42  65  99 135 182 223 280 335 410
#
# _framework density 21.005058999999999
#
# number of rings (size 3 to 8) (size 9 to 14) (size 15 to 20)
#    0.000    0.400    6.667    3.200    1.867    1.067 
#    0.000    1.333    0.000    3.200    0.000    0.000 
#    0.000    0.000    0.000    0.000    0.000    0.000 
#
# Total GULP energy -743595.336573 kJ/mol
# GULP energy per Si atom -12393.255610 kJ/mol
# Density = 2.095725 g / cm^3
# Si number density = 21.005059 Si / 1000 Ang^3
#
#
#
# Elastic Constant Matrix: (Units=GPa)
#
#
# Indices 1 2 3 4 5 6 
#
# 1 79.8699 23.2514 50.7090 0.0000 0.0000 0.0000
# 2 23.2514 97.5187 28.4124 0.0000 0.0000 0.0000
# 3 50.7090 28.4124 125.6822 0.0000 0.0000 0.0000
# 4 0.0000 0.0000 0.0000 30.1204 0.0000 0.0000
# 5 0.0000 0.0000 0.0000 0.0000 32.3232 0.0000
# 6 0.0000 0.0000 0.0000 0.0000 0.0000 37.3815
#
#
#
# Elastic Compliance Matrix: (Units=1/GPa)
#
#
# Indices 1 2 3 4 5 6 
#
# 1 0.017276 -0.002235 -0.006465 0.000000 0.000000 0.000000
# 2 -0.002235 0.011267 -0.001645 0.000000 0.000000 0.000000
# 3 -0.006465 -0.001645 0.010937 0.000000 0.000000 0.000000
# 4 0.000000 0.000000 0.000000 0.033200 0.000000 0.000000
# 5 0.000000 0.000000 0.000000 0.000000 0.030938 0.000000
# 6 0.000000 0.000000 0.000000 0.000000 0.000000 0.026751
#
#
# Mechanical properties :
#
#
# Convention : Reuss Voigt Hill
#
# Bulk Modulus (GPa) = 53.22421 56.42405 54.82413
# Shear Modulus (GPa) = 31.78202 33.34489 32.56346
#
# Velocity S-wave (km/s) = 3.89403 3.98863 3.94161
# Velocity P-wave (km/s) = 6.75365 6.93777 6.84633
#
# Compressibility (1/GPa) = 0.01878844
#
# Stress axis : x y z
#
# Youngs Moduli (GPa) = 57.88494 88.75680 91.43411
#
# Poissons Ratio (x) = 0.19841 0.59111
# Poissons Ratio (y) = 0.12940 0.15042
# Poissons Ratio (z) = 0.37422 0.14601
#
# Static dielectric constant tensor:
#      x y z
#    x 3.491350 0.000000 0.000000 
#    y 0.000000 3.863990 0.000000 
#    z 0.000000 0.000000 4.163070 
# 
# 
# High freq. dielectric constant tensor:
#      x y z
#    x 1.783940 0.000000 0.000000 
#    y 0.000000 1.828630 0.000000 
#    z 0.000000 0.000000 1.838830 
# 
# From -- ./inp_files/22926.got.cif
#   From: 2010.06.25/outbox.cif.g09.slc.cpg/sg48_12_cif.got.tgz:22926.got - 2010.06.26 18:06:46.
