data_PCOD8202239
_publ_section_title
;
Structure prediction by ZEFSAII (Michael W. Deem and Ramdas Pophale) SiO2 
 PCOD8202239
Probable space group: P C C M
;
_chemical_formula_sum "Si O2"
_cell_formula_units_Z 38
_cell_length_a 22.822800
_cell_length_b 9.295529
_cell_length_c 9.145384
_cell_angle_alpha 90.000000
_cell_angle_beta 90.000000
_cell_angle_gamma 90.000000
_cell_volume 1940.193209
_symmetry_space_group_name_H-M "P C C M"
_symmetry_group_IT_number 49
_symmetry_cell_setting 'orthorhombic'
loop_
_space_group_symop_operation_xyz
x,y,z
-x,-y,z
x,-y,1/2-z
-x,y,1/2-z
-x,-y,-z
x,y,-z
-x,y,1/2+z
x,-y,1/2+z
loop_
_atom_site_type_symbol
_atom_site_label
_atom_site_fract_x
_atom_site_fract_y
_atom_site_fract_z
Si Si1 0.557266 0.345149 0.822713
Si Si2 0.640859 0.856907 0.835083
Si Si3 0.921561 0.417366 0.000000
Si Si4 0.796083 0.665991 0.500000
Si Si5 0.227152 0.162497 0.774079
Si Si6 0.000000 0.500000 0.250000
Si Si7 0.830323 0.354138 0.500000
O O1 0.560050 0.500000 0.750000
O O2 0.500000 0.267496 0.750000
O O3 0.615750 0.268345 0.766798
O O4 0.554159 0.350474 0.000000
O O5 0.710637 0.843100 0.854244
O O6 0.623015 0.000000 0.750000
O O7 0.614390 0.856067 0.000000
O O8 0.896171 0.582396 0.000000
O O9 0.960243 0.397914 0.853771
O O10 0.867013 0.305888 0.000000
O O11 0.763737 0.745807 0.629808
O O12 0.785391 0.492656 0.500000
O O13 0.178869 0.252498 0.861716
O O14 0.203583 0.000000 0.750000
#
# Coordination Sequence:
#
# PCOD8202239 Si02
#       7
#     8   8   4   4   8   2   4
#     4  11  23  42  66  91 123 159 207 261 320 378
#     4  11  24  41  61  87 121 160 210 254 308 379
#     4   9  20  32  60  86 126 146 209 248 308 344
#     4  10  22  35  58  87 124 153 205 254 300 362
#     4  11  22  37  59  84 123 166 204 245 314 378
#     4  10  16  34  56  94 114 162 188 262 304 350
#     4  10  20  39  54  89 122 153 203 258 292 360
#
# _framework density 19.585678000000001
#
# number of rings (size 3 to 8) (size 9 to 14) (size 15 to 20)
#    0.632    0.842    1.053    5.684    5.895    2.105 
#    0.000    2.105    0.000    0.000    0.000   51.579 
#    0.000    0.000    0.000    0.000    0.000    0.000 
#
# Total GULP energy -470859.180437 kJ/mol
# GULP energy per Si atom -12391.031064 kJ/mol
# Density = 1.954110 g / cm^3
# Si number density = 19.585678 Si / 1000 Ang^3
#
#
#
# Elastic Constant Matrix: (Units=GPa)
#
#
# Indices 1 2 3 4 5 6 
#
# 1 55.5861 25.5224 23.3348 0.0000 0.0000 0.0000
# 2 25.5224 108.0489 43.8318 0.0000 0.0000 0.0000
# 3 23.3348 43.8318 174.8190 0.0000 0.0000 0.0000
# 4 0.0000 0.0000 0.0000 30.5053 0.0000 0.0000
# 5 0.0000 0.0000 0.0000 0.0000 31.6644 0.0000
# 6 0.0000 0.0000 0.0000 0.0000 0.0000 17.4257
#
#
#
# Elastic Compliance Matrix: (Units=1/GPa)
#
#
# Indices 1 2 3 4 5 6 
#
# 1 0.020625 -0.004180 -0.001705 0.000000 0.000000 0.000000
# 2 -0.004180 0.011150 -0.002238 0.000000 0.000000 0.000000
# 3 -0.001705 -0.002238 0.006509 0.000000 0.000000 0.000000
# 4 0.000000 0.000000 0.000000 0.032781 0.000000 0.000000
# 5 0.000000 0.000000 0.000000 0.000000 0.031581 0.000000
# 6 0.000000 0.000000 0.000000 0.000000 0.000000 0.057386
#
#
# Mechanical properties :
#
#
# Convention : Reuss Voigt Hill
#
# Bulk Modulus (GPa) = 45.37516 58.20357 51.78937
# Shear Modulus (GPa) = 27.22939 32.30341 29.76640
#
# Velocity S-wave (km/s) = 3.73268 4.06561 3.90270
# Velocity P-wave (km/s) = 6.46491 7.19867 6.84163
#
# Compressibility (1/GPa) = 0.02203849
#
# Stress axis : x y z
#
# Youngs Moduli (GPa) = 48.48430 89.68405 153.63759
#
# Poissons Ratio (x) = 0.37490 0.26194
# Poissons Ratio (y) = 0.20268 0.34379
# Poissons Ratio (z) = 0.08266 0.20068
#
# Static dielectric constant tensor:
#      x y z
#    x 3.514810 0.000000 0.000000 
#    y 0.000000 3.503170 0.000000 
#    z 0.000000 0.000000 3.481190 
# 
# 
# High freq. dielectric constant tensor:
#      x y z
#    x 1.747940 0.000000 0.000000 
#    y 0.000000 1.743550 0.000000 
#    z 0.000000 0.000000 1.788180 
# 
# From -- ./inp_files/6265.got.cif
#   From: 2010.03.12/outbox.cif.g09.slc.cpg/sg49_4_cif.got.tgz:6265.got - 2010.04.14 03:58:27.
