data_PCOD8202819
_publ_section_title
;
Structure prediction by ZEFSAII (Michael W. Deem and Ramdas Pophale) SiO2 
 PCOD8202819
Probable space group: P C C M
;
_chemical_formula_sum "Si O2"
_cell_formula_units_Z 64
_cell_length_a 19.537394
_cell_length_b 19.242115
_cell_length_c 9.059585
_cell_angle_alpha 90.000000
_cell_angle_beta 90.000000
_cell_angle_gamma 90.000000
_cell_volume 3405.867471
_symmetry_space_group_name_H-M "P C C M"
_symmetry_group_IT_number 49
_symmetry_cell_setting 'orthorhombic'
loop_
_space_group_symop_operation_xyz
x,y,z
-x,-y,z
x,-y,1/2-z
-x,y,1/2-z
-x,-y,-z
x,y,-z
-x,y,1/2+z
x,-y,1/2+z
loop_
_atom_site_type_symbol
_atom_site_label
_atom_site_fract_x
_atom_site_fract_y
_atom_site_fract_z
Si Si1 0.436383 0.151097 0.337464
Si Si2 0.928837 0.669678 0.670997
Si Si3 0.658844 0.933719 0.164797
Si Si4 0.177029 0.207797 0.333469
Si Si5 0.435535 0.685994 0.161871
Si Si6 0.718904 0.323299 0.823494
Si Si7 0.820657 0.067835 0.665492
Si Si8 0.822175 0.425412 0.677479
O O1 0.500000 0.117415 0.250000
O O2 0.432418 0.117969 0.500000
O O3 0.366622 0.134786 0.249998
O O4 0.446452 0.232552 0.350018
O O5 0.938443 0.647455 0.500000
O O6 0.886148 0.740191 0.681639
O O7 0.891409 0.608464 0.759945
O O8 0.000000 0.684169 0.750000
O O9 0.739624 0.935332 0.165878
O O10 0.628345 0.000000 0.250000
O O11 0.629568 0.933141 0.000000
O O12 0.186271 0.180984 0.500000
O O13 0.246554 0.248467 0.284477
O O14 0.158151 0.140859 0.236848
O O15 0.500000 0.652858 0.250000
O O16 0.360105 0.673048 0.230308
O O17 0.437890 0.651880 0.000000
O O18 0.756474 0.382327 0.730713
O O19 0.726888 0.335903 0.000000
O O20 0.850171 0.065802 0.500000
O O21 0.850410 0.000000 0.750000
O O22 0.814696 0.500000 0.750000
O O23 0.824569 0.429258 0.500000
#
# Coordination Sequence:
#
# PCOD8202819 Si02
#       8
#     8   8   8   8   8   8   8   8
#     4  10  19  31  45  62  85 116 153 197 249 307
#     4  10  21  38  59  86 118 151 184 219 258 306
#     4  10  20  32  44  61  84 114 153 200 251 308
#     4   9  18  33  54  78 107 140 177 220 268 318
#     4   9  18  31  49  72 100 132 168 213 266 318
#     4   9  18  34  54  78 108 143 180 222 271 323
#     4  10  20  32  49  72  99 130 169 216 267 318
#     4  11  22  37  58  85 116 150 185 221 260 308
#
# _framework density 18.791101000000001
#
# number of rings (size 3 to 8) (size 9 to 14) (size 15 to 20)
#    0.000    2.250    0.000    4.125    0.000    6.500 
#    0.000    2.500    0.000    0.750    0.000    5.250 
#    0.000    0.000    0.000    0.000    0.000    0.000 
#
# Total GULP energy -793324.039081 kJ/mol
# GULP energy per Si atom -12395.688111 kJ/mol
# Density = 1.874833 g / cm^3
# Si number density = 18.791101 Si / 1000 Ang^3
#
#
#
# Elastic Constant Matrix: (Units=GPa)
#
#
# Indices 1 2 3 4 5 6 
#
# 1 98.9893 17.6175 40.7449 0.0000 0.0000 0.0000
# 2 17.6175 81.3965 43.6808 0.0000 0.0000 0.0000
# 3 40.7449 43.6808 131.6260 0.0000 0.0000 0.0000
# 4 0.0000 0.0000 0.0000 28.1721 0.0000 0.0000
# 5 0.0000 0.0000 0.0000 0.0000 29.4638 0.0000
# 6 0.0000 0.0000 0.0000 0.0000 0.0000 13.1774
#
#
#
# Elastic Compliance Matrix: (Units=1/GPa)
#
#
# Indices 1 2 3 4 5 6 
#
# 1 0.011611 -0.000711 -0.003358 0.000000 0.000000 0.000000
# 2 -0.000711 0.014991 -0.004755 0.000000 0.000000 0.000000
# 3 -0.003358 -0.004755 0.010215 0.000000 0.000000 0.000000
# 4 0.000000 0.000000 0.000000 0.035496 0.000000 0.000000
# 5 0.000000 0.000000 0.000000 0.000000 0.033940 0.000000
# 6 0.000000 0.000000 0.000000 0.000000 0.000000 0.075888
#
#
# Mechanical properties :
#
#
# Convention : Reuss Voigt Hill
#
# Bulk Modulus (GPa) = 52.16811 57.34426 54.75619
# Shear Modulus (GPa) = 24.25092 28.16057 26.20574
#
# Velocity S-wave (km/s) = 3.59632 3.87539 3.73846
# Velocity P-wave (km/s) = 6.71321 7.11392 6.91646
#
# Compressibility (1/GPa) = 0.01916880
#
# Stress axis : x y z
#
# Youngs Moduli (GPa) = 86.12590 66.70655 97.89775
#
# Poissons Ratio (x) = 0.04742 0.32877
# Poissons Ratio (y) = 0.06123 0.46548
# Poissons Ratio (z) = 0.28923 0.31718
#
# Static dielectric constant tensor:
#      x y z
#    x 3.354780 0.000000 0.000000 
#    y 0.000000 3.252660 0.000000 
#    z 0.000000 0.000000 3.786260 
# 
# 
# High freq. dielectric constant tensor:
#      x y z
#    x 1.716570 0.000000 0.000000 
#    y 0.000000 1.709350 0.000000 
#    z 0.000000 0.000000 1.740220 
# 
# From -- ./inp_files/5289.got.cif
#   From: 2010.03.12/outbox.cif.g09.slc.cpg/sg49_3_cif.got.tgz:5289.got - 2010.04.14 03:58:27.
