data_PCOD8202288
_publ_section_title
;
Structure prediction by ZEFSAII (Michael W. Deem and Ramdas Pophale) SiO2 
 PCOD8202288
Probable space group: P C C M
;
_chemical_formula_sum "Si O2"
_cell_formula_units_Z 48
_cell_length_a 24.138134
_cell_length_b 13.611955
_cell_length_c 8.580215
_cell_angle_alpha 90.000000
_cell_angle_beta 90.000000
_cell_angle_gamma 90.000000
_cell_volume 2819.177165
_symmetry_space_group_name_H-M "P C C M"
_symmetry_group_IT_number 49
_symmetry_cell_setting 'orthorhombic'
loop_
_space_group_symop_operation_xyz
x,y,z
-x,-y,z
x,-y,1/2-z
-x,y,1/2-z
-x,-y,-z
x,y,-z
-x,y,1/2+z
x,-y,1/2+z
loop_
_atom_site_type_symbol
_atom_site_label
_atom_site_fract_x
_atom_site_fract_y
_atom_site_fract_z
Si Si1 0.558411 0.294537 0.681960
Si Si2 0.831271 0.108668 0.315736
Si Si3 0.944479 0.890403 0.315216
Si Si4 0.379583 0.103329 0.184865
Si Si5 0.330592 0.394496 0.184940
Si Si6 0.275009 0.206320 0.684291
O O1 0.500000 0.327984 0.750000
O O2 0.551668 0.296212 0.500000
O O3 0.575598 0.185040 0.736963
O O4 0.606080 0.370529 0.734761
O O5 0.835191 0.101611 0.500000
O O6 0.887844 0.157794 0.248502
O O7 0.782556 0.180510 0.264815
O O8 0.820519 0.000000 0.250000
O O9 0.945124 0.889557 0.500000
O O10 0.000000 0.836149 0.250000
O O11 0.944548 0.000000 0.250000
O O12 0.320561 0.127917 0.260242
O O13 0.401396 0.000000 0.250000
O O14 0.372265 0.100877 0.000000
O O15 0.313792 0.500000 0.250000
O O16 0.290141 0.315969 0.263167
O O17 0.323385 0.389095 0.000000
O O18 0.268991 0.200493 0.500000
#
# Coordination Sequence:
#
# PCOD8202288 Si02
#       6
#     8   8   8   8   8   8
#     4   9  20  35  51  71  97 123 155 193 232 278
#     4  11  20  31  46  68  98 133 169 206 242 283
#     4  10  17  27  41  61  90 128 170 208 243 281
#     4  10  20  34  49  69  95 127 161 196 235 281
#     4  10  21  38  56  76  97 122 152 190 238 290
#     4  11  21  34  51  72  96 125 158 198 241 287
#
# _framework density 17.026243999999998
#
# number of rings (size 3 to 8) (size 9 to 14) (size 15 to 20)
#    0.000    1.833    0.000    8.500    0.000    4.667 
#    0.000    3.333    0.000    0.000    0.000    0.000 
#    0.000    0.667    0.000    6.667    0.000    4.000 
#
# Total GULP energy -595176.922691 kJ/mol
# GULP energy per Si atom -12399.519223 kJ/mol
# Density = 1.698749 g / cm^3
# Si number density = 17.026244 Si / 1000 Ang^3
#
#
#
# Elastic Constant Matrix: (Units=GPa)
#
#
# Indices 1 2 3 4 5 6 
#
# 1 118.6295 14.7278 36.7838 0.0000 0.0000 0.0000
# 2 14.7278 60.1032 16.8963 0.0000 0.0000 0.0000
# 3 36.7838 16.8963 120.1148 0.0000 0.0000 0.0000
# 4 0.0000 0.0000 0.0000 19.0721 0.0000 0.0000
# 5 0.0000 0.0000 0.0000 0.0000 37.2456 0.0000
# 6 0.0000 0.0000 0.0000 0.0000 0.0000 14.5916
#
#
#
# Elastic Compliance Matrix: (Units=1/GPa)
#
#
# Indices 1 2 3 4 5 6 
#
# 1 0.009453 -0.001564 -0.002675 0.000000 0.000000 0.000000
# 2 -0.001564 0.017582 -0.001994 0.000000 0.000000 0.000000
# 3 -0.002675 -0.001994 0.009425 0.000000 0.000000 0.000000
# 4 0.000000 0.000000 0.000000 0.052433 0.000000 0.000000
# 5 0.000000 0.000000 0.000000 0.000000 0.026849 0.000000
# 6 0.000000 0.000000 0.000000 0.000000 0.000000 0.068533
#
#
# Mechanical properties :
#
#
# Convention : Reuss Voigt Hill
#
# Bulk Modulus (GPa) = 41.67825 48.40703 45.04264
# Shear Modulus (GPa) = 24.42132 29.54449 26.98291
#
# Velocity S-wave (km/s) = 3.79137 4.17013 3.98525
# Velocity P-wave (km/s) = 6.61044 7.18883 6.90569
#
# Compressibility (1/GPa) = 0.02399333
#
# Stress axis : x y z
#
# Youngs Moduli (GPa) = 105.78378 56.87630 106.10047
#
# Poissons Ratio (x) = 0.08898 0.28381
# Poissons Ratio (y) = 0.16550 0.21158
# Poissons Ratio (z) = 0.28296 0.11342
#
# Static dielectric constant tensor:
#      x y z
#    x 5.274490 0.000000 0.000000 
#    y 0.000000 2.785510 0.000000 
#    z 0.000000 0.000000 3.282050 
# 
# 
# High freq. dielectric constant tensor:
#      x y z
#    x 1.660990 0.000000 0.000000 
#    y 0.000000 1.617990 0.000000 
#    z 0.000000 0.000000 1.677140 
# 
# From -- ./inp_files/4150.got.cif
#   From: 2010.03.12/outbox.cif.g09.slc.cpg/sg49_3_cif.got.tgz:4150.got - 2010.04.14 03:58:27.
