data_PCOD8202473
_publ_section_title
;
Structure prediction by ZEFSAII (Michael W. Deem and Ramdas Pophale) SiO2 
 PCOD8202473
Probable space group: P C C M
;
_chemical_formula_sum "Si O2"
_cell_formula_units_Z 56
_cell_length_a 21.316867
_cell_length_b 18.202132
_cell_length_c 8.927648
_cell_angle_alpha 90.000000
_cell_angle_beta 90.000000
_cell_angle_gamma 90.000000
_cell_volume 3464.038368
_symmetry_space_group_name_H-M "P C C M"
_symmetry_group_IT_number 49
_symmetry_cell_setting 'orthorhombic'
loop_
_space_group_symop_operation_xyz
x,y,z
-x,-y,z
x,-y,1/2-z
-x,y,1/2-z
-x,-y,-z
x,y,-z
-x,y,1/2+z
x,-y,1/2+z
loop_
_atom_site_type_symbol
_atom_site_label
_atom_site_fract_x
_atom_site_fract_y
_atom_site_fract_z
Si Si1 0.935389 0.422830 0.322725
Si Si2 0.245893 0.797212 0.832015
Si Si3 0.183841 0.328534 0.826120
Si Si4 0.313735 0.078518 0.824300
Si Si5 0.695190 0.421140 0.323466
Si Si6 0.371885 0.295977 0.669422
Si Si7 0.436885 0.831463 0.676321
O O1 0.915420 0.500000 0.250000
O O2 0.943311 0.433657 0.500000
O O3 0.882824 0.363148 0.283546
O O4 0.000000 0.394443 0.250000
O O5 0.190246 0.748382 0.761502
O O6 0.257318 0.870864 0.736920
O O7 0.308079 0.749174 0.828824
O O8 0.226969 0.819586 0.000000
O O9 0.237809 0.386123 0.780470
O O10 0.189287 0.309686 0.000000
O O11 0.381006 0.112990 0.782112
O O12 0.308415 0.000000 0.750000
O O13 0.305236 0.070635 0.000000
O O14 0.691404 0.500000 0.250000
O O15 0.686108 0.427790 0.500000
O O16 0.638796 0.372141 0.256649
O O17 0.394129 0.311873 0.500000
O O18 0.424616 0.249095 0.754827
O O19 0.500000 0.864004 0.750000
O O20 0.445346 0.823566 0.500000
#
# Coordination Sequence:
#
# PCOD8202473 Si02
#       7
#     8   8   8   8   8   8   8
#     4  10  19  30  43  61  89 126 164 200 236 273
#     4   9  17  29  47  68  89 115 148 184 224 268
#     4   9  18  30  44  63  89 120 154 191 229 269
#     4  10  20  33  49  69  96 124 149 179 219 264
#     4  10  18  28  43  64  88 113 144 184 229 273
#     4   9  17  30  46  64  86 112 143 181 223 267
#     4  10  20  33  49  68  89 117 150 183 216 257
#
# _framework density 16.166101999999999
#
# number of rings (size 3 to 8) (size 9 to 14) (size 15 to 20)
#    0.000    2.429    0.000    3.429    0.000    7.143 
#    0.000    1.429    0.000    0.429    0.000    3.000 
#    0.000    0.571    0.000    6.000    0.000    3.286 
#
# Total GULP energy -694439.723614 kJ/mol
# GULP energy per Si atom -12400.709350 kJ/mol
# Density = 1.612931 g / cm^3
# Si number density = 16.166102 Si / 1000 Ang^3
#
#
#
# Elastic Constant Matrix: (Units=GPa)
#
#
# Indices 1 2 3 4 5 6 
#
# 1 60.5611 49.2157 35.6547 0.0000 0.0000 0.0000
# 2 49.2157 126.9290 65.8515 0.0000 0.0000 0.0000
# 3 35.6547 65.8515 99.3164 0.0000 0.0000 0.0000
# 4 0.0000 0.0000 0.0000 32.6991 0.0000 0.0000
# 5 0.0000 0.0000 0.0000 0.0000 22.4438 0.0000
# 6 0.0000 0.0000 0.0000 0.0000 0.0000 18.4597
#
#
#
# Elastic Compliance Matrix: (Units=1/GPa)
#
#
# Indices 1 2 3 4 5 6 
#
# 1 0.025059 -0.007697 -0.003893 0.000000 0.000000 0.000000
# 2 -0.007697 0.014374 -0.006767 0.000000 0.000000 0.000000
# 3 -0.003893 -0.006767 0.015953 0.000000 0.000000 0.000000
# 4 0.000000 0.000000 0.000000 0.030582 0.000000 0.000000
# 5 0.000000 0.000000 0.000000 0.000000 0.044556 0.000000
# 6 0.000000 0.000000 0.000000 0.000000 0.000000 0.054172
#
#
# Mechanical properties :
#
#
# Convention : Reuss Voigt Hill
#
# Bulk Modulus (GPa) = 53.55547 65.36114 59.45830
# Shear Modulus (GPa) = 21.96510 23.79284 22.87897
#
# Velocity S-wave (km/s) = 3.69007 3.84053 3.76605
# Velocity P-wave (km/s) = 7.16629 7.75790 7.46795
#
# Compressibility (1/GPa) = 0.01867223
#
# Stress axis : x y z
#
# Youngs Moduli (GPa) = 39.90575 69.57152 62.68258
#
# Poissons Ratio (x) = 0.53548 0.24401
# Poissons Ratio (y) = 0.30715 0.42419
# Poissons Ratio (z) = 0.15535 0.47081
#
# Static dielectric constant tensor:
#      x y z
#    x 2.912970 0.000000 0.000000 
#    y 0.000000 2.999950 0.000000 
#    z 0.000000 0.000000 3.238920 
# 
# 
# High freq. dielectric constant tensor:
#      x y z
#    x 1.588610 0.000000 0.000000 
#    y 0.000000 1.609530 0.000000 
#    z 0.000000 0.000000 1.641150 
# 
# From -- ./inp_files/4076.got.cif
#   From: 2010.03.12/outbox.cif.g09.slc.cpg/sg49_3_cif.got.tgz:4076.got - 2010.04.14 03:58:27.
