data_PCOD8202417
_publ_section_title
;
Structure prediction by ZEFSAII (Michael W. Deem and Ramdas Pophale) SiO2 
 PCOD8202417
Probable space group: P C C M
;
_chemical_formula_sum "Si O2"
_cell_formula_units_Z 64
_cell_length_a 20.725378
_cell_length_b 19.725486
_cell_length_c 8.875903
_cell_angle_alpha 90.000000
_cell_angle_beta 90.000000
_cell_angle_gamma 90.000000
_cell_volume 3628.630276
_symmetry_space_group_name_H-M "P C C M"
_symmetry_group_IT_number 49
_symmetry_cell_setting 'orthorhombic'
loop_
_space_group_symop_operation_xyz
x,y,z
-x,-y,z
x,-y,1/2-z
-x,y,1/2-z
-x,-y,-z
x,y,-z
-x,y,1/2+z
x,-y,1/2+z
loop_
_atom_site_type_symbol
_atom_site_label
_atom_site_fract_x
_atom_site_fract_y
_atom_site_fract_z
Si Si1 0.378978 0.212155 0.180563
Si Si2 0.311010 0.573209 0.178401
Si Si3 0.435100 0.341243 0.321463
Si Si4 0.614466 0.935384 0.165820
Si Si5 0.231800 0.933462 0.669011
Si Si6 0.810970 0.344648 0.823528
Si Si7 0.066833 0.427294 0.680383
Si Si8 0.241131 0.796619 0.822602
O O1 0.426811 0.266989 0.249564
O O2 0.405089 0.137872 0.233935
O O3 0.307886 0.223880 0.245247
O O4 0.375834 0.216273 0.000000
O O5 0.310819 0.500000 0.250000
O O6 0.376147 0.611288 0.227598
O O7 0.250364 0.615211 0.245118
O O8 0.307578 0.566216 0.000000
O O9 0.500000 0.372989 0.250000
O O10 0.441354 0.334729 0.500000
O O11 0.691528 0.938731 0.166311
O O12 0.584261 0.000000 0.250000
O O13 0.586169 0.941255 0.000000
O O14 0.203999 0.929703 0.500000
O O15 0.210616 0.865798 0.758066
O O16 0.202485 0.000000 0.750000
O O17 0.878059 0.375347 0.763862
O O18 0.808031 0.264727 0.785103
O O19 0.807176 0.355965 0.000000
O O20 0.084115 0.500000 0.750000
O O21 0.061503 0.432801 0.500000
O O22 0.000000 0.400187 0.750000
O O23 0.253256 0.804814 0.000000
#
# Coordination Sequence:
#
# PCOD8202417 Si02
#       8
#     8   8   8   8   8   8   8   8
#     4  10  19  32  49  72  99 127 165 206 249 302
#     4  10  21  38  56  77 100 127 163 203 251 306
#     4  11  23  39  57  74  97 126 164 207 257 312
#     4   8  15  25  40  64  93 122 155 194 235 287
#     4   9  16  26  39  63  96 132 170 207 250 299
#     4   9  18  33  52  75 105 137 171 208 251 302
#     4  10  19  33  52  74 104 139 176 214 251 300
#     4  10  17  29  48  70  99 134 168 208 256 300
#
# _framework density 17.637508
#
# number of rings (size 3 to 8) (size 9 to 14) (size 15 to 20)
#    0.000    2.375    1.250    3.375    0.000    4.750 
#    0.000    4.375    0.000    0.375    0.000    2.625 
#    0.000    0.500    0.000    5.750    0.000    1.875 
#
# Total GULP energy -793369.300038 kJ/mol
# GULP energy per Si atom -12396.395313 kJ/mol
# Density = 1.759736 g / cm^3
# Si number density = 17.637508 Si / 1000 Ang^3
#
#
#
# Elastic Constant Matrix: (Units=GPa)
#
#
# Indices 1 2 3 4 5 6 
#
# 1 93.0266 57.9660 30.9604 0.0000 0.0000 0.0000
# 2 57.9660 134.8111 39.6308 0.0000 0.0000 0.0000
# 3 30.9604 39.6308 72.9484 0.0000 0.0000 0.0000
# 4 0.0000 0.0000 0.0000 30.2154 0.0000 0.0000
# 5 0.0000 0.0000 0.0000 0.0000 13.6659 0.0000
# 6 0.0000 0.0000 0.0000 0.0000 0.0000 17.0911
#
#
#
# Elastic Compliance Matrix: (Units=1/GPa)
#
#
# Indices 1 2 3 4 5 6 
#
# 1 0.015398 -0.005593 -0.003497 0.000000 0.000000 0.000000
# 2 -0.005593 0.010859 -0.003526 0.000000 0.000000 0.000000
# 3 -0.003497 -0.003526 0.017108 0.000000 0.000000 0.000000
# 4 0.000000 0.000000 0.000000 0.033096 0.000000 0.000000
# 5 0.000000 0.000000 0.000000 0.000000 0.073175 0.000000
# 6 0.000000 0.000000 0.000000 0.000000 0.000000 0.058510
#
#
# Mechanical properties :
#
#
# Convention : Reuss Voigt Hill
#
# Bulk Modulus (GPa) = 55.14393 61.98893 58.56643
# Shear Modulus (GPa) = 20.88365 23.67641 22.28003
#
# Velocity S-wave (km/s) = 3.44473 3.66784 3.55803
# Velocity P-wave (km/s) = 6.86692 7.29107 7.08217
#
# Compressibility (1/GPa) = 0.01813436
#
# Stress axis : x y z
#
# Youngs Moduli (GPa) = 64.94139 92.08824 58.45277
#
# Poissons Ratio (x) = 0.51506 0.20440
# Poissons Ratio (y) = 0.36322 0.20609
# Poissons Ratio (z) = 0.22709 0.32467
#
# Static dielectric constant tensor:
#      x y z
#    x 3.107080 0.000000 0.000000 
#    y 0.000000 3.511460 0.000000 
#    z 0.000000 0.000000 3.289900 
# 
# 
# High freq. dielectric constant tensor:
#      x y z
#    x 1.636400 0.000000 0.000000 
#    y 0.000000 1.693960 0.000000 
#    z 0.000000 0.000000 1.682370 
# 
# From -- ./inp_files/6050.got.cif
#   From: 2010.03.12/outbox.cif.g09.slc.cpg/sg49_4_cif.got.tgz:6050.got - 2010.04.14 03:58:27.
