data_PCOD8202207
_publ_section_title
;
Structure prediction by ZEFSAII (Michael W. Deem and Ramdas Pophale) SiO2 
 PCOD8202207
Probable space group: P C C M
;
_chemical_formula_sum "Si O2"
_cell_formula_units_Z 40
_cell_length_a 25.983858
_cell_length_b 9.405960
_cell_length_c 8.741890
_cell_angle_alpha 90.000000
_cell_angle_beta 90.000000
_cell_angle_gamma 90.000000
_cell_volume 2136.545269
_symmetry_space_group_name_H-M "P C C M"
_symmetry_group_IT_number 49
_symmetry_cell_setting 'orthorhombic'
loop_
_space_group_symop_operation_xyz
x,y,z
-x,-y,z
x,-y,1/2-z
-x,y,1/2-z
-x,-y,-z
x,y,-z
-x,y,1/2+z
x,-y,1/2+z
loop_
_atom_site_type_symbol
_atom_site_label
_atom_site_fract_x
_atom_site_fract_y
_atom_site_fract_z
Si Si1 0.351344 0.154400 0.320083
Si Si2 0.948971 0.658291 0.681127
Si Si3 0.264723 0.655156 0.322634
Si Si4 0.553705 0.651467 0.319384
Si Si5 0.150786 0.347126 0.823473
O O1 0.345891 0.141925 0.500000
O O2 0.301793 0.234513 0.257764
O O3 0.402728 0.237409 0.271792
O O4 0.354868 0.000000 0.250000
O O5 0.946731 0.500000 0.750000
O O6 0.952554 0.656098 0.500000
O O7 0.896002 0.736366 0.736663
O O8 0.000000 0.735151 0.750000
O O9 0.270750 0.500000 0.250000
O O10 0.279044 0.640166 0.500000
O O11 0.207167 0.722473 0.302865
O O12 0.569376 0.500000 0.250000
O O13 0.500000 0.706537 0.250000
O O14 0.548004 0.635278 0.500000
O O15 0.156607 0.500000 0.750000
O O16 0.135306 0.361207 0.000000
#
# Coordination Sequence:
#
# PCOD8202207 Si02
#       5
#     8   8   8   8   8
#     4  11  24  39  56  79 108 141 177 217 264 313
#     4  10  16  22  33  51  80 118 157 198 246 301
#     4  10  20  34  54  77 103 136 175 218 263 312
#     4  10  21  37  59  85 110 140 175 214 256 304
#     4   9  16  26  40  61  88 120 160 204 249 300
#
# _framework density 18.721810999999999
#
# number of rings (size 3 to 8) (size 9 to 14) (size 15 to 20)
#    0.000    2.000    0.000    7.200    0.000    7.600 
#    0.000    2.000    0.000    0.000    0.000    0.000 
#    0.000    0.800    0.000    8.400    0.000    6.200 
#
# Total GULP energy -495778.688159 kJ/mol
# GULP energy per Si atom -12394.467204 kJ/mol
# Density = 1.867920 g / cm^3
# Si number density = 18.721811 Si / 1000 Ang^3
#
#
#
# Elastic Constant Matrix: (Units=GPa)
#
#
# Indices 1 2 3 4 5 6 
#
# 1 179.6715 70.5899 85.3617 0.0000 0.0000 0.0000
# 2 70.5899 74.1846 39.7004 0.0000 0.0000 0.0000
# 3 85.3617 39.7004 137.9158 0.0000 0.0000 0.0000
# 4 0.0000 0.0000 0.0000 20.8413 0.0000 0.0000
# 5 0.0000 0.0000 0.0000 0.0000 39.4289 0.0000
# 6 0.0000 0.0000 0.0000 0.0000 0.0000 -1.2846
#
#
#
# Elastic Compliance Matrix: (Units=1/GPa)
#
#
# Indices 1 2 3 4 5 6 
#
# 1 0.010742 -0.007877 -0.004381 0.000000 0.000000 0.000000
# 2 -0.007877 0.021710 -0.001374 0.000000 0.000000 0.000000
# 3 -0.004381 -0.001374 0.010358 0.000000 0.000000 0.000000
# 4 0.000000 0.000000 0.000000 0.047982 0.000000 0.000000
# 5 0.000000 0.000000 0.000000 0.000000 0.025362 0.000000
# 6 0.000000 0.000000 0.000000 0.000000 0.000000 -0.778473
#
#
# Mechanical properties :
#
#
# Convention : Reuss Voigt Hill
#
# Bulk Modulus (GPa) = 64.32558 87.00842 75.66700
# Shear Modulus (GPa) = -7.93812 24.87179 8.46684
#
# Velocity S-wave (km/s) = -2.06137 3.64880 2.12891
# Velocity P-wave (km/s) = 5.36354 8.02041 6.82255
#
# Compressibility (1/GPa) = 0.01554591
#
# Stress axis : x y z
#
# Youngs Moduli (GPa) = 93.09402 46.06088 96.54276
#
# Poissons Ratio (x) = 0.36281 0.42297
# Poissons Ratio (y) = 0.73327 0.13268
# Poissons Ratio (z) = 0.40786 0.06330
#
# Static dielectric constant tensor:
#      x y z
#    x 4.656780 0.000000 0.000000 
#    y 0.000000 2.900550 0.000000 
#    z 0.000000 0.000000 3.645570 
# 
# 
# High freq. dielectric constant tensor:
#      x y z
#    x 1.761620 0.000000 0.000000 
#    y 0.000000 1.658030 0.000000 
#    z 0.000000 0.000000 1.749650 
# 
# From -- ./inp_files/1924.got.cif
#   From: 2010.03.12/outbox.cif.g09.slc.cpg/sg49_1_cif.got.tgz:1924.got - 2010.04.14 03:58:27.
