data_PCOD8202701
_publ_section_title
;
Structure prediction by ZEFSAII (Michael W. Deem and Ramdas Pophale) SiO2 
 PCOD8202701
Probable space group: P C C M
;
_chemical_formula_sum "Si O2"
_cell_formula_units_Z 64
_cell_length_a 19.725814
_cell_length_b 20.565382
_cell_length_c 8.915980
_cell_angle_alpha 90.000000
_cell_angle_beta 90.000000
_cell_angle_gamma 90.000000
_cell_volume 3616.935801
_symmetry_space_group_name_H-M "P C C M"
_symmetry_group_IT_number 49
_symmetry_cell_setting 'orthorhombic'
loop_
_space_group_symop_operation_xyz
x,y,z
-x,-y,z
x,-y,1/2-z
-x,y,1/2-z
-x,-y,-z
x,y,-z
-x,y,1/2+z
x,-y,1/2+z
loop_
_atom_site_type_symbol
_atom_site_label
_atom_site_fract_x
_atom_site_fract_y
_atom_site_fract_z
Si Si1 0.569627 0.613588 0.676485
Si Si2 0.705410 0.566344 0.821297
Si Si3 0.787267 0.680804 0.323341
Si Si4 0.289412 0.190528 0.321742
Si Si5 0.932163 0.125403 0.176860
Si Si6 0.932950 0.273047 0.825320
Si Si7 0.567737 0.234728 0.826033
Si Si8 0.208169 0.932909 0.822112
O O1 0.500000 0.588299 0.750000
O O2 0.569933 0.598266 0.500000
O O3 0.630367 0.576648 0.756823
O O4 0.578961 0.689697 0.709542
O O5 0.734187 0.500000 0.750000
O O6 0.756150 0.622886 0.772106
O O7 0.702751 0.561889 0.000000
O O8 0.772849 0.669723 0.500000
O O9 0.753982 0.747903 0.266371
O O10 0.867379 0.683531 0.287645
O O11 0.287326 0.190725 0.500000
O O12 0.366743 0.196395 0.263174
O O13 0.257329 0.123894 0.260093
O O14 0.920852 0.199426 0.232602
O O15 0.868273 0.082959 0.230393
O O16 0.000000 0.095650 0.250000
O O17 0.939705 0.122600 0.000000
O O18 0.000000 0.303839 0.750000
O O19 0.946575 0.271681 0.000000
O O20 0.500000 0.207159 0.750000
O O21 0.558679 0.222324 0.000000
O O22 0.232605 0.000000 0.750000
O O23 0.213029 0.937899 0.000000
#
# Coordination Sequence:
#
# PCOD8202701 Si02
#       8
#     8   8   8   8   8   8   8   8
#     4  10  19  34  55  80 111 145 181 219 262 316
#     4  12  25  39  55  79 110 145 182 222 267 317
#     4  10  18  35  59  80 103 139 181 220 266 320
#     4   9  16  32  56  76  99 138 178 212 261 320
#     4   9  17  30  48  71 101 138 175 212 253 309
#     4   9  17  30  53  80 107 137 173 216 265 318
#     4   9  17  30  52  78 104 133 167 212 260 311
#     4  10  20  34  51  72 102 139 180 218 261 312
#
# _framework density 17.694534999999998
#
# number of rings (size 3 to 8) (size 9 to 14) (size 15 to 20)
#    0.000    2.250    2.500    1.500    0.000    2.000 
#    0.000    3.750    0.000    0.750    0.000    5.250 
#    0.000    0.000    0.000    0.000    0.000    0.000 
#
# Total GULP energy -793579.769653 kJ/mol
# GULP energy per Si atom -12399.683901 kJ/mol
# Density = 1.765426 g / cm^3
# Si number density = 17.694535 Si / 1000 Ang^3
#
#
#
# Elastic Constant Matrix: (Units=GPa)
#
#
# Indices 1 2 3 4 5 6 
#
# 1 129.0973 62.7195 41.8450 0.0000 0.0000 0.0000
# 2 62.7195 105.0930 40.8112 0.0000 0.0000 0.0000
# 3 41.8450 40.8112 57.5790 0.0000 0.0000 0.0000
# 4 0.0000 0.0000 0.0000 23.1012 0.0000 0.0000
# 5 0.0000 0.0000 0.0000 0.0000 31.2540 0.0000
# 6 0.0000 0.0000 0.0000 0.0000 0.0000 20.5573
#
#
#
# Elastic Compliance Matrix: (Units=1/GPa)
#
#
# Indices 1 2 3 4 5 6 
#
# 1 0.011857 -0.005147 -0.004969 0.000000 0.000000 0.000000
# 2 -0.005147 0.015363 -0.007149 0.000000 0.000000 0.000000
# 3 -0.004969 -0.007149 0.026046 0.000000 0.000000 0.000000
# 4 0.000000 0.000000 0.000000 0.043288 0.000000 0.000000
# 5 0.000000 0.000000 0.000000 0.000000 0.031996 0.000000
# 6 0.000000 0.000000 0.000000 0.000000 0.000000 0.048645
#
#
# Mechanical properties :
#
#
# Convention : Reuss Voigt Hill
#
# Bulk Modulus (GPa) = 53.37151 64.72452 59.04801
# Shear Modulus (GPa) = 22.93901 24.74207 23.84054
#
# Velocity S-wave (km/s) = 3.60445 3.74343 3.67459
# Velocity P-wave (km/s) = 6.89572 7.43926 7.17264
#
# Compressibility (1/GPa) = 0.01873659
#
# Stress axis : x y z
#
# Youngs Moduli (GPa) = 84.33691 65.09132 38.39397
#
# Poissons Ratio (x) = 0.33500 0.19079
# Poissons Ratio (y) = 0.43405 0.27447
# Poissons Ratio (z) = 0.41909 0.46533
#
# Static dielectric constant tensor:
#      x y z
#    x 3.507770 0.000000 0.000000 
#    y 0.000000 3.199990 0.000000 
#    z 0.000000 0.000000 3.094320 
# 
# 
# High freq. dielectric constant tensor:
#      x y z
#    x 1.692200 0.000000 0.000000 
#    y 0.000000 1.661290 0.000000 
#    z 0.000000 0.000000 1.668170 
# 
# From -- ./inp_files/5951.got.cif
#   From: 2010.03.12/outbox.cif.g09.slc.cpg/sg49_3_cif.got.tgz:5951.got - 2010.04.14 03:58:27.
