data_PCOD8202679
_publ_section_title
;
Structure prediction by ZEFSAII (Michael W. Deem and Ramdas Pophale) SiO2 
 PCOD8202679
Probable space group: P C C M
;
_chemical_formula_sum "Si O2"
_cell_formula_units_Z 64
_cell_length_a 11.355231
_cell_length_b 15.668194
_cell_length_c 17.054388
_cell_angle_alpha 90.000000
_cell_angle_beta 90.000000
_cell_angle_gamma 90.000000
_cell_volume 3034.247851
_symmetry_space_group_name_H-M "P C C M"
_symmetry_group_IT_number 49
_symmetry_cell_setting 'orthorhombic'
loop_
_space_group_symop_operation_xyz
x,y,z
-x,-y,z
x,-y,1/2-z
-x,y,1/2-z
-x,-y,-z
x,y,-z
-x,y,1/2+z
x,-y,1/2+z
loop_
_atom_site_type_symbol
_atom_site_label
_atom_site_fract_x
_atom_site_fract_y
_atom_site_fract_z
Si Si1 0.576088 0.845380 0.587890
Si Si2 0.718800 0.088394 0.208697
Si Si3 0.004883 0.275141 0.156506
Si Si4 0.605309 0.771301 0.189272
Si Si5 0.751530 0.311180 0.909363
Si Si6 0.627667 0.477271 0.909544
Si Si7 0.031771 0.090302 0.660362
Si Si8 0.761553 0.351556 0.591415
O O1 0.576572 0.879878 0.500000
O O2 0.609263 0.921131 0.648501
O O3 0.447399 0.813208 0.610489
O O4 0.672533 0.772039 0.604148
O O5 0.696670 0.162964 0.271648
O O6 0.830062 0.110128 0.154279
O O7 0.742644 0.000000 0.250000
O O8 0.103612 0.335445 0.117431
O O9 0.000000 0.280127 0.250000
O O10 0.877555 0.306214 0.130410
O O11 0.031068 0.176452 0.127690
O O12 0.500000 0.745944 0.250000
O O13 0.677725 0.692631 0.155646
O O14 0.679926 0.390808 0.871205
O O15 0.774874 0.327929 0.000000
O O16 0.500000 0.500000 0.870757
O O17 0.727181 0.549637 0.899939
O O18 0.601980 0.457031 0.000000
O O19 0.000000 0.077754 0.750000
O O20 0.000000 0.000000 0.616090
O O21 0.743168 0.322788 0.500000
#
# Coordination Sequence:
#
# PCOD8202679 Si02
#       8
#     8   8   8   8   8   8   8   8
#     4  10  21  38  62  89 121 161 209 256 306 374
#     4  11  21  38  63  89 118 157 208 252 315 382
#     4  11  23  38  63  88 127 168 209 261 321 378
#     4  10  22  37  63  90 124 163 206 256 320 381
#     4  10  20  38  65  91 120 163 214 258 307 374
#     4   9  19  38  65  93 121 162 213 260 311 376
#     4  10  18  33  60  88 110 152 209 253 297 364
#     4  11  23  40  63  94 129 164 213 266 315 375
#
# _framework density 21.092542000000002
#
# number of rings (size 3 to 8) (size 9 to 14) (size 15 to 20)
#    0.000    1.750    2.500    3.000    1.750    4.750 
#    0.000    5.000    0.000    1.875    0.000    0.000 
#    0.000    0.000    0.000    0.000    0.000    0.000 
#
# Total GULP energy -793014.507396 kJ/mol
# GULP energy per Si atom -12390.851678 kJ/mol
# Density = 2.104453 g / cm^3
# Si number density = 21.092542 Si / 1000 Ang^3
#
#
#
# Elastic Constant Matrix: (Units=GPa)
#
#
# Indices 1 2 3 4 5 6 
#
# 1 104.9254 27.2420 18.1730 0.0000 0.0000 0.0000
# 2 27.2420 71.1652 18.1973 0.0000 0.0000 0.0000
# 3 18.1730 18.1973 69.6941 0.0000 0.0000 0.0000
# 4 0.0000 0.0000 0.0000 19.0284 0.0000 0.0000
# 5 0.0000 0.0000 0.0000 0.0000 25.6958 0.0000
# 6 0.0000 0.0000 0.0000 0.0000 0.0000 34.6468
#
#
#
# Elastic Compliance Matrix: (Units=1/GPa)
#
#
# Indices 1 2 3 4 5 6 
#
# 1 0.010803 -0.003659 -0.001861 0.000000 0.000000 0.000000
# 2 -0.003659 0.016297 -0.003301 0.000000 0.000000 0.000000
# 3 -0.001861 -0.003301 0.015696 0.000000 0.000000 0.000000
# 4 0.000000 0.000000 0.000000 0.052553 0.000000 0.000000
# 5 0.000000 0.000000 0.000000 0.000000 0.038917 0.000000
# 6 0.000000 0.000000 0.000000 0.000000 0.000000 0.028863
#
#
# Mechanical properties :
#
#
# Convention : Reuss Voigt Hill
#
# Bulk Modulus (GPa) = 39.75847 41.44549 40.60198
# Shear Modulus (GPa) = 26.43327 28.01902 27.22614
#
# Velocity S-wave (km/s) = 3.54390 3.64866 3.59666
# Velocity P-wave (km/s) = 5.96960 6.11901 6.04477
#
# Compressibility (1/GPa) = 0.02515187
#
# Stress axis : x y z
#
# Youngs Moduli (GPa) = 92.56610 61.36218 63.71183
#
# Poissons Ratio (x) = 0.22455 0.11860
# Poissons Ratio (y) = 0.33874 0.21031
# Poissons Ratio (z) = 0.17231 0.20255
#
# Static dielectric constant tensor:
#      x y z
#    x 4.832350 0.000000 0.000000 
#    y 0.000000 3.956940 0.000000 
#    z 0.000000 0.000000 3.767890 
# 
# 
# High freq. dielectric constant tensor:
#      x y z
#    x 1.838350 0.000000 0.000000 
#    y 0.000000 1.821500 0.000000 
#    z 0.000000 0.000000 1.804830 
# 
# From -- ./inp_files/17295.got.cif
#   From: 2010.03.12/outbox.cif.g09.slc.cpg/sg49_9_cif.got.tgz:17295.got - 2010.04.14 03:58:27.
