data_PCOD8202049
_publ_section_title
;
Structure prediction by ZEFSAII (Michael W. Deem and Ramdas Pophale) SiO2 
 PCOD8202049
Probable space group: P N N N
;
_chemical_formula_sum "Si O2"
_cell_formula_units_Z 56
_cell_length_a 14.879203
_cell_length_b 20.450982
_cell_length_c 8.139931
_cell_angle_alpha 90.000000
_cell_angle_beta 90.000000
_cell_angle_gamma 90.000000
_cell_volume 2476.934709
_symmetry_space_group_name_H-M "P N N N"
_symmetry_group_IT_number 48
_space_group.IT_coordinate_system_code '2'
_symmetry_cell_setting 'orthorhombic'
loop_
_space_group_symop_operation_xyz
x,y,z
1/2-x,1/2-y,z
x,1/2-y,1/2-z
1/2-x,y,1/2-z
-x,-y,-z
1/2+x,1/2+y,-z
-x,1/2+y,1/2+z
1/2+x,-y,1/2+z
loop_
_atom_site_type_symbol
_atom_site_label
_atom_site_fract_x
_atom_site_fract_y
_atom_site_fract_z
Si Si1 0.048552 0.318287 0.817210
Si Si2 0.106892 0.889368 0.151706
Si Si3 0.149541 0.450009 0.814571
Si Si4 0.846720 0.514732 0.809573
Si Si5 0.523032 0.058340 0.342059
Si Si6 0.761581 0.326176 0.064810
Si Si7 0.049163 0.814932 0.639347
O O1 0.088381 0.250000 0.750000
O O2 0.119083 0.375773 0.778651
O O3 0.954675 0.331409 0.721735
O O4 0.034753 0.311169 0.014578
O O5 0.141800 0.936020 0.298483
O O6 0.045662 0.936500 0.035133
O O7 0.194861 0.862411 0.059010
O O8 0.250000 0.461439 0.750000
O O9 0.082374 0.500635 0.732294
O O10 0.139811 0.462979 0.006055
O O11 0.750000 0.538333 0.750000
O O12 0.917857 0.548859 0.689863
O O13 0.544495 0.129008 0.272255
O O14 0.750000 0.250000 0.054863
O O15 0.750000 0.353605 0.250000
O O16 0.866657 0.333805 0.020892
O O17 0.062527 0.750000 0.750000
#
# Coordination Sequence:
#
# PCOD8202049 Si02
#       7
#     8   8   8   8   8   8   8
#     4  12  27  48  74 104 143 194 252 308 373 444
#     4  12  26  42  71 112 148 192 243 304 361 453
#     4  12  28  50  75 105 148 195 249 317 377 442
#     4  12  27  45  72 110 141 190 248 310 371 445
#     4  12  24  46  75 103 149 194 238 298 379 441
#     4  11  21  39  65 103 149 195 237 283 362 449
#     4  12  24  45  74 105 151 198 244 295 377 453
#
# _framework density 22.608591000000001
#
# number of rings (size 3 to 8) (size 9 to 14) (size 15 to 20)
#    0.000    0.143    5.714    4.286    8.000    0.286 
#    0.000    1.429    0.000    0.429    0.000    0.000 
#    0.000    0.000    0.000    0.000    0.000    0.000 
#
# Total GULP energy -694290.623861 kJ/mol
# GULP energy per Si atom -12398.046855 kJ/mol
# Density = 2.255713 g / cm^3
# Si number density = 22.608591 Si / 1000 Ang^3
#
#
#
# Elastic Constant Matrix: (Units=GPa)
#
#
# Indices 1 2 3 4 5 6 
#
# 1 125.9391 44.8622 20.4549 0.0000 0.0000 0.0000
# 2 44.8622 142.2509 44.2993 0.0000 0.0000 0.0000
# 3 20.4549 44.2993 86.6240 0.0000 0.0000 0.0000
# 4 0.0000 0.0000 0.0000 38.2752 0.0000 0.0000
# 5 0.0000 0.0000 0.0000 0.0000 37.3998 0.0000
# 6 0.0000 0.0000 0.0000 0.0000 0.0000 24.2920
#
#
#
# Elastic Compliance Matrix: (Units=1/GPa)
#
#
# Indices 1 2 3 4 5 6 
#
# 1 0.008992 -0.002586 -0.000801 0.000000 0.000000 0.000000
# 2 -0.002586 0.009105 -0.004046 0.000000 0.000000 0.000000
# 3 -0.000801 -0.004046 0.013802 0.000000 0.000000 0.000000
# 4 0.000000 0.000000 0.000000 0.026127 0.000000 0.000000
# 5 0.000000 0.000000 0.000000 0.000000 0.026738 0.000000
# 6 0.000000 0.000000 0.000000 0.000000 0.000000 0.041166
#
#
# Mechanical properties :
#
#
# Convention : Reuss Voigt Hill
#
# Bulk Modulus (GPa) = 58.70671 63.78299 61.24485
# Shear Modulus (GPa) = 34.13591 36.33988 35.23789
#
# Velocity S-wave (km/s) = 3.88991 4.01352 3.95220
# Velocity P-wave (km/s) = 6.79692 7.05343 6.92637
#
# Compressibility (1/GPa) = 0.01703383
#
# Stress axis : x y z
#
# Youngs Moduli (GPa) = 111.21337 109.82434 72.45231
#
# Poissons Ratio (x) = 0.28406 0.05800
# Poissons Ratio (y) = 0.28765 0.29312
# Poissons Ratio (z) = 0.08903 0.44432
#
# Static dielectric constant tensor:
#      x y z
#    x 7.553210 0.000000 0.000000 
#    y 0.000000 4.093710 0.000000 
#    z 0.000000 0.000000 4.152140 
# 
# 
# High freq. dielectric constant tensor:
#      x y z
#    x 1.886710 0.000000 0.000000 
#    y 0.000000 1.902160 0.000000 
#    z 0.000000 0.000000 1.904410 
# 
# From -- ./inp_files/13108.got.cif
#   From: 2010.06.25/outbox.cif.g09.slc.cpg/sg48_7_cif.got.tgz:13108.got - 2010.06.26 18:06:46.
