data_PCOD8202616
_publ_section_title
;
Structure prediction by ZEFSAII (Michael W. Deem and Ramdas Pophale) SiO2 
 PCOD8202616
Probable space group: P C C M
;
_chemical_formula_sum "Si O2"
_cell_formula_units_Z 64
_cell_length_a 19.742798
_cell_length_b 20.839070
_cell_length_c 8.704192
_cell_angle_alpha 90.000000
_cell_angle_beta 90.000000
_cell_angle_gamma 90.000000
_cell_volume 3581.092160
_symmetry_space_group_name_H-M "P C C M"
_symmetry_group_IT_number 49
_symmetry_cell_setting 'orthorhombic'
loop_
_space_group_symop_operation_xyz
x,y,z
-x,-y,z
x,-y,1/2-z
-x,y,1/2-z
-x,-y,-z
x,y,-z
-x,y,1/2+z
x,-y,1/2+z
loop_
_atom_site_type_symbol
_atom_site_label
_atom_site_fract_x
_atom_site_fract_y
_atom_site_fract_z
Si Si1 0.712302 0.187745 0.182663
Si Si2 0.568748 0.230753 0.181099
Si Si3 0.290762 0.567210 0.182236
Si Si4 0.568766 0.376931 0.818857
Si Si5 0.789586 0.311543 0.180187
Si Si6 0.928889 0.121198 0.682797
Si Si7 0.068725 0.260310 0.680636
Si Si8 0.796254 0.933783 0.682962
O O1 0.634017 0.190332 0.237643
O O2 0.752319 0.249204 0.251572
O O3 0.746686 0.122609 0.242992
O O4 0.716681 0.190027 0.000000
O O5 0.500000 0.200378 0.250000
O O6 0.577914 0.303854 0.239108
O O7 0.562792 0.228542 0.000000
O O8 0.265931 0.500000 0.250000
O O9 0.367090 0.582176 0.239131
O O10 0.241163 0.622733 0.248226
O O11 0.287012 0.564043 0.000000
O O12 0.500000 0.407112 0.750000
O O13 0.563737 0.379042 0.000000
O O14 0.869806 0.308953 0.215387
O O15 0.775049 0.310826 0.000000
O O16 0.930222 0.118338 0.500000
O O17 0.914822 0.193364 0.738229
O O18 0.870846 0.075619 0.748385
O O19 0.000000 0.096109 0.750000
O O20 0.060127 0.247364 0.500000
O O21 0.000000 0.290787 0.750000
O O22 0.800048 0.935826 0.500000
O O23 0.766593 0.000000 0.750000
#
# Coordination Sequence:
#
# PCOD8202616 Si02
#       8
#     8   8   8   8   8   8   8   8
#     4   9  16  31  56  77  97 133 176 209 250 310
#     4   9  16  29  51  77 101 129 167 211 256 302
#     4  10  20  34  51  72 100 135 174 212 253 302
#     4   9  17  29  47  69  98 132 167 205 245 297
#     4   9  16  31  55  76  96 133 176 209 249 308
#     4  11  21  34  52  77 108 142 176 210 252 303
#     4  10  18  31  53  79 105 133 169 212 260 306
#     4  11  22  37  55  77 105 138 176 215 260 310
#
# _framework density 17.871642000000001
#
# number of rings (size 3 to 8) (size 9 to 14) (size 15 to 20)
#    0.000    2.250    2.500    2.625    0.000    1.000 
#    0.000    5.000    0.000    0.750    0.000    5.250 
#    0.000    0.000    0.000    0.000    0.000    0.000 
#
# Total GULP energy -793482.921838 kJ/mol
# GULP energy per Si atom -12398.170654 kJ/mol
# Density = 1.783097 g / cm^3
# Si number density = 17.871642 Si / 1000 Ang^3
#
#
#
# Elastic Constant Matrix: (Units=GPa)
#
#
# Indices 1 2 3 4 5 6 
#
# 1 131.5018 75.1803 30.3824 0.0000 0.0000 0.0000
# 2 75.1803 123.4357 25.9876 0.0000 0.0000 0.0000
# 3 30.3824 25.9876 53.4266 0.0000 0.0000 0.0000
# 4 0.0000 0.0000 0.0000 11.6899 0.0000 0.0000
# 5 0.0000 0.0000 0.0000 0.0000 21.7303 0.0000
# 6 0.0000 0.0000 0.0000 0.0000 0.0000 25.5143
#
#
#
# Elastic Compliance Matrix: (Units=1/GPa)
#
#
# Indices 1 2 3 4 5 6 
#
# 1 0.012301 -0.006706 -0.003733 0.000000 0.000000 0.000000
# 2 -0.006706 0.012682 -0.002355 0.000000 0.000000 0.000000
# 3 -0.003733 -0.002355 0.021986 0.000000 0.000000 0.000000
# 4 0.000000 0.000000 0.000000 0.085544 0.000000 0.000000
# 5 0.000000 0.000000 0.000000 0.000000 0.046019 0.000000
# 6 0.000000 0.000000 0.000000 0.000000 0.000000 0.039194
#
#
# Mechanical properties :
#
#
# Convention : Reuss Voigt Hill
#
# Bulk Modulus (GPa) = 46.77338 63.49607 55.13472
# Shear Modulus (GPa) = 19.96486 23.57448 21.76967
#
# Velocity S-wave (km/s) = 3.34597 3.63588 3.49393
# Velocity P-wave (km/s) = 6.41529 7.29604 6.86980
#
# Compressibility (1/GPa) = 0.02137968
#
# Stress axis : x y z
#
# Youngs Moduli (GPa) = 81.29490 78.85436 45.48391
#
# Poissons Ratio (x) = 0.52880 0.16980
# Poissons Ratio (y) = 0.54517 0.10711
# Poissons Ratio (z) = 0.30350 0.18570
#
# Static dielectric constant tensor:
#      x y z
#    x 3.591720 0.000000 0.000000 
#    y 0.000000 3.259610 0.000000 
#    z 0.000000 0.000000 3.060090 
# 
# 
# High freq. dielectric constant tensor:
#      x y z
#    x 1.699150 0.000000 0.000000 
#    y 0.000000 1.666740 0.000000 
#    z 0.000000 0.000000 1.670270 
# 
# From -- ./inp_files/6080.got.cif
#   From: 2010.03.12/outbox.cif.g09.slc.cpg/sg49_4_cif.got.tgz:6080.got - 2010.04.14 03:58:27.
