data_PCOD8202206
_publ_section_title
;
Structure prediction by ZEFSAII (Michael W. Deem and Ramdas Pophale) SiO2 
 PCOD8202206
Probable space group: P C C M
;
_chemical_formula_sum "Si O2"
_cell_formula_units_Z 48
_cell_length_a 31.516232
_cell_length_b 9.383164
_cell_length_c 8.779453
_cell_angle_alpha 90.000000
_cell_angle_beta 90.000000
_cell_angle_gamma 90.000000
_cell_volume 2596.277168
_symmetry_space_group_name_H-M "P C C M"
_symmetry_group_IT_number 49
_symmetry_cell_setting 'orthorhombic'
loop_
_space_group_symop_operation_xyz
x,y,z
-x,-y,z
x,-y,1/2-z
-x,y,1/2-z
-x,-y,-z
x,y,-z
-x,y,1/2+z
x,-y,1/2+z
loop_
_atom_site_type_symbol
_atom_site_label
_atom_site_fract_x
_atom_site_fract_y
_atom_site_fract_z
Si Si1 0.958000 0.658528 0.819278
Si Si2 0.366425 0.346112 0.821718
Si Si3 0.876043 0.652644 0.675568
Si Si4 0.459450 0.344842 0.177921
Si Si5 0.217960 0.655461 0.823082
Si Si6 0.710608 0.844923 0.819455
O O1 0.956136 0.500000 0.750000
O O2 0.914380 0.736645 0.763186
O O3 0.000000 0.735505 0.750000
O O4 0.960886 0.656413 0.000000
O O5 0.359151 0.500000 0.750000
O O6 0.413097 0.278503 0.784047
O O7 0.331118 0.237860 0.759740
O O8 0.361390 0.369302 0.000000
O O9 0.870949 0.500000 0.750000
O O10 0.889189 0.637365 0.500000
O O11 0.829563 0.722866 0.693794
O O12 0.458977 0.500000 0.250000
O O13 0.500000 0.259170 0.250000
O O14 0.467129 0.355559 0.000000
O O15 0.222470 0.500000 0.750000
O O16 0.247855 0.764446 0.736801
O O17 0.230537 0.642853 0.000000
O O18 0.709420 0.000000 0.750000
O O19 0.711637 0.855919 0.000000
#
# Coordination Sequence:
#
# PCOD8202206 Si02
#       6
#     8   8   8   8   8   8
#     4  10  16  22  33  51  80 117 155 191 232 282
#     4   9  19  33  51  75 102 131 164 203 244 291
#     4   9  16  26  40  60  87 118 154 194 237 284
#     4   9  15  25  42  68  99 127 157 194 238 283
#     4  10  20  34  53  76 101 130 165 207 252 299
#     4  11  23  38  54  73  99 131 167 208 254 303
#
# _framework density 18.488011
#
# number of rings (size 3 to 8) (size 9 to 14) (size 15 to 20)
#    0.000    2.333    0.000    6.000    0.000    5.333 
#    0.000    0.000    0.000    0.500    0.000    3.500 
#    0.000    0.667    0.000    7.000    0.000    5.167 
#
# Total GULP energy -594683.296211 kJ/mol
# GULP energy per Si atom -12389.235338 kJ/mol
# Density = 1.844593 g / cm^3
# Si number density = 18.488011 Si / 1000 Ang^3
#
#
#
# Elastic Constant Matrix: (Units=GPa)
#
#
# Indices 1 2 3 4 5 6 
#
# 1 186.9848 53.1708 70.1088 0.0000 0.0000 0.0000
# 2 53.1708 62.0791 28.3424 0.0000 0.0000 0.0000
# 3 70.1088 28.3424 118.9016 0.0000 0.0000 0.0000
# 4 0.0000 0.0000 0.0000 17.2104 0.0000 0.0000
# 5 0.0000 0.0000 0.0000 0.0000 36.7177 0.0000
# 6 0.0000 0.0000 0.0000 0.0000 0.0000 1.7607
#
#
#
# Elastic Compliance Matrix: (Units=1/GPa)
#
#
# Indices 1 2 3 4 5 6 
#
# 1 0.008222 -0.005419 -0.003557 0.000000 0.000000 0.000000
# 2 -0.005419 0.021647 -0.001965 0.000000 0.000000 0.000000
# 3 -0.003557 -0.001965 0.010976 0.000000 0.000000 0.000000
# 4 0.000000 0.000000 0.000000 0.058104 0.000000 0.000000
# 5 0.000000 0.000000 0.000000 0.000000 0.027235 0.000000
# 6 0.000000 0.000000 0.000000 0.000000 0.000000 0.567947
#
#
# Mechanical properties :
#
#
# Convention : Reuss Voigt Hill
#
# Bulk Modulus (GPa) = 52.72980 74.57884 63.65432
# Shear Modulus (GPa) = 6.92202 25.56065 16.24133
#
# Velocity S-wave (km/s) = 1.93706 3.72230 2.96713
# Velocity P-wave (km/s) = 5.79534 7.67468 6.80024
#
# Compressibility (1/GPa) = 0.01896461
#
# Stress axis : x y z
#
# Youngs Moduli (GPa) = 121.61882 46.19645 91.10986
#
# Poissons Ratio (x) = 0.25033 0.32404
# Poissons Ratio (y) = 0.65902 0.17901
# Poissons Ratio (z) = 0.43255 0.09077
#
# Static dielectric constant tensor:
#      x y z
#    x 5.190830 0.000000 0.000000 
#    y 0.000000 2.747840 0.000000 
#    z 0.000000 0.000000 3.531460 
# 
# 
# High freq. dielectric constant tensor:
#      x y z
#    x 1.757920 0.000000 0.000000 
#    y 0.000000 1.632040 0.000000 
#    z 0.000000 0.000000 1.734210 
# 
# From -- ./inp_files/6872.got.cif
#   From: 2010.03.12/outbox.cif.g09.slc.cpg/sg49_4_cif.got.tgz:6872.got - 2010.04.14 03:58:27.
