data_PCOD8202160
_publ_section_title
;
Structure prediction by ZEFSAII (Michael W. Deem and Ramdas Pophale) SiO2 
 PCOD8202160
Probable space group: P N N N
;
_chemical_formula_sum "Si O2"
_cell_formula_units_Z 40
_cell_length_a 22.972734
_cell_length_b 6.280848
_cell_length_c 11.583095
_cell_angle_alpha 90.000000
_cell_angle_beta 90.000000
_cell_angle_gamma 90.000000
_cell_volume 1671.304512
_symmetry_space_group_name_H-M "P N N N"
_symmetry_group_IT_number 48
_space_group.IT_coordinate_system_code '2'
_symmetry_cell_setting 'orthorhombic'
loop_
_space_group_symop_operation_xyz
x,y,z
1/2-x,1/2-y,z
x,1/2-y,1/2-z
1/2-x,y,1/2-z
-x,-y,-z
1/2+x,1/2+y,-z
-x,1/2+y,1/2+z
1/2+x,-y,1/2+z
loop_
_atom_site_type_symbol
_atom_site_label
_atom_site_fract_x
_atom_site_fract_y
_atom_site_fract_z
Si Si1 0.750000 0.250000 0.250000
Si Si2 0.963534 0.750000 0.750000
Si Si3 0.560897 0.620362 0.988357
Si Si4 0.647215 0.288399 0.092862
Si Si5 0.690614 0.368803 0.641203
Si Si6 0.250000 0.250000 0.250000
Si Si7 0.561976 0.947232 0.169033
O O1 0.706016 0.369876 0.159904
O O2 0.923269 0.840489 0.853708
O O3 0.001852 0.552902 0.792988
O O4 0.500000 0.500000 0.000000
O O5 0.610350 0.494719 0.058333
O O6 0.554065 0.855528 0.040802
O O7 0.612657 0.124815 0.176282
O O8 0.654979 0.149343 0.976454
O O9 0.750000 0.250000 0.616820
O O10 0.658683 0.250000 0.750000
O O11 0.706523 0.612608 0.669787
O O12 0.578757 0.750000 0.250000
#
# Coordination Sequence:
#
# PCOD8202160 Si02
#       7
#     2   4   8   8   8   2   8
#     4  12  26  52  76 100 154 206 254 314 384 468
#     4  12  25  46  75 109 153 194 251 319 382 470
#     4  12  26  47  76 109 155 199 254 319 396 462
#     4  12  26  47  74 109 147 203 258 316 384 466
#     4   9  20  42  70  95 141 184 241 313 371 442
#     4   8  18  40  70  96 134 196 234 310 382 436
#     4  12  24  45  74 109 152 200 247 317 388 460
#
# _framework density 23.933401
#
# number of rings (size 3 to 8) (size 9 to 14) (size 15 to 20)
#    0.000    1.000    5.000    2.400    0.000    4.800 
#    3.600    2.000    0.000    0.000    0.000    0.000 
#    0.000    0.000    0.000    0.000    0.000    0.000 
#
# Total GULP energy -495633.011478 kJ/mol
# GULP energy per Si atom -12390.825287 kJ/mol
# Density = 2.387893 g / cm^3
# Si number density = 23.933401 Si / 1000 Ang^3
#
#
#
# Elastic Constant Matrix: (Units=GPa)
#
#
# Indices 1 2 3 4 5 6 
#
# 1 102.3055 41.6288 52.5665 0.0000 0.0000 0.0000
# 2 41.6288 138.4283 63.1226 0.0000 0.0000 0.0000
# 3 52.5665 63.1226 149.5476 0.0000 0.0000 0.0000
# 4 0.0000 0.0000 0.0000 38.8937 0.0000 0.0000
# 5 0.0000 0.0000 0.0000 0.0000 43.2030 0.0000
# 6 0.0000 0.0000 0.0000 0.0000 0.0000 21.2420
#
#
#
# Elastic Compliance Matrix: (Units=1/GPa)
#
#
# Indices 1 2 3 4 5 6 
#
# 1 0.012431 -0.002162 -0.003457 0.000000 0.000000 0.000000
# 2 -0.002162 0.009322 -0.003175 0.000000 0.000000 0.000000
# 3 -0.003457 -0.003175 0.009242 0.000000 0.000000 0.000000
# 4 0.000000 0.000000 0.000000 0.025711 0.000000 0.000000
# 5 0.000000 0.000000 0.000000 0.000000 0.023147 0.000000
# 6 0.000000 0.000000 0.000000 0.000000 0.000000 0.047077
#
#
# Mechanical properties :
#
#
# Convention : Reuss Voigt Hill
#
# Bulk Modulus (GPa) = 74.58605 78.32411 76.45508
# Shear Modulus (GPa) = 33.56057 36.19866 34.87962
#
# Velocity S-wave (km/s) = 3.74872 3.89327 3.82168
# Velocity P-wave (km/s) = 7.06887 7.28059 7.17551
#
# Compressibility (1/GPa) = 0.01340733
#
# Stress axis : x y z
#
# Youngs Moduli (GPa) = 80.44715 107.27626 108.20223
#
# Poissons Ratio (x) = 0.23191 0.37404
# Poissons Ratio (y) = 0.17391 0.34351
# Poissons Ratio (z) = 0.27810 0.34057
#
# Static dielectric constant tensor:
#      x y z
#    x 4.077150 0.000000 0.000000 
#    y 0.000000 4.300780 0.000000 
#    z 0.000000 0.000000 5.321100 
# 
# 
# High freq. dielectric constant tensor:
#      x y z
#    x 1.928160 0.000000 0.000000 
#    y 0.000000 1.940950 0.000000 
#    z 0.000000 0.000000 1.985800 
# 
# From -- ./inp_files/23569.got.cif
#   From: 2010.06.25/outbox.cif.g09.slc.cpg/sg48_12_cif.got.tgz:23569.got - 2010.06.26 18:06:46.
