data_PCOD8202869
_publ_section_title
;
Structure prediction by ZEFSAII (Michael W. Deem and Ramdas Pophale) SiO2 
 PCOD8202869
Probable space group: P C C M
;
_chemical_formula_sum "Si O2"
_cell_formula_units_Z 64
_cell_length_a 23.001806
_cell_length_b 18.496954
_cell_length_c 8.627254
_cell_angle_alpha 90.000000
_cell_angle_beta 90.000000
_cell_angle_gamma 90.000000
_cell_volume 3670.580367
_symmetry_space_group_name_H-M "P C C M"
_symmetry_group_IT_number 49
_symmetry_cell_setting 'orthorhombic'
loop_
_space_group_symop_operation_xyz
x,y,z
-x,-y,z
x,-y,1/2-z
-x,y,1/2-z
-x,-y,-z
x,y,-z
-x,y,1/2+z
x,-y,1/2+z
loop_
_atom_site_type_symbol
_atom_site_label
_atom_site_fract_x
_atom_site_fract_y
_atom_site_fract_z
Si Si1 0.563286 0.423653 0.682203
Si Si2 0.653421 0.318942 0.176651
Si Si3 0.249416 0.782419 0.819036
Si Si4 0.737538 0.575701 0.175608
Si Si5 0.817196 0.925789 0.681606
Si Si6 0.061241 0.876185 0.317501
Si Si7 0.943817 0.719862 0.321610
Si Si8 0.837238 0.327341 0.328472
O O1 0.589049 0.500000 0.750000
O O2 0.500000 0.409417 0.750000
O O3 0.559093 0.433052 0.500000
O O4 0.601150 0.351578 0.719833
O O5 0.681794 0.238912 0.216471
O O6 0.708002 0.370150 0.204710
O O7 0.631783 0.321182 0.000000
O O8 0.231864 0.865040 0.779550
O O9 0.207878 0.735519 0.711350
O O10 0.236917 0.765617 0.000000
O O11 0.726400 0.500000 0.250000
O O12 0.805599 0.595067 0.172594
O O13 0.711269 0.579664 0.000000
O O14 0.826181 0.931962 0.500000
O O15 0.881366 0.914326 0.751975
O O16 0.791407 0.000000 0.750000
O O17 0.059838 0.887020 0.500000
O O18 0.066938 0.792487 0.274258
O O19 0.000000 0.907685 0.250000
O O20 0.952544 0.739044 0.500000
O O21 0.888888 0.668086 0.296046
O O22 0.000000 0.680010 0.250000
O O23 0.862097 0.311256 0.500000
#
# Coordination Sequence:
#
# PCOD8202869 Si02
#       8
#     8   8   8   8   8   8   8   8
#     4  11  21  34  51  75 108 147 183 217 249 291
#     4  10  19  33  52  74 100 135 172 211 248 285
#     4   9  19  34  52  71  96 127 165 204 245 292
#     4  10  20  32  47  70  97 126 160 200 241 289
#     4  11  22  36  52  73  99 131 165 203 251 305
#     4  11  21  34  51  71  94 124 158 200 245 299
#     4  11  20  31  48  69  91 116 149 190 237 290
#     4  10  19  31  49  70  92 118 153 194 241 288
#
# _framework density 17.435935000000001
#
# number of rings (size 3 to 8) (size 9 to 14) (size 15 to 20)
#    0.000    1.625    1.250    6.375    0.000    2.750 
#    0.000    1.250    0.000    0.375    0.000    2.625 
#    0.000    0.500    0.000    5.750    0.000    1.750 
#
# Total GULP energy -792924.928648 kJ/mol
# GULP energy per Si atom -12389.452010 kJ/mol
# Density = 1.739625 g / cm^3
# Si number density = 17.435935 Si / 1000 Ang^3
#
#
#
# Elastic Constant Matrix: (Units=GPa)
#
#
# Indices 1 2 3 4 5 6 
#
# 1 90.5100 40.7996 33.3209 0.0000 0.0000 0.0000
# 2 40.7996 60.1454 23.1493 0.0000 0.0000 0.0000
# 3 33.3209 23.1493 98.9835 0.0000 0.0000 0.0000
# 4 0.0000 0.0000 0.0000 22.0586 0.0000 0.0000
# 5 0.0000 0.0000 0.0000 0.0000 25.2549 0.0000
# 6 0.0000 0.0000 0.0000 0.0000 0.0000 20.8468
#
#
#
# Elastic Compliance Matrix: (Units=1/GPa)
#
#
# Indices 1 2 3 4 5 6 
#
# 1 0.016838 -0.010155 -0.003293 0.000000 0.000000 0.000000
# 2 -0.010155 0.024395 -0.002287 0.000000 0.000000 0.000000
# 3 -0.003293 -0.002287 0.011746 0.000000 0.000000 0.000000
# 4 0.000000 0.000000 0.000000 0.045334 0.000000 0.000000
# 5 0.000000 0.000000 0.000000 0.000000 0.039596 0.000000
# 6 0.000000 0.000000 0.000000 0.000000 0.000000 0.047969
#
#
# Mechanical properties :
#
#
# Convention : Reuss Voigt Hill
#
# Bulk Modulus (GPa) = 46.49098 49.35317 47.92208
# Shear Modulus (GPa) = 22.26983 23.78998 23.02991
#
# Velocity S-wave (km/s) = 3.57772 3.69782 3.63827
# Velocity P-wave (km/s) = 6.61729 6.82632 6.72262
#
# Compressibility (1/GPa) = 0.02150955
#
# Stress axis : x y z
#
# Youngs Moduli (GPa) = 59.38772 40.99192 85.13384
#
# Poissons Ratio (x) = 0.41626 0.28038
# Poissons Ratio (y) = 0.60307 0.19469
# Poissons Ratio (z) = 0.19559 0.09374
#
# Static dielectric constant tensor:
#      x y z
#    x 3.465770 0.000000 0.000000 
#    y 0.000000 3.427020 0.000000 
#    z 0.000000 0.000000 3.394130 
# 
# 
# High freq. dielectric constant tensor:
#      x y z
#    x 1.657600 0.000000 0.000000 
#    y 0.000000 1.640150 0.000000 
#    z 0.000000 0.000000 1.693430 
# 
# From -- ./inp_files/5385.got.cif
#   From: 2010.03.12/outbox.cif.g09.slc.cpg/sg49_3_cif.got.tgz:5385.got - 2010.04.14 03:58:27.
