data_PCOD8202242
_publ_section_title
;
Structure prediction by ZEFSAII (Michael W. Deem and Ramdas Pophale) SiO2 
 PCOD8202242
Probable space group: P C C M
;
_chemical_formula_sum "Si O2"
_cell_formula_units_Z 56
_cell_length_a 5.156768
_cell_length_b 25.348535
_cell_length_c 23.646370
_cell_angle_alpha 90.000000
_cell_angle_beta 90.000000
_cell_angle_gamma 90.000000
_cell_volume 3090.971058
_symmetry_space_group_name_H-M "P C C M"
_symmetry_group_IT_number 49
_symmetry_cell_setting 'orthorhombic'
loop_
_space_group_symop_operation_xyz
x,y,z
-x,-y,z
x,-y,1/2-z
-x,y,1/2-z
-x,-y,-z
x,y,-z
-x,y,1/2+z
x,-y,1/2+z
loop_
_atom_site_type_symbol
_atom_site_label
_atom_site_fract_x
_atom_site_fract_y
_atom_site_fract_z
Si Si1 0.055694 0.642450 0.813472
Si Si2 0.243412 0.523593 0.813180
Si Si3 0.042403 0.165086 0.434724
Si Si4 0.547521 0.694374 0.183049
Si Si5 0.562863 0.914905 0.814018
Si Si6 0.457360 0.806025 0.369433
Si Si7 0.935391 0.056650 0.878178
O O1 0.194892 0.585603 0.813026
O O2 0.271070 0.678374 0.844575
O O3 0.000000 0.661368 0.750000
O O4 0.771678 0.653609 0.840807
O O5 0.500000 0.500000 0.843681
O O6 0.247096 0.500000 0.750000
O O7 0.000000 0.500000 0.847336
O O8 0.086459 0.177609 0.500000
O O9 0.761004 0.185693 0.416775
O O10 0.262904 0.195591 0.399405
O O11 0.053106 0.101953 0.425537
O O12 0.500000 0.689538 0.250000
O O13 0.612167 0.753256 0.164436
O O14 0.500000 0.929206 0.750000
O O15 0.542615 0.852206 0.823150
O O16 0.352572 0.945205 0.852291
O O17 0.853587 0.933025 0.828856
O O18 0.000000 0.000000 0.906533
#
# Coordination Sequence:
#
# PCOD8202242 Si02
#       7
#     8   8   8   8   8   8   8
#     4  10  18  28  39  64  90 126 177 214 234 270
#     4  10  17  24  39  54  83 127 173 221 228 255
#     4  10  21  37  57  74  93 121 160 203 248 317
#     4  10  20  30  47  66  98 129 164 212 239 283
#     4  10  20  33  51  71 100 135 167 196 232 293
#     4  10  20  36  52  73  96 124 164 203 256 289
#     4  10  21  34  50  76 102 126 158 200 245 294
#
# _framework density 18.117283
#
# number of rings (size 3 to 8) (size 9 to 14) (size 15 to 20)
#    0.000    2.000    1.429    3.429    4.000    2.000 
#    0.000    4.286    0.000    5.143    0.000    0.000 
#    0.000    0.000    0.000    0.000    0.000  180.000 
#
# Total GULP energy -693748.560204 kJ/mol
# GULP energy per Si atom -12388.367146 kJ/mol
# Density = 1.807605 g / cm^3
# Si number density = 18.117283 Si / 1000 Ang^3
#
#
#
# Elastic Constant Matrix: (Units=GPa)
#
#
# Indices 1 2 3 4 5 6 
#
# 1 140.5027 37.1483 8.0752 0.0000 0.0000 0.0000
# 2 37.1483 100.3729 1.8346 0.0000 0.0000 0.0000
# 3 8.0752 1.8346 24.8390 0.0000 0.0000 0.0000
# 4 0.0000 0.0000 0.0000 10.1850 0.0000 0.0000
# 5 0.0000 0.0000 0.0000 0.0000 8.4009 0.0000
# 6 0.0000 0.0000 0.0000 0.0000 0.0000 31.8414
#
#
#
# Elastic Compliance Matrix: (Units=1/GPa)
#
#
# Indices 1 2 3 4 5 6 
#
# 1 0.008029 -0.002928 -0.002394 0.000000 0.000000 0.000000
# 2 -0.002928 0.011044 0.000136 0.000000 0.000000 0.000000
# 3 -0.002394 0.000136 0.041028 0.000000 0.000000 0.000000
# 4 0.000000 0.000000 0.000000 0.098184 0.000000 0.000000
# 5 0.000000 0.000000 0.000000 0.000000 0.119035 0.000000
# 6 0.000000 0.000000 0.000000 0.000000 0.000000 0.031406
#
#
# Mechanical properties :
#
#
# Convention : Reuss Voigt Hill
#
# Bulk Modulus (GPa) = 20.10894 39.98121 30.04508
# Shear Modulus (GPa) = 14.89546 24.66254 19.77900
#
# Velocity S-wave (km/s) = 2.87046 3.69354 3.30770
# Velocity P-wave (km/s) = 4.70207 6.34867 5.58637
#
# Compressibility (1/GPa) = 0.04972913
#
# Stress axis : x y z
#
# Youngs Moduli (GPa) = 124.54871 90.54731 24.37388
#
# Poissons Ratio (x) = 0.26510 0.05835
# Poissons Ratio (y) = 0.36465 -0.00332
# Poissons Ratio (z) = 0.29817 -0.01232
#
# Static dielectric constant tensor:
#      x y z
#    x 2.681030 0.000000 0.000000 
#    y 0.000000 3.353470 0.000000 
#    z 0.000000 0.000000 2.669280 
# 
# 
# High freq. dielectric constant tensor:
#      x y z
#    x 1.740430 0.000000 0.000000 
#    y 0.000000 1.705110 0.000000 
#    z 0.000000 0.000000 1.621600 
# 
# From -- ./inp_files/21894.got.cif
#   From: 2010.03.12/outbox.cif.g09.slc.cpg/sg49_11_cif.got.tgz:21894.got - 2010.04.14 03:58:27.
