data_PCOD8202358
_publ_section_title
;
Structure prediction by ZEFSAII (Michael W. Deem and Ramdas Pophale) SiO2 
 PCOD8202358
Probable space group: P C C M
;
_chemical_formula_sum "Si O2"
_cell_formula_units_Z 64
_cell_length_a 28.095556
_cell_length_b 14.854917
_cell_length_c 8.576392
_cell_angle_alpha 90.000000
_cell_angle_beta 90.000000
_cell_angle_gamma 90.000000
_cell_volume 3579.418543
_symmetry_space_group_name_H-M "P C C M"
_symmetry_group_IT_number 49
_symmetry_cell_setting 'orthorhombic'
loop_
_space_group_symop_operation_xyz
x,y,z
-x,-y,z
x,-y,1/2-z
-x,y,1/2-z
-x,-y,-z
x,y,-z
-x,y,1/2+z
x,-y,1/2+z
loop_
_atom_site_type_symbol
_atom_site_label
_atom_site_fract_x
_atom_site_fract_y
_atom_site_fract_z
Si Si1 0.239750 0.403122 0.814597
Si Si2 0.803854 0.094180 0.685179
Si Si3 0.087180 0.091520 0.816810
Si Si4 0.950531 0.277143 0.684704
Si Si5 0.272125 0.778415 0.816067
Si Si6 0.131629 0.405791 0.815834
Si Si7 0.645147 0.099724 0.315823
Si Si8 0.547640 0.899678 0.315287
O O1 0.256750 0.500000 0.750000
O O2 0.272356 0.325447 0.739248
O O3 0.185300 0.384519 0.760247
O O4 0.245160 0.401545 0.000000
O O5 0.796739 0.099389 0.500000
O O6 0.858443 0.103417 0.737985
O O7 0.777597 0.177022 0.766457
O O8 0.782844 0.000000 0.750000
O O9 0.056269 0.175038 0.754677
O O10 0.064748 0.000000 0.750000
O O11 0.085498 0.086423 0.000000
O O12 0.951613 0.282470 0.500000
O O13 0.905496 0.332646 0.749738
O O14 0.000000 0.316118 0.750000
O O15 0.313444 0.832233 0.729278
O O16 0.279898 0.783676 0.000000
O O17 0.113760 0.500000 0.750000
O O18 0.130289 0.408975 0.000000
O O19 0.641129 0.091356 0.500000
O O20 0.596479 0.143920 0.247612
O O21 0.655437 0.000000 0.250000
O O22 0.500000 0.849685 0.250000
O O23 0.546914 0.898701 0.500000
O O24 0.547405 0.000000 0.250000
#
# Coordination Sequence:
#
# PCOD8202358 Si02
#       8
#     8   8   8   8   8   8   8   8
#     4  10  20  37  58  79 100 127 161 202 246 295
#     4  10  19  33  51  72  97 128 163 202 243 291
#     4   9  19  35  53  70  92 121 157 196 236 279
#     4  10  21  36  51  71  97 125 153 188 232 282
#     4  12  23  34  49  73 103 136 169 205 249 301
#     4   9  19  36  57  77  99 123 152 188 233 285
#     4  11  21  34  49  70 102 141 181 222 263 306
#     4  10  17  28  45  67  95 133 179 224 265 307
#
# _framework density 17.879998000000001
#
# number of rings (size 3 to 8) (size 9 to 14) (size 15 to 20)
#    0.000    1.875    0.000    6.375    0.000    4.500 
#    0.000    3.750    0.000    0.000    0.000    0.000 
#    0.000    0.500    0.000    5.000    0.000    3.000 
#
# Total GULP energy -793559.826302 kJ/mol
# GULP energy per Si atom -12399.372286 kJ/mol
# Density = 1.783930 g / cm^3
# Si number density = 17.879998 Si / 1000 Ang^3
#
#
#
# Elastic Constant Matrix: (Units=GPa)
#
#
# Indices 1 2 3 4 5 6 
#
# 1 79.5931 38.5791 26.2905 0.0000 0.0000 0.0000
# 2 38.5791 99.2383 26.8182 0.0000 0.0000 0.0000
# 3 26.2905 26.8182 90.9394 0.0000 0.0000 0.0000
# 4 0.0000 0.0000 0.0000 28.1484 0.0000 0.0000
# 5 0.0000 0.0000 0.0000 0.0000 6.6763 0.0000
# 6 0.0000 0.0000 0.0000 0.0000 0.0000 19.2564
#
#
#
# Elastic Compliance Matrix: (Units=1/GPa)
#
#
# Indices 1 2 3 4 5 6 
#
# 1 0.016237 -0.005480 -0.003078 0.000000 0.000000 0.000000
# 2 -0.005480 0.012799 -0.002190 0.000000 0.000000 0.000000
# 3 -0.003078 -0.002190 0.012532 0.000000 0.000000 0.000000
# 4 0.000000 0.000000 0.000000 0.035526 0.000000 0.000000
# 5 0.000000 0.000000 0.000000 0.000000 0.149783 0.000000
# 6 0.000000 0.000000 0.000000 0.000000 0.000000 0.051931
#
#
# Mechanical properties :
#
#
# Convention : Reuss Voigt Hill
#
# Bulk Modulus (GPa) = 49.82241 50.34960 50.08601
# Shear Modulus (GPa) = 16.28689 22.68842 19.48766
#
# Velocity S-wave (km/s) = 3.02139 3.56607 3.30497
# Velocity P-wave (km/s) = 6.33223 6.72136 6.52969
#
# Compressibility (1/GPa) = 0.02007129
#
# Stress axis : x y z
#
# Youngs Moduli (GPa) = 61.58799 78.13039 79.79557
#
# Poissons Ratio (x) = 0.42818 0.24560
# Poissons Ratio (y) = 0.33752 0.17476
# Poissons Ratio (z) = 0.18956 0.17111
#
# Static dielectric constant tensor:
#      x y z
#    x 3.790820 0.000000 0.000000 
#    y 0.000000 3.405610 0.000000 
#    z 0.000000 0.000000 3.318210 
# 
# 
# High freq. dielectric constant tensor:
#      x y z
#    x 1.683630 0.000000 0.000000 
#    y 0.000000 1.670300 0.000000 
#    z 0.000000 0.000000 1.700410 
# 
# From -- ./inp_files/7071.got.cif
#   From: 2010.03.12/outbox.cif.g09.slc.cpg/sg49_4_cif.got.tgz:7071.got - 2010.04.14 03:58:27.
