data_PCOD8202294
_publ_section_title
;
Structure prediction by ZEFSAII (Michael W. Deem and Ramdas Pophale) SiO2 
 PCOD8202294
Probable space group: P C C M
;
_chemical_formula_sum "Si O2"
_cell_formula_units_Z 64
_cell_length_a 14.352182
_cell_length_b 30.882638
_cell_length_c 8.800779
_cell_angle_alpha 90.000000
_cell_angle_beta 90.000000
_cell_angle_gamma 90.000000
_cell_volume 3900.797801
_symmetry_space_group_name_H-M "P C C M"
_symmetry_group_IT_number 49
_symmetry_cell_setting 'orthorhombic'
loop_
_space_group_symop_operation_xyz
x,y,z
-x,-y,z
x,-y,1/2-z
-x,y,1/2-z
-x,-y,-z
x,y,-z
-x,y,1/2+z
x,-y,1/2+z
loop_
_atom_site_type_symbol
_atom_site_label
_atom_site_fract_x
_atom_site_fract_y
_atom_site_fract_z
Si Si1 0.094073 0.753420 0.822269
Si Si2 0.292696 0.783947 0.823791
Si Si3 0.396903 0.957247 0.318810
Si Si4 0.905238 0.345255 0.178872
Si Si5 0.399583 0.293560 0.178899
Si Si6 0.277125 0.373945 0.821694
Si Si7 0.399888 0.129132 0.677917
Si Si8 0.598932 0.544801 0.820652
O O1 0.184385 0.781299 0.773184
O O2 0.110190 0.704227 0.765633
O O3 0.000000 0.773275 0.750000
O O4 0.078801 0.754762 0.000000
O O5 0.354435 0.751632 0.725957
O O6 0.328378 0.832120 0.792561
O O7 0.303231 0.770838 0.000000
O O8 0.500000 0.956325 0.250000
O O9 0.397370 0.959354 0.500000
O O10 0.351449 0.912596 0.258719
O O11 0.345460 0.000000 0.250000
O O12 0.821268 0.374727 0.237367
O O13 0.000000 0.363896 0.250000
O O14 0.911728 0.348537 0.000000
O O15 0.500000 0.298852 0.250000
O O16 0.336797 0.333214 0.237923
O O17 0.411040 0.294727 0.000000
O O18 0.328491 0.418067 0.777125
O O19 0.259723 0.370196 0.000000
O O20 0.500000 0.140704 0.750000
O O21 0.414647 0.119852 0.500000
O O22 0.636172 0.500000 0.750000
O O23 0.500000 0.557689 0.750000
O O24 0.586940 0.539656 0.000000
#
# Coordination Sequence:
#
# PCOD8202294 Si02
#       8
#     8   8   8   8   8   8   8   8
#     4   9  18  32  49  70  93 122 158 199 241 281
#     4  10  20  34  48  66  95 128 163 198 236 282
#     4  10  17  27  43  62  86 115 155 199 240 282
#     4  10  19  32  53  75 100 127 159 199 242 288
#     4  11  22  33  47  67  95 129 163 197 233 275
#     4  10  21  35  51  74 100 127 162 200 239 284
#     4  10  19  30  44  62  90 126 162 198 235 279
#     4  10  20  35  54  76 102 130 162 200 240 288
#
# _framework density 16.4069
#
# number of rings (size 3 to 8) (size 9 to 14) (size 15 to 20)
#    0.000    2.000    1.250    4.875    0.000    4.500 
#    0.000    0.000    0.000    0.375    0.000    2.625 
#    0.000    0.500    0.000    5.750    0.000    1.750 
#
# Total GULP energy -793619.721483 kJ/mol
# GULP energy per Si atom -12400.308148 kJ/mol
# Density = 1.636956 g / cm^3
# Si number density = 16.406900 Si / 1000 Ang^3
#
#
#
# Elastic Constant Matrix: (Units=GPa)
#
#
# Indices 1 2 3 4 5 6 
#
# 1 118.4391 60.7552 45.3031 0.0000 0.0000 0.0000
# 2 60.7552 109.7462 50.2510 0.0000 0.0000 0.0000
# 3 45.3031 50.2510 82.3334 0.0000 0.0000 0.0000
# 4 0.0000 0.0000 0.0000 19.5102 0.0000 0.0000
# 5 0.0000 0.0000 0.0000 0.0000 26.0134 0.0000
# 6 0.0000 0.0000 0.0000 0.0000 0.0000 8.6052
#
#
#
# Elastic Compliance Matrix: (Units=1/GPa)
#
#
# Indices 1 2 3 4 5 6 
#
# 1 0.012555 -0.005256 -0.003700 0.000000 0.000000 0.000000
# 2 -0.005256 0.014846 -0.006169 0.000000 0.000000 0.000000
# 3 -0.003700 -0.006169 0.017947 0.000000 0.000000 0.000000
# 4 0.000000 0.000000 0.000000 0.051255 0.000000 0.000000
# 5 0.000000 0.000000 0.000000 0.000000 0.038442 0.000000
# 6 0.000000 0.000000 0.000000 0.000000 0.000000 0.116208
#
#
# Mechanical properties :
#
#
# Convention : Reuss Voigt Hill
#
# Bulk Modulus (GPa) = 66.23692 69.23749 67.73721
# Shear Modulus (GPa) = 17.44979 21.10639 19.27809
#
# Velocity S-wave (km/s) = 3.26477 3.59058 3.43154
# Velocity P-wave (km/s) = 7.39396 7.71243 7.55487
#
# Compressibility (1/GPa) = 0.01509732
#
# Stress axis : x y z
#
# Youngs Moduli (GPa) = 79.65209 67.35627 55.71948
#
# Poissons Ratio (x) = 0.35402 0.20617
# Poissons Ratio (y) = 0.41865 0.34375
# Poissons Ratio (z) = 0.29472 0.41554
#
# Static dielectric constant tensor:
#      x y z
#    x 3.022400 0.000000 0.000000 
#    y 0.000000 3.393180 0.000000 
#    z 0.000000 0.000000 3.150870 
# 
# 
# High freq. dielectric constant tensor:
#      x y z
#    x 1.609830 0.000000 0.000000 
#    y 0.000000 1.623360 0.000000 
#    z 0.000000 0.000000 1.643870 
# 
# From -- ./inp_files/3098.got.cif
#   From: 2010.03.12/outbox.cif.g09.slc.cpg/sg49_2_cif.got.tgz:3098.got - 2010.04.14 03:58:27.
