data_PCOD8202786
_publ_section_title
;
Structure prediction by ZEFSAII (Michael W. Deem and Ramdas Pophale) SiO2 
 PCOD8202786
Probable space group: P C C M
;
_chemical_formula_sum "Si O2"
_cell_formula_units_Z 48
_cell_length_a 13.933413
_cell_length_b 14.358990
_cell_length_c 15.825670
_cell_angle_alpha 90.000000
_cell_angle_beta 90.000000
_cell_angle_gamma 90.000000
_cell_volume 3166.237650
_symmetry_space_group_name_H-M "P C C M"
_symmetry_group_IT_number 49
_symmetry_cell_setting 'orthorhombic'
loop_
_space_group_symop_operation_xyz
x,y,z
-x,-y,z
x,-y,1/2-z
-x,y,1/2-z
-x,-y,-z
x,y,-z
-x,y,1/2+z
x,-y,1/2+z
loop_
_atom_site_type_symbol
_atom_site_label
_atom_site_fract_x
_atom_site_fract_y
_atom_site_fract_z
Si Si1 0.278512 0.397115 0.154233
Si Si2 0.389401 0.226993 0.094160
Si Si3 0.386004 0.104037 0.250000
Si Si4 0.893070 0.500000 0.900337
Si Si5 0.610599 0.226993 0.905840
Si Si6 0.721488 0.602885 0.654233
O O1 0.330377 0.322966 0.094998
O O2 0.165158 0.407752 0.130683
O O3 0.289239 0.362247 0.250000
O O4 0.326533 0.500000 0.142162
O O5 0.349723 0.155671 0.164848
O O6 0.500000 0.250854 0.113447
O O7 0.377925 0.183346 0.000000
O O8 0.500000 0.098808 0.250000
O O9 0.349723 0.155671 0.335152
O O10 0.342318 0.000000 0.250000
O O11 0.834842 0.407752 0.869317
O O12 0.000000 0.500000 0.860920
O O13 0.898769 0.500000 0.000000
O O14 0.669623 0.322966 0.905002
O O15 0.622075 0.183346 0.000000
#
# Coordination Sequence:
#
# PCOD8202786 Si02
#       6
#     8   8   8   8   8   8
#     4   9  18  29  43  63  89 122 153 185 215 258
#     4  10  19  30  45  65  91 121 153 187 222 263
#     4   9  18  32  47  63  85 114 151 191 230 269
#     4   9  17  29  44  63  90 121 151 185 221 258
#     4  10  19  30  45  65  91 121 153 187 222 263
#     4   9  18  29  43  63  89 122 153 185 215 258
#
# _framework density 15.159948
#
# number of rings (size 3 to 8) (size 9 to 14) (size 15 to 20)
#    1.000    1.667    1.667    1.000    0.000    2.667 
#    0.000    6.667    0.000    0.000    0.000    0.000 
#    0.000    2.667    0.000    7.000    0.000    0.333 
#
# Total GULP energy -594681.473869 kJ/mol
# GULP energy per Si atom -12389.197372 kJ/mol
# Density = 1.512544 g / cm^3
# Si number density = 15.159948 Si / 1000 Ang^3
#
#
#
# Elastic Constant Matrix: (Units=GPa)
#
#
# Indices 1 2 3 4 5 6 
#
# 1 56.0054 33.9956 20.0917 0.0000 0.0000 0.0000
# 2 33.9956 86.8940 45.8236 0.0000 0.0000 0.0000
# 3 20.0917 45.8236 102.3539 0.0000 0.0000 0.0000
# 4 0.0000 0.0000 0.0000 16.9787 0.0000 0.0000
# 5 0.0000 0.0000 0.0000 0.0000 16.6037 0.0000
# 6 0.0000 0.0000 0.0000 0.0000 0.0000 1.5366
#
#
#
# Elastic Compliance Matrix: (Units=1/GPa)
#
#
# Indices 1 2 3 4 5 6 
#
# 1 0.023449 -0.008832 -0.000649 0.000000 0.000000 0.000000
# 2 -0.008832 0.018391 -0.006500 0.000000 0.000000 0.000000
# 3 -0.000649 -0.006500 0.012808 0.000000 0.000000 0.000000
# 4 0.000000 0.000000 0.000000 0.058897 0.000000 0.000000
# 5 0.000000 0.000000 0.000000 0.000000 0.060228 0.000000
# 6 0.000000 0.000000 0.000000 0.000000 0.000000 0.650801
#
#
# Mechanical properties :
#
#
# Convention : Reuss Voigt Hill
#
# Bulk Modulus (GPa) = 44.07960 49.45278 46.76619
# Shear Modulus (GPa) = 5.78638 16.71327 11.24982
#
# Velocity S-wave (km/s) = 1.95580 3.32394 2.72706
# Velocity P-wave (km/s) = 5.85147 6.88643 6.38994
#
# Compressibility (1/GPa) = 0.02268623
#
# Stress axis : x y z
#
# Youngs Moduli (GPa) = 42.64537 54.37323 78.07907
#
# Poissons Ratio (x) = 0.48021 0.05067
# Poissons Ratio (y) = 0.37664 0.50753
# Poissons Ratio (z) = 0.02768 0.35343
#
# Static dielectric constant tensor:
#      x y z
#    x 2.722320 0.000000 0.000000 
#    y 0.000000 2.761680 0.000000 
#    z 0.000000 0.000000 3.033660 
# 
# 
# High freq. dielectric constant tensor:
#      x y z
#    x 1.538240 0.000000 0.000000 
#    y 0.000000 1.553900 0.000000 
#    z 0.000000 0.000000 1.602720 
# 
# From -- ./inp_files/17825.got.cif
#   From: 2010.03.12/outbox.cif.g09.slc.cpg/sg49_9_cif.got.tgz:17825.got - 2010.04.14 03:58:27.
