data_PCOD8202709
_publ_section_title
;
Structure prediction by ZEFSAII (Michael W. Deem and Ramdas Pophale) SiO2 
 PCOD8202709
Probable space group: P C C M
;
_chemical_formula_sum "Si O2"
_cell_formula_units_Z 48
_cell_length_a 13.892785
_cell_length_b 18.752017
_cell_length_c 9.564534
_cell_angle_alpha 90.000000
_cell_angle_beta 90.000000
_cell_angle_gamma 90.000000
_cell_volume 2491.730787
_symmetry_space_group_name_H-M "P C C M"
_symmetry_group_IT_number 49
_symmetry_cell_setting 'orthorhombic'
loop_
_space_group_symop_operation_xyz
x,y,z
-x,-y,z
x,-y,1/2-z
-x,y,1/2-z
-x,-y,-z
x,y,-z
-x,y,1/2+z
x,-y,1/2+z
loop_
_atom_site_type_symbol
_atom_site_label
_atom_site_fract_x
_atom_site_fract_y
_atom_site_fract_z
Si Si1 0.802899 0.901666 0.500000
Si Si2 0.607988 0.133354 0.500000
Si Si3 0.101829 0.430733 0.326881
Si Si4 0.394403 0.148307 0.500000
Si Si5 0.393691 0.754909 0.259488
Si Si6 0.886787 0.836146 0.769699
Si Si7 0.206173 0.687455 0.339680
Si Si8 0.190870 0.935925 0.500000
O O1 0.687271 0.911840 0.500000
O O2 0.837244 0.852984 0.625376
O O3 0.841836 0.981860 0.500000
O O4 0.496550 0.105542 0.500000
O O5 0.619900 0.182373 0.368254
O O6 0.691874 0.073391 0.500000
O O7 0.148638 0.500000 0.250000
O O8 0.095001 0.436482 0.500000
O O9 0.164076 0.363372 0.280444
O O10 0.000000 0.420349 0.250000
O O11 0.373933 0.203922 0.379858
O O12 0.500000 0.719917 0.250000
O O13 0.318304 0.693176 0.297238
O O14 0.846286 0.763379 0.834110
O O15 0.000000 0.828710 0.750000
O O16 0.859407 0.902045 0.866692
O O17 0.196040 0.658435 0.500000
#
# Coordination Sequence:
#
# PCOD8202709 Si02
#       8
#     4   4   8   4   8   8   8   4
#     4  12  25  37  60  83 115 152 209 267 320 381
#     4  10  18  38  59  78 116 154 195 253 333 390
#     4  11  24  43  68 100 138 175 209 247 301 364
#     4  10  20  34  57  88 112 146 199 269 319 386
#     4  10  19  34  59  87 119 156 201 255 319 379
#     4  12  25  40  58  81 115 157 211 262 311 372
#     4  12  22  40  65  92 127 164 207 262 316 368
#     4  12  23  43  56  79 115 164 201 257 328 391
#
# _framework density 19.263718000000001
#
# number of rings (size 3 to 8) (size 9 to 14) (size 15 to 20)
#    0.000    0.833    5.000    3.500    2.333    2.333 
#    0.000    0.000    0.000    5.500    0.000    2.333 
#    0.000    0.000    0.000    0.000    0.000    0.000 
#
# Total GULP energy -594664.305665 kJ/mol
# GULP energy per Si atom -12388.839701 kJ/mol
# Density = 1.921987 g / cm^3
# Si number density = 19.263718 Si / 1000 Ang^3
#
#
#
# Elastic Constant Matrix: (Units=GPa)
#
#
# Indices 1 2 3 4 5 6 
#
# 1 123.9445 25.5028 27.8208 0.0000 0.0000 0.0000
# 2 25.5028 69.7884 24.1088 0.0000 0.0000 0.0000
# 3 27.8208 24.1088 156.3802 0.0000 0.0000 0.0000
# 4 0.0000 0.0000 0.0000 8.0117 0.0000 0.0000
# 5 0.0000 0.0000 0.0000 0.0000 33.6493 0.0000
# 6 0.0000 0.0000 0.0000 0.0000 0.0000 25.9837
#
#
#
# Elastic Compliance Matrix: (Units=1/GPa)
#
#
# Indices 1 2 3 4 5 6 
#
# 1 0.008914 -0.002862 -0.001145 0.000000 0.000000 0.000000
# 2 -0.002862 0.016054 -0.001966 0.000000 0.000000 0.000000
# 3 -0.001145 -0.001966 0.006901 0.000000 0.000000 0.000000
# 4 0.000000 0.000000 0.000000 0.124817 0.000000 0.000000
# 5 0.000000 0.000000 0.000000 0.000000 0.029718 0.000000
# 6 0.000000 0.000000 0.000000 0.000000 0.000000 0.038486
#
#
# Mechanical properties :
#
#
# Convention : Reuss Voigt Hill
#
# Bulk Modulus (GPa) = 50.18972 56.10864 53.14918
# Shear Modulus (GPa) = 20.53585 31.70766 26.12175
#
# Velocity S-wave (km/s) = 3.26857 4.06147 3.68640
# Velocity P-wave (km/s) = 6.35258 7.15429 6.76532
#
# Compressibility (1/GPa) = 0.01992440
#
# Stress axis : x y z
#
# Youngs Moduli (GPa) = 112.18391 62.28975 144.89877
#
# Poissons Ratio (x) = 0.17827 0.16585
# Poissons Ratio (y) = 0.32107 0.28485
# Poissons Ratio (z) = 0.12841 0.12245
#
# Static dielectric constant tensor:
#      x y z
#    x 4.063910 0.000000 0.000000 
#    y 0.000000 3.337200 0.000000 
#    z 0.000000 0.000000 3.833630 
# 
# 
# High freq. dielectric constant tensor:
#      x y z
#    x 1.759930 0.000000 0.000000 
#    y 0.000000 1.717170 0.000000 
#    z 0.000000 0.000000 1.778300 
# 
# From -- ./inp_files/3792.got.cif
#   From: 2010.03.12/outbox.cif.g09.slc.cpg/sg49_2_cif.got.tgz:3792.got - 2010.04.14 03:58:27.
