data_PCOD8202573
_publ_section_title
;
Structure prediction by ZEFSAII (Michael W. Deem and Ramdas Pophale) SiO2 
 PCOD8202573
Probable space group: P C C M
;
_chemical_formula_sum "Si O2"
_cell_formula_units_Z 42
_cell_length_a 25.981209
_cell_length_b 10.061530
_cell_length_c 8.789017
_cell_angle_alpha 90.000000
_cell_angle_beta 90.000000
_cell_angle_gamma 90.000000
_cell_volume 2297.543207
_symmetry_space_group_name_H-M "P C C M"
_symmetry_group_IT_number 49
_symmetry_cell_setting 'orthorhombic'
loop_
_space_group_symop_operation_xyz
x,y,z
-x,-y,z
x,-y,1/2-z
-x,y,1/2-z
-x,-y,-z
x,y,-z
-x,y,1/2+z
x,-y,1/2+z
loop_
_atom_site_type_symbol
_atom_site_label
_atom_site_fract_x
_atom_site_fract_y
_atom_site_fract_z
Si Si1 0.048313 0.746203 0.834978
Si Si2 0.000000 0.000000 0.750000
Si Si3 0.155270 0.354294 0.681761
Si Si4 0.742702 0.353114 0.681403
Si Si5 0.360801 0.644215 0.820442
Si Si6 0.554724 0.862118 0.679146
O O1 0.104123 0.722764 0.759509
O O2 0.000000 0.676223 0.750000
O O3 0.037225 0.904713 0.849200
O O4 0.050292 0.679956 0.000000
O O5 0.150636 0.500000 0.750000
O O6 0.160825 0.356888 0.500000
O O7 0.205651 0.281406 0.754154
O O8 0.743341 0.500000 0.750000
O O9 0.742962 0.353600 0.500000
O O10 0.690169 0.288482 0.745259
O O11 0.373216 0.500000 0.750000
O O12 0.407073 0.742639 0.780261
O O13 0.352345 0.627942 0.000000
O O14 0.500000 0.823643 0.750000
O O15 0.548758 0.881666 0.500000
O O16 0.575556 0.000000 0.750000
#
# Coordination Sequence:
#
# PCOD8202573 Si02
#       6
#     8   2   8   8   8   8
#     4   9  19  32  51  70  92 123 158 198 240 289
#     4   8  18  36  52  68  90 120 166 194 248 288
#     4  10  19  32  48  73 101 129 160 198 246 297
#     4  10  18  30  50  75 101 134 166 203 249 300
#     4  10  20  34  54  81 109 141 176 219 263 312
#     4  10  21  36  56  79 107 143 182 219 265 314
#
# _framework density 18.280394000000001
#
# number of rings (size 3 to 8) (size 9 to 14) (size 15 to 20)
#    0.571    1.714    0.000    6.571    0.000    5.333 
#    0.000    3.810    2.095    0.000    0.000    0.000 
#    0.000    0.000    0.000    0.000    0.000    0.000 
#
# Total GULP energy -520303.529797 kJ/mol
# GULP energy per Si atom -12388.179281 kJ/mol
# Density = 1.823879 g / cm^3
# Si number density = 18.280394 Si / 1000 Ang^3
#
#
#
# Elastic Constant Matrix: (Units=GPa)
#
#
# Indices 1 2 3 4 5 6 
#
# 1 181.3392 67.9444 73.9758 0.0000 0.0000 0.0000
# 2 67.9444 65.0123 33.5750 0.0000 0.0000 0.0000
# 3 73.9758 33.5750 125.3605 0.0000 0.0000 0.0000
# 4 0.0000 0.0000 0.0000 20.2342 0.0000 0.0000
# 5 0.0000 0.0000 0.0000 0.0000 43.0820 0.0000
# 6 0.0000 0.0000 0.0000 0.0000 0.0000 15.2769
#
#
#
# Elastic Compliance Matrix: (Units=1/GPa)
#
#
# Indices 1 2 3 4 5 6 
#
# 1 0.010381 -0.008919 -0.003737 0.000000 0.000000 0.000000
# 2 -0.008919 0.025514 -0.001570 0.000000 0.000000 0.000000
# 3 -0.003737 -0.001570 0.010603 0.000000 0.000000 0.000000
# 4 0.000000 0.000000 0.000000 0.049421 0.000000 0.000000
# 5 0.000000 0.000000 0.000000 0.000000 0.023212 0.000000
# 6 0.000000 0.000000 0.000000 0.000000 0.000000 0.065458
#
#
# Mechanical properties :
#
#
# Convention : Reuss Voigt Hill
#
# Bulk Modulus (GPa) = 55.41684 80.30025 67.85854
# Shear Modulus (GPa) = 22.82522 28.79975 25.81249
#
# Velocity S-wave (km/s) = 3.53741 3.97349 3.76178
# Velocity P-wave (km/s) = 6.86040 8.06684 7.48796
#
# Compressibility (1/GPa) = 0.01804506
#
# Stress axis : x y z
#
# Youngs Moduli (GPa) = 96.33175 39.19433 94.31524
#
# Poissons Ratio (x) = 0.34958 0.35245
# Poissons Ratio (y) = 0.85919 0.14809
# Poissons Ratio (z) = 0.35999 0.06154
#
# Static dielectric constant tensor:
#      x y z
#    x 4.235070 0.000000 0.000000 
#    y 0.000000 2.963150 0.000000 
#    z 0.000000 0.000000 3.412490 
# 
# 
# High freq. dielectric constant tensor:
#      x y z
#    x 1.730010 0.000000 0.000000 
#    y 0.000000 1.661700 0.000000 
#    z 0.000000 0.000000 1.721100 
# 
# From -- ./inp_files/6292.got.cif
#   From: 2010.03.12/outbox.cif.g09.slc.cpg/sg49_4_cif.got.tgz:6292.got - 2010.04.14 03:58:27.
