data_PCOD8202137
_publ_section_title
;
Structure prediction by ZEFSAII (Michael W. Deem and Ramdas Pophale) SiO2 
 PCOD8202137
Probable space group: P N N N
;
_chemical_formula_sum "Si O2"
_cell_formula_units_Z 60
_cell_length_a 23.331746
_cell_length_b 11.849953
_cell_length_c 9.741880
_cell_angle_alpha 90.000000
_cell_angle_beta 90.000000
_cell_angle_gamma 90.000000
_cell_volume 2693.435893
_symmetry_space_group_name_H-M "P N N N"
_symmetry_group_IT_number 48
_space_group.IT_coordinate_system_code '2'
_symmetry_cell_setting 'orthorhombic'
loop_
_space_group_symop_operation_xyz
x,y,z
1/2-x,1/2-y,z
x,1/2-y,1/2-z
1/2-x,y,1/2-z
-x,-y,-z
1/2+x,1/2+y,-z
-x,1/2+y,1/2+z
1/2+x,-y,1/2+z
loop_
_atom_site_type_symbol
_atom_site_label
_atom_site_fract_x
_atom_site_fract_y
_atom_site_fract_z
Si Si1 0.458848 0.793981 0.001148
Si Si2 0.913073 0.670245 0.949226
Si Si3 0.621158 0.602237 0.836149
Si Si4 0.797606 0.074133 0.848702
Si Si5 0.106841 0.526316 0.853321
Si Si6 0.061603 0.542482 0.553758
Si Si7 0.730731 0.120332 0.108911
Si Si8 0.613839 0.250000 0.750000
O O1 0.527302 0.787939 0.012663
O O2 0.446810 0.901521 0.906288
O O3 0.437625 0.677512 0.933603
O O4 0.428649 0.816919 0.147294
O O5 0.874017 0.780891 0.920272
O O6 0.919314 0.611320 0.798839
O O7 0.884192 0.589326 0.061583
O O8 0.683091 0.550962 0.794314
O O9 0.602881 0.500030 0.934985
O O10 0.750000 0.125140 0.750000
O O11 0.848678 0.165787 0.842371
O O12 0.766888 0.056145 0.994364
O O13 0.089033 0.496481 0.696668
O O14 0.162051 0.603944 0.889824
O O15 0.000000 0.500000 0.500000
O O16 0.750000 0.250000 0.099992
O O17 0.750000 0.063481 0.250000
#
# Coordination Sequence:
#
# PCOD8202137 Si02
#       8
#     8   8   8   8   8   8   8   4
#     4  12  25  41  70 103 143 185 227 292 363 436
#     4  11  26  47  67  99 145 184 241 289 356 436
#     4  11  24  45  69  96 139 191 237 300 352 431
#     4  12  23  43  69 100 135 181 242 302 357 421
#     4  12  27  44  71 106 141 188 237 295 357 436
#     4  12  25  43  71 102 145 187 236 283 362 433
#     4  11  25  43  68 100 140 178 227 296 372 419
#     4  12  25  38  72 108 144 184 239 300 368 438
#
# _framework density 22.276381000000001
#
# number of rings (size 3 to 8) (size 9 to 14) (size 15 to 20)
#    0.000    0.400    2.667    6.600    7.467    0.533 
#    0.000    4.667    0.000    0.800    0.000    0.000 
#    0.000    0.000    0.000    0.000    0.000    0.000 
#
# Total GULP energy -743475.300589 kJ/mol
# GULP energy per Si atom -12391.255010 kJ/mol
# Density = 2.222568 g / cm^3
# Si number density = 22.276381 Si / 1000 Ang^3
#
#
#
# Elastic Constant Matrix: (Units=GPa)
#
#
# Indices 1 2 3 4 5 6 
#
# 1 92.8657 44.1992 54.2911 0.0000 0.0000 0.0000
# 2 44.1992 96.1690 30.0540 0.0000 0.0000 0.0000
# 3 54.2911 30.0540 135.0974 0.0000 0.0000 0.0000
# 4 0.0000 0.0000 0.0000 55.6013 0.0000 0.0000
# 5 0.0000 0.0000 0.0000 0.0000 42.4982 0.0000
# 6 0.0000 0.0000 0.0000 0.0000 0.0000 37.8675
#
#
#
# Elastic Compliance Matrix: (Units=1/GPa)
#
#
# Indices 1 2 3 4 5 6 
#
# 1 0.016802 -0.006031 -0.005410 0.000000 0.000000 0.000000
# 2 -0.006031 0.013340 -0.000544 0.000000 0.000000 0.000000
# 3 -0.005410 -0.000544 0.009697 0.000000 0.000000 0.000000
# 4 0.000000 0.000000 0.000000 0.017985 0.000000 0.000000
# 5 0.000000 0.000000 0.000000 0.000000 0.023530 0.000000
# 6 0.000000 0.000000 0.000000 0.000000 0.000000 0.026408
#
#
# Mechanical properties :
#
#
# Convention : Reuss Voigt Hill
#
# Bulk Modulus (GPa) = 63.01881 64.58008 63.79944
# Shear Modulus (GPa) = 36.49008 40.23259 38.36133
#
# Velocity S-wave (km/s) = 4.05169 4.25439 4.15428
# Velocity P-wave (km/s) = 7.08796 7.29290 7.19116
#
# Compressibility (1/GPa) = 0.01586828
#
# Stress axis : x y z
#
# Youngs Moduli (GPa) = 59.51734 74.96063 103.12145
#
# Poissons Ratio (x) = 0.45211 0.55792
# Poissons Ratio (y) = 0.35897 0.05609
# Poissons Ratio (z) = 0.32201 0.04077
#
# Static dielectric constant tensor:
#      x y z
#    x 4.107430 0.000000 0.000000 
#    y 0.000000 3.964110 0.000000 
#    z 0.000000 0.000000 4.124260 
# 
# 
# High freq. dielectric constant tensor:
#      x y z
#    x 1.874670 0.000000 0.000000 
#    y 0.000000 1.871840 0.000000 
#    z 0.000000 0.000000 1.887720 
# 
# From -- ./inp_files/22933.got.cif
#   From: 2010.06.25/outbox.cif.g09.slc.cpg/sg48_12_cif.got.tgz:22933.got - 2010.06.26 18:06:46.
