data_PCOD8202107
_publ_section_title
;
Structure prediction by ZEFSAII (Michael W. Deem and Ramdas Pophale) SiO2 
 PCOD8202107
Probable space group: P N N N
;
_chemical_formula_sum "Si O2"
_cell_formula_units_Z 48
_cell_length_a 8.794446
_cell_length_b 19.934539
_cell_length_c 13.691070
_cell_angle_alpha 90.000000
_cell_angle_beta 90.000000
_cell_angle_gamma 90.000000
_cell_volume 2400.225660
_symmetry_space_group_name_H-M "P N N N"
_symmetry_group_IT_number 48
_space_group.IT_coordinate_system_code '2'
_symmetry_cell_setting 'orthorhombic'
loop_
_space_group_symop_operation_xyz
x,y,z
1/2-x,1/2-y,z
x,1/2-y,1/2-z
1/2-x,y,1/2-z
-x,-y,-z
1/2+x,1/2+y,-z
-x,1/2+y,1/2+z
1/2+x,-y,1/2+z
loop_
_atom_site_type_symbol
_atom_site_label
_atom_site_fract_x
_atom_site_fract_y
_atom_site_fract_z
Si Si1 0.656053 0.648692 0.493767
Si Si2 0.834998 0.152016 0.836474
Si Si3 0.107584 0.064909 0.316847
Si Si4 0.077999 0.819972 0.785118
Si Si5 0.518783 0.789598 0.505262
Si Si6 0.961489 0.417496 0.833454
O O1 0.657817 0.595300 0.580286
O O2 0.547639 0.711020 0.522845
O O3 0.827143 0.672778 0.477099
O O4 0.598312 0.615806 0.393740
O O5 0.750000 0.194638 0.750000
O O6 0.704059 0.102164 0.881325
O O7 0.965134 0.107481 0.780334
O O8 0.903123 0.202049 0.915502
O O9 0.250000 0.045968 0.250000
O O10 0.006416 0.117209 0.258812
O O11 0.013556 0.997406 0.337271
O O12 0.001086 0.750000 0.750000
O O13 0.250000 0.822473 0.750000
O O14 0.063313 0.822715 0.901933
#
# Coordination Sequence:
#
# PCOD8202107 Si02
#       6
#     8   8   8   8   8   8
#     4  11  24  38  68  98 131 171 216 276 325 396
#     4   8  21  43  65  87 125 171 217 270 315 387
#     4  12  21  44  67  94 138 173 213 269 333 397
#     4  11  25  41  65  98 133 171 213 270 322 396
#     4  11  23  42  65 101 128 168 225 268 333 382
#     4   9  22  44  63  94 125 182 217 264 330 386
#
# _framework density 19.998121000000001
#
# number of rings (size 3 to 8) (size 9 to 14) (size 15 to 20)
#    1.000    0.500    5.000    0.500    2.333    2.333 
#    6.000    3.333    0.000    0.000    0.000    0.000 
#    0.000    0.000    0.000    0.000    0.000    0.000 
#
# Total GULP energy -594883.601449 kJ/mol
# GULP energy per Si atom -12393.408364 kJ/mol
# Density = 1.995260 g / cm^3
# Si number density = 19.998121 Si / 1000 Ang^3
#
#
#
# Elastic Constant Matrix: (Units=GPa)
#
#
# Indices 1 2 3 4 5 6 
#
# 1 76.5756 33.5807 46.4570 0.0000 0.0000 0.0000
# 2 33.5807 93.2710 26.9840 0.0000 0.0000 0.0000
# 3 46.4570 26.9840 100.2455 0.0000 0.0000 0.0000
# 4 0.0000 0.0000 0.0000 32.0321 0.0000 0.0000
# 5 0.0000 0.0000 0.0000 0.0000 41.5576 0.0000
# 6 0.0000 0.0000 0.0000 0.0000 0.0000 10.3554
#
#
#
# Elastic Compliance Matrix: (Units=1/GPa)
#
#
# Indices 1 2 3 4 5 6 
#
# 1 0.020047 -0.004912 -0.007968 0.000000 0.000000 0.000000
# 2 -0.004912 0.012831 -0.001177 0.000000 0.000000 0.000000
# 3 -0.007968 -0.001177 0.013985 0.000000 0.000000 0.000000
# 4 0.000000 0.000000 0.000000 0.031219 0.000000 0.000000
# 5 0.000000 0.000000 0.000000 0.000000 0.024063 0.000000
# 6 0.000000 0.000000 0.000000 0.000000 0.000000 0.096568
#
#
# Mechanical properties :
#
#
# Convention : Reuss Voigt Hill
#
# Bulk Modulus (GPa) = 53.34068 53.79284 53.56676
# Shear Modulus (GPa) = 21.45208 27.66039 24.55623
#
# Velocity S-wave (km/s) = 3.27877 3.72311 3.50798
# Velocity P-wave (km/s) = 6.40816 6.74087 6.57662
#
# Compressibility (1/GPa) = 0.01874742
#
# Stress axis : x y z
#
# Youngs Moduli (GPa) = 49.88154 77.93836 71.50435
#
# Poissons Ratio (x) = 0.38287 0.56977
# Poissons Ratio (y) = 0.24504 0.08417
# Poissons Ratio (z) = 0.39747 0.09174
#
# Static dielectric constant tensor:
#      x y z
#    x 3.410030 0.000000 0.000000 
#    y 0.000000 3.702470 0.000000 
#    z 0.000000 0.000000 3.582470 
# 
# 
# High freq. dielectric constant tensor:
#      x y z
#    x 1.767800 0.000000 0.000000 
#    y 0.000000 1.781750 0.000000 
#    z 0.000000 0.000000 1.780050 
# 
# From -- ./inp_files/25388.got.cif
#   From: 2010.06.25/outbox.cif.g09.slc.cpg/sg48_13_cif.got.tgz:25388.got - 2010.06.26 18:06:46.
