data_PCOD8202565
_publ_section_title
;
Structure prediction by ZEFSAII (Michael W. Deem and Ramdas Pophale) SiO2 
 PCOD8202565
Probable space group: P C C M
;
_chemical_formula_sum "Si O2"
_cell_formula_units_Z 38
_cell_length_a 7.492782
_cell_length_b 10.283479
_cell_length_c 28.615898
_cell_angle_alpha 90.000000
_cell_angle_beta 90.000000
_cell_angle_gamma 90.000000
_cell_volume 2204.908348
_symmetry_space_group_name_H-M "P C C M"
_symmetry_group_IT_number 49
_symmetry_cell_setting 'orthorhombic'
loop_
_space_group_symop_operation_xyz
x,y,z
-x,-y,z
x,-y,1/2-z
-x,y,1/2-z
-x,-y,-z
x,y,-z
-x,y,1/2+z
x,-y,1/2+z
loop_
_atom_site_type_symbol
_atom_site_label
_atom_site_fract_x
_atom_site_fract_y
_atom_site_fract_z
Si Si1 0.485923 0.718051 0.947735
Si Si2 0.500000 0.500000 0.620928
Si Si3 0.856889 0.599891 0.339311
Si Si4 0.872430 0.812783 0.587870
Si Si5 0.777604 0.918360 0.053583
Si Si6 0.000000 0.500000 0.750000
O O1 0.569816 0.615405 0.912167
O O2 0.272578 0.730939 0.941663
O O3 0.584261 0.855305 0.938149
O O4 0.527647 0.670438 0.000000
O O5 0.341661 0.451898 0.653459
O O6 0.883935 0.744716 0.360918
O O7 0.000000 0.500000 0.362868
O O8 0.884810 0.597646 0.283026
O O9 0.066485 0.811811 0.563319
O O10 0.802573 0.962063 0.589677
O O11 0.794425 0.969063 0.000000
#
# Coordination Sequence:
#
# PCOD8202565 Si02
#       6
#     8   4   8   8   8   2
#     4  10  19  30  45  72 108 140 172 202 235 283
#     4  10  19  31  52  76 100 136 164 205 253 298
#     4   9  19  35  52  75  97 119 164 211 263 310
#     4  10  18  30  49  70  99 134 171 207 238 292
#     4  10  19  30  47  72 104 144 177 198 232 285
#     4   8  20  38  56  74  96 116 156 222 274 312
#
# _framework density 17.234276000000001
#
# number of rings (size 3 to 8) (size 9 to 14) (size 15 to 20)
#    0.632    1.684    0.000    4.737    0.000    2.105 
#    0.000    0.000    0.000   15.789    0.000    0.000 
#    0.000    0.000    0.000    0.000    0.000    0.000 
#
# Total GULP energy -470841.162370 kJ/mol
# GULP energy per Si atom -12390.556904 kJ/mol
# Density = 1.719505 g / cm^3
# Si number density = 17.234276 Si / 1000 Ang^3
#
#
#
# Elastic Constant Matrix: (Units=GPa)
#
#
# Indices 1 2 3 4 5 6 
#
# 1 69.8812 22.8648 35.6482 0.0000 0.0000 0.0000
# 2 22.8648 86.1480 59.9375 0.0000 0.0000 0.0000
# 3 35.6482 59.9375 118.8109 0.0000 0.0000 0.0000
# 4 0.0000 0.0000 0.0000 23.3618 0.0000 0.0000
# 5 0.0000 0.0000 0.0000 0.0000 10.3768 0.0000
# 6 0.0000 0.0000 0.0000 0.0000 0.0000 24.1140
#
#
#
# Elastic Compliance Matrix: (Units=1/GPa)
#
#
# Indices 1 2 3 4 5 6 
#
# 1 0.017019 -0.001486 -0.004357 0.000000 0.000000 0.000000
# 2 -0.001486 0.018015 -0.008643 0.000000 0.000000 0.000000
# 3 -0.004357 -0.008643 0.014084 0.000000 0.000000 0.000000
# 4 0.000000 0.000000 0.000000 0.042805 0.000000 0.000000
# 5 0.000000 0.000000 0.000000 0.000000 0.096368 0.000000
# 6 0.000000 0.000000 0.000000 0.000000 0.000000 0.041470
#
#
# Mechanical properties :
#
#
# Convention : Reuss Voigt Hill
#
# Bulk Modulus (GPa) = 49.63332 56.86012 53.24672
# Shear Modulus (GPa) = 18.83616 21.99651 20.41633
#
# Velocity S-wave (km/s) = 3.30956 3.57644 3.44559
# Velocity P-wave (km/s) = 6.59287 7.07945 6.84049
#
# Compressibility (1/GPa) = 0.02014776
#
# Stress axis : x y z
#
# Youngs Moduli (GPa) = 58.75909 55.50838 71.00298
#
# Poissons Ratio (x) = 0.08247 0.30934
# Poissons Ratio (y) = 0.08730 0.61365
# Poissons Ratio (z) = 0.25600 0.47973
#
# Static dielectric constant tensor:
#      x y z
#    x 3.355890 0.000000 0.000000 
#    y 0.000000 3.160830 0.000000 
#    z 0.000000 0.000000 2.917720 
# 
# 
# High freq. dielectric constant tensor:
#      x y z
#    x 1.681580 0.000000 0.000000 
#    y 0.000000 1.655170 0.000000 
#    z 0.000000 0.000000 1.626570 
# 
# From -- ./inp_files/26183.got.cif
#   From: 2010.03.12/outbox.cif.g09.slc.cpg/sg49_14_cif.got.tgz:26183.got - 2010.04.14 03:58:27.
