data_PCOD8202761
_publ_section_title
;
Structure prediction by ZEFSAII (Michael W. Deem and Ramdas Pophale) SiO2 
 PCOD8202761
Probable space group: P C C M
;
_chemical_formula_sum "Si O2"
_cell_formula_units_Z 64
_cell_length_a 30.886479
_cell_length_b 15.305345
_cell_length_c 9.067674
_cell_angle_alpha 90.000000
_cell_angle_beta 90.000000
_cell_angle_gamma 90.000000
_cell_volume 4286.545362
_symmetry_space_group_name_H-M "P C C M"
_symmetry_group_IT_number 49
_symmetry_cell_setting 'orthorhombic'
loop_
_space_group_symop_operation_xyz
x,y,z
-x,-y,z
x,-y,1/2-z
-x,y,1/2-z
-x,-y,-z
x,y,-z
-x,y,1/2+z
x,-y,1/2+z
loop_
_atom_site_type_symbol
_atom_site_label
_atom_site_fract_x
_atom_site_fract_y
_atom_site_fract_z
Si Si1 0.364398 0.591782 0.670830
Si Si2 0.959998 0.593233 0.672152
Si Si3 0.135355 0.591616 0.828772
Si Si4 0.793693 0.729100 0.676349
Si Si5 0.697888 0.083896 0.834449
Si Si6 0.800408 0.919522 0.338892
Si Si7 0.539934 0.406910 0.672071
Si Si8 0.296655 0.262214 0.175625
O O1 0.356256 0.500000 0.750000
O O2 0.358110 0.571148 0.500000
O O3 0.412338 0.633373 0.699440
O O4 0.330282 0.663475 0.725139
O O5 0.958346 0.500000 0.750000
O O6 0.970139 0.583794 0.500000
O O7 0.912352 0.634455 0.699179
O O8 0.000000 0.646465 0.750000
O O9 0.142248 0.500000 0.750000
O O10 0.171026 0.659213 0.770879
O O11 0.141891 0.572745 0.000000
O O12 0.785727 0.729512 0.500000
O O13 0.811358 0.824257 0.728505
O O14 0.749175 0.707586 0.758390
O O15 0.749006 0.071587 0.845537
O O16 0.686709 0.171256 0.743962
O O17 0.677686 0.000000 0.750000
O O18 0.678348 0.089865 0.000000
O O19 0.821118 0.926715 0.500000
O O20 0.821199 0.000000 0.250000
O O21 0.541282 0.500000 0.750000
O O22 0.500000 0.353337 0.750000
O O23 0.529685 0.415947 0.500000
O O24 0.293221 0.251752 0.000000
#
# Coordination Sequence:
#
# PCOD8202761 Si02
#       8
#     8   8   8   8   8   8   8   8
#     4   9  19  31  42  57  81 111 142 173 205 240
#     4   9  15  24  39  57  75  97 124 159 200 241
#     4   9  18  30  42  56  78 107 138 167 199 237
#     4   9  18  31  42  55  78 109 139 167 199 238
#     4   9  16  27  43  62  81 104 132 167 208 247
#     4   8  14  24  39  56  74  95 122 156 196 234
#     4   9  15  25  40  58  77  99 128 165 207 247
#     4  10  19  30  42  59  82 110 142 174 204 238
#
# _framework density 14.930438000000001
#
# number of rings (size 3 to 8) (size 9 to 14) (size 15 to 20)
#    0.000    3.000    0.000    3.000    0.000    6.000 
#    0.000    2.500    0.000    0.000    0.000    0.000 
#    0.000    1.000    0.000   12.000    0.000    2.000 
#
# Total GULP energy -792862.954653 kJ/mol
# GULP energy per Si atom -12388.483666 kJ/mol
# Density = 1.489646 g / cm^3
# Si number density = 14.930438 Si / 1000 Ang^3
#
#
#
# Elastic Constant Matrix: (Units=GPa)
#
#
# Indices 1 2 3 4 5 6 
#
# 1 98.7283 61.1747 45.9530 0.0000 0.0000 0.0000
# 2 61.1747 91.8263 41.1768 0.0000 0.0000 0.0000
# 3 45.9530 41.1768 77.3767 0.0000 0.0000 0.0000
# 4 0.0000 0.0000 0.0000 19.5446 0.0000 0.0000
# 5 0.0000 0.0000 0.0000 0.0000 8.8219 0.0000
# 6 0.0000 0.0000 0.0000 0.0000 0.0000 0.9255
#
#
#
# Elastic Compliance Matrix: (Units=1/GPa)
#
#
# Indices 1 2 3 4 5 6 
#
# 1 0.019175 -0.010071 -0.006028 0.000000 0.000000 0.000000
# 2 -0.010071 0.019593 -0.004445 0.000000 0.000000 0.000000
# 3 -0.006028 -0.004445 0.018870 0.000000 0.000000 0.000000
# 4 0.000000 0.000000 0.000000 0.051165 0.000000 0.000000
# 5 0.000000 0.000000 0.000000 0.000000 0.113354 0.000000
# 6 0.000000 0.000000 0.000000 0.000000 0.000000 1.080488
#
#
# Mechanical properties :
#
#
# Convention : Reuss Voigt Hill
#
# Bulk Modulus (GPa) = 60.43131 62.72670 61.57900
# Shear Modulus (GPa) = 3.70576 13.83353 8.76965
#
# Velocity S-wave (km/s) = 1.57715 3.04720 2.42619
# Velocity P-wave (km/s) = 6.62417 7.38136 7.01299
#
# Compressibility (1/GPa) = 0.01654771
#
# Stress axis : x y z
#
# Youngs Moduli (GPa) = 52.15107 51.03863 52.99525
#
# Poissons Ratio (x) = 0.51402 0.31947
# Poissons Ratio (y) = 0.52522 0.23559
# Poissons Ratio (z) = 0.31438 0.22689
#
# Static dielectric constant tensor:
#      x y z
#    x 3.503790 0.000000 0.000000 
#    y 0.000000 2.784540 0.000000 
#    z 0.000000 0.000000 3.049790 
# 
# 
# High freq. dielectric constant tensor:
#      x y z
#    x 1.551380 0.000000 0.000000 
#    y 0.000000 1.539680 0.000000 
#    z 0.000000 0.000000 1.583950 
# 
# From -- ./inp_files/7076.got.cif
#   From: 2010.03.12/outbox.cif.g09.slc.cpg/sg49_4_cif.got.tgz:7076.got - 2010.04.14 03:58:27.
