data_PCOD8202846
_publ_section_title
;
Structure prediction by ZEFSAII (Michael W. Deem and Ramdas Pophale) SiO2 
 PCOD8202846
Probable space group: P C C M
;
_chemical_formula_sum "Si O2"
_cell_formula_units_Z 48
_cell_length_a 13.667239
_cell_length_b 24.117873
_cell_length_c 8.970019
_cell_angle_alpha 90.000000
_cell_angle_beta 90.000000
_cell_angle_gamma 90.000000
_cell_volume 2956.740131
_symmetry_space_group_name_H-M "P C C M"
_symmetry_group_IT_number 49
_symmetry_cell_setting 'orthorhombic'
loop_
_space_group_symop_operation_xyz
x,y,z
-x,-y,z
x,-y,1/2-z
-x,y,1/2-z
-x,-y,-z
x,y,-z
-x,y,1/2+z
x,-y,1/2+z
loop_
_atom_site_type_symbol
_atom_site_label
_atom_site_fract_x
_atom_site_fract_y
_atom_site_fract_z
Si Si1 0.895891 0.886010 0.174032
Si Si2 0.894935 0.551806 0.826189
Si Si3 0.895988 0.673720 0.826508
Si Si4 0.279067 0.944071 0.175691
Si Si5 0.224964 0.777384 0.672873
Si Si6 0.603262 0.835225 0.674194
O O1 0.825089 0.930471 0.250877
O O2 0.856052 0.824306 0.201906
O O3 0.000000 0.891495 0.250000
O O4 0.903964 0.900040 0.000000
O O5 0.835648 0.500000 0.750000
O O6 0.848195 0.612633 0.797105
O O7 0.000000 0.553729 0.750000
O O8 0.905117 0.539450 0.000000
O O9 0.819379 0.719370 0.768271
O O10 0.000000 0.681639 0.750000
O O11 0.916039 0.683024 0.000000
O O12 0.356717 0.896178 0.214184
O O13 0.320591 0.000000 0.250000
O O14 0.265478 0.951636 0.000000
O O15 0.254426 0.774757 0.500000
O O16 0.322315 0.788833 0.766424
O O17 0.500000 0.826085 0.750000
O O18 0.590901 0.826853 0.500000
#
# Coordination Sequence:
#
# PCOD8202846 Si02
#       6
#     8   8   8   8   8   8
#     4  10  19  31  48  68  92 122 152 183 220 261
#     4   9  15  23  35  53  81 118 158 193 224 256
#     4   9  17  27  41  63  91 124 158 191 225 261
#     4  10  21  36  52  71  93 116 146 181 217 260
#     4   9  18  32  48  67  92 119 149 186 225 266
#     4  10  21  36  54  73  92 115 142 177 222 270
#
# _framework density 16.234093999999999
#
# number of rings (size 3 to 8) (size 9 to 14) (size 15 to 20)
#    0.000    2.500    0.000    3.000    0.000    4.667 
#    0.000    3.333    0.000    0.000    0.000    0.000 
#    0.000    0.667    0.000    7.667    0.000    2.333 
#
# Total GULP energy -595066.929230 kJ/mol
# GULP energy per Si atom -12397.227692 kJ/mol
# Density = 1.619714 g / cm^3
# Si number density = 16.234094 Si / 1000 Ang^3
#
#
#
# Elastic Constant Matrix: (Units=GPa)
#
#
# Indices 1 2 3 4 5 6 
#
# 1 93.4630 45.4611 43.6481 0.0000 0.0000 0.0000
# 2 45.4611 130.0112 49.2164 0.0000 0.0000 0.0000
# 3 43.6481 49.2164 81.6947 0.0000 0.0000 0.0000
# 4 0.0000 0.0000 0.0000 8.5316 0.0000 0.0000
# 5 0.0000 0.0000 0.0000 0.0000 23.1200 0.0000
# 6 0.0000 0.0000 0.0000 0.0000 0.0000 12.7294
#
#
#
# Elastic Compliance Matrix: (Units=1/GPa)
#
#
# Indices 1 2 3 4 5 6 
#
# 1 0.015042 -0.002872 -0.006306 0.000000 0.000000 0.000000
# 2 -0.002872 0.010513 -0.004799 0.000000 0.000000 0.000000
# 3 -0.006306 -0.004799 0.018501 0.000000 0.000000 0.000000
# 4 0.000000 0.000000 0.000000 0.117212 0.000000 0.000000
# 5 0.000000 0.000000 0.000000 0.000000 0.043253 0.000000
# 6 0.000000 0.000000 0.000000 0.000000 0.000000 0.078558
#
#
# Mechanical properties :
#
#
# Convention : Reuss Voigt Hill
#
# Bulk Modulus (GPa) = 62.10810 64.64667 63.37739
# Shear Modulus (GPa) = 15.80290 19.99910 17.90100
#
# Velocity S-wave (km/s) = 3.12338 3.51368 3.32426
# Velocity P-wave (km/s) = 7.16577 7.50795 7.33885
#
# Compressibility (1/GPa) = 0.01610096
#
# Stress axis : x y z
#
# Youngs Moduli (GPa) = 66.48258 95.12435 54.05197
#
# Poissons Ratio (x) = 0.27324 0.34085
# Poissons Ratio (y) = 0.19097 0.25937
# Poissons Ratio (z) = 0.41924 0.45646
#
# Static dielectric constant tensor:
#      x y z
#    x 2.759490 0.000000 0.000000 
#    y 0.000000 3.750590 0.000000 
#    z 0.000000 0.000000 3.206520 
# 
# 
# High freq. dielectric constant tensor:
#      x y z
#    x 1.583940 0.000000 0.000000 
#    y 0.000000 1.630910 0.000000 
#    z 0.000000 0.000000 1.638800 
# 
# From -- ./inp_files/2877.got.cif
#   From: 2010.03.12/outbox.cif.g09.slc.cpg/sg49_2_cif.got.tgz:2877.got - 2010.04.14 03:58:27.
