data_PCOD8202086
_publ_section_title
;
Structure prediction by ZEFSAII (Michael W. Deem and Ramdas Pophale) SiO2 
 PCOD8202086
Probable space group: P N N N
;
_chemical_formula_sum "Si O2"
_cell_formula_units_Z 44
_cell_length_a 13.387238
_cell_length_b 17.002007
_cell_length_c 9.265386
_cell_angle_alpha 90.000000
_cell_angle_beta 90.000000
_cell_angle_gamma 90.000000
_cell_volume 2108.893712
_symmetry_space_group_name_H-M "P N N N"
_symmetry_group_IT_number 48
_space_group.IT_coordinate_system_code '2'
_symmetry_cell_setting 'orthorhombic'
loop_
_space_group_symop_operation_xyz
x,y,z
1/2-x,1/2-y,z
x,1/2-y,1/2-z
1/2-x,y,1/2-z
-x,-y,-z
1/2+x,1/2+y,-z
-x,1/2+y,1/2+z
1/2+x,-y,1/2+z
loop_
_atom_site_type_symbol
_atom_site_label
_atom_site_fract_x
_atom_site_fract_y
_atom_site_fract_z
Si Si1 0.884217 0.867513 0.585615
Si Si2 0.155614 0.536611 0.159652
Si Si3 0.891156 0.114056 0.355672
Si Si4 0.250000 0.750000 0.750000
Si Si5 0.250000 0.250000 0.250000
Si Si6 0.865593 0.835583 0.263725
Si Si7 0.960390 0.979108 0.157074
O O1 0.819038 0.795764 0.639133
O O2 0.895041 0.872856 0.415141
O O3 0.994904 0.858152 0.647583
O O4 0.826349 0.944557 0.637699
O O5 0.250000 0.571045 0.250000
O O6 0.052826 0.546322 0.244143
O O7 0.145611 0.578104 0.005798
O O8 0.821657 0.190630 0.337197
O O9 0.889348 0.047683 0.227135
O O10 0.919201 0.750000 0.250000
O O11 0.750000 0.821474 0.250000
O O12 0.897646 0.898227 0.140969
O O13 0.000000 0.000000 0.000000
#
# Coordination Sequence:
#
# PCOD8202086 Si02
#       7
#     8   8   8   2   2   8   8
#     4  11  22  44  65  97 137 180 218 291 349 404
#     4  11  23  45  73  99 130 186 233 279 355 417
#     4  11  25  49  69  94 147 183 235 291 352 423
#     4  12  30  44  74 106 134 204 240 288 360 422
#     4  12  22  32  74 106 132 170 242 286 340 446
#     4  11  24  40  65  98 139 173 219 281 352 403
#     4  11  25  42  73 104 132 184 232 288 348 425
#
# _framework density 20.86402
#
# number of rings (size 3 to 8) (size 9 to 14) (size 15 to 20)
#    0.000    0.909    4.545    2.727    6.364    4.364 
#    0.000    0.455    0.000    0.000    0.000    0.000 
#    0.000    0.000    0.000    0.000    0.000    0.000 
#
# Total GULP energy -545365.125406 kJ/mol
# GULP energy per Si atom -12394.661941 kJ/mol
# Density = 2.081653 g / cm^3
# Si number density = 20.864020 Si / 1000 Ang^3
#
#
#
# Elastic Constant Matrix: (Units=GPa)
#
#
# Indices 1 2 3 4 5 6 
#
# 1 79.6085 73.6309 39.3496 0.0000 0.0000 0.0000
# 2 73.6309 148.1725 55.2456 0.0000 0.0000 0.0000
# 3 39.3496 55.2456 126.9745 0.0000 0.0000 0.0000
# 4 0.0000 0.0000 0.0000 41.9166 0.0000 0.0000
# 5 0.0000 0.0000 0.0000 0.0000 34.7436 0.0000
# 6 0.0000 0.0000 0.0000 0.0000 0.0000 37.2789
#
#
#
# Elastic Compliance Matrix: (Units=1/GPa)
#
#
# Indices 1 2 3 4 5 6 
#
# 1 0.023987 -0.010920 -0.002683 0.000000 0.000000 0.000000
# 2 -0.010920 0.013027 -0.002284 0.000000 0.000000 0.000000
# 3 -0.002683 -0.002284 0.009701 0.000000 0.000000 0.000000
# 4 0.000000 0.000000 0.000000 0.023857 0.000000 0.000000
# 5 0.000000 0.000000 0.000000 0.000000 0.028782 0.000000
# 6 0.000000 0.000000 0.000000 0.000000 0.000000 0.026825
#
#
# Mechanical properties :
#
#
# Convention : Reuss Voigt Hill
#
# Bulk Modulus (GPa) = 66.92388 76.80083 71.86236
# Shear Modulus (GPa) = 30.68775 35.22311 32.95543
#
# Velocity S-wave (km/s) = 3.83932 4.11326 3.97865
# Velocity P-wave (km/s) = 7.19720 7.71029 7.45816
#
# Compressibility (1/GPa) = 0.01494235
#
# Stress axis : x y z
#
# Youngs Moduli (GPa) = 41.68884 76.76550 103.08649
#
# Poissons Ratio (x) = 0.83826 0.27654
# Poissons Ratio (y) = 0.45523 0.23543
# Poissons Ratio (z) = 0.11183 0.17532
#
# Static dielectric constant tensor:
#      x y z
#    x 3.868010 0.000000 0.000000 
#    y 0.000000 4.110440 0.000000 
#    z 0.000000 0.000000 3.928620 
# 
# 
# High freq. dielectric constant tensor:
#      x y z
#    x 1.824050 0.000000 0.000000 
#    y 0.000000 1.823890 0.000000 
#    z 0.000000 0.000000 1.817650 
# 
# From -- ./inp_files/12681.got.cif
#   From: 2010.06.25/outbox.cif.g09.slc.cpg/sg48_7_cif.got.tgz:12681.got - 2010.06.26 18:06:46.
