data_PCOD8202510
_publ_section_title
;
Structure prediction by ZEFSAII (Michael W. Deem and Ramdas Pophale) SiO2 
 PCOD8202510
Probable space group: P C C M
;
_chemical_formula_sum "Si O2"
_cell_formula_units_Z 56
_cell_length_a 18.390360
_cell_length_b 18.802065
_cell_length_c 9.243912
_cell_angle_alpha 90.000000
_cell_angle_beta 90.000000
_cell_angle_gamma 90.000000
_cell_volume 3196.329794
_symmetry_space_group_name_H-M "P C C M"
_symmetry_group_IT_number 49
_symmetry_cell_setting 'orthorhombic'
loop_
_space_group_symop_operation_xyz
x,y,z
-x,-y,z
x,-y,1/2-z
-x,y,1/2-z
-x,-y,-z
x,y,-z
-x,y,1/2+z
x,-y,1/2+z
loop_
_atom_site_type_symbol
_atom_site_label
_atom_site_fract_x
_atom_site_fract_y
_atom_site_fract_z
Si Si1 0.843649 0.794255 0.833442
Si Si2 0.425241 0.216328 0.328464
Si Si3 0.186284 0.070169 0.669435
Si Si4 0.355186 0.931235 0.832463
Si Si5 0.301695 0.291103 0.165806
Si Si6 0.786289 0.571308 0.831963
Si Si7 0.926773 0.654939 0.169489
O O1 0.856957 0.862095 0.731412
O O2 0.764899 0.761361 0.802183
O O3 0.904925 0.736196 0.795113
O O4 0.849432 0.818101 0.000000
O O5 0.500000 0.234060 0.250000
O O6 0.433786 0.223378 0.500000
O O7 0.399905 0.137509 0.281955
O O8 0.366742 0.273581 0.274461
O O9 0.170935 0.062791 0.500000
O O10 0.271038 0.081380 0.705452
O O11 0.157117 0.000000 0.750000
O O12 0.386239 0.000000 0.750000
O O13 0.366054 0.946564 0.000000
O O14 0.277284 0.371753 0.196596
O O15 0.327561 0.282309 0.000000
O O16 0.765141 0.500000 0.750000
O O17 0.863168 0.602438 0.775859
O O18 0.792586 0.553917 0.000000
O O19 0.000000 0.633478 0.250000
O O20 0.938847 0.645502 0.000000
#
# Coordination Sequence:
#
# PCOD8202510 Si02
#       7
#     8   8   8   8   8   8   8
#     4   9  17  31  51  72  97 131 169 211 255 297
#     4  11  22  35  50  73 101 133 173 213 256 305
#     4  10  18  29  46  71  98 127 167 213 259 304
#     4   9  19  32  46  67  97 130 167 209 252 302
#     4   9  18  34  54  74  99 131 167 209 252 297
#     4   9  19  35  55  81 109 137 169 202 244 295
#     4   9  19  34  51  76 109 141 172 203 242 295
#
# _framework density 17.520095000000001
#
# number of rings (size 3 to 8) (size 9 to 14) (size 15 to 20)
#    0.000    2.571    1.429    2.571    0.000    4.000 
#    0.000    5.714    0.000    0.857    0.000    6.000 
#    0.000    0.000    0.000    0.000    0.000    0.000 
#
# Total GULP energy -694464.180050 kJ/mol
# GULP energy per Si atom -12401.146072 kJ/mol
# Density = 1.748022 g / cm^3
# Si number density = 17.520095 Si / 1000 Ang^3
#
#
#
# Elastic Constant Matrix: (Units=GPa)
#
#
# Indices 1 2 3 4 5 6 
#
# 1 60.8987 26.2278 28.6315 0.0000 0.0000 0.0000
# 2 26.2278 112.3782 52.1160 0.0000 0.0000 0.0000
# 3 28.6315 52.1160 69.2210 0.0000 0.0000 0.0000
# 4 0.0000 0.0000 0.0000 34.5192 0.0000 0.0000
# 5 0.0000 0.0000 0.0000 0.0000 21.3001 0.0000
# 6 0.0000 0.0000 0.0000 0.0000 0.0000 17.9272
#
#
#
# Elastic Compliance Matrix: (Units=1/GPa)
#
#
# Indices 1 2 3 4 5 6 
#
# 1 0.020510 -0.001310 -0.007497 0.000000 0.000000 0.000000
# 2 -0.001310 0.013756 -0.009815 0.000000 0.000000 0.000000
# 3 -0.007497 -0.009815 0.024937 0.000000 0.000000 0.000000
# 4 0.000000 0.000000 0.000000 0.028969 0.000000 0.000000
# 5 0.000000 0.000000 0.000000 0.000000 0.046948 0.000000
# 6 0.000000 0.000000 0.000000 0.000000 0.000000 0.055781
#
#
# Mechanical properties :
#
#
# Convention : Reuss Voigt Hill
#
# Bulk Modulus (GPa) = 45.53983 50.71648 48.12816
# Shear Modulus (GPa) = 21.23458 23.78413 22.50935
#
# Velocity S-wave (km/s) = 3.48517 3.68847 3.58826
# Velocity P-wave (km/s) = 6.49958 6.86660 6.68561
#
# Compressibility (1/GPa) = 0.02195880
#
# Stress axis : x y z
#
# Youngs Moduli (GPa) = 48.75765 72.69567 40.10094
#
# Poissons Ratio (x) = 0.09522 0.30064
# Poissons Ratio (y) = 0.06387 0.39359
# Poissons Ratio (z) = 0.36554 0.71351
#
# Static dielectric constant tensor:
#      x y z
#    x 3.018340 0.000000 0.000000 
#    y 0.000000 3.222260 0.000000 
#    z 0.000000 0.000000 3.157550 
# 
# 
# High freq. dielectric constant tensor:
#      x y z
#    x 1.650900 0.000000 0.000000 
#    y 0.000000 1.675330 0.000000 
#    z 0.000000 0.000000 1.677650 
# 
# From -- ./inp_files/5153.got.cif
#   From: 2010.03.12/outbox.cif.g09.slc.cpg/sg49_3_cif.got.tgz:5153.got - 2010.04.14 03:58:27.
