data_PCOD8202657
_publ_section_title
;
Structure prediction by ZEFSAII (Michael W. Deem and Ramdas Pophale) SiO2 
 PCOD8202657
Probable space group: P C C M
;
_chemical_formula_sum "Si O2"
_cell_formula_units_Z 64
_cell_length_a 24.930205
_cell_length_b 14.942440
_cell_length_c 8.690944
_cell_angle_alpha 90.000000
_cell_angle_beta 90.000000
_cell_angle_gamma 90.000000
_cell_volume 3237.533880
_symmetry_space_group_name_H-M "P C C M"
_symmetry_group_IT_number 49
_symmetry_cell_setting 'orthorhombic'
loop_
_space_group_symop_operation_xyz
x,y,z
-x,-y,z
x,-y,1/2-z
-x,y,1/2-z
-x,-y,-z
x,y,-z
-x,y,1/2+z
x,-y,1/2+z
loop_
_atom_site_type_symbol
_atom_site_label
_atom_site_fract_x
_atom_site_fract_y
_atom_site_fract_z
Si Si1 0.856849 0.727167 0.683115
Si Si2 0.340245 0.331519 0.326231
Si Si3 0.591764 0.087456 0.318002
Si Si4 0.445362 0.720963 0.679878
Si Si5 0.814831 0.905388 0.817440
Si Si6 0.941056 0.406568 0.316332
Si Si7 0.232902 0.409086 0.681402
Si Si8 0.700756 0.132303 0.824259
O O1 0.863900 0.729214 0.500000
O O2 0.852281 0.827783 0.746448
O O3 0.906985 0.678021 0.760250
O O4 0.803369 0.673947 0.734707
O O5 0.357136 0.354467 0.500000
O O6 0.394147 0.338943 0.225638
O O7 0.294632 0.398230 0.261337
O O8 0.311314 0.236627 0.317723
O O9 0.592458 0.085418 0.500000
O O10 0.563007 0.177659 0.257551
O O11 0.651714 0.080746 0.252937
O O12 0.561033 0.000000 0.250000
O O13 0.500000 0.681187 0.750000
O O14 0.451366 0.719164 0.500000
O O15 0.753268 0.890329 0.771881
O O16 0.835202 0.000000 0.750000
O O17 0.820661 0.905153 0.000000
O O18 0.916989 0.500000 0.250000
O O19 0.942168 0.411364 0.500000
O O20 0.000000 0.392245 0.250000
O O21 0.208784 0.500000 0.750000
O O22 0.231845 0.415420 0.500000
O O23 0.708844 0.100152 0.000000
#
# Coordination Sequence:
#
# PCOD8202657 Si02
#       8
#     8   8   8   8   8   8   8   8
#     4  11  22  40  61  88 126 164 204 252 300 352
#     4   9  18  35  55  76 106 143 179 223 277 337
#     4  10  20  32  46  69  97 129 172 220 276 337
#     4  10  21  35  52  73  95 128 174 223 276 339
#     4  12  24  37  55  81 115 158 205 251 298 352
#     4  11  22  39  63  95 129 170 213 256 305 356
#     4  10  21  36  57  87 121 155 188 226 285 349
#     4  10  18  33  53  73 103 143 186 232 283 337
#
# _framework density 19.768132999999999
#
# number of rings (size 3 to 8) (size 9 to 14) (size 15 to 20)
#    0.000    1.625    1.250    4.875    0.000    4.750 
#    0.000    1.250    0.000    0.750    0.000    5.250 
#    0.000    0.000    0.000    0.000    0.000    0.000 
#
# Total GULP energy -793569.099472 kJ/mol
# GULP energy per Si atom -12399.517179 kJ/mol
# Density = 1.972314 g / cm^3
# Si number density = 19.768133 Si / 1000 Ang^3
#
#
#
# Elastic Constant Matrix: (Units=GPa)
#
#
# Indices 1 2 3 4 5 6 
#
# 1 95.6435 44.8101 43.7534 0.0000 0.0000 0.0000
# 2 44.8101 94.0003 37.9614 0.0000 0.0000 0.0000
# 3 43.7534 37.9614 109.2871 0.0000 0.0000 0.0000
# 4 0.0000 0.0000 0.0000 29.2492 0.0000 0.0000
# 5 0.0000 0.0000 0.0000 0.0000 29.3793 0.0000
# 6 0.0000 0.0000 0.0000 0.0000 0.0000 10.1379
#
#
#
# Elastic Compliance Matrix: (Units=1/GPa)
#
#
# Indices 1 2 3 4 5 6 
#
# 1 0.014864 -0.005447 -0.004059 0.000000 0.000000 0.000000
# 2 -0.005447 0.014370 -0.002811 0.000000 0.000000 0.000000
# 3 -0.004059 -0.002811 0.011752 0.000000 0.000000 0.000000
# 4 0.000000 0.000000 0.000000 0.034189 0.000000 0.000000
# 5 0.000000 0.000000 0.000000 0.000000 0.034038 0.000000
# 6 0.000000 0.000000 0.000000 0.000000 0.000000 0.098640
#
#
# Mechanical properties :
#
#
# Convention : Reuss Voigt Hill
#
# Bulk Modulus (GPa) = 61.15210 61.33119 61.24165
# Shear Modulus (GPa) = 21.01406 25.24701 23.13053
#
# Velocity S-wave (km/s) = 3.26395 3.57761 3.42437
# Velocity P-wave (km/s) = 6.72356 6.93962 6.83245
#
# Compressibility (1/GPa) = 0.01635267
#
# Stress axis : x y z
#
# Youngs Moduli (GPa) = 67.27622 69.59041 85.09465
#
# Poissons Ratio (x) = 0.37903 0.34540
# Poissons Ratio (y) = 0.36642 0.23919
# Poissons Ratio (z) = 0.27307 0.19561
#
# Static dielectric constant tensor:
#      x y z
#    x 3.550890 0.000000 0.000000 
#    y 0.000000 4.239250 0.000000 
#    z 0.000000 0.000000 3.589370 
# 
# 
# High freq. dielectric constant tensor:
#      x y z
#    x 1.756100 0.000000 0.000000 
#    y 0.000000 1.763060 0.000000 
#    z 0.000000 0.000000 1.777080 
# 
# From -- ./inp_files/4310.got.cif
#   From: 2010.03.12/outbox.cif.g09.slc.cpg/sg49_3_cif.got.tgz:4310.got - 2010.04.14 03:58:27.
