data_PCOD8202159
_publ_section_title
;
Structure prediction by ZEFSAII (Michael W. Deem and Ramdas Pophale) SiO2 
 PCOD8202159
Probable space group: P N N N
;
_chemical_formula_sum "Si O2"
_cell_formula_units_Z 26
_cell_length_a 22.734224
_cell_length_b 4.779984
_cell_length_c 9.892948
_cell_angle_alpha 90.000000
_cell_angle_beta 90.000000
_cell_angle_gamma 90.000000
_cell_volume 1075.059012
_symmetry_space_group_name_H-M "P N N N"
_symmetry_group_IT_number 48
_space_group.IT_coordinate_system_code '2'
_symmetry_cell_setting 'orthorhombic'
loop_
_space_group_symop_operation_xyz
x,y,z
1/2-x,1/2-y,z
x,1/2-y,1/2-z
1/2-x,y,1/2-z
-x,-y,-z
1/2+x,1/2+y,-z
-x,1/2+y,1/2+z
1/2+x,-y,1/2+z
loop_
_atom_site_type_symbol
_atom_site_label
_atom_site_fract_x
_atom_site_fract_y
_atom_site_fract_z
Si Si1 0.805185 0.421675 0.486609
Si Si2 0.882014 0.902527 0.518580
Si Si3 0.530263 0.750000 0.750000
Si Si4 0.250000 0.250000 0.750000
Si Si5 0.051551 0.250000 0.750000
O O1 0.750000 0.250000 0.550315
O O2 0.826795 0.702563 0.564312
O O3 0.789280 0.536548 0.337550
O O4 0.861039 0.218483 0.494455
O O5 0.931490 0.887629 0.631637
O O6 0.906944 0.812893 0.375257
O O7 0.488772 0.503667 0.802436
#
# Coordination Sequence:
#
# PCOD8202159 Si02
#       5
#     8   8   4   2   4
#     4  12  25  42  68 110 142 180 232 301 356 437
#     4  12  26  44  73 105 141 192 232 295 366 427
#     4  12  26  50  67 100 147 190 240 296 354 434
#     4  12  24  40  74 102 158 172 238 308 362 408
#     4  12  25  44  73 104 135 188 248 303 348 414
#
# _framework density 24.184719999999999
#
# number of rings (size 3 to 8) (size 9 to 14) (size 15 to 20)
#    0.000    0.000    3.077    6.923    4.308    0.000 
#    0.000    4.615    0.000    0.000    0.000    0.000 
#    0.000    0.000    0.000    0.000    0.000    0.000 
#
# Total GULP energy -322194.546498 kJ/mol
# GULP energy per Si atom -12392.097942 kJ/mol
# Density = 2.412967 g / cm^3
# Si number density = 24.184720 Si / 1000 Ang^3
#
#
#
# Elastic Constant Matrix: (Units=GPa)
#
#
# Indices 1 2 3 4 5 6 
#
# 1 65.9937 18.9120 7.0867 0.0000 0.0000 0.0000
# 2 18.9120 137.5626 0.1715 0.0000 0.0000 0.0000
# 3 7.0867 0.1715 64.1059 0.0000 0.0000 0.0000
# 4 0.0000 0.0000 0.0000 20.0878 0.0000 0.0000
# 5 0.0000 0.0000 0.0000 0.0000 20.8375 0.0000
# 6 0.0000 0.0000 0.0000 0.0000 0.0000 76.2650
#
#
#
# Elastic Compliance Matrix: (Units=1/GPa)
#
#
# Indices 1 2 3 4 5 6 
#
# 1 0.015970 -0.002193 -0.001760 0.000000 0.000000 0.000000
# 2 -0.002193 0.007571 0.000222 0.000000 0.000000 0.000000
# 3 -0.001760 0.000222 0.015793 0.000000 0.000000 0.000000
# 4 0.000000 0.000000 0.000000 0.049781 0.000000 0.000000
# 5 0.000000 0.000000 0.000000 0.000000 0.047990 0.000000
# 6 0.000000 0.000000 0.000000 0.000000 0.000000 0.013112
#
#
# Mechanical properties :
#
#
# Convention : Reuss Voigt Hill
#
# Bulk Modulus (GPa) = 31.37484 35.55584 33.46534
# Shear Modulus (GPa) = 29.70812 39.53753 34.62282
#
# Velocity S-wave (km/s) = 3.50863 4.04767 3.78775
# Velocity P-wave (km/s) = 5.42358 6.04802 5.74429
#
# Compressibility (1/GPa) = 0.03187268
#
# Stress axis : x y z
#
# Youngs Moduli (GPa) = 62.61548 132.08832 63.31869
#
# Poissons Ratio (x) = 0.28973 0.11142
# Poissons Ratio (y) = 0.13734 -0.01407
# Poissons Ratio (z) = 0.11018 -0.02935
#
# Static dielectric constant tensor:
#      x y z
#    x 4.908470 0.000000 0.000000 
#    y 0.000000 4.955780 0.000000 
#    z 0.000000 0.000000 4.225730 
# 
# 
# High freq. dielectric constant tensor:
#      x y z
#    x 1.983860 0.000000 0.000000 
#    y 0.000000 1.993910 0.000000 
#    z 0.000000 0.000000 1.916070 
# 
# From -- ./inp_files/17249.got.cif
#   From: 2010.06.25/outbox.cif.g09.slc.cpg/sg48_9_cif.got.tgz:17249.got - 2010.06.26 18:06:46.
