data_PCOD8202529
_publ_section_title
;
Structure prediction by ZEFSAII (Michael W. Deem and Ramdas Pophale) SiO2 
 PCOD8202529
Probable space group: P C C M
;
_chemical_formula_sum "Si O2"
_cell_formula_units_Z 64
_cell_length_a 18.743271
_cell_length_b 23.876112
_cell_length_c 8.659376
_cell_angle_alpha 90.000000
_cell_angle_beta 90.000000
_cell_angle_gamma 90.000000
_cell_volume 3875.213100
_symmetry_space_group_name_H-M "P C C M"
_symmetry_group_IT_number 49
_symmetry_cell_setting 'orthorhombic'
loop_
_space_group_symop_operation_xyz
x,y,z
-x,-y,z
x,-y,1/2-z
-x,y,1/2-z
-x,-y,-z
x,y,-z
-x,y,1/2+z
x,-y,1/2+z
loop_
_atom_site_type_symbol
_atom_site_label
_atom_site_fract_x
_atom_site_fract_y
_atom_site_fract_z
Si Si1 0.284802 0.383268 0.682051
Si Si2 0.857577 0.559687 0.316850
Si Si3 0.207242 0.274237 0.318422
Si Si4 0.074643 0.668042 0.317391
Si Si5 0.427007 0.438375 0.315898
Si Si6 0.426982 0.129800 0.824183
Si Si7 0.721541 0.831401 0.176168
Si Si8 0.315739 0.059409 0.682229
O O1 0.289256 0.386141 0.500000
O O2 0.223013 0.425850 0.738318
O O3 0.265460 0.320420 0.735790
O O4 0.361450 0.401216 0.749252
O O5 0.880657 0.500000 0.250000
O O6 0.864395 0.559163 0.500000
O O7 0.910112 0.606790 0.251851
O O8 0.192853 0.278713 0.500000
O O9 0.133481 0.286260 0.231620
O O10 0.237013 0.213653 0.277073
O O11 0.071338 0.663874 0.500000
O O12 0.000000 0.689780 0.250000
O O13 0.416537 0.500000 0.250000
O O14 0.500000 0.411642 0.250000
O O15 0.430143 0.440619 0.500000
O O16 0.500000 0.152502 0.750000
O O17 0.365054 0.177822 0.814380
O O18 0.397175 0.074814 0.733789
O O19 0.441464 0.112383 0.000000
O O20 0.737526 0.893226 0.246729
O O21 0.748345 0.828398 0.000000
O O22 0.309071 0.058530 0.500000
O O23 0.292538 0.000000 0.750000
#
# Coordination Sequence:
#
# PCOD8202529 Si02
#       8
#     8   8   8   8   8   8   8   8
#     4   8  17  31  48  68  92 120 157 198 239 289
#     4  10  19  33  51  74 100 129 162 196 239 292
#     4  10  19  35  56  75  96 127 161 197 243 291
#     4  11  22  37  55  77 103 130 160 197 237 284
#     4  10  18  30  45  64  88 115 148 193 243 290
#     4   9  18  30  45  66  95 128 169 211 252 297
#     4   9  19  33  48  70  97 128 168 209 246 293
#     4  10  18  30  47  69  98 132 169 212 257 299
#
# _framework density 16.515222000000001
#
# number of rings (size 3 to 8) (size 9 to 14) (size 15 to 20)
#    0.750    1.625    0.000    5.250    0.000    0.500 
#    0.000   10.000    0.000    3.000    0.000    0.000 
#    0.000    0.500    0.000    5.000    0.000    3.000 
#
# Total GULP energy -793199.932616 kJ/mol
# GULP energy per Si atom -12393.748947 kJ/mol
# Density = 1.647763 g / cm^3
# Si number density = 16.515222 Si / 1000 Ang^3
#
#
#
# Elastic Constant Matrix: (Units=GPa)
#
#
# Indices 1 2 3 4 5 6 
#
# 1 93.5659 44.5490 29.5050 0.0000 0.0000 0.0000
# 2 44.5490 88.4257 28.8000 0.0000 0.0000 0.0000
# 3 29.5050 28.8000 100.2648 0.0000 0.0000 0.0000
# 4 0.0000 0.0000 0.0000 25.1539 0.0000 0.0000
# 5 0.0000 0.0000 0.0000 0.0000 24.7957 0.0000
# 6 0.0000 0.0000 0.0000 0.0000 0.0000 14.0795
#
#
#
# Elastic Compliance Matrix: (Units=1/GPa)
#
#
# Indices 1 2 3 4 5 6 
#
# 1 0.014567 -0.006556 -0.002403 0.000000 0.000000 0.000000
# 2 -0.006556 0.015427 -0.002502 0.000000 0.000000 0.000000
# 3 -0.002403 -0.002502 0.011400 0.000000 0.000000 0.000000
# 4 0.000000 0.000000 0.000000 0.039755 0.000000 0.000000
# 5 0.000000 0.000000 0.000000 0.000000 0.040330 0.000000
# 6 0.000000 0.000000 0.000000 0.000000 0.000000 0.071025
#
#
# Mechanical properties :
#
#
# Convention : Reuss Voigt Hill
#
# Bulk Modulus (GPa) = 54.14080 54.21826 54.17953
# Shear Modulus (GPa) = 22.56488 24.76597 23.66543
#
# Velocity S-wave (km/s) = 3.70037 3.87665 3.78953
# Velocity P-wave (km/s) = 7.14916 7.27588 7.21280
#
# Compressibility (1/GPa) = 0.01847036
#
# Stress axis : x y z
#
# Youngs Moduli (GPa) = 68.64786 64.82232 87.72309
#
# Poissons Ratio (x) = 0.42498 0.21084
# Poissons Ratio (y) = 0.45006 0.21948
# Poissons Ratio (z) = 0.16499 0.16218
#
# Static dielectric constant tensor:
#      x y z
#    x 3.149980 0.000000 0.000000 
#    y 0.000000 2.965260 0.000000 
#    z 0.000000 0.000000 3.105930 
# 
# 
# High freq. dielectric constant tensor:
#      x y z
#    x 1.617930 0.000000 0.000000 
#    y 0.000000 1.611880 0.000000 
#    z 0.000000 0.000000 1.647970 
# 
# From -- ./inp_files/6087.got.cif
#   From: 2010.03.12/outbox.cif.g09.slc.cpg/sg49_4_cif.got.tgz:6087.got - 2010.04.14 03:58:27.
