data_PCOD8202366
_publ_section_title
;
Structure prediction by ZEFSAII (Michael W. Deem and Ramdas Pophale) SiO2 
 PCOD8202366
Probable space group: P C C M
;
_chemical_formula_sum "Si O2"
_cell_formula_units_Z 48
_cell_length_a 19.383830
_cell_length_b 15.718028
_cell_length_c 8.647658
_cell_angle_alpha 90.000000
_cell_angle_beta 90.000000
_cell_angle_gamma 90.000000
_cell_volume 2634.730240
_symmetry_space_group_name_H-M "P C C M"
_symmetry_group_IT_number 49
_symmetry_cell_setting 'orthorhombic'
loop_
_space_group_symop_operation_xyz
x,y,z
-x,-y,z
x,-y,1/2-z
-x,y,1/2-z
-x,-y,-z
x,y,-z
-x,y,1/2+z
x,-y,1/2+z
loop_
_atom_site_type_symbol
_atom_site_label
_atom_site_fract_x
_atom_site_fract_y
_atom_site_fract_z
Si Si1 0.575449 0.768193 0.682210
Si Si2 0.923142 0.414651 0.184019
Si Si3 0.323092 0.088516 0.682031
Si Si4 0.575625 0.581987 0.319501
Si Si5 0.165019 0.909689 0.183379
Si Si6 0.076107 0.758523 0.316560
O O1 0.500000 0.784006 0.750000
O O2 0.568203 0.777801 0.500000
O O3 0.629062 0.836596 0.750720
O O4 0.606922 0.674527 0.723580
O O5 0.885441 0.500000 0.250000
O O6 0.888651 0.327525 0.246526
O O7 0.000000 0.414188 0.250000
O O8 0.922584 0.416219 0.000000
O O9 0.329925 0.083741 0.500000
O O10 0.244379 0.105789 0.730641
O O11 0.350251 0.000000 0.750000
O O12 0.617267 0.500000 0.250000
O O13 0.500000 0.581299 0.250000
O O14 0.571690 0.568867 0.500000
O O15 0.121897 0.837556 0.267245
O O16 0.139724 0.000000 0.250000
O O17 0.153267 0.906797 0.000000
O O18 0.072150 0.750823 0.500000
O O19 0.000000 0.772420 0.250000
#
# Coordination Sequence:
#
# PCOD8202366 Si02
#       6
#     8   8   8   8   8   8
#     4   9  18  31  47  71  99 128 159 198 243 287
#     4  10  17  28  46  71 102 135 168 203 244 291
#     4   9  19  35  53  71  95 127 164 200 242 293
#     4   9  15  24  40  62  91 122 155 190 231 278
#     4  10  20  36  55  74  96 128 166 205 249 300
#     4  11  21  34  52  77 105 132 165 206 249 295
#
# _framework density 18.218184000000001
#
# number of rings (size 3 to 8) (size 9 to 14) (size 15 to 20)
#    0.000    2.333    0.000    6.000    0.000    2.667 
#    0.000    3.333    0.000    1.000    0.000    2.333 
#    0.000    0.000    0.000    0.000    0.000    0.000 
#
# Total GULP energy -594862.419380 kJ/mol
# GULP energy per Si atom -12392.967070 kJ/mol
# Density = 1.817672 g / cm^3
# Si number density = 18.218184 Si / 1000 Ang^3
#
#
#
# Elastic Constant Matrix: (Units=GPa)
#
#
# Indices 1 2 3 4 5 6 
#
# 1 52.0314 68.1389 28.0148 0.0000 0.0000 0.0000
# 2 68.1389 212.0773 67.3569 0.0000 0.0000 0.0000
# 3 28.0148 67.3569 109.2137 0.0000 0.0000 0.0000
# 4 0.0000 0.0000 0.0000 23.1767 0.0000 0.0000
# 5 0.0000 0.0000 0.0000 0.0000 14.8063 0.0000
# 6 0.0000 0.0000 0.0000 0.0000 0.0000 6.2011
#
#
#
# Elastic Compliance Matrix: (Units=1/GPa)
#
#
# Indices 1 2 3 4 5 6 
#
# 1 0.033697 -0.010050 -0.002446 0.000000 0.000000 0.000000
# 2 -0.010050 0.008861 -0.002887 0.000000 0.000000 0.000000
# 3 -0.002446 -0.002887 0.011564 0.000000 0.000000 0.000000
# 4 0.000000 0.000000 0.000000 0.043147 0.000000 0.000000
# 5 0.000000 0.000000 0.000000 0.000000 0.067539 0.000000
# 6 0.000000 0.000000 0.000000 0.000000 0.000000 0.161261
#
#
# Mechanical properties :
#
#
# Convention : Reuss Voigt Hill
#
# Bulk Modulus (GPa) = 42.81319 77.81596 60.31457
# Shear Modulus (GPa) = 13.71291 22.82427 18.26859
#
# Velocity S-wave (km/s) = 2.74652 3.54337 3.17008
# Velocity P-wave (km/s) = 5.79734 7.71665 6.82480
#
# Compressibility (1/GPa) = 0.02335729
#
# Stress axis : x y z
#
# Youngs Moduli (GPa) = 29.67636 112.85184 86.47294
#
# Poissons Ratio (x) = 1.13414 0.21147
# Poissons Ratio (y) = 0.29824 0.24966
# Poissons Ratio (z) = 0.07257 0.32582
#
# Static dielectric constant tensor:
#      x y z
#    x 3.017230 0.000000 0.000000 
#    y 0.000000 4.944440 0.000000 
#    z 0.000000 0.000000 3.426860 
# 
# 
# High freq. dielectric constant tensor:
#      x y z
#    x 1.649790 0.000000 0.000000 
#    y 0.000000 1.737350 0.000000 
#    z 0.000000 0.000000 1.717030 
# 
# From -- ./inp_files/4895.got.cif
#   From: 2010.03.12/outbox.cif.g09.slc.cpg/sg49_3_cif.got.tgz:4895.got - 2010.04.14 03:58:27.
