data_PCOD8202898
_publ_section_title
;
Structure prediction by ZEFSAII (Michael W. Deem and Ramdas Pophale) SiO2 
 PCOD8202898
Probable space group: P C C M
;
_chemical_formula_sum "Si O2"
_cell_formula_units_Z 56
_cell_length_a 5.108264
_cell_length_b 31.382387
_cell_length_c 18.342785
_cell_angle_alpha 90.000000
_cell_angle_beta 90.000000
_cell_angle_gamma 90.000000
_cell_volume 2940.523017
_symmetry_space_group_name_H-M "P C C M"
_symmetry_group_IT_number 49
_symmetry_cell_setting 'orthorhombic'
loop_
_space_group_symop_operation_xyz
x,y,z
-x,-y,z
x,-y,1/2-z
-x,y,1/2-z
-x,-y,-z
x,y,-z
-x,y,1/2+z
x,-y,1/2+z
loop_
_atom_site_type_symbol
_atom_site_label
_atom_site_fract_x
_atom_site_fract_y
_atom_site_fract_z
Si Si1 0.667613 0.682298 0.081584
Si Si2 0.496314 0.401265 0.163555
Si Si3 0.746908 0.972293 0.415682
Si Si4 0.744103 0.805225 0.702532
Si Si5 0.997537 0.547768 0.163268
Si Si6 0.740784 0.902104 0.297491
Si Si7 0.157459 0.262939 0.418053
O O1 0.562458 0.645044 0.132675
O O2 0.441081 0.716674 0.080712
O O3 0.934537 0.704266 0.112242
O O4 0.720593 0.664609 0.000000
O O5 0.500000 0.396975 0.250000
O O6 0.269687 0.432093 0.135018
O O7 0.765420 0.422408 0.134794
O O8 0.725942 0.959170 0.500000
O O9 0.764438 0.928806 0.371070
O O10 0.500000 0.000000 0.390639
O O11 0.000000 0.000000 0.398964
O O12 0.500000 0.786896 0.750000
O O13 0.683590 0.853529 0.678288
O O14 0.810167 0.778514 0.630935
O O15 0.000000 0.803455 0.750000
O O16 0.000000 0.500000 0.130830
O O17 0.000000 0.545586 0.250000
O O18 0.500000 0.919723 0.250000
O O19 0.000000 0.906546 0.250000
O O20 0.073557 0.249144 0.500000
#
# Coordination Sequence:
#
# PCOD8202898 Si02
#       7
#     8   8   8   8   8   8   8
#     4  10  21  36  53  75 105 137 170 212 259 307
#     4  10  19  31  50  75  99 128 168 208 251 305
#     4  10  21  36  54  79 110 143 182 226 268 312
#     4  10  21  37  56  81 110 138 173 223 273 313
#     4   9  17  30  49  73 100 129 164 208 253 299
#     4  10  21  36  55  80 109 141 178 218 268 326
#     4  10  21  37  56  77 102 139 180 211 255 320
#
# _framework density 19.044232999999998
#
# number of rings (size 3 to 8) (size 9 to 14) (size 15 to 20)
#    0.000    2.143    0.000    3.000    0.000    5.714 
#    0.000    0.000    0.000   12.857    0.000    0.000 
#    0.000    0.000    0.000    0.000    0.000    0.000 
#
# Total GULP energy -694346.189616 kJ/mol
# GULP energy per Si atom -12399.039100 kJ/mol
# Density = 1.900089 g / cm^3
# Si number density = 19.044233 Si / 1000 Ang^3
#
#
#
# Elastic Constant Matrix: (Units=GPa)
#
#
# Indices 1 2 3 4 5 6 
#
# 1 121.7758 31.5690 27.1668 0.0000 0.0000 0.0000
# 2 31.5690 108.8342 60.8204 0.0000 0.0000 0.0000
# 3 27.1668 60.8204 65.4567 0.0000 0.0000 0.0000
# 4 0.0000 0.0000 0.0000 9.3187 0.0000 0.0000
# 5 0.0000 0.0000 0.0000 0.0000 25.7782 0.0000
# 6 0.0000 0.0000 0.0000 0.0000 0.0000 39.3611
#
#
#
# Elastic Compliance Matrix: (Units=1/GPa)
#
#
# Indices 1 2 3 4 5 6 
#
# 1 0.009113 -0.001102 -0.002758 0.000000 0.000000 0.000000
# 2 -0.001102 0.019246 -0.017425 0.000000 0.000000 0.000000
# 3 -0.002758 -0.017425 0.032613 0.000000 0.000000 0.000000
# 4 0.000000 0.000000 0.000000 0.107312 0.000000 0.000000
# 5 0.000000 0.000000 0.000000 0.000000 0.038793 0.000000
# 6 0.000000 0.000000 0.000000 0.000000 0.000000 0.025406
#
#
# Mechanical properties :
#
#
# Convention : Reuss Voigt Hill
#
# Bulk Modulus (GPa) = 54.34553 59.46435 56.90494
# Shear Modulus (GPa) = 17.78183 26.65895 22.22039
#
# Velocity S-wave (km/s) = 3.05899 3.74551 3.41952
# Velocity P-wave (km/s) = 6.40897 7.07087 6.74804
#
# Compressibility (1/GPa) = 0.01840078
#
# Stress axis : x y z
#
# Youngs Moduli (GPa) = 109.73563 51.95962 30.66258
#
# Poissons Ratio (x) = 0.05725 0.08458
# Poissons Ratio (y) = 0.12091 0.53430
# Poissons Ratio (z) = 0.30269 0.90541
#
# Static dielectric constant tensor:
#      x y z
#    x 3.829340 0.000000 0.000000 
#    y 0.000000 3.500890 0.000000 
#    z 0.000000 0.000000 3.314150 
# 
# 
# High freq. dielectric constant tensor:
#      x y z
#    x 1.766010 0.000000 0.000000 
#    y 0.000000 1.739110 0.000000 
#    z 0.000000 0.000000 1.715930 
# 
# From -- ./inp_files/10768.got.cif
#   From: 2010.03.12/outbox.cif.g09.slc.cpg/sg49_6_cif.got.tgz:10768.got - 2010.04.14 03:58:27.
