data_PCOD8202071
_publ_section_title
;
Structure prediction by ZEFSAII (Michael W. Deem and Ramdas Pophale) SiO2 
 PCOD8202071
Probable space group: P N N N
;
_chemical_formula_sum "Si O2"
_cell_formula_units_Z 48
_cell_length_a 21.560368
_cell_length_b 10.668282
_cell_length_c 10.037221
_cell_angle_alpha 90.000000
_cell_angle_beta 90.000000
_cell_angle_gamma 90.000000
_cell_volume 2308.682138
_symmetry_space_group_name_H-M "P N N N"
_symmetry_group_IT_number 48
_space_group.IT_coordinate_system_code '2'
_symmetry_cell_setting 'orthorhombic'
loop_
_space_group_symop_operation_xyz
x,y,z
1/2-x,1/2-y,z
x,1/2-y,1/2-z
1/2-x,y,1/2-z
-x,-y,-z
1/2+x,1/2+y,-z
-x,1/2+y,1/2+z
1/2+x,-y,1/2+z
loop_
_atom_site_type_symbol
_atom_site_label
_atom_site_fract_x
_atom_site_fract_y
_atom_site_fract_z
Si Si1 0.570080 0.073565 0.256578
Si Si2 0.890100 0.320720 0.516360
Si Si3 0.860656 0.039843 0.501307
Si Si4 0.443689 0.330853 0.370656
Si Si5 0.262316 0.606748 0.096854
Si Si6 0.979721 0.667282 0.378769
O O1 0.595472 0.182110 0.356157
O O2 0.509776 0.112172 0.172536
O O3 0.556146 0.962436 0.360438
O O4 0.622110 0.027087 0.153659
O O5 0.876808 0.177526 0.558818
O O6 0.833652 0.415785 0.552935
O O7 0.948320 0.367031 0.601854
O O8 0.786139 0.020529 0.513732
O O9 0.896821 0.940926 0.592293
O O10 0.414857 0.250000 0.250000
O O11 0.453151 0.239740 0.494719
O O12 0.250000 0.750000 0.060873
O O13 0.250000 0.575759 0.250000
O O14 0.968953 0.750000 0.250000
#
# Coordination Sequence:
#
# PCOD8202071 Si02
#       6
#     8   8   8   8   8   8
#     4  12  23  39  64  98 134 173 218 279 345 398
#     4  11  23  39  62  96 134 167 219 273 331 401
#     4  11  22  41  63  91 136 173 216 274 329 399
#     4  12  24  41  63  99 137 176 219 276 336 405
#     4   9  22  38  61  91 123 172 217 267 326 393
#     4  12  24  39  65  98 134 177 217 269 345 401
#
# _framework density 20.791084000000001
#
# number of rings (size 3 to 8) (size 9 to 14) (size 15 to 20)
#    0.000    0.833    5.000    2.500    7.000    0.667 
#    0.000    2.500    0.000    3.500    0.000    0.000 
#    0.000    0.000    0.000    0.000    0.000    0.000 
#
# Total GULP energy -595267.434945 kJ/mol
# GULP energy per Si atom -12401.404895 kJ/mol
# Density = 2.074376 g / cm^3
# Si number density = 20.791084 Si / 1000 Ang^3
#
#
#
# Elastic Constant Matrix: (Units=GPa)
#
#
# Indices 1 2 3 4 5 6 
#
# 1 121.5631 49.7305 33.8495 0.0000 0.0000 0.0000
# 2 49.7305 78.0527 50.3602 0.0000 0.0000 0.0000
# 3 33.8495 50.3602 106.0149 0.0000 0.0000 0.0000
# 4 0.0000 0.0000 0.0000 40.2915 0.0000 0.0000
# 5 0.0000 0.0000 0.0000 0.0000 31.6752 0.0000
# 6 0.0000 0.0000 0.0000 0.0000 0.0000 38.9231
#
#
#
# Elastic Compliance Matrix: (Units=1/GPa)
#
#
# Indices 1 2 3 4 5 6 
#
# 1 0.011131 -0.006920 -0.000267 0.000000 0.000000 0.000000
# 2 -0.006920 0.022776 -0.008610 0.000000 0.000000 0.000000
# 3 -0.000267 -0.008610 0.013608 0.000000 0.000000 0.000000
# 4 0.000000 0.000000 0.000000 0.024819 0.000000 0.000000
# 5 0.000000 0.000000 0.000000 0.000000 0.031570 0.000000
# 6 0.000000 0.000000 0.000000 0.000000 0.000000 0.025692
#
#
# Mechanical properties :
#
#
# Convention : Reuss Voigt Hill
#
# Bulk Modulus (GPa) = 62.80740 63.72345 63.26543
# Shear Modulus (GPa) = 30.03052 33.62398 31.82725
#
# Velocity S-wave (km/s) = 3.80464 4.02584 3.91680
# Velocity P-wave (km/s) = 7.04094 7.23366 7.13795
#
# Compressibility (1/GPa) = 0.01592169
#
# Stress axis : x y z
#
# Youngs Moduli (GPa) = 89.83549 43.90584 73.48754
#
# Poissons Ratio (x) = 0.30383 0.01962
# Poissons Ratio (y) = 0.62167 0.63271
# Poissons Ratio (z) = 0.02398 0.37802
#
# Static dielectric constant tensor:
#      x y z
#    x 3.997980 0.000000 0.000000 
#    y 0.000000 3.610390 0.000000 
#    z 0.000000 0.000000 3.757300 
# 
# 
# High freq. dielectric constant tensor:
#      x y z
#    x 1.800200 0.000000 0.000000 
#    y 0.000000 1.796220 0.000000 
#    z 0.000000 0.000000 1.829230 
# 
# From -- ./inp_files/15886.got.cif
#   From: 2010.06.25/outbox.cif.g09.slc.cpg/sg48_8_cif.got.tgz:15886.got - 2010.06.26 18:06:46.
