data_PCOD8202319
_publ_section_title
;
Structure prediction by ZEFSAII (Michael W. Deem and Ramdas Pophale) SiO2 
 PCOD8202319
Probable space group: P C C M
;
_chemical_formula_sum "Si O2"
_cell_formula_units_Z 58
_cell_length_a 14.798163
_cell_length_b 25.411661
_cell_length_c 8.366374
_cell_angle_alpha 90.000000
_cell_angle_beta 90.000000
_cell_angle_gamma 90.000000
_cell_volume 3146.140654
_symmetry_space_group_name_H-M "P C C M"
_symmetry_group_IT_number 49
_symmetry_cell_setting 'orthorhombic'
loop_
_space_group_symop_operation_xyz
x,y,z
-x,-y,z
x,-y,1/2-z
-x,y,1/2-z
-x,-y,-z
x,y,-z
-x,y,1/2+z
x,-y,1/2+z
loop_
_atom_site_type_symbol
_atom_site_label
_atom_site_fract_x
_atom_site_fract_y
_atom_site_fract_z
Si Si1 0.628970 0.417056 0.812864
Si Si2 0.500000 0.500000 0.250000
Si Si3 0.898802 0.162315 0.687846
Si Si4 0.819955 0.555400 0.814662
Si Si5 0.908092 0.347702 0.184943
Si Si6 0.592863 0.697456 0.186293
Si Si7 0.216556 0.738710 0.686254
Si Si8 0.898611 0.946781 0.687502
O O1 0.573213 0.456011 0.689431
O O2 0.734002 0.426408 0.787148
O O3 0.605738 0.356810 0.780620
O O4 0.604558 0.431010 0.000000
O O5 0.905383 0.159722 0.500000
O O6 0.828747 0.207036 0.745483
O O7 0.855158 0.107487 0.749912
O O8 0.000000 0.173536 0.750000
O O9 0.856349 0.500000 0.750000
O O10 0.896928 0.598500 0.784416
O O11 0.794942 0.552145 0.000000
O O12 0.825274 0.308713 0.213866
O O13 0.000000 0.320744 0.250000
O O14 0.915050 0.361052 0.000000
O O15 0.500000 0.724039 0.250000
O O16 0.675639 0.737818 0.220026
O O17 0.586686 0.684541 0.000000
O O18 0.195993 0.729171 0.500000
O O19 0.896774 0.947023 0.500000
O O20 0.000000 0.947380 0.750000
O O21 0.848464 0.000000 0.750000
#
# Coordination Sequence:
#
# PCOD8202319 Si02
#       8
#     8   2   8   8   8   8   8   8
#     4  12  24  38  57  82 107 136 168 207 262 322
#     4  12  26  36  60  82 116 132 170 212 264 332
#     4  10  19  32  50  76 109 148 190 232 274 320
#     4  12  25  42  61  81 107 134 168 210 260 318
#     4  12  25  41  62  84 108 139 178 219 268 321
#     4  11  23  39  59  81 109 140 176 221 269 326
#     4  10  22  39  58  80 111 146 182 226 276 322
#     4  10  17  27  44  69 104 147 190 232 273 318
#
# _framework density 18.435285
#
# number of rings (size 3 to 8) (size 9 to 14) (size 15 to 20)
#    0.000    0.966    2.759    6.828    0.000    4.138 
#    0.000    1.379    0.000    0.000    0.000    0.000 
#    0.000    0.552    0.000    6.345    0.000    1.931 
#
# Total GULP energy -718596.962648 kJ/mol
# GULP energy per Si atom -12389.602804 kJ/mol
# Density = 1.839333 g / cm^3
# Si number density = 18.435285 Si / 1000 Ang^3
#
#
#
# Elastic Constant Matrix: (Units=GPa)
#
#
# Indices 1 2 3 4 5 6 
#
# 1 92.7874 48.6021 27.1340 0.0000 0.0000 0.0000
# 2 48.6021 137.6914 41.3282 0.0000 0.0000 0.0000
# 3 27.1340 41.3282 95.8637 0.0000 0.0000 0.0000
# 4 0.0000 0.0000 0.0000 31.5422 0.0000 0.0000
# 5 0.0000 0.0000 0.0000 0.0000 19.2519 0.0000
# 6 0.0000 0.0000 0.0000 0.0000 0.0000 13.7866
#
#
#
# Elastic Compliance Matrix: (Units=1/GPa)
#
#
# Indices 1 2 3 4 5 6 
#
# 1 0.013560 -0.004175 -0.002038 0.000000 0.000000 0.000000
# 2 -0.004175 0.009627 -0.002969 0.000000 0.000000 0.000000
# 3 -0.002038 -0.002969 0.012288 0.000000 0.000000 0.000000
# 4 0.000000 0.000000 0.000000 0.031704 0.000000 0.000000
# 5 0.000000 0.000000 0.000000 0.000000 0.051943 0.000000
# 6 0.000000 0.000000 0.000000 0.000000 0.000000 0.072534
#
#
# Mechanical properties :
#
#
# Convention : Reuss Voigt Hill
#
# Bulk Modulus (GPa) = 58.43856 62.27458 60.35657
# Shear Modulus (GPa) = 23.17773 26.86801 25.02287
#
# Velocity S-wave (km/s) = 3.54962 3.82176 3.68820
# Velocity P-wave (km/s) = 6.96906 7.30260 7.13778
#
# Compressibility (1/GPa) = 0.01711199
#
# Stress axis : x y z
#
# Youngs Moduli (GPa) = 73.74588 103.87182 81.37786
#
# Poissons Ratio (x) = 0.43362 0.16588
# Poissons Ratio (y) = 0.30786 0.24160
# Poissons Ratio (z) = 0.15033 0.30838
#
# Static dielectric constant tensor:
#      x y z
#    x 3.492080 0.000000 0.000000 
#    y 0.000000 3.868510 0.000000 
#    z 0.000000 0.000000 3.419810 
# 
# 
# High freq. dielectric constant tensor:
#      x y z
#    x 1.694680 0.000000 0.000000 
#    y 0.000000 1.703450 0.000000 
#    z 0.000000 0.000000 1.722480 
# 
# From -- ./inp_files/4256.got.cif
#   From: 2010.03.12/outbox.cif.g09.slc.cpg/sg49_3_cif.got.tgz:4256.got - 2010.04.14 03:58:27.
