data_PCOD8202724
_publ_section_title
;
Structure prediction by ZEFSAII (Michael W. Deem and Ramdas Pophale) SiO2 
 PCOD8202724
Probable space group: P C C M
;
_chemical_formula_sum "Si O2"
_cell_formula_units_Z 48
_cell_length_a 13.610692
_cell_length_b 24.040831
_cell_length_c 8.816032
_cell_angle_alpha 90.000000
_cell_angle_beta 90.000000
_cell_angle_gamma 90.000000
_cell_volume 2884.714515
_symmetry_space_group_name_H-M "P C C M"
_symmetry_group_IT_number 49
_symmetry_cell_setting 'orthorhombic'
loop_
_space_group_symop_operation_xyz
x,y,z
-x,-y,z
x,-y,1/2-z
-x,y,1/2-z
-x,-y,-z
x,y,-z
-x,y,1/2+z
x,-y,1/2+z
loop_
_atom_site_type_symbol
_atom_site_label
_atom_site_fract_x
_atom_site_fract_y
_atom_site_fract_z
Si Si1 0.898902 0.840529 0.678164
Si Si2 0.789853 0.058236 0.680768
Si Si3 0.604779 0.112853 0.820776
Si Si4 0.605429 0.324949 0.676109
Si Si5 0.707776 0.226118 0.826420
Si Si6 0.393419 0.552869 0.677017
O O1 0.908839 0.853152 0.500000
O O2 0.868150 0.896600 0.763306
O O3 0.818926 0.792527 0.707557
O O4 0.000000 0.818668 0.750000
O O5 0.788404 0.056059 0.500000
O O6 0.681595 0.071556 0.743105
O O7 0.824871 0.000000 0.750000
O O8 0.500000 0.099393 0.750000
O O9 0.633708 0.176316 0.783655
O O10 0.605316 0.101759 0.000000
O O11 0.500000 0.314233 0.750000
O O12 0.586229 0.318697 0.500000
O O13 0.684789 0.279813 0.726763
O O14 0.651669 0.386151 0.713438
O O15 0.694042 0.243186 0.000000
O O16 0.334064 0.500000 0.750000
O O17 0.500000 0.553567 0.750000
O O18 0.401174 0.542192 0.500000
#
# Coordination Sequence:
#
# PCOD8202724 Si02
#       6
#     8   8   8   8   8   8
#     4  10  21  38  57  77  97 120 150 187 233 284
#     4  11  22  37  55  75  98 124 154 191 231 275
#     4  10  20  34  50  71  97 127 161 195 231 275
#     4  10  19  28  42  65  94 127 164 198 232 271
#     4   9  19  33  49  69  95 122 153 191 230 274
#     4   9  16  25  37  56  83 120 161 199 232 267
#
# _framework density 16.639427999999999
#
# number of rings (size 3 to 8) (size 9 to 14) (size 15 to 20)
#    0.000    2.167    0.000    5.500    0.000    8.000 
#    0.000    3.333    0.000    0.000    0.000    0.000 
#    0.000    0.667    0.000    7.333    0.000    5.333 
#
# Total GULP energy -595082.913349 kJ/mol
# GULP energy per Si atom -12397.560695 kJ/mol
# Density = 1.660156 g / cm^3
# Si number density = 16.639428 Si / 1000 Ang^3
#
#
#
# Elastic Constant Matrix: (Units=GPa)
#
#
# Indices 1 2 3 4 5 6 
#
# 1 72.1019 25.4249 29.5838 0.0000 0.0000 0.0000
# 2 25.4249 114.8326 55.1950 0.0000 0.0000 0.0000
# 3 29.5838 55.1950 110.0627 0.0000 0.0000 0.0000
# 4 0.0000 0.0000 0.0000 34.4928 0.0000 0.0000
# 5 0.0000 0.0000 0.0000 0.0000 26.9420 0.0000
# 6 0.0000 0.0000 0.0000 0.0000 0.0000 9.7944
#
#
#
# Elastic Compliance Matrix: (Units=1/GPa)
#
#
# Indices 1 2 3 4 5 6 
#
# 1 0.015907 -0.001933 -0.003307 0.000000 0.000000 0.000000
# 2 -0.001933 0.011709 -0.005352 0.000000 0.000000 0.000000
# 3 -0.003307 -0.005352 0.012659 0.000000 0.000000 0.000000
# 4 0.000000 0.000000 0.000000 0.028992 0.000000 0.000000
# 5 0.000000 0.000000 0.000000 0.000000 0.037117 0.000000
# 6 0.000000 0.000000 0.000000 0.000000 0.000000 0.102099
#
#
# Mechanical properties :
#
#
# Convention : Reuss Voigt Hill
#
# Bulk Modulus (GPa) = 52.37865 57.48939 54.93402
# Shear Modulus (GPa) = 21.18377 26.69873 23.94125
#
# Velocity S-wave (km/s) = 3.57193 4.01002 3.79730
# Velocity P-wave (km/s) = 6.96840 7.48769 7.23271
#
# Compressibility (1/GPa) = 0.01909175
#
# Stress axis : x y z
#
# Youngs Moduli (GPa) = 62.86353 85.40509 78.99744
#
# Poissons Ratio (x) = 0.16507 0.26121
# Poissons Ratio (y) = 0.12150 0.42282
# Poissons Ratio (z) = 0.20786 0.45712
#
# Static dielectric constant tensor:
#      x y z
#    x 3.010570 0.000000 0.000000 
#    y 0.000000 3.777320 0.000000 
#    z 0.000000 0.000000 3.263070 
# 
# 
# High freq. dielectric constant tensor:
#      x y z
#    x 1.602510 0.000000 0.000000 
#    y 0.000000 1.644120 0.000000 
#    z 0.000000 0.000000 1.660550 
# 
# From -- ./inp_files/2895.got.cif
#   From: 2010.03.12/outbox.cif.g09.slc.cpg/sg49_2_cif.got.tgz:2895.got - 2010.04.14 03:58:27.
