data_PCOD8202411
_publ_section_title
;
Structure prediction by ZEFSAII (Michael W. Deem and Ramdas Pophale) SiO2 
 PCOD8202411
Probable space group: P C C M
;
_chemical_formula_sum "Si O2"
_cell_formula_units_Z 64
_cell_length_a 25.520435
_cell_length_b 14.428525
_cell_length_c 8.776506
_cell_angle_alpha 90.000000
_cell_angle_beta 90.000000
_cell_angle_gamma 90.000000
_cell_volume 3231.704650
_symmetry_space_group_name_H-M "P C C M"
_symmetry_group_IT_number 49
_symmetry_cell_setting 'orthorhombic'
loop_
_space_group_symop_operation_xyz
x,y,z
-x,-y,z
x,-y,1/2-z
-x,y,1/2-z
-x,-y,-z
x,y,-z
-x,y,1/2+z
x,-y,1/2+z
loop_
_atom_site_type_symbol
_atom_site_label
_atom_site_fract_x
_atom_site_fract_y
_atom_site_fract_z
Si Si1 0.053777 0.279367 0.680707
Si Si2 0.443754 0.723352 0.179126
Si Si3 0.558037 0.908740 0.181442
Si Si4 0.251331 0.280185 0.680485
Si Si5 0.217330 0.904343 0.678681
Si Si6 0.903575 0.096312 0.679738
Si Si7 0.652175 0.400976 0.177186
Si Si8 0.847652 0.399156 0.179763
O O1 0.050379 0.273802 0.500000
O O2 0.062665 0.177230 0.746189
O O3 0.099677 0.348125 0.734987
O O4 0.000000 0.319413 0.750000
O O5 0.500000 0.698450 0.250000
O O6 0.416579 0.813403 0.258036
O O7 0.405504 0.637920 0.213864
O O8 0.450219 0.742458 0.000000
O O9 0.500000 0.906965 0.250000
O O10 0.587190 0.000000 0.250000
O O11 0.557642 0.912882 0.000000
O O12 0.250378 0.267102 0.500000
O O13 0.251543 0.179294 0.755812
O O14 0.303526 0.331420 0.739523
O O15 0.201522 0.339170 0.737782
O O16 0.225257 0.910286 0.500000
O O17 0.156951 0.887970 0.724451
O O18 0.238166 0.000000 0.750000
O O19 0.912301 0.095193 0.500000
O O20 0.923803 0.000000 0.750000
O O21 0.659325 0.500000 0.250000
O O22 0.661053 0.413818 0.000000
O O23 0.844732 0.500000 0.250000
O O24 0.846228 0.409530 0.000000
#
# Coordination Sequence:
#
# PCOD8202411 Si02
#       8
#     8   8   8   8   8   8   8   8
#     4  11  23  39  57  82 114 152 191 239 288 340
#     4  10  20  36  56  83 115 153 195 237 285 340
#     4  10  17  28  49  78 110 147 186 231 277 329
#     4  10  20  39  62  87 117 149 186 235 285 338
#     4  10  20  34  58  90 120 154 190 230 279 337
#     4  10  20  35  57  85 116 151 190 233 280 338
#     4  10  23  40  61  86 116 150 190 240 292 341
#     4  10  22  38  60  84 110 144 187 234 287 341
#
# _framework density 19.803791
#
# number of rings (size 3 to 8) (size 9 to 14) (size 15 to 20)
#    0.000    1.875    1.250    4.125    0.000    4.750 
#    0.000    4.375    0.000    0.000    0.000    0.000 
#    0.000    0.000    0.000    0.000    0.000    0.000 
#
# Total GULP energy -793723.923633 kJ/mol
# GULP energy per Si atom -12401.936307 kJ/mol
# Density = 1.975872 g / cm^3
# Si number density = 19.803791 Si / 1000 Ang^3
#
#
#
# Elastic Constant Matrix: (Units=GPa)
#
#
# Indices 1 2 3 4 5 6 
#
# 1 105.9401 61.7421 40.6933 0.0000 0.0000 0.0000
# 2 61.7421 151.2139 49.3073 0.0000 0.0000 0.0000
# 3 40.6933 49.3073 87.4796 0.0000 0.0000 0.0000
# 4 0.0000 0.0000 0.0000 40.4095 0.0000 0.0000
# 5 0.0000 0.0000 0.0000 0.0000 22.8870 0.0000
# 6 0.0000 0.0000 0.0000 0.0000 0.0000 12.7459
#
#
#
# Elastic Compliance Matrix: (Units=1/GPa)
#
#
# Indices 1 2 3 4 5 6 
#
# 1 0.013367 -0.004203 -0.003849 0.000000 0.000000 0.000000
# 2 -0.004203 0.009424 -0.003357 0.000000 0.000000 0.000000
# 3 -0.003849 -0.003357 0.015114 0.000000 0.000000 0.000000
# 4 0.000000 0.000000 0.000000 0.024747 0.000000 0.000000
# 5 0.000000 0.000000 0.000000 0.000000 0.043693 0.000000
# 6 0.000000 0.000000 0.000000 0.000000 0.000000 0.078456
#
#
# Mechanical properties :
#
#
# Convention : Reuss Voigt Hill
#
# Bulk Modulus (GPa) = 66.28027 72.01324 69.14676
# Shear Modulus (GPa) = 23.51314 28.06787 25.79051
#
# Velocity S-wave (km/s) = 3.44947 3.76879 3.61266
# Velocity P-wave (km/s) = 7.02896 7.44182 7.23833
#
# Compressibility (1/GPa) = 0.01508745
#
# Stress axis : x y z
#
# Youngs Moduli (GPa) = 74.80959 106.11538 66.16516
#
# Poissons Ratio (x) = 0.44599 0.25468
# Poissons Ratio (y) = 0.31441 0.22209
# Poissons Ratio (z) = 0.28796 0.35618
#
# Static dielectric constant tensor:
#      x y z
#    x 3.561390 0.000000 0.000000 
#    y 0.000000 3.837010 0.000000 
#    z 0.000000 0.000000 3.548590 
# 
# 
# High freq. dielectric constant tensor:
#      x y z
#    x 1.755680 0.000000 0.000000 
#    y 0.000000 1.784490 0.000000 
#    z 0.000000 0.000000 1.775140 
# 
# From -- ./inp_files/6563.got.cif
#   From: 2010.03.12/outbox.cif.g09.slc.cpg/sg49_4_cif.got.tgz:6563.got - 2010.04.14 03:58:27.
