data_PCOD8202758
_publ_section_title
;
Structure prediction by ZEFSAII (Michael W. Deem and Ramdas Pophale) SiO2 
 PCOD8202758
Probable space group: P C C M
;
_chemical_formula_sum "Si O2"
_cell_formula_units_Z 56
_cell_length_a 18.830654
_cell_length_b 18.453243
_cell_length_c 8.852012
_cell_angle_alpha 90.000000
_cell_angle_beta 90.000000
_cell_angle_gamma 90.000000
_cell_volume 3075.955855
_symmetry_space_group_name_H-M "P C C M"
_symmetry_group_IT_number 49
_symmetry_cell_setting 'orthorhombic'
loop_
_space_group_symop_operation_xyz
x,y,z
-x,-y,z
x,-y,1/2-z
-x,y,1/2-z
-x,-y,-z
x,y,-z
-x,y,1/2+z
x,-y,1/2+z
loop_
_atom_site_type_symbol
_atom_site_label
_atom_site_fract_x
_atom_site_fract_y
_atom_site_fract_z
Si Si1 0.351794 0.076207 0.677561
Si Si2 0.210063 0.846064 0.173470
Si Si3 0.927095 0.352013 0.678570
Si Si4 0.698235 0.709982 0.325376
Si Si5 0.207720 0.425050 0.676939
Si Si6 0.928331 0.185276 0.323918
Si Si7 0.574576 0.212697 0.321246
O O1 0.367691 0.075462 0.500000
O O2 0.268991 0.093160 0.709917
O O3 0.401191 0.136191 0.753198
O O4 0.372104 0.000000 0.750000
O O5 0.241089 0.767646 0.217847
O O6 0.139601 0.861261 0.270715
O O7 0.187125 0.847822 0.000000
O O8 0.929728 0.361726 0.500000
O O9 0.864073 0.399410 0.744780
O O10 0.916381 0.268431 0.726197
O O11 0.000000 0.381589 0.750000
O O12 0.676341 0.720988 0.500000
O O13 0.728162 0.630513 0.291996
O O14 0.629606 0.723656 0.222102
O O15 0.232784 0.500000 0.750000
O O16 0.193111 0.433766 0.500000
O O17 0.937272 0.176819 0.500000
O O18 0.000000 0.153996 0.250000
O O19 0.500000 0.235231 0.250000
O O20 0.568481 0.206039 0.500000
#
# Coordination Sequence:
#
# PCOD8202758 Si02
#       7
#     8   8   8   8   8   8   8
#     4  10  21  37  56  83 116 149 181 215 258 310
#     4   9  17  32  53  75 103 137 176 219 266 314
#     4  10  20  33  49  72 102 138 180 225 274 328
#     4   9  19  36  56  78 107 140 176 220 266 315
#     4  11  22  36  54  76 106 142 180 225 274 324
#     4  10  19  29  47  73 101 133 175 224 272 320
#     4  11  22  37  60  87 115 145 178 215 257 310
#
# _framework density 18.205722000000002
#
# number of rings (size 3 to 8) (size 9 to 14) (size 15 to 20)
#    0.000    2.000    1.429    3.857    0.000    5.714 
#    0.000    2.857    0.000    0.857    0.000    6.000 
#    0.000    0.000    0.000    0.000    0.000    0.000 
#
# Total GULP energy -694571.170595 kJ/mol
# GULP energy per Si atom -12403.056618 kJ/mol
# Density = 1.816428 g / cm^3
# Si number density = 18.205722 Si / 1000 Ang^3
#
#
#
# Elastic Constant Matrix: (Units=GPa)
#
#
# Indices 1 2 3 4 5 6 
#
# 1 113.8835 28.4474 54.6163 0.0000 0.0000 0.0000
# 2 28.4474 54.5339 31.7288 0.0000 0.0000 0.0000
# 3 54.6163 31.7288 105.6615 0.0000 0.0000 0.0000
# 4 0.0000 0.0000 0.0000 14.6672 0.0000 0.0000
# 5 0.0000 0.0000 0.0000 0.0000 34.9264 0.0000
# 6 0.0000 0.0000 0.0000 0.0000 0.0000 17.0692
#
#
#
# Elastic Compliance Matrix: (Units=1/GPa)
#
#
# Indices 1 2 3 4 5 6 
#
# 1 0.012132 -0.003247 -0.005296 0.000000 0.000000 0.000000
# 2 -0.003247 0.023088 -0.005255 0.000000 0.000000 0.000000
# 3 -0.005296 -0.005255 0.013779 0.000000 0.000000 0.000000
# 4 0.000000 0.000000 0.000000 0.068179 0.000000 0.000000
# 5 0.000000 0.000000 0.000000 0.000000 0.028632 0.000000
# 6 0.000000 0.000000 0.000000 0.000000 0.000000 0.058585
#
#
# Mechanical properties :
#
#
# Convention : Reuss Voigt Hill
#
# Bulk Modulus (GPa) = 46.71972 55.96263 51.34117
# Shear Modulus (GPa) = 20.90949 23.95166 22.43057
#
# Velocity S-wave (km/s) = 3.39265 3.63107 3.51388
# Velocity P-wave (km/s) = 6.40816 6.95596 6.68767
#
# Compressibility (1/GPa) = 0.02140424
#
# Stress axis : x y z
#
# Youngs Moduli (GPa) = 82.42782 43.31179 72.57176
#
# Poissons Ratio (x) = 0.14065 0.38433
# Poissons Ratio (y) = 0.26767 0.38134
# Poissons Ratio (z) = 0.43652 0.22759
#
# Static dielectric constant tensor:
#      x y z
#    x 3.344230 0.000000 0.000000 
#    y 0.000000 3.221300 0.000000 
#    z 0.000000 0.000000 3.384790 
# 
# 
# High freq. dielectric constant tensor:
#      x y z
#    x 1.705340 0.000000 0.000000 
#    y 0.000000 1.677380 0.000000 
#    z 0.000000 0.000000 1.717080 
# 
# From -- ./inp_files/5186.got.cif
#   From: 2010.03.12/outbox.cif.g09.slc.cpg/sg49_3_cif.got.tgz:5186.got - 2010.04.14 03:58:27.
