data_PCOD8202833
_publ_section_title
;
Structure prediction by ZEFSAII (Michael W. Deem and Ramdas Pophale) SiO2 
 PCOD8202833
Probable space group: P C C M
;
_chemical_formula_sum "Si O2"
_cell_formula_units_Z 56
_cell_length_a 18.386807
_cell_length_b 21.412170
_cell_length_c 8.733417
_cell_angle_alpha 90.000000
_cell_angle_beta 90.000000
_cell_angle_gamma 90.000000
_cell_volume 3438.358825
_symmetry_space_group_name_H-M "P C C M"
_symmetry_group_IT_number 49
_symmetry_cell_setting 'orthorhombic'
loop_
_space_group_symop_operation_xyz
x,y,z
-x,-y,z
x,-y,1/2-z
-x,y,1/2-z
-x,-y,-z
x,y,-z
-x,y,1/2+z
x,-y,1/2+z
loop_
_atom_site_type_symbol
_atom_site_label
_atom_site_fract_x
_atom_site_fract_y
_atom_site_fract_z
Si Si1 0.836797 0.675836 0.179977
Si Si2 0.924006 0.797305 0.174553
Si Si3 0.713495 0.743340 0.677149
Si Si4 0.667208 0.935696 0.682071
Si Si5 0.422260 0.815461 0.178915
Si Si6 0.782719 0.138888 0.322139
Si Si7 0.923382 0.433183 0.181424
O O1 0.885799 0.734193 0.237939
O O2 0.752065 0.689637 0.221369
O O3 0.860907 0.614913 0.271888
O O4 0.843689 0.664071 0.000000
O O5 0.870427 0.857142 0.196197
O O6 0.000000 0.813244 0.250000
O O7 0.941381 0.784350 0.000000
O O8 0.723335 0.725775 0.500000
O O9 0.628398 0.755054 0.718525
O O10 0.750988 0.809046 0.710236
O O11 0.674782 0.939176 0.500000
O O12 0.613524 0.880291 0.738161
O O13 0.747233 0.925270 0.760323
O O14 0.635433 0.000000 0.750000
O O15 0.500000 0.803278 0.250000
O O16 0.432176 0.822042 0.000000
O O17 0.762118 0.151439 0.500000
O O18 0.901983 0.500000 0.250000
O O19 0.000000 0.409740 0.250000
O O20 0.930144 0.438260 0.000000
#
# Coordination Sequence:
#
# PCOD8202833 Si02
#       7
#     8   8   8   8   8   8   8
#     4  10  19  31  46  67  92 122 159 195 231 274
#     4   9  18  28  42  64  88 112 142 180 225 270
#     4   9  17  30  46  67  91 118 151 187 226 270
#     4  10  20  33  48  67  87 114 149 183 218 265
#     4   9  19  32  47  68  95 122 149 179 220 269
#     4   9  17  30  45  63  86 113 144 182 224 269
#     4  11  21  33  47  65  93 130 167 204 240 278
#
# _framework density 16.286839000000001
#
# number of rings (size 3 to 8) (size 9 to 14) (size 15 to 20)
#    0.000    2.429    0.000    5.571    0.000    8.286 
#    0.000    1.429    0.000    0.429    0.000    3.000 
#    0.000    0.571    0.000    6.000    0.000    3.286 
#
# Total GULP energy -694011.213448 kJ/mol
# GULP energy per Si atom -12393.057383 kJ/mol
# Density = 1.624977 g / cm^3
# Si number density = 16.286839 Si / 1000 Ang^3
#
#
#
# Elastic Constant Matrix: (Units=GPa)
#
#
# Indices 1 2 3 4 5 6 
#
# 1 111.8769 41.0002 41.4343 0.0000 0.0000 0.0000
# 2 41.0002 55.7618 23.4836 0.0000 0.0000 0.0000
# 3 41.4343 23.4836 70.5519 0.0000 0.0000 0.0000
# 4 0.0000 0.0000 0.0000 25.0814 0.0000 0.0000
# 5 0.0000 0.0000 0.0000 0.0000 29.3469 0.0000
# 6 0.0000 0.0000 0.0000 0.0000 0.0000 19.9134
#
#
#
# Elastic Compliance Matrix: (Units=1/GPa)
#
#
# Indices 1 2 3 4 5 6 
#
# 1 0.013869 -0.007871 -0.005525 0.000000 0.000000 0.000000
# 2 -0.007871 0.025324 -0.003807 0.000000 0.000000 0.000000
# 3 -0.005525 -0.003807 0.018686 0.000000 0.000000 0.000000
# 4 0.000000 0.000000 0.000000 0.039870 0.000000 0.000000
# 5 0.000000 0.000000 0.000000 0.000000 0.034075 0.000000
# 6 0.000000 0.000000 0.000000 0.000000 0.000000 0.050217
#
#
# Mechanical properties :
#
#
# Convention : Reuss Voigt Hill
#
# Bulk Modulus (GPa) = 42.60170 50.00298 46.30234
# Shear Modulus (GPa) = 22.29437 23.68651 22.99044
#
# Velocity S-wave (km/s) = 3.70382 3.81771 3.76120
# Velocity P-wave (km/s) = 6.67120 7.08529 6.88136
#
# Compressibility (1/GPa) = 0.02347324
#
# Stress axis : x y z
#
# Youngs Moduli (GPa) = 72.10226 39.48866 53.51582
#
# Poissons Ratio (x) = 0.31080 0.29570
# Poissons Ratio (y) = 0.56749 0.20372
# Poissons Ratio (z) = 0.39839 0.15032
#
# Static dielectric constant tensor:
#      x y z
#    x 3.541350 0.000000 0.000000 
#    y 0.000000 2.959230 0.000000 
#    z 0.000000 0.000000 3.129460 
# 
# 
# High freq. dielectric constant tensor:
#      x y z
#    x 1.614650 0.000000 0.000000 
#    y 0.000000 1.592140 0.000000 
#    z 0.000000 0.000000 1.639730 
# 
# From -- ./inp_files/5167.got.cif
#   From: 2010.03.12/outbox.cif.g09.slc.cpg/sg49_3_cif.got.tgz:5167.got - 2010.04.14 03:58:27.
