data_PCOD8202065
_publ_section_title
;
Structure prediction by ZEFSAII (Michael W. Deem and Ramdas Pophale) SiO2 
 PCOD8202065
Probable space group: P N N N
;
_chemical_formula_sum "Si O2"
_cell_formula_units_Z 40
_cell_length_a 21.838188
_cell_length_b 11.285568
_cell_length_c 8.484617
_cell_angle_alpha 90.000000
_cell_angle_beta 90.000000
_cell_angle_gamma 90.000000
_cell_volume 2091.087785
_symmetry_space_group_name_H-M "P N N N"
_symmetry_group_IT_number 48
_space_group.IT_coordinate_system_code '2'
_symmetry_cell_setting 'orthorhombic'
loop_
_space_group_symop_operation_xyz
x,y,z
1/2-x,1/2-y,z
x,1/2-y,1/2-z
1/2-x,y,1/2-z
-x,-y,-z
1/2+x,1/2+y,-z
-x,1/2+y,1/2+z
1/2+x,-y,1/2+z
loop_
_atom_site_type_symbol
_atom_site_label
_atom_site_fract_x
_atom_site_fract_y
_atom_site_fract_z
Si Si1 0.491315 0.691573 0.418261
Si Si2 0.825515 0.379493 0.576824
Si Si3 0.449921 0.582435 0.920768
Si Si4 0.810920 0.394678 0.937492
Si Si5 0.079739 0.000818 0.577371
O O1 0.478003 0.750000 0.250000
O O2 0.474013 0.783733 0.554903
O O3 0.450036 0.573432 0.432681
O O4 0.561229 0.640651 0.431367
O O5 0.882609 0.443512 0.493771
O O6 0.820960 0.426156 0.755077
O O7 0.835708 0.239590 0.550682
O O8 0.758971 0.409371 0.503418
O O9 0.445323 0.555791 0.737596
O O10 0.500000 0.500000 0.000000
O O11 0.847715 0.483622 0.053309
#
# Coordination Sequence:
#
# PCOD8202065 Si02
#       5
#     8   8   8   8   8
#     4  11  22  39  54  82 123 153 192 235 292 349
#     4   9  19  34  57  82 118 149 184 240 286 347
#     4  12  23  36  57  89 120 149 192 237 289 345
#     4   9  18  36  57  82 112 154 190 228 296 342
#     4  11  23  35  60  85 116 160 189 242 290 348
#
# _framework density 19.128799000000001
#
# number of rings (size 3 to 8) (size 9 to 14) (size 15 to 20)
#    0.000    1.600    4.000    3.000    2.800    0.800 
#    0.000    2.000    0.000    1.200    0.000    2.800 
#    0.000    0.000    0.000    0.000    0.000    0.000 
#
# Total GULP energy -495687.975164 kJ/mol
# GULP energy per Si atom -12392.199379 kJ/mol
# Density = 1.908526 g / cm^3
# Si number density = 19.128799 Si / 1000 Ang^3
#
#
#
# Elastic Constant Matrix: (Units=GPa)
#
#
# Indices 1 2 3 4 5 6 
#
# 1 133.2055 41.3385 50.2942 0.0000 0.0000 0.0000
# 2 41.3385 61.4996 30.8780 0.0000 0.0000 0.0000
# 3 50.2942 30.8780 75.5889 0.0000 0.0000 0.0000
# 4 0.0000 0.0000 0.0000 21.9275 0.0000 0.0000
# 5 0.0000 0.0000 0.0000 0.0000 34.3318 0.0000
# 6 0.0000 0.0000 0.0000 0.0000 0.0000 35.9852
#
#
#
# Elastic Compliance Matrix: (Units=1/GPa)
#
#
# Indices 1 2 3 4 5 6 
#
# 1 0.011001 -0.004679 -0.005408 0.000000 0.000000 0.000000
# 2 -0.004679 0.022446 -0.006056 0.000000 0.000000 0.000000
# 3 -0.005408 -0.006056 0.019302 0.000000 0.000000 0.000000
# 4 0.000000 0.000000 0.000000 0.045605 0.000000 0.000000
# 5 0.000000 0.000000 0.000000 0.000000 0.029128 0.000000
# 6 0.000000 0.000000 0.000000 0.000000 0.000000 0.027789
#
#
# Mechanical properties :
#
#
# Convention : Reuss Voigt Hill
#
# Bulk Modulus (GPa) = 48.87051 57.25727 53.06389
# Shear Modulus (GPa) = 25.72296 28.30111 27.01204
#
# Velocity S-wave (km/s) = 3.67103 3.85060 3.76189
# Velocity P-wave (km/s) = 6.60092 7.05457 6.83151
#
# Compressibility (1/GPa) = 0.02046224
#
# Stress axis : x y z
#
# Youngs Moduli (GPa) = 90.89717 44.55115 51.80865
#
# Poissons Ratio (x) = 0.20847 0.28020
# Poissons Ratio (y) = 0.42534 0.31374
# Poissons Ratio (z) = 0.49161 0.26979
#
# Static dielectric constant tensor:
#      x y z
#    x 3.836770 0.000000 0.000000 
#    y 0.000000 3.426860 0.000000 
#    z 0.000000 0.000000 3.440550 
# 
# 
# High freq. dielectric constant tensor:
#      x y z
#    x 1.754140 0.000000 0.000000 
#    y 0.000000 1.702950 0.000000 
#    z 0.000000 0.000000 1.740790 
# 
# From -- ./inp_files/10980.got.cif
#   From: 2010.06.25/outbox.cif.g09.slc.cpg/sg48_6_cif.got.tgz:10980.got - 2010.06.26 18:06:46.
