data_PCOD8202041
_publ_section_title
;
Structure prediction by ZEFSAII (Michael W. Deem and Ramdas Pophale) SiO2 
 PCOD8202041
Probable space group: P N N N
;
_chemical_formula_sum "Si O2"
_cell_formula_units_Z 40
_cell_length_a 26.365221
_cell_length_b 7.507545
_cell_length_c 10.166478
_cell_angle_alpha 90.000000
_cell_angle_beta 90.000000
_cell_angle_gamma 90.000000
_cell_volume 2012.333167
_symmetry_space_group_name_H-M "P N N N"
_symmetry_group_IT_number 48
_space_group.IT_coordinate_system_code '2'
_symmetry_cell_setting 'orthorhombic'
loop_
_space_group_symop_operation_xyz
x,y,z
1/2-x,1/2-y,z
x,1/2-y,1/2-z
1/2-x,y,1/2-z
-x,-y,-z
1/2+x,1/2+y,-z
-x,1/2+y,1/2+z
1/2+x,-y,1/2+z
loop_
_atom_site_type_symbol
_atom_site_label
_atom_site_fract_x
_atom_site_fract_y
_atom_site_fract_z
Si Si1 0.615787 0.037511 0.525390
Si Si2 0.567722 0.961800 0.250704
Si Si3 0.954036 0.040303 0.738594
Si Si4 0.119795 0.942600 0.486902
Si Si5 0.691566 0.743019 0.594592
O O1 0.576616 0.965789 0.635816
O O2 0.633392 0.240045 0.552829
O O3 0.588175 0.035068 0.386884
O O4 0.664721 0.911483 0.526189
O O5 0.569938 0.750000 0.250000
O O6 0.510735 0.038230 0.234024
O O7 0.602688 0.042237 0.137058
O O8 0.958223 0.250000 0.750000
O O9 0.925453 0.982707 0.605352
O O10 0.169727 0.059159 0.462567
O O11 0.750000 0.750000 0.554166
O O12 0.683746 0.750000 0.750000
#
# Coordination Sequence:
#
# PCOD8202041 Si02
#       5
#     8   8   8   8   8
#     4  11  22  41  61  91 129 161 206 260 304 369
#     4  11  21  37  61  91 129 171 205 246 309 370
#     4   9  20  36  60  91 125 169 209 246 302 369
#     4  11  22  41  61  91 129 161 206 260 304 369
#     4  11  24  43  69  95 119 161 211 263 318 362
#
# _framework density 19.877424999999999
#
# number of rings (size 3 to 8) (size 9 to 14) (size 15 to 20)
#    0.000    1.400    4.000    1.800    0.000    0.800 
#    7.200    4.000    0.000    2.400    0.000    0.000 
#    0.000    0.000    0.000    0.000    0.000    0.000 
#
# Total GULP energy -496184.773327 kJ/mol
# GULP energy per Si atom -12404.619333 kJ/mol
# Density = 1.983218 g / cm^3
# Si number density = 19.877425 Si / 1000 Ang^3
#
#
#
# Elastic Constant Matrix: (Units=GPa)
#
#
# Indices 1 2 3 4 5 6 
#
# 1 106.6497 31.9934 -0.6583 0.0000 0.0000 0.0000
# 2 31.9934 96.3059 -9.3671 0.0000 0.0000 0.0000
# 3 -0.6583 -9.3671 68.1121 0.0000 0.0000 0.0000
# 4 0.0000 0.0000 0.0000 9.5765 0.0000 0.0000
# 5 0.0000 0.0000 0.0000 0.0000 -2.9572 0.0000
# 6 0.0000 0.0000 0.0000 0.0000 0.0000 -7.2572
#
#
#
# Elastic Compliance Matrix: (Units=1/GPa)
#
#
# Indices 1 2 3 4 5 6 
#
# 1 0.010424 -0.003500 -0.000381 0.000000 0.000000 0.000000
# 2 -0.003500 0.011699 0.001575 0.000000 0.000000 0.000000
# 3 -0.000381 0.001575 0.014895 0.000000 0.000000 0.000000
# 4 0.000000 0.000000 0.000000 0.104422 0.000000 0.000000
# 5 0.000000 0.000000 0.000000 0.000000 -0.338156 0.000000
# 6 0.000000 0.000000 0.000000 0.000000 0.000000 -0.137795
#
#
# Mechanical properties :
#
#
# Convention : Reuss Voigt Hill
#
# Bulk Modulus (GPa) = 30.85714 35.00040 32.92877
# Shear Modulus (GPa) = -15.66920 16.47907 0.40494
#
# Velocity S-wave (km/s) = -2.81070 2.88242 0.45184
# Velocity P-wave (km/s) = 2.24144 5.35949 4.10781
#
# Compressibility (1/GPa) = 0.03240741
#
# Stress axis : x y z
#
# Youngs Moduli (GPa) = 95.93175 85.47381 67.13832
#
# Poissons Ratio (x) = 0.29915 0.02555
# Poissons Ratio (y) = 0.33576 -0.10575
# Poissons Ratio (z) = 0.03651 -0.13463
#
# Static dielectric constant tensor:
#      x y z
#    x 3.582850 0.000000 0.000000 
#    y 0.000000 3.690670 0.000000 
#    z 0.000000 0.000000 3.621310 
# 
# 
# High freq. dielectric constant tensor:
#      x y z
#    x 1.759390 0.000000 0.000000 
#    y 0.000000 1.781910 0.000000 
#    z 0.000000 0.000000 1.782160 
# 
# From -- ./inp_files/8999.got.cif
#   From: 2010.06.25/outbox.cif.g09.slc.cpg/sg48_5_cif.got.tgz:8999.got - 2010.06.26 18:06:46.
