data_PCOD8202132
_publ_section_title
;
Structure prediction by ZEFSAII (Michael W. Deem and Ramdas Pophale) SiO2 
 PCOD8202132
Probable space group: P N N N
;
_chemical_formula_sum "Si O2"
_cell_formula_units_Z 26
_cell_length_a 27.764002
_cell_length_b 4.832072
_cell_length_c 8.682484
_cell_angle_alpha 90.000000
_cell_angle_beta 90.000000
_cell_angle_gamma 90.000000
_cell_volume 1164.821708
_symmetry_space_group_name_H-M "P N N N"
_symmetry_group_IT_number 48
_space_group.IT_coordinate_system_code '2'
_symmetry_cell_setting 'orthorhombic'
loop_
_space_group_symop_operation_xyz
x,y,z
1/2-x,1/2-y,z
x,1/2-y,1/2-z
1/2-x,y,1/2-z
-x,-y,-z
1/2+x,1/2+y,-z
-x,1/2+y,1/2+z
1/2+x,-y,1/2+z
loop_
_atom_site_type_symbol
_atom_site_label
_atom_site_fract_x
_atom_site_fract_y
_atom_site_fract_z
Si Si1 0.250000 0.750000 0.250000
Si Si2 0.828818 0.617897 0.595691
Si Si3 0.466115 0.002397 0.855469
Si Si4 0.641907 0.120662 0.088024
O O1 0.220617 0.541035 0.360706
O O2 0.852213 0.750000 0.750000
O O3 0.863151 0.379607 0.528363
O O4 0.822445 0.875856 0.474731
O O5 0.478396 0.750000 0.750000
O O6 0.410095 0.019091 0.901018
O O7 0.481529 0.250000 0.750000
O O8 0.500000 0.000000 0.000000
O O9 0.660788 0.250000 0.250000
#
# Coordination Sequence:
#
# PCOD8202132 Si02
#       4
#     2   8   8   8
#     4  12  26  48  72 104 142 168 244 304 350 396
#     4  12  24  44  74  97 134 181 227 287 342 414
#     4  11  24  44  67 101 144 181 226 283 334 402
#     4  11  24  44  70 102 140 181 227 284 346 408
#
# _framework density 22.321010999999999
#
# number of rings (size 3 to 8) (size 9 to 14) (size 15 to 20)
#    0.000    0.615    3.077    6.000    0.000    3.692 
#    0.000    0.769    6.769    0.000    0.000    0.000 
#    0.000    0.000    0.000    0.000    0.000    0.000 
#
# Total GULP energy -322196.771204 kJ/mol
# GULP energy per Si atom -12392.183508 kJ/mol
# Density = 2.227021 g / cm^3
# Si number density = 22.321011 Si / 1000 Ang^3
#
#
#
# Elastic Constant Matrix: (Units=GPa)
#
#
# Indices 1 2 3 4 5 6 
#
# 1 64.9517 50.9540 72.9280 0.0000 0.0000 0.0000
# 2 50.9540 203.5104 93.2428 0.0000 0.0000 0.0000
# 3 72.9280 93.2428 160.7149 0.0000 0.0000 0.0000
# 4 0.0000 0.0000 0.0000 70.7560 0.0000 0.0000
# 5 0.0000 0.0000 0.0000 0.0000 31.6343 0.0000
# 6 0.0000 0.0000 0.0000 0.0000 0.0000 40.3485
#
#
#
# Elastic Compliance Matrix: (Units=1/GPa)
#
#
# Indices 1 2 3 4 5 6 
#
# 1 0.031889 -0.001845 -0.013400 0.000000 0.000000 0.000000
# 2 -0.001845 0.006800 -0.003108 0.000000 0.000000 0.000000
# 3 -0.013400 -0.003108 0.014106 0.000000 0.000000 0.000000
# 4 0.000000 0.000000 0.000000 0.014133 0.000000 0.000000
# 5 0.000000 0.000000 0.000000 0.000000 0.031611 0.000000
# 6 0.000000 0.000000 0.000000 0.000000 0.000000 0.024784
#
#
# Mechanical properties :
#
#
# Convention : Reuss Voigt Hill
#
# Bulk Modulus (GPa) = 62.15398 95.93632 79.04515
# Shear Modulus (GPa) = 30.23146 42.68458 36.45802
#
# Velocity S-wave (km/s) = 3.68420 4.37774 4.04586
# Velocity P-wave (km/s) = 6.78261 8.28410 7.57067
#
# Compressibility (1/GPa) = 0.01608907
#
# Stress axis : x y z
#
# Youngs Moduli (GPa) = 31.35905 147.06847 70.89248
#
# Poissons Ratio (x) = 0.27129 0.94996
# Poissons Ratio (y) = 0.05785 0.22033
# Poissons Ratio (z) = 0.42021 0.45707
#
# Static dielectric constant tensor:
#      x y z
#    x 3.713120 0.000000 0.000000 
#    y 0.000000 4.626030 0.000000 
#    z 0.000000 0.000000 4.341560 
# 
# 
# High freq. dielectric constant tensor:
#      x y z
#    x 1.838330 0.000000 0.000000 
#    y 0.000000 1.921840 0.000000 
#    z 0.000000 0.000000 1.894440 
# 
# From -- ./inp_files/15571.got.cif
#   From: 2010.06.25/outbox.cif.g09.slc.cpg/sg48_8_cif.got.tgz:15571.got - 2010.06.26 18:06:46.
