data_PCOD8202985
_publ_section_title
;
Structure prediction by ZEFSAII (Michael W. Deem and Ramdas Pophale) SiO2 
 PCOD8202985
Probable space group: P C C M
;
_chemical_formula_sum "Si O2"
_cell_formula_units_Z 64
_cell_length_a 24.837583
_cell_length_b 15.312616
_cell_length_c 8.688818
_cell_angle_alpha 90.000000
_cell_angle_beta 90.000000
_cell_angle_gamma 90.000000
_cell_volume 3304.603995
_symmetry_space_group_name_H-M "P C C M"
_symmetry_group_IT_number 49
_symmetry_cell_setting 'orthorhombic'
loop_
_space_group_symop_operation_xyz
x,y,z
-x,-y,z
x,-y,1/2-z
-x,y,1/2-z
-x,-y,-z
x,y,-z
-x,y,1/2+z
x,-y,1/2+z
loop_
_atom_site_type_symbol
_atom_site_label
_atom_site_fract_x
_atom_site_fract_y
_atom_site_fract_z
Si Si1 0.858889 0.773459 0.683834
Si Si2 0.164530 0.589819 0.678519
Si Si3 0.257546 0.815727 0.821345
Si Si4 0.717418 0.356393 0.673227
Si Si5 0.059020 0.090898 0.183247
Si Si6 0.557005 0.235945 0.181830
Si Si7 0.640369 0.091074 0.817243
Si Si8 0.600041 0.588431 0.177149
O O1 0.863770 0.778477 0.500000
O O2 0.862082 0.672443 0.735078
O O3 0.802837 0.816065 0.748241
O O4 0.905943 0.827242 0.763531
O O5 0.141263 0.500000 0.750000
O O6 0.148640 0.594909 0.500000
O O7 0.228958 0.587553 0.703668
O O8 0.285564 0.722895 0.792353
O O9 0.298533 0.889105 0.756098
O O10 0.251190 0.829994 0.000000
O O11 0.718835 0.317831 0.500000
O O12 0.664635 0.414359 0.698860
O O13 0.000000 0.106144 0.250000
O O14 0.083056 0.000000 0.250000
O O15 0.057057 0.085456 0.000000
O O16 0.500000 0.207632 0.250000
O O17 0.600584 0.166269 0.243337
O O18 0.573222 0.331595 0.236030
O O19 0.553452 0.235208 0.000000
O O20 0.620312 0.000000 0.750000
O O21 0.639284 0.087539 0.000000
O O22 0.576582 0.500000 0.250000
O O23 0.583190 0.593942 0.000000
#
# Coordination Sequence:
#
# PCOD8202985 Si02
#       8
#     8   8   8   8   8   8   8   8
#     4  10  20  35  57  86 120 158 198 241 290 343
#     4  10  19  32  50  79 117 158 200 241 287 336
#     4   9  18  34  55  81 115 151 187 227 279 335
#     4   9  18  31  51  79 111 147 187 228 275 331
#     4  11  22  39  62  88 119 155 199 248 296 347
#     4  11  24  43  63  82 108 140 182 232 284 338
#     4  10  22  39  60  85 112 145 182 227 280 338
#     4  11  22  36  57  85 113 145 183 225 278 336
#
# _framework density 19.366917999999998
#
# number of rings (size 3 to 8) (size 9 to 14) (size 15 to 20)
#    0.000    1.875    1.250    3.375    0.000    4.000 
#    0.000    3.750    0.000    0.375    0.000    2.625 
#    0.000    0.000    0.000    0.000    0.000    0.000 
#
# Total GULP energy -793493.572882 kJ/mol
# GULP energy per Si atom -12398.337076 kJ/mol
# Density = 1.932284 g / cm^3
# Si number density = 19.366918 Si / 1000 Ang^3
#
#
#
# Elastic Constant Matrix: (Units=GPa)
#
#
# Indices 1 2 3 4 5 6 
#
# 1 81.5057 60.3180 38.0888 0.0000 0.0000 0.0000
# 2 60.3180 133.1385 39.2139 0.0000 0.0000 0.0000
# 3 38.0888 39.2139 80.1258 0.0000 0.0000 0.0000
# 4 0.0000 0.0000 0.0000 35.6397 0.0000 0.0000
# 5 0.0000 0.0000 0.0000 0.0000 25.6647 0.0000
# 6 0.0000 0.0000 0.0000 0.0000 0.0000 19.4139
#
#
#
# Elastic Compliance Matrix: (Units=1/GPa)
#
#
# Indices 1 2 3 4 5 6 
#
# 1 0.020766 -0.007595 -0.006154 0.000000 0.000000 0.000000
# 2 -0.007595 0.011554 -0.002044 0.000000 0.000000 0.000000
# 3 -0.006154 -0.002044 0.016406 0.000000 0.000000 0.000000
# 4 0.000000 0.000000 0.000000 0.028059 0.000000 0.000000
# 5 0.000000 0.000000 0.000000 0.000000 0.038964 0.000000
# 6 0.000000 0.000000 0.000000 0.000000 0.000000 0.051509
#
#
# Mechanical properties :
#
#
# Convention : Reuss Voigt Hill
#
# Bulk Modulus (GPa) = 58.34617 63.33458 60.84037
# Shear Modulus (GPa) = 24.44291 26.62028 25.53159
#
# Velocity S-wave (km/s) = 3.55645 3.71148 3.63479
# Velocity P-wave (km/s) = 6.85978 7.15124 7.00703
#
# Compressibility (1/GPa) = 0.01713909
#
# Stress axis : x y z
#
# Youngs Moduli (GPa) = 48.15591 86.54965 60.95257
#
# Poissons Ratio (x) = 0.65737 0.37511
# Poissons Ratio (y) = 0.36576 0.12459
# Poissons Ratio (z) = 0.29636 0.17691
#
# Static dielectric constant tensor:
#      x y z
#    x 3.594700 0.000000 0.000000 
#    y 0.000000 3.502530 0.000000 
#    z 0.000000 0.000000 3.530970 
# 
# 
# High freq. dielectric constant tensor:
#      x y z
#    x 1.740090 0.000000 0.000000 
#    y 0.000000 1.752250 0.000000 
#    z 0.000000 0.000000 1.757810 
# 
# From -- ./inp_files/4301.got.cif
#   From: 2010.03.12/outbox.cif.g09.slc.cpg/sg49_3_cif.got.tgz:4301.got - 2010.04.14 03:58:27.
