data_PCOD8202278
_publ_section_title
;
Structure prediction by ZEFSAII (Michael W. Deem and Ramdas Pophale) SiO2 
 PCOD8202278
Probable space group: P C C M
;
_chemical_formula_sum "Si O2"
_cell_formula_units_Z 64
_cell_length_a 26.824892
_cell_length_b 18.149552
_cell_length_c 8.657889
_cell_angle_alpha 90.000000
_cell_angle_beta 90.000000
_cell_angle_gamma 90.000000
_cell_volume 4215.177867
_symmetry_space_group_name_H-M "P C C M"
_symmetry_group_IT_number 49
_symmetry_cell_setting 'orthorhombic'
loop_
_space_group_symop_operation_xyz
x,y,z
-x,-y,z
x,-y,1/2-z
-x,y,1/2-z
-x,-y,-z
x,y,-z
-x,y,1/2+z
x,-y,1/2+z
loop_
_atom_site_type_symbol
_atom_site_label
_atom_site_fract_x
_atom_site_fract_y
_atom_site_fract_z
Si Si1 0.245052 0.844219 0.817125
Si Si2 0.950285 0.918029 0.316523
Si Si3 0.849226 0.080848 0.317608
Si Si4 0.298008 0.702041 0.169432
Si Si5 0.340508 0.922024 0.680984
Si Si6 0.603850 0.798668 0.670177
Si Si7 0.552534 0.656355 0.316975
Si Si8 0.352930 0.422364 0.819878
O O1 0.195848 0.866003 0.725583
O O2 0.254814 0.758160 0.773907
O O3 0.290312 0.895926 0.764300
O O4 0.238034 0.854776 0.000000
O O5 0.951610 0.917936 0.500000
O O6 0.899167 0.881701 0.254617
O O7 0.000000 0.877415 0.250000
O O8 0.949825 0.000000 0.250000
O O9 0.855210 0.074237 0.500000
O O10 0.838765 0.000000 0.250000
O O11 0.346793 0.750987 0.154417
O O12 0.307774 0.634913 0.286329
O O13 0.284910 0.669517 0.000000
O O14 0.330696 0.927405 0.500000
O O15 0.386653 0.866292 0.713506
O O16 0.356564 0.000000 0.750000
O O17 0.589622 0.829675 0.500000
O O18 0.561805 0.741965 0.733117
O O19 0.500000 0.629707 0.250000
O O20 0.552782 0.649330 0.500000
O O21 0.595094 0.602965 0.253397
O O22 0.336644 0.500000 0.750000
O O23 0.360762 0.429799 0.000000
#
# Coordination Sequence:
#
# PCOD8202278 Si02
#       8
#     8   8   8   8   8   8   8   8
#     4  10  19  31  44  60  84 111 138 172 213 255
#     4  10  17  27  40  54  73 101 139 181 225 267
#     4  11  20  29  40  57  81 109 144 185 226 264
#     4   8  16  31  48  64  85 111 138 167 202 243
#     4  11  20  29  43  62  83 107 136 170 208 250
#     4   8  16  31  47  63  84 108 133 164 199 241
#     4  10  20  34  51  70  91 112 136 164 199 239
#     4  11  21  33  50  70  93 116 141 168 197 233
#
# _framework density 15.183225999999999
#
# number of rings (size 3 to 8) (size 9 to 14) (size 15 to 20)
#    0.000    2.125    0.000    8.250    0.000    5.750 
#    0.000    1.250    0.000    0.375    0.000    2.625 
#    0.000    0.000    0.000    0.000    0.000    0.625 
#
# Total GULP energy -793286.904332 kJ/mol
# GULP energy per Si atom -12395.107880 kJ/mol
# Density = 1.514867 g / cm^3
# Si number density = 15.183226 Si / 1000 Ang^3
#
#
#
# Elastic Constant Matrix: (Units=GPa)
#
#
# Indices 1 2 3 4 5 6 
#
# 1 58.4122 27.9212 25.8759 0.0000 0.0000 0.0000
# 2 27.9212 76.7728 35.4497 0.0000 0.0000 0.0000
# 3 25.8759 35.4497 108.8954 0.0000 0.0000 0.0000
# 4 0.0000 0.0000 0.0000 21.7540 0.0000 0.0000
# 5 0.0000 0.0000 0.0000 0.0000 10.3076 0.0000
# 6 0.0000 0.0000 0.0000 0.0000 0.0000 5.5811
#
#
#
# Elastic Compliance Matrix: (Units=1/GPa)
#
#
# Indices 1 2 3 4 5 6 
#
# 1 0.021535 -0.006437 -0.003022 0.000000 0.000000 0.000000
# 2 -0.006437 0.017254 -0.004087 0.000000 0.000000 0.000000
# 3 -0.003022 -0.004087 0.011232 0.000000 0.000000 0.000000
# 4 0.000000 0.000000 0.000000 0.045969 0.000000 0.000000
# 5 0.000000 0.000000 0.000000 0.000000 0.097016 0.000000
# 6 0.000000 0.000000 0.000000 0.000000 0.000000 0.179178
#
#
# Mechanical properties :
#
#
# Convention : Reuss Voigt Hill
#
# Bulk Modulus (GPa) = 43.61292 46.95266 45.28279
# Shear Modulus (GPa) = 12.28752 17.85077 15.06914
#
# Velocity S-wave (km/s) = 2.84788 3.43255 3.15379
# Velocity P-wave (km/s) = 6.29290 6.83382 6.56893
#
# Compressibility (1/GPa) = 0.02292899
#
# Stress axis : x y z
#
# Youngs Moduli (GPa) = 46.43586 57.95866 89.03347
#
# Poissons Ratio (x) = 0.37306 0.26904
# Poissons Ratio (y) = 0.29889 0.36390
# Poissons Ratio (z) = 0.14032 0.23689
#
# Static dielectric constant tensor:
#      x y z
#    x 3.307490 0.000000 0.000000 
#    y 0.000000 1.832900 0.000000 
#    z 0.000000 0.000000 3.020890 
# 
# 
# High freq. dielectric constant tensor:
#      x y z
#    x 1.558450 0.000000 0.000000 
#    y 0.000000 1.549470 0.000000 
#    z 0.000000 0.000000 1.599140 
# 
# From -- ./inp_files/6802.got.cif
#   From: 2010.03.12/outbox.cif.g09.slc.cpg/sg49_4_cif.got.tgz:6802.got - 2010.04.14 03:58:27.
