data_PCOD8202871
_publ_section_title
;
Structure prediction by ZEFSAII (Michael W. Deem and Ramdas Pophale) SiO2 
 PCOD8202871
Probable space group: P C C M
;
_chemical_formula_sum "Si O2"
_cell_formula_units_Z 64
_cell_length_a 20.885178
_cell_length_b 19.266005
_cell_length_c 9.004893
_cell_angle_alpha 90.000000
_cell_angle_beta 90.000000
_cell_angle_gamma 90.000000
_cell_volume 3623.334310
_symmetry_space_group_name_H-M "P C C M"
_symmetry_group_IT_number 49
_symmetry_cell_setting 'orthorhombic'
loop_
_space_group_symop_operation_xyz
x,y,z
-x,-y,z
x,-y,1/2-z
-x,y,1/2-z
-x,-y,-z
x,y,-z
-x,y,1/2+z
x,-y,1/2+z
loop_
_atom_site_type_symbol
_atom_site_label
_atom_site_fract_x
_atom_site_fract_y
_atom_site_fract_z
Si Si1 0.799835 0.073483 0.672981
Si Si2 0.692057 0.334089 0.325003
Si Si3 0.562006 0.171436 0.833388
Si Si4 0.059374 0.426011 0.327897
Si Si5 0.059368 0.925662 0.326822
Si Si6 0.201421 0.425563 0.326349
Si Si7 0.688878 0.826405 0.826250
Si Si8 0.562978 0.663267 0.668357
O O1 0.790382 0.059525 0.500000
O O2 0.870433 0.107033 0.702579
O O3 0.748904 0.129210 0.732762
O O4 0.789207 0.000000 0.750000
O O5 0.691036 0.347984 0.500000
O O6 0.750778 0.372828 0.250470
O O7 0.701512 0.253440 0.286049
O O8 0.625704 0.362499 0.256372
O O9 0.500000 0.141082 0.750000
O O10 0.625852 0.144317 0.753756
O O11 0.560224 0.254149 0.830444
O O12 0.561342 0.142607 0.000000
O O13 0.062157 0.500000 0.250000
O O14 0.043157 0.434324 0.500000
O O15 0.129871 0.392908 0.305117
O O16 0.000000 0.383658 0.250000
O O17 0.044831 0.932807 0.500000
O O18 0.000000 0.883220 0.250000
O O19 0.061370 0.000000 0.250000
O O20 0.208154 0.500000 0.250000
O O21 0.217678 0.433833 0.500000
O O22 0.677725 0.835508 0.000000
O O23 0.500000 0.633080 0.750000
O O24 0.565143 0.634875 0.500000
#
# Coordination Sequence:
#
# PCOD8202871 Si02
#       8
#     8   8   8   8   8   8   8   8
#     4   9  18  31  47  68  94 123 154 190 232 278
#     4  10  19  31  49  71  95 126 160 193 233 278
#     4   9  16  26  43  67  92 119 152 191 232 272
#     4   9  16  26  43  66  91 118 150 190 232 272
#     4   9  15  24  40  62  87 114 147 187 229 270
#     4  10  20  33  49  71  98 126 157 194 235 279
#     4   9  18  32  48  68  95 125 156 191 232 278
#     4   9  16  27  44  67  94 121 153 194 234 273
#
# _framework density 17.663287
#
# number of rings (size 3 to 8) (size 9 to 14) (size 15 to 20)
#    0.000    2.750    0.000    3.000    0.000    6.000 
#    0.000    0.000    0.000    1.500    0.000    8.750 
#    0.000    0.000    0.000    0.000    0.000    0.000 
#
# Total GULP energy -793119.747366 kJ/mol
# GULP energy per Si atom -12392.496053 kJ/mol
# Density = 1.762308 g / cm^3
# Si number density = 17.663287 Si / 1000 Ang^3
#
#
#
# Elastic Constant Matrix: (Units=GPa)
#
#
# Indices 1 2 3 4 5 6 
#
# 1 198.3946 48.4272 88.8159 0.0000 0.0000 0.0000
# 2 48.4272 34.6023 31.2293 0.0000 0.0000 0.0000
# 3 88.8159 31.2293 121.2519 0.0000 0.0000 0.0000
# 4 0.0000 0.0000 0.0000 13.6953 0.0000 0.0000
# 5 0.0000 0.0000 0.0000 0.0000 36.9572 0.0000
# 6 0.0000 0.0000 0.0000 0.0000 0.0000 17.0840
#
#
#
# Elastic Compliance Matrix: (Units=1/GPa)
#
#
# Indices 1 2 3 4 5 6 
#
# 1 0.009195 -0.008846 -0.004457 0.000000 0.000000 0.000000
# 2 -0.008846 0.046163 -0.005410 0.000000 0.000000 0.000000
# 3 -0.004457 -0.005410 0.012905 0.000000 0.000000 0.000000
# 4 0.000000 0.000000 0.000000 0.073018 0.000000 0.000000
# 5 0.000000 0.000000 0.000000 0.000000 0.027058 0.000000
# 6 0.000000 0.000000 0.000000 0.000000 0.000000 0.058534
#
#
# Mechanical properties :
#
#
# Convention : Reuss Voigt Hill
#
# Bulk Modulus (GPa) = 32.42819 76.79930 54.61374
# Shear Modulus (GPa) = 18.20974 25.93241 22.07108
#
# Velocity S-wave (km/s) = 3.21430 3.83581 3.53873
# Velocity P-wave (km/s) = 5.67227 7.94933 6.90531
#
# Compressibility (1/GPa) = 0.03083737
#
# Stress axis : x y z
#
# Youngs Moduli (GPa) = 108.75468 21.66236 77.48827
#
# Poissons Ratio (x) = 0.19163 0.34535
# Poissons Ratio (y) = 0.96208 0.41919
# Poissons Ratio (z) = 0.48470 0.11719
#
# Static dielectric constant tensor:
#      x y z
#    x 4.229380 0.000000 0.000000 
#    y 0.000000 2.718740 0.000000 
#    z 0.000000 0.000000 3.446790 
# 
# 
# High freq. dielectric constant tensor:
#      x y z
#    x 1.711290 0.000000 0.000000 
#    y 0.000000 1.608510 0.000000 
#    z 0.000000 0.000000 1.698910 
# 
# From -- ./inp_files/6082.got.cif
#   From: 2010.03.12/outbox.cif.g09.slc.cpg/sg49_4_cif.got.tgz:6082.got - 2010.04.14 03:58:27.
