data_PCOD8202969
_publ_section_title
;
Structure prediction by ZEFSAII (Michael W. Deem and Ramdas Pophale) SiO2 
 PCOD8202969
Probable space group: P C C M
;
_chemical_formula_sum "Si O2"
_cell_formula_units_Z 64
_cell_length_a 23.577440
_cell_length_b 19.225571
_cell_length_c 8.658685
_cell_angle_alpha 90.000000
_cell_angle_beta 90.000000
_cell_angle_gamma 90.000000
_cell_volume 3924.893131
_symmetry_space_group_name_H-M "P C C M"
_symmetry_group_IT_number 49
_symmetry_cell_setting 'orthorhombic'
loop_
_space_group_symop_operation_xyz
x,y,z
-x,-y,z
x,-y,1/2-z
-x,y,1/2-z
-x,-y,-z
x,y,-z
-x,y,1/2+z
x,-y,1/2+z
loop_
_atom_site_type_symbol
_atom_site_label
_atom_site_fract_x
_atom_site_fract_y
_atom_site_fract_z
Si Si1 0.560438 0.711626 0.317676
Si Si2 0.253865 0.429648 0.682019
Si Si3 0.728054 0.074624 0.682743
Si Si4 0.664516 0.803682 0.682750
Si Si5 0.383806 0.571046 0.817428
Si Si6 0.836300 0.850041 0.682892
Si Si7 0.060425 0.074179 0.182561
Si Si8 0.228479 0.282014 0.317979
O O1 0.500000 0.731870 0.250000
O O2 0.556626 0.706715 0.500000
O O3 0.603686 0.772837 0.269560
O O4 0.581525 0.637138 0.251800
O O5 0.226161 0.500000 0.750000
O O6 0.249742 0.434901 0.500000
O O7 0.318805 0.422216 0.737646
O O8 0.220599 0.360909 0.745802
O O9 0.736692 0.071619 0.500000
O O10 0.675443 0.124438 0.727257
O O11 0.785989 0.100166 0.761827
O O12 0.712362 0.000000 0.750000
O O13 0.669433 0.817364 0.500000
O O14 0.711810 0.748813 0.739999
O O15 0.410679 0.500000 0.750000
O O16 0.387468 0.568762 0.000000
O O17 0.843583 0.859032 0.500000
O O18 0.894212 0.868154 0.769117
O O19 0.822413 0.769887 0.729823
O O20 0.000000 0.097151 0.250000
O O21 0.079702 0.000000 0.250000
O O22 0.056011 0.068190 0.000000
O O23 0.232367 0.287142 0.500000
#
# Coordination Sequence:
#
# PCOD8202969 Si02
#       8
#     8   8   8   8   8   8   8   8
#     4  10  20  33  49  66  88 118 152 190 232 281
#     4   9  15  26  43  64  88 119 154 187 227 276
#     4  11  21  33  50  74  98 121 149 187 231 278
#     4   9  17  33  51  66  87 118 150 185 231 283
#     4   9  17  29  45  63  87 118 153 189 227 272
#     4  10  19  32  50  72  98 131 165 199 236 274
#     4  11  21  34  50  70  99 135 173 207 236 274
#     4   8  14  27  48  66  87 120 156 189 230 280
#
# _framework density 16.306176000000001
#
# number of rings (size 3 to 8) (size 9 to 14) (size 15 to 20)
#    0.000    2.375    1.250    4.125    0.000    1.250 
#    0.000    4.375    0.000    0.375    0.000    2.625 
#    0.000    0.500    0.000    5.750    0.000    1.750 
#
# Total GULP energy -793374.593728 kJ/mol
# GULP energy per Si atom -12396.478027 kJ/mol
# Density = 1.626906 g / cm^3
# Si number density = 16.306176 Si / 1000 Ang^3
#
#
#
# Elastic Constant Matrix: (Units=GPa)
#
#
# Indices 1 2 3 4 5 6 
#
# 1 88.1481 62.8116 33.3790 0.0000 0.0000 0.0000
# 2 62.8116 145.5582 32.1892 0.0000 0.0000 0.0000
# 3 33.3790 32.1892 56.9954 0.0000 0.0000 0.0000
# 4 0.0000 0.0000 0.0000 23.9387 0.0000 0.0000
# 5 0.0000 0.0000 0.0000 0.0000 17.4927 0.0000
# 6 0.0000 0.0000 0.0000 0.0000 0.0000 17.0064
#
#
#
# Elastic Compliance Matrix: (Units=1/GPa)
#
#
# Indices 1 2 3 4 5 6 
#
# 1 0.018717 -0.006459 -0.007313 0.000000 0.000000 0.000000
# 2 -0.006459 0.010080 -0.001910 0.000000 0.000000 0.000000
# 3 -0.007313 -0.001910 0.022907 0.000000 0.000000 0.000000
# 4 0.000000 0.000000 0.000000 0.041773 0.000000 0.000000
# 5 0.000000 0.000000 0.000000 0.000000 0.057167 0.000000
# 6 0.000000 0.000000 0.000000 0.000000 0.000000 0.058801
#
#
# Mechanical properties :
#
#
# Convention : Reuss Voigt Hill
#
# Bulk Modulus (GPa) = 49.16815 60.82901 54.99858
# Shear Modulus (GPa) = 20.19474 22.50900 21.35187
#
# Velocity S-wave (km/s) = 3.52301 3.71940 3.62254
# Velocity P-wave (km/s) = 6.83867 7.47198 7.16233
#
# Compressibility (1/GPa) = 0.02033837
#
# Stress axis : x y z
#
# Youngs Moduli (GPa) = 53.42861 99.20816 43.65507
#
# Poissons Ratio (x) = 0.64082 0.31926
# Poissons Ratio (y) = 0.34511 0.08338
# Poissons Ratio (z) = 0.39073 0.18948
#
# Static dielectric constant tensor:
#      x y z
#    x 2.968290 0.000000 0.000000 
#    y 0.000000 3.639480 0.000000 
#    z 0.000000 0.000000 2.970850 
# 
# 
# High freq. dielectric constant tensor:
#      x y z
#    x 1.592390 0.000000 0.000000 
#    y 0.000000 1.631300 0.000000 
#    z 0.000000 0.000000 1.620950 
# 
# From -- ./inp_files/6604.got.cif
#   From: 2010.03.12/outbox.cif.g09.slc.cpg/sg49_4_cif.got.tgz:6604.got - 2010.04.14 03:58:27.
