data_PCOD8202027
_publ_section_title
;
Structure prediction by ZEFSAII (Michael W. Deem and Ramdas Pophale) SiO2 
 PCOD8202027
Probable space group: P N N N
;
_chemical_formula_sum "Si O2"
_cell_formula_units_Z 56
_cell_length_a 11.756665
_cell_length_b 14.455725
_cell_length_c 16.532885
_cell_angle_alpha 90.000000
_cell_angle_beta 90.000000
_cell_angle_gamma 90.000000
_cell_volume 2809.782259
_symmetry_space_group_name_H-M "P N N N"
_symmetry_group_IT_number 48
_space_group.IT_coordinate_system_code '2'
_symmetry_cell_setting 'orthorhombic'
loop_
_space_group_symop_operation_xyz
x,y,z
1/2-x,1/2-y,z
x,1/2-y,1/2-z
1/2-x,y,1/2-z
-x,-y,-z
1/2+x,1/2+y,-z
-x,1/2+y,1/2+z
1/2+x,-y,1/2+z
loop_
_atom_site_type_symbol
_atom_site_label
_atom_site_fract_x
_atom_site_fract_y
_atom_site_fract_z
Si Si1 0.945158 0.425659 0.110468
Si Si2 0.702503 0.345407 0.934165
Si Si3 0.484423 0.060936 0.582399
Si Si4 0.875707 0.066245 0.217339
Si Si5 0.424043 0.714909 0.904697
Si Si6 0.343538 0.171859 0.478584
Si Si7 0.330523 0.483698 0.471355
O O1 0.957317 0.445080 0.205440
O O2 0.894666 0.323076 0.097506
O O3 0.070012 0.430211 0.073596
O O4 0.863668 0.501085 0.066158
O O5 0.750000 0.250000 0.895487
O O6 0.603380 0.397335 0.883099
O O7 0.810653 0.413604 0.936479
O O8 0.647739 0.329194 0.022551
O O9 0.408150 0.151719 0.562695
O O10 0.500000 0.000000 0.500000
O O11 0.418684 0.004390 0.649969
O O12 0.750000 0.044696 0.250000
O O13 0.883004 0.168752 0.179093
O O14 0.560895 0.698427 0.912296
O O15 0.250000 0.250000 0.490711
O O16 0.282639 0.075348 0.456379
#
# Coordination Sequence:
#
# PCOD8202027 Si02
#       7
#     8   8   8   8   8   8   8
#     4  11  24  35  59  95 131 161 209 264 319 396
#     4  11  20  36  67  92 122 169 219 267 315 377
#     4  11  21  39  64  91 128 170 218 254 315 402
#     4  12  24  40  64  96 135 166 203 273 343 386
#     4  11  21  38  59 101 129 157 208 265 332 401
#     4  11  20  37  65  88 122 172 214 256 309 379
#     4  11  21  38  60  88 127 172 217 254 315 387
#
# _framework density 19.93037
#
# number of rings (size 3 to 8) (size 9 to 14) (size 15 to 20)
#    0.000    0.857    7.143    2.143    0.000    0.571 
#    0.000    2.857    0.000    9.000    0.000    0.000 
#    0.000    0.000    0.000    0.000    0.000    0.000 
#
# Total GULP energy -694050.455310 kJ/mol
# GULP energy per Si atom -12393.758131 kJ/mol
# Density = 1.988501 g / cm^3
# Si number density = 19.930370 Si / 1000 Ang^3
#
#
#
# Elastic Constant Matrix: (Units=GPa)
#
#
# Indices 1 2 3 4 5 6 
#
# 1 88.9811 35.8695 28.3550 0.0000 0.0000 0.0000
# 2 35.8695 100.5006 32.3071 0.0000 0.0000 0.0000
# 3 28.3550 32.3071 97.7771 0.0000 0.0000 0.0000
# 4 0.0000 0.0000 0.0000 28.0939 0.0000 0.0000
# 5 0.0000 0.0000 0.0000 0.0000 21.5152 0.0000
# 6 0.0000 0.0000 0.0000 0.0000 0.0000 50.2396
#
#
#
# Elastic Compliance Matrix: (Units=1/GPa)
#
#
# Indices 1 2 3 4 5 6 
#
# 1 0.013710 -0.004045 -0.002639 0.000000 0.000000 0.000000
# 2 -0.004045 0.012326 -0.002900 0.000000 0.000000 0.000000
# 3 -0.002639 -0.002900 0.011951 0.000000 0.000000 0.000000
# 4 0.000000 0.000000 0.000000 0.035595 0.000000 0.000000
# 5 0.000000 0.000000 0.000000 0.000000 0.046479 0.000000
# 6 0.000000 0.000000 0.000000 0.000000 0.000000 0.019905
#
#
# Mechanical properties :
#
#
# Convention : Reuss Voigt Hill
#
# Bulk Modulus (GPa) = 53.13768 53.36913 53.25341
# Shear Modulus (GPa) = 30.22869 32.68488 31.45678
#
# Velocity S-wave (km/s) = 3.89873 4.05403 3.97714
# Velocity P-wave (km/s) = 6.85466 6.98208 6.91866
#
# Compressibility (1/GPa) = 0.01881904
#
# Stress axis : x y z
#
# Youngs Moduli (GPa) = 72.94001 81.12979 83.67597
#
# Poissons Ratio (x) = 0.32815 0.22085
# Poissons Ratio (y) = 0.29502 0.24264
# Poissons Ratio (z) = 0.19252 0.23525
#
# Static dielectric constant tensor:
#      x y z
#    x 3.965590 0.000000 0.000000 
#    y 0.000000 3.871900 0.000000 
#    z 0.000000 0.000000 3.535180 
# 
# 
# High freq. dielectric constant tensor:
#      x y z
#    x 1.800470 0.000000 0.000000 
#    y 0.000000 1.787330 0.000000 
#    z 0.000000 0.000000 1.728020 
# 
# From -- ./inp_files/26546.got.cif
#   From: 2010.06.25/outbox.cif.g09.slc.cpg/sg48_14_cif.got.tgz:26546.got - 2010.06.26 18:06:46.
