data_PCOD8202377
_publ_section_title
;
Structure prediction by ZEFSAII (Michael W. Deem and Ramdas Pophale) SiO2 
 PCOD8202377
Probable space group: P C C M
;
_chemical_formula_sum "Si O2"
_cell_formula_units_Z 64
_cell_length_a 25.871691
_cell_length_b 15.095853
_cell_length_c 8.592935
_cell_angle_alpha 90.000000
_cell_angle_beta 90.000000
_cell_angle_gamma 90.000000
_cell_volume 3356.015827
_symmetry_space_group_name_H-M "P C C M"
_symmetry_group_IT_number 49
_symmetry_cell_setting 'orthorhombic'
loop_
_space_group_symop_operation_xyz
x,y,z
-x,-y,z
x,-y,1/2-z
-x,y,1/2-z
-x,-y,-z
x,y,-z
-x,y,1/2+z
x,-y,1/2+z
loop_
_atom_site_type_symbol
_atom_site_label
_atom_site_fract_x
_atom_site_fract_y
_atom_site_fract_z
Si Si1 0.162680 0.407025 0.184006
Si Si2 0.749107 0.288528 0.185778
Si Si3 0.134905 0.914909 0.680529
Si Si4 0.754696 0.090070 0.179612
Si Si5 0.551806 0.401119 0.815535
Si Si6 0.949936 0.820118 0.670562
Si Si7 0.656657 0.402206 0.684025
Si Si8 0.948562 0.385064 0.828649
O O1 0.185171 0.500000 0.250000
O O2 0.194900 0.324968 0.258223
O O3 0.102003 0.402014 0.224712
O O4 0.170326 0.403728 0.000000
O O5 0.737348 0.187053 0.242336
O O6 0.705361 0.345775 0.265895
O O7 0.747071 0.295285 0.000000
O O8 0.150000 0.920401 0.500000
O O9 0.184803 0.911246 0.788420
O O10 0.098912 0.831111 0.714570
O O11 0.103824 0.000000 0.750000
O O12 0.728327 0.000000 0.250000
O O13 0.742471 0.084534 0.000000
O O14 0.552174 0.500000 0.750000
O O15 0.500000 0.352507 0.750000
O O16 0.604547 0.356031 0.753254
O O17 0.550789 0.400675 0.000000
O O18 0.940530 0.863212 0.500000
O O19 0.959268 0.717430 0.649669
O O20 0.000000 0.864597 0.750000
O O21 0.664122 0.500000 0.750000
O O22 0.652207 0.406864 0.500000
O O23 0.000000 0.427336 0.750000
O O24 0.939821 0.427872 0.000000
#
# Coordination Sequence:
#
# PCOD8202377 Si02
#       8
#     8   8   8   8   8   8   8   8
#     4  12  25  40  58  80 106 138 175 216 261 316
#     4  11  23  39  57  80 110 144 179 220 269 321
#     4  11  21  33  50  70  94 121 153 191 239 298
#     4  10  21  37  58  80 104 132 167 211 259 311
#     4  10  17  28  46  71 105 147 194 239 279 320
#     4  10  20  34  51  71  95 120 150 188 235 290
#     4  11  21  34  52  77 111 152 194 235 276 322
#     4  10  21  38  58  78  99 125 160 205 253 305
#
# _framework density 19.070233000000002
#
# number of rings (size 3 to 8) (size 9 to 14) (size 15 to 20)
#    0.000    1.375    0.000    9.000    0.000    7.000 
#    0.000    2.500    0.000    0.000    0.000    0.000 
#    0.000    0.500    0.000    5.250    0.000    2.875 
#
# Total GULP energy -793141.755260 kJ/mol
# GULP energy per Si atom -12392.839926 kJ/mol
# Density = 1.902683 g / cm^3
# Si number density = 19.070233 Si / 1000 Ang^3
#
#
#
# Elastic Constant Matrix: (Units=GPa)
#
#
# Indices 1 2 3 4 5 6 
#
# 1 95.1423 29.5610 31.1951 0.0000 0.0000 0.0000
# 2 29.5610 84.1479 38.9993 0.0000 0.0000 0.0000
# 3 31.1951 38.9993 129.4777 0.0000 0.0000 0.0000
# 4 0.0000 0.0000 0.0000 25.1450 0.0000 0.0000
# 5 0.0000 0.0000 0.0000 0.0000 139.2056 0.0000
# 6 0.0000 0.0000 0.0000 0.0000 0.0000 15.8411
#
#
#
# Elastic Compliance Matrix: (Units=1/GPa)
#
#
# Indices 1 2 3 4 5 6 
#
# 1 0.012194 -0.003396 -0.001915 0.000000 0.000000 0.000000
# 2 -0.003396 0.014758 -0.003627 0.000000 0.000000 0.000000
# 3 -0.001915 -0.003627 0.009277 0.000000 0.000000 0.000000
# 4 0.000000 0.000000 0.000000 0.039769 0.000000 0.000000
# 5 0.000000 0.000000 0.000000 0.000000 0.007184 0.000000
# 6 0.000000 0.000000 0.000000 0.000000 0.000000 0.063127
#
#
# Mechanical properties :
#
#
# Convention : Reuss Voigt Hill
#
# Bulk Modulus (GPa) = 54.48772 56.47541 55.48156
# Shear Modulus (GPa) = 29.35968 49.97252 39.66610
#
# Velocity S-wave (km/s) = 3.92797 5.12458 4.56565
# Velocity P-wave (km/s) = 7.01471 8.04325 7.54652
#
# Compressibility (1/GPa) = 0.01835276
#
# Stress axis : x y z
#
# Youngs Moduli (GPa) = 82.01016 67.76069 107.79198
#
# Poissons Ratio (x) = 0.23012 0.20641
# Poissons Ratio (y) = 0.27852 0.39095
# Poissons Ratio (z) = 0.15704 0.24576
#
# Static dielectric constant tensor:
#      x y z
#    x 3.828630 0.000000 0.000000 
#    y 0.000000 4.184000 0.000000 
#    z 0.000000 0.000000 3.746350 
# 
# 
# High freq. dielectric constant tensor:
#      x y z
#    x 1.717920 0.000000 0.000000 
#    y 0.000000 1.723600 0.000000 
#    z 0.000000 0.000000 1.763180 
# 
# From -- ./inp_files/6569.got.cif
#   From: 2010.03.12/outbox.cif.g09.slc.cpg/sg49_4_cif.got.tgz:6569.got - 2010.04.14 03:58:27.
