data_PCOD8202667
_publ_section_title
;
Structure prediction by ZEFSAII (Michael W. Deem and Ramdas Pophale) SiO2 
 PCOD8202667
Probable space group: P C C M
;
_chemical_formula_sum "Si O2"
_cell_formula_units_Z 56
_cell_length_a 17.954761
_cell_length_b 9.516749
_cell_length_c 16.809902
_cell_angle_alpha 90.000000
_cell_angle_beta 90.000000
_cell_angle_gamma 90.000000
_cell_volume 2872.323988
_symmetry_space_group_name_H-M "P C C M"
_symmetry_group_IT_number 49
_symmetry_cell_setting 'orthorhombic'
loop_
_space_group_symop_operation_xyz
x,y,z
-x,-y,z
x,-y,1/2-z
-x,y,1/2-z
-x,-y,-z
x,y,-z
-x,y,1/2+z
x,-y,1/2+z
loop_
_atom_site_type_symbol
_atom_site_label
_atom_site_fract_x
_atom_site_fract_y
_atom_site_fract_z
Si Si1 0.802116 0.713672 0.351986
Si Si2 0.740789 0.995958 0.091684
Si Si3 0.425436 0.079481 0.905060
Si Si4 0.712201 0.525137 0.911655
Si Si5 0.809858 0.262208 0.333009
Si Si6 0.083370 0.487711 0.092992
Si Si7 0.551369 0.612667 0.088006
O O1 0.732653 0.609270 0.359350
O O2 0.817869 0.748029 0.261056
O O3 0.873703 0.633737 0.388883
O O4 0.777075 0.851164 0.399574
O O5 0.654457 0.985563 0.125033
O O6 0.800597 0.896036 0.135628
O O7 0.738883 0.951980 0.000000
O O8 0.435273 0.237505 0.869752
O O9 0.500000 0.000000 0.874302
O O10 0.422989 0.080967 0.000000
O O11 0.734968 0.663078 0.862968
O O12 0.625679 0.525445 0.922737
O O13 0.750984 0.521283 0.000000
O O14 0.879473 0.351434 0.366049
O O15 0.000000 0.500000 0.127366
O O16 0.081255 0.458092 0.000000
O O17 0.500000 0.500000 0.135722
O O18 0.516675 0.642248 0.000000
#
# Coordination Sequence:
#
# PCOD8202667 Si02
#       7
#     8   8   8   8   8   8   8
#     4  11  23  35  56  87 118 151 188 232 282 339
#     4  11  21  37  59  83 114 152 198 246 287 341
#     4   9  18  31  50  78 109 145 192 247 301 341
#     4  10  18  33  55  79 106 144 193 239 283 333
#     4  11  21  37  58  83 116 155 187 227 283 345
#     4  10  21  40  66  93 119 148 187 233 279 334
#     4   9  17  28  47  76 106 137 187 246 291 336
#
# _framework density 19.496409
#
# number of rings (size 3 to 8) (size 9 to 14) (size 15 to 20)
#    0.000    1.857    1.429    5.571    2.000    1.143 
#    0.000    0.714    0.000    9.429    0.000    0.000 
#    0.000    0.000    0.000    0.000    0.000    0.000 
#
# Total GULP energy -693791.008934 kJ/mol
# GULP energy per Si atom -12389.125160 kJ/mol
# Density = 1.945203 g / cm^3
# Si number density = 19.496409 Si / 1000 Ang^3
#
#
#
# Elastic Constant Matrix: (Units=GPa)
#
#
# Indices 1 2 3 4 5 6 
#
# 1 131.8999 55.9447 10.5801 0.0000 0.0000 0.0000
# 2 55.9447 115.0155 -0.2924 0.0000 0.0000 0.0000
# 3 10.5801 -0.2924 56.8447 0.0000 0.0000 0.0000
# 4 0.0000 0.0000 0.0000 25.5246 0.0000 0.0000
# 5 0.0000 0.0000 0.0000 0.0000 -7.1441 0.0000
# 6 0.0000 0.0000 0.0000 0.0000 0.0000 17.3030
#
#
#
# Elastic Compliance Matrix: (Units=1/GPa)
#
#
# Indices 1 2 3 4 5 6 
#
# 1 0.009740 -0.004743 -0.001837 0.000000 0.000000 0.000000
# 2 -0.004743 0.011004 0.000939 0.000000 0.000000 0.000000
# 3 -0.001837 0.000939 0.017939 0.000000 0.000000 0.000000
# 4 0.000000 0.000000 0.000000 0.039178 0.000000 0.000000
# 5 0.000000 0.000000 0.000000 0.000000 -0.139975 0.000000
# 6 0.000000 0.000000 0.000000 0.000000 0.000000 0.057793
#
#
# Mechanical properties :
#
#
# Convention : Reuss Voigt Hill
#
# Bulk Modulus (GPa) = 36.49418 48.46943 42.48180
# Shear Modulus (GPa) = 310.68113 22.97188 166.82650
#
# Velocity S-wave (km/s) = 12.63720 3.43631 9.26032
# Velocity P-wave (km/s) = 15.22140 6.37644 11.66940
#
# Compressibility (1/GPa) = 0.02740163
#
# Stress axis : x y z
#
# Youngs Moduli (GPa) = 102.66523 90.87879 55.74574
#
# Poissons Ratio (x) = 0.43099 0.10242
# Poissons Ratio (y) = 0.48689 -0.05236
# Poissons Ratio (z) = 0.18863 -0.08536
#
# Static dielectric constant tensor:
#      x y z
#    x 3.670010 0.000000 0.000000 
#    y 0.000000 3.745010 0.000000 
#    z 0.000000 0.000000 3.318220 
# 
# 
# High freq. dielectric constant tensor:
#      x y z
#    x 1.754300 0.000000 0.000000 
#    y 0.000000 1.764290 0.000000 
#    z 0.000000 0.000000 1.733460 
# 
# From -- ./inp_files/14415.got.cif
#   From: 2010.03.12/outbox.cif.g09.slc.cpg/sg49_8_cif.got.tgz:14415.got - 2010.04.14 03:58:27.
