data_PCOD8202468
_publ_section_title
;
Structure prediction by ZEFSAII (Michael W. Deem and Ramdas Pophale) SiO2 
 PCOD8202468
Probable space group: P C C M
;
_chemical_formula_sum "Si O2"
_cell_formula_units_Z 64
_cell_length_a 21.338143
_cell_length_b 18.677213
_cell_length_c 8.779192
_cell_angle_alpha 90.000000
_cell_angle_beta 90.000000
_cell_angle_gamma 90.000000
_cell_volume 3498.833209
_symmetry_space_group_name_H-M "P C C M"
_symmetry_group_IT_number 49
_symmetry_cell_setting 'orthorhombic'
loop_
_space_group_symop_operation_xyz
x,y,z
-x,-y,z
x,-y,1/2-z
-x,y,1/2-z
-x,-y,-z
x,y,-z
-x,y,1/2+z
x,-y,1/2+z
loop_
_atom_site_type_symbol
_atom_site_label
_atom_site_fract_x
_atom_site_fract_y
_atom_site_fract_z
Si Si1 0.662416 0.182982 0.828910
Si Si2 0.804899 0.425129 0.819359
Si Si3 0.062830 0.633718 0.821576
Si Si4 0.753624 0.714198 0.820584
Si Si5 0.568146 0.924950 0.181992
Si Si6 0.238129 0.936568 0.169118
Si Si7 0.111247 0.772138 0.679260
Si Si8 0.107794 0.070431 0.823593
O O1 0.688607 0.253639 0.745759
O O2 0.609699 0.143033 0.730838
O O3 0.723011 0.134348 0.841099
O O4 0.637407 0.200276 0.000000
O O5 0.782500 0.500000 0.750000
O O6 0.876714 0.411010 0.767133
O O7 0.760222 0.364112 0.752322
O O8 0.798530 0.425811 0.000000
O O9 0.069184 0.715732 0.768870
O O10 0.000000 0.599546 0.750000
O O11 0.055567 0.631703 0.000000
O O12 0.815009 0.761757 0.778476
O O13 0.745851 0.706830 0.000000
O O14 0.500000 0.910312 0.250000
O O15 0.594279 0.000000 0.250000
O O16 0.565875 0.930658 0.000000
O O17 0.180843 0.928998 0.284977
O O18 0.279167 0.000000 0.250000
O O19 0.214477 0.957976 0.000000
O O20 0.102262 0.760144 0.500000
O O21 0.085372 0.850638 0.731492
O O22 0.074156 0.000000 0.750000
O O23 0.096011 0.063359 0.000000
#
# Coordination Sequence:
#
# PCOD8202468 Si02
#       8
#     8   8   8   8   8   8   8   8
#     4  11  21  32  48  72 101 135 175 220 263 310
#     4  10  21  37  56  80 108 140 170 202 247 304
#     4  10  21  35  54  77 101 129 167 207 248 298
#     4  10  19  33  52  75 103 135 169 209 255 308
#     4  11  22  37  54  72 100 141 189 236 280 323
#     4  10  19  27  39  60  90 124 159 201 246 294
#     4   9  18  32  49  68  96 129 163 204 254 306
#     4  10  18  28  42  63  90 121 156 197 245 298
#
# _framework density 18.291812
#
# number of rings (size 3 to 8) (size 9 to 14) (size 15 to 20)
#    0.000    1.875    1.250    4.875    0.000    5.750 
#    0.000    1.250    0.000    0.375    0.000    2.625 
#    0.000    0.500    0.000    5.000    0.000    3.000 
#
# Total GULP energy -793171.598412 kJ/mol
# GULP energy per Si atom -12393.306225 kJ/mol
# Density = 1.825018 g / cm^3
# Si number density = 18.291812 Si / 1000 Ang^3
#
#
#
# Elastic Constant Matrix: (Units=GPa)
#
#
# Indices 1 2 3 4 5 6 
#
# 1 58.5496 26.1026 27.6139 0.0000 0.0000 0.0000
# 2 26.1026 119.1590 45.4329 0.0000 0.0000 0.0000
# 3 27.6139 45.4329 91.6215 0.0000 0.0000 0.0000
# 4 0.0000 0.0000 0.0000 29.5122 0.0000 0.0000
# 5 0.0000 0.0000 0.0000 0.0000 24.5244 0.0000
# 6 0.0000 0.0000 0.0000 0.0000 0.0000 12.8692
#
#
#
# Elastic Compliance Matrix: (Units=1/GPa)
#
#
# Indices 1 2 3 4 5 6 
#
# 1 0.020562 -0.002641 -0.004888 0.000000 0.000000 0.000000
# 2 -0.002641 0.010688 -0.004504 0.000000 0.000000 0.000000
# 3 -0.004888 -0.004504 0.014621 0.000000 0.000000 0.000000
# 4 0.000000 0.000000 0.000000 0.033884 0.000000 0.000000
# 5 0.000000 0.000000 0.000000 0.000000 0.040776 0.000000
# 6 0.000000 0.000000 0.000000 0.000000 0.000000 0.077705
#
#
# Mechanical properties :
#
#
# Convention : Reuss Voigt Hill
#
# Bulk Modulus (GPa) = 45.85877 51.95880 48.90879
# Shear Modulus (GPa) = 21.77991 24.72654 23.25323
#
# Velocity S-wave (km/s) = 3.45438 3.68065 3.56931
# Velocity P-wave (km/s) = 6.40589 6.82129 6.61685
#
# Compressibility (1/GPa) = 0.02180608
#
# Stress axis : x y z
#
# Youngs Moduli (GPa) = 48.63334 93.56390 68.39466
#
# Poissons Ratio (x) = 0.24707 0.33430
# Poissons Ratio (y) = 0.12842 0.30805
# Poissons Ratio (z) = 0.23771 0.42141
#
# Static dielectric constant tensor:
#      x y z
#    x 3.063140 0.000000 0.000000 
#    y 0.000000 3.541690 0.000000 
#    z 0.000000 0.000000 3.564950 
# 
# 
# High freq. dielectric constant tensor:
#      x y z
#    x 1.666310 0.000000 0.000000 
#    y 0.000000 1.701550 0.000000 
#    z 0.000000 0.000000 1.724950 
# 
# From -- ./inp_files/5945.got.cif
#   From: 2010.03.12/outbox.cif.g09.slc.cpg/sg49_3_cif.got.tgz:5945.got - 2010.04.14 03:58:27.
