data_PCOD8202173
_publ_section_title
;
Structure prediction by ZEFSAII (Michael W. Deem and Ramdas Pophale) SiO2 
 PCOD8202173
Probable space group: P C C M
;
_chemical_formula_sum "Si O2"
_cell_formula_units_Z 42
_cell_length_a 16.826464
_cell_length_b 5.377681
_cell_length_c 28.094803
_cell_angle_alpha 90.000000
_cell_angle_beta 90.000000
_cell_angle_gamma 90.000000
_cell_volume 2542.224434
_symmetry_space_group_name_H-M "P C C M"
_symmetry_group_IT_number 49
_symmetry_cell_setting 'orthorhombic'
loop_
_space_group_symop_operation_xyz
x,y,z
-x,-y,z
x,-y,1/2-z
-x,y,1/2-z
-x,-y,-z
x,y,-z
-x,y,1/2+z
x,-y,1/2+z
loop_
_atom_site_type_symbol
_atom_site_label
_atom_site_fract_x
_atom_site_fract_y
_atom_site_fract_z
Si Si1 0.594632 0.002742 0.445580
Si Si2 0.375191 0.341527 0.797120
Si Si3 0.967577 0.250756 0.695562
Si Si4 0.408520 0.496572 0.398512
Si Si5 0.794614 0.752656 0.779672
Si Si6 0.500000 0.000000 0.750000
O O1 0.622891 0.004597 0.500000
O O2 0.630131 0.754223 0.420402
O O3 0.500000 0.000000 0.441260
O O4 0.629818 0.249876 0.419900
O O5 0.366956 0.500000 0.750000
O O6 0.398448 0.512711 0.841585
O O7 0.288976 0.217938 0.808007
O O8 0.445283 0.147350 0.787277
O O9 0.872626 0.259242 0.687802
O O10 0.000000 0.500000 0.669915
O O11 0.000000 0.251389 0.750000
O O12 0.000000 0.000000 0.670303
O O13 0.500000 0.500000 0.413254
O O14 0.792866 0.500000 0.750000
O O15 0.806285 0.000000 0.750000
#
# Coordination Sequence:
#
# PCOD8202173 Si02
#       6
#     8   8   8   8   8   2
#     4   9  18  32  51  72  87 103 141 199 254 300
#     4  11  25  34  46  64  92 130 176 205 229 260
#     4  10  15  25  45  63  81 104 144 189 230 282
#     4  10  20  32  50  65  88 119 154 193 245 278
#     4  11  19  31  43  63  86 114 152 205 227 262
#     4  12  22  36  48  54  88 132 190 200 230 240
#
# _framework density 16.520966000000001
#
# number of rings (size 3 to 8) (size 9 to 14) (size 15 to 20)
#    0.000    1.714    4.762    2.000    6.667    2.286 
#    0.000    0.000    0.000    0.000    0.000    0.000 
#    0.000    0.000    0.000    0.000    0.000   19.048 
#
# Total GULP energy -520380.559477 kJ/mol
# GULP energy per Si atom -12390.013321 kJ/mol
# Density = 1.648336 g / cm^3
# Si number density = 16.520966 Si / 1000 Ang^3
#
#
#
# Elastic Constant Matrix: (Units=GPa)
#
#
# Indices 1 2 3 4 5 6 
#
# 1 105.4599 33.8340 3.8000 0.0000 0.0000 0.0000
# 2 33.8340 159.3202 43.0599 0.0000 0.0000 0.0000
# 3 3.8000 43.0599 82.3189 0.0000 0.0000 0.0000
# 4 0.0000 0.0000 0.0000 17.2674 0.0000 0.0000
# 5 0.0000 0.0000 0.0000 0.0000 -3.3002 0.0000
# 6 0.0000 0.0000 0.0000 0.0000 0.0000 17.0429
#
#
#
# Elastic Compliance Matrix: (Units=1/GPa)
#
#
# Indices 1 2 3 4 5 6 
#
# 1 0.010218 -0.002379 0.000773 0.000000 0.000000 0.000000
# 2 -0.002379 0.007864 -0.004004 0.000000 0.000000 0.000000
# 3 0.000773 -0.004004 0.014207 0.000000 0.000000 0.000000
# 4 0.000000 0.000000 0.000000 0.057913 0.000000 0.000000
# 5 0.000000 0.000000 0.000000 0.000000 -0.303009 0.000000
# 6 0.000000 0.000000 0.000000 0.000000 0.000000 0.058675
#
#
# Mechanical properties :
#
#
# Convention : Reuss Voigt Hill
#
# Bulk Modulus (GPa) = 47.46442 56.49854 51.98148
# Shear Modulus (GPa) = -36.79417 23.96235 -6.41591
#
# Velocity S-wave (km/s) = -4.72436 3.81257 -1.97280
# Velocity P-wave (km/s) = 0.98347 7.32484 5.13254
#
# Compressibility (1/GPa) = 0.02106841
#
# Stress axis : x y z
#
# Youngs Moduli (GPa) = 97.87061 127.16328 70.39031
#
# Poissons Ratio (x) = 0.30248 -0.05438
# Poissons Ratio (y) = 0.23280 0.28182
# Poissons Ratio (z) = -0.07561 0.50912
#
# Static dielectric constant tensor:
#      x y z
#    x 3.449550 0.000000 0.000000 
#    y 0.000000 3.769810 0.000000 
#    z 0.000000 0.000000 2.664750 
# 
# 
# High freq. dielectric constant tensor:
#      x y z
#    x 1.606280 0.000000 0.000000 
#    y 0.000000 1.668640 0.000000 
#    z 0.000000 0.000000 1.573990 
# 
# From -- ./inp_files/23273.got.cif
#   From: 2010.03.12/outbox.cif.g09.slc.cpg/sg49_12_cif.got.tgz:23273.got - 2010.04.14 03:58:27.
