data_PCOD8202220
_publ_section_title
;
Structure prediction by ZEFSAII (Michael W. Deem and Ramdas Pophale) SiO2 
 PCOD8202220
Probable space group: P C C M
;
_chemical_formula_sum "Si O2"
_cell_formula_units_Z 40
_cell_length_a 26.283416
_cell_length_b 9.343940
_cell_length_c 8.587988
_cell_angle_alpha 90.000000
_cell_angle_beta 90.000000
_cell_angle_gamma 90.000000
_cell_volume 2109.129659
_symmetry_space_group_name_H-M "P C C M"
_symmetry_group_IT_number 49
_symmetry_cell_setting 'orthorhombic'
loop_
_space_group_symop_operation_xyz
x,y,z
-x,-y,z
x,-y,1/2-z
-x,y,1/2-z
-x,-y,-z
x,y,-z
-x,y,1/2+z
x,-y,1/2+z
loop_
_atom_site_type_symbol
_atom_site_label
_atom_site_fract_x
_atom_site_fract_y
_atom_site_fract_z
Si Si1 0.051111 0.839826 0.315483
Si Si2 0.743251 0.158178 0.684807
Si Si3 0.153211 0.840330 0.815354
Si Si4 0.446353 0.844325 0.315288
Si Si5 0.352246 0.342704 0.183757
O O1 0.050270 0.840315 0.500000
O O2 0.102551 0.761906 0.252958
O O3 0.000000 0.762214 0.250000
O O4 0.051705 0.000000 0.250000
O O5 0.747634 0.150039 0.500000
O O6 0.794638 0.231648 0.754314
O O7 0.696737 0.255425 0.742615
O O8 0.734188 0.000000 0.750000
O O9 0.154489 0.000000 0.750000
O O10 0.150940 0.839349 0.000000
O O11 0.500000 0.787627 0.250000
O O12 0.449072 0.853686 0.500000
O O13 0.403047 0.736013 0.256284
O O14 0.433114 0.000000 0.250000
O O15 0.350340 0.500000 0.250000
O O16 0.352334 0.350754 0.000000
#
# Coordination Sequence:
#
# PCOD8202220 Si02
#       5
#     8   8   8   8   8
#     4  10  16  23  34  52  81 118 156 197 243 297
#     4  10  19  33  51  73  97 128 167 210 253 301
#     4  10  17  26  40  61  87 120 159 201 246 297
#     4  10  20  36  57  83 108 137 172 210 250 298
#     4  10  23  38  54  76 105 136 171 209 254 303
#
# _framework density 18.965167999999998
#
# number of rings (size 3 to 8) (size 9 to 14) (size 15 to 20)
#    0.000    2.000    0.000    9.000    0.000    3.600 
#    0.000    2.000    0.000    0.000    0.000    0.000 
#    0.000    0.800    0.000    8.400    0.000    8.000 
#
# Total GULP energy -495846.014811 kJ/mol
# GULP energy per Si atom -12396.150370 kJ/mol
# Density = 1.892200 g / cm^3
# Si number density = 18.965168 Si / 1000 Ang^3
#
#
#
# Elastic Constant Matrix: (Units=GPa)
#
#
# Indices 1 2 3 4 5 6 
#
# 1 229.1784 75.2724 70.3640 0.0000 0.0000 0.0000
# 2 75.2724 68.9293 27.6426 0.0000 0.0000 0.0000
# 3 70.3640 27.6426 129.9338 0.0000 0.0000 0.0000
# 4 0.0000 0.0000 0.0000 20.8008 0.0000 0.0000
# 5 0.0000 0.0000 0.0000 0.0000 33.4177 0.0000
# 6 0.0000 0.0000 0.0000 0.0000 0.0000 4.5536
#
#
#
# Elastic Compliance Matrix: (Units=1/GPa)
#
#
# Indices 1 2 3 4 5 6 
#
# 1 0.007496 -0.007170 -0.002534 0.000000 0.000000 0.000000
# 2 -0.007170 0.022719 -0.000950 0.000000 0.000000 0.000000
# 3 -0.002534 -0.000950 0.009271 0.000000 0.000000 0.000000
# 4 0.000000 0.000000 0.000000 0.048075 0.000000 0.000000
# 5 0.000000 0.000000 0.000000 0.000000 0.029924 0.000000
# 6 0.000000 0.000000 0.000000 0.000000 0.000000 0.219606
#
#
# Mechanical properties :
#
#
# Convention : Reuss Voigt Hill
#
# Bulk Modulus (GPa) = 55.01601 86.06661 70.54131
# Shear Modulus (GPa) = 13.71897 28.73858 21.22877
#
# Velocity S-wave (km/s) = 2.69248 3.89695 3.34931
# Velocity P-wave (km/s) = 6.22398 8.10730 7.22725
#
# Compressibility (1/GPa) = 0.01817653
#
# Stress axis : x y z
#
# Youngs Moduli (GPa) = 133.39683 44.01693 107.86548
#
# Poissons Ratio (x) = 0.31560 0.27336
# Poissons Ratio (y) = 0.95645 0.10252
# Poissons Ratio (z) = 0.33806 0.04183
#
# Static dielectric constant tensor:
#      x y z
#    x 5.007500 0.000000 0.000000 
#    y 0.000000 2.926320 0.000000 
#    z 0.000000 0.000000 3.505990 
# 
# 
# High freq. dielectric constant tensor:
#      x y z
#    x 1.774490 0.000000 0.000000 
#    y 0.000000 1.667270 0.000000 
#    z 0.000000 0.000000 1.751300 
# 
# From -- ./inp_files/1934.got.cif
#   From: 2010.03.12/outbox.cif.g09.slc.cpg/sg49_1_cif.got.tgz:1934.got - 2010.04.14 03:58:27.
