data_PCOD8202291
_publ_section_title
;
Structure prediction by ZEFSAII (Michael W. Deem and Ramdas Pophale) SiO2 
 PCOD8202291
Probable space group: P C C M
;
_chemical_formula_sum "Si O2"
_cell_formula_units_Z 64
_cell_length_a 28.487372
_cell_length_b 14.808531
_cell_length_c 8.625025
_cell_angle_alpha 90.000000
_cell_angle_beta 90.000000
_cell_angle_gamma 90.000000
_cell_volume 3638.519679
_symmetry_space_group_name_H-M "P C C M"
_symmetry_group_IT_number 49
_symmetry_cell_setting 'orthorhombic'
loop_
_space_group_symop_operation_xyz
x,y,z
-x,-y,z
x,-y,1/2-z
-x,y,1/2-z
-x,-y,-z
x,y,-z
-x,y,1/2+z
x,-y,1/2+z
loop_
_atom_site_type_symbol
_atom_site_label
_atom_site_fract_x
_atom_site_fract_y
_atom_site_fract_z
Si Si1 0.643061 0.100371 0.184913
Si Si2 0.453089 0.899487 0.315672
Si Si3 0.189749 0.906308 0.183287
Si Si4 0.869667 0.595371 0.816129
Si Si5 0.047904 0.273670 0.182935
Si Si6 0.231858 0.404951 0.316746
Si Si7 0.083677 0.905111 0.183601
Si Si8 0.270860 0.219783 0.316714
O O1 0.594789 0.144294 0.250575
O O2 0.683133 0.168786 0.247132
O O3 0.652532 0.000000 0.250000
O O4 0.640891 0.094597 0.000000
O O5 0.500000 0.849361 0.250000
O O6 0.453467 0.898782 0.500000
O O7 0.453454 0.000000 0.250000
O O8 0.136998 0.887374 0.241675
O O9 0.223931 0.828435 0.247640
O O10 0.209003 0.000000 0.250000
O O11 0.191060 0.912376 0.000000
O O12 0.886822 0.500000 0.750000
O O13 0.907548 0.668599 0.759522
O O14 0.819126 0.621228 0.747880
O O15 0.865819 0.589933 0.000000
O O16 0.051388 0.172588 0.247241
O O17 0.000000 0.316949 0.250000
O O18 0.045107 0.272570 0.000000
O O19 0.250465 0.500000 0.250000
O O20 0.227610 0.413676 0.500000
O O21 0.268282 0.325457 0.267686
O O22 0.065312 0.000000 0.250000
O O23 0.079709 0.905771 0.000000
O O24 0.271426 0.211641 0.500000
#
# Coordination Sequence:
#
# PCOD8202291 Si02
#       8
#     8   8   8   8   8   8   8   8
#     4  10  18  29  43  64  95 131 167 203 240 282
#     4  10  17  27  42  61  86 122 166 209 247 284
#     4   9  17  30  47  69  94 124 157 189 224 269
#     4  10  21  37  57  80 102 125 153 190 233 284
#     4  11  24  39  55  76 100 124 155 191 233 282
#     4  10  19  34  54  75  97 125 160 197 235 281
#     4  10  20  35  55  75  98 127 161 198 235 274
#     4   9  18  30  46  67  96 130 160 190 234 284
#
# _framework density 17.589569999999998
#
# number of rings (size 3 to 8) (size 9 to 14) (size 15 to 20)
#    0.000    2.125    0.000    6.000    0.000    4.000 
#    0.000    6.875    0.000    0.000    0.000    0.000 
#    0.000    0.500    0.000    5.750    0.000    1.750 
#
# Total GULP energy -793442.540843 kJ/mol
# GULP energy per Si atom -12397.539701 kJ/mol
# Density = 1.754954 g / cm^3
# Si number density = 17.589570 Si / 1000 Ang^3
#
#
#
# Elastic Constant Matrix: (Units=GPa)
#
#
# Indices 1 2 3 4 5 6 
#
# 1 98.7907 55.7353 31.1557 0.0000 0.0000 0.0000
# 2 55.7353 100.4707 28.5781 0.0000 0.0000 0.0000
# 3 31.1557 28.5781 77.1259 0.0000 0.0000 0.0000
# 4 0.0000 0.0000 0.0000 19.6004 0.0000 0.0000
# 5 0.0000 0.0000 0.0000 0.0000 13.4057 0.0000
# 6 0.0000 0.0000 0.0000 0.0000 0.0000 15.2154
#
#
#
# Elastic Compliance Matrix: (Units=1/GPa)
#
#
# Indices 1 2 3 4 5 6 
#
# 1 0.015509 -0.007625 -0.003440 0.000000 0.000000 0.000000
# 2 -0.007625 0.014875 -0.002431 0.000000 0.000000 0.000000
# 3 -0.003440 -0.002431 0.015256 0.000000 0.000000 0.000000
# 4 0.000000 0.000000 0.000000 0.051019 0.000000 0.000000
# 5 0.000000 0.000000 0.000000 0.000000 0.074595 0.000000
# 6 0.000000 0.000000 0.000000 0.000000 0.000000 0.065723
#
#
# Mechanical properties :
#
#
# Convention : Reuss Voigt Hill
#
# Bulk Modulus (GPa) = 53.62603 56.36949 54.99776
# Shear Modulus (GPa) = 18.50581 20.37219 19.43900
#
# Velocity S-wave (km/s) = 3.24711 3.40692 3.32798
# Velocity P-wave (km/s) = 6.67921 6.89876 6.78987
#
# Compressibility (1/GPa) = 0.01864766
#
# Stress axis : x y z
#
# Youngs Moduli (GPa) = 64.47820 67.22799 65.54708
#
# Poissons Ratio (x) = 0.51263 0.22546
# Poissons Ratio (y) = 0.49166 0.15937
# Poissons Ratio (z) = 0.22178 0.16346
#
# Static dielectric constant tensor:
#      x y z
#    x 3.797080 0.000000 0.000000 
#    y 0.000000 3.371970 0.000000 
#    z 0.000000 0.000000 3.211800 
# 
# 
# High freq. dielectric constant tensor:
#      x y z
#    x 1.674670 0.000000 0.000000 
#    y 0.000000 1.656580 0.000000 
#    z 0.000000 0.000000 1.683680 
# 
# From -- ./inp_files/7067.got.cif
#   From: 2010.03.12/outbox.cif.g09.slc.cpg/sg49_4_cif.got.tgz:7067.got - 2010.04.14 03:58:27.
