data_PCOD8202379
_publ_section_title
;
Structure prediction by ZEFSAII (Michael W. Deem and Ramdas Pophale) SiO2 
 PCOD8202379
Probable space group: P C C M
;
_chemical_formula_sum "Si O2"
_cell_formula_units_Z 58
_cell_length_a 25.047219
_cell_length_b 14.755086
_cell_length_c 8.859857
_cell_angle_alpha 90.000000
_cell_angle_beta 90.000000
_cell_angle_gamma 90.000000
_cell_volume 3274.371643
_symmetry_space_group_name_H-M "P C C M"
_symmetry_group_IT_number 49
_symmetry_cell_setting 'orthorhombic'
loop_
_space_group_symop_operation_xyz
x,y,z
-x,-y,z
x,-y,1/2-z
-x,y,1/2-z
-x,-y,-z
x,y,-z
-x,y,1/2+z
x,-y,1/2+z
loop_
_atom_site_type_symbol
_atom_site_label
_atom_site_fract_x
_atom_site_fract_y
_atom_site_fract_z
Si Si1 0.297929 0.908514 0.821735
Si Si2 0.753140 0.277370 0.173187
Si Si3 0.052583 0.400037 0.681324
Si Si4 0.553547 0.670269 0.320646
Si Si5 0.660794 0.412971 0.828884
Si Si6 0.160547 0.400858 0.820264
Si Si7 0.413662 0.861808 0.167556
Si Si8 0.500000 0.000000 0.750000
O O1 0.257507 0.826640 0.778446
O O2 0.358231 0.894014 0.754075
O O3 0.274032 0.000000 0.750000
O O4 0.300191 0.920582 0.000000
O O5 0.696173 0.324501 0.192885
O O6 0.794215 0.327334 0.283655
O O7 0.773396 0.284682 0.000000
O O8 0.052350 0.500000 0.750000
O O9 0.051336 0.400043 0.500000
O O10 0.107175 0.357076 0.745258
O O11 0.000000 0.349339 0.750000
O O12 0.500000 0.629284 0.250000
O O13 0.548597 0.671245 0.500000
O O14 0.602204 0.608236 0.263426
O O15 0.563052 0.771781 0.253335
O O16 0.686943 0.500000 0.750000
O O17 0.656221 0.441540 0.000000
O O18 0.173982 0.500000 0.750000
O O19 0.154135 0.411840 0.000000
O O20 0.459854 0.937707 0.153976
O O21 0.396509 0.832668 0.000000
#
# Coordination Sequence:
#
# PCOD8202379 Si02
#       8
#     8   8   8   8   8   8   8   2
#     4  10  20  36  55  74  99 129 162 201 252 312
#     4  10  20  36  55  73  99 135 170 212 262 308
#     4  10  17  28  46  71 106 148 190 227 266 307
#     4  10  20  36  52  68  91 120 150 189 241 299
#     4  10  21  36  54  71  93 123 160 201 249 302
#     4  11  21  33  50  76 109 144 185 227 265 310
#     4  10  19  31  47  70  96 121 146 185 243 304
#     4  12  18  28  52  74  98 112 158 192 248 304
#
# _framework density 17.713321000000001
#
# number of rings (size 3 to 8) (size 9 to 14) (size 15 to 20)
#    0.000    1.793    2.759    4.345    0.000    3.034 
#    0.000    2.069    0.000    0.000    0.000    0.000 
#    0.000    0.552    0.000    5.793    0.000    3.172 
#
# Total GULP energy -718790.440171 kJ/mol
# GULP energy per Si atom -12392.938624 kJ/mol
# Density = 1.767301 g / cm^3
# Si number density = 17.713321 Si / 1000 Ang^3
#
#
#
# Elastic Constant Matrix: (Units=GPa)
#
#
# Indices 1 2 3 4 5 6 
#
# 1 98.4780 31.2804 40.9355 0.0000 0.0000 0.0000
# 2 31.2804 86.9738 30.3740 0.0000 0.0000 0.0000
# 3 40.9355 30.3740 86.1617 0.0000 0.0000 0.0000
# 4 0.0000 0.0000 0.0000 21.6551 0.0000 0.0000
# 5 0.0000 0.0000 0.0000 0.0000 27.1377 0.0000
# 6 0.0000 0.0000 0.0000 0.0000 0.0000 5.3313
#
#
#
# Elastic Compliance Matrix: (Units=1/GPa)
#
#
# Indices 1 2 3 4 5 6 
#
# 1 0.013279 -0.002934 -0.005275 0.000000 0.000000 0.000000
# 2 -0.002934 0.013760 -0.003457 0.000000 0.000000 0.000000
# 3 -0.005275 -0.003457 0.015331 0.000000 0.000000 0.000000
# 4 0.000000 0.000000 0.000000 0.046178 0.000000 0.000000
# 5 0.000000 0.000000 0.000000 0.000000 0.036849 0.000000
# 6 0.000000 0.000000 0.000000 0.000000 0.000000 0.187570
#
#
# Mechanical properties :
#
#
# Convention : Reuss Voigt Hill
#
# Bulk Modulus (GPa) = 52.52331 52.97704 52.75017
# Shear Modulus (GPa) = 14.59239 22.09308 18.34274
#
# Velocity S-wave (km/s) = 2.87332 3.53549 3.22146
# Velocity P-wave (km/s) = 6.38155 6.82929 6.60921
#
# Compressibility (1/GPa) = 0.01903917
#
# Stress axis : x y z
#
# Youngs Moduli (GPa) = 75.30693 72.67381 65.22850
#
# Poissons Ratio (x) = 0.21321 0.34406
# Poissons Ratio (y) = 0.22093 0.22549
# Poissons Ratio (z) = 0.39722 0.25123
#
# Static dielectric constant tensor:
#      x y z
#    x 3.807190 0.000000 0.000000 
#    y 0.000000 3.170100 0.000000 
#    z 0.000000 0.000000 3.099560 
# 
# 
# High freq. dielectric constant tensor:
#      x y z
#    x 1.679350 0.000000 0.000000 
#    y 0.000000 1.660320 0.000000 
#    z 0.000000 0.000000 1.673610 
# 
# From -- ./inp_files/6450.got.cif
#   From: 2010.03.12/outbox.cif.g09.slc.cpg/sg49_4_cif.got.tgz:6450.got - 2010.04.14 03:58:27.
