data_PCOD8202053
_publ_section_title
;
Structure prediction by ZEFSAII (Michael W. Deem and Ramdas Pophale) SiO2 
 PCOD8202053
Probable space group: P N N N
;
_chemical_formula_sum "Si O2"
_cell_formula_units_Z 64
_cell_length_a 23.261483
_cell_length_b 9.105473
_cell_length_c 13.508206
_cell_angle_alpha 90.000000
_cell_angle_beta 90.000000
_cell_angle_gamma 90.000000
_cell_volume 2861.129959
_symmetry_space_group_name_H-M "P N N N"
_symmetry_group_IT_number 48
_space_group.IT_coordinate_system_code '2'
_symmetry_cell_setting 'orthorhombic'
loop_
_space_group_symop_operation_xyz
x,y,z
1/2-x,1/2-y,z
x,1/2-y,1/2-z
1/2-x,y,1/2-z
-x,-y,-z
1/2+x,1/2+y,-z
-x,1/2+y,1/2+z
1/2+x,-y,1/2+z
loop_
_atom_site_type_symbol
_atom_site_label
_atom_site_fract_x
_atom_site_fract_y
_atom_site_fract_z
Si Si1 0.003914 0.643128 0.162986
Si Si2 0.370797 0.112577 0.812671
Si Si3 0.263105 0.917105 0.364984
Si Si4 0.977181 0.160285 0.023379
Si Si5 0.194825 0.597365 0.699467
Si Si6 0.563724 0.663230 0.654314
Si Si7 0.838376 0.975279 0.522417
Si Si8 0.349649 0.820630 0.500041
O O1 0.022520 0.750000 0.250000
O O2 0.034937 0.490306 0.183273
O O3 0.936350 0.619103 0.155049
O O4 0.023285 0.720953 0.063587
O O5 0.348907 0.250000 0.750000
O O6 0.363120 0.983296 0.733474
O O7 0.333040 0.088915 0.911809
O O8 0.250000 0.750000 0.396973
O O9 0.250000 0.944296 0.250000
O O10 0.330370 0.918431 0.401959
O O11 0.223707 0.034287 0.423628
O O12 0.910329 0.131716 0.047089
O O13 0.014602 0.230490 0.110448
O O14 0.000000 0.000000 0.000000
O O15 0.191051 0.750000 0.750000
O O16 0.250000 0.514130 0.750000
O O17 0.197771 0.627876 0.581761
O O18 0.588143 0.750000 0.750000
O O19 0.616198 0.627194 0.580766
O O20 0.855391 0.146878 0.521503
#
# Coordination Sequence:
#
# PCOD8202053 Si02
#       8
#     8   8   8   8   8   8   8   8
#     4  11  24  43  65  99 138 183 229 289 349 425
#     4  11  24  40  65  95 136 179 224 278 355 411
#     4   9  21  40  69 103 136 175 232 290 353 414
#     4  12  26  43  68 102 142 183 240 293 353 434
#     4  11  24  39  66 101 133 174 231 285 341 423
#     4  12  26  43  68 102 140 194 239 287 364 425
#     4  11  21  45  70  97 139 181 228 298 346 426
#     4  11  23  40  72 105 139 182 230 294 360 416
#
# _framework density 22.368784000000002
#
# number of rings (size 3 to 8) (size 9 to 14) (size 15 to 20)
#    0.000    1.000    3.750    2.625    8.750    2.250 
#    0.000    0.000    0.000    4.125    0.000    0.000 
#    0.000    0.000    0.000    0.000    0.000    0.000 
#
# Total GULP energy -792906.402503 kJ/mol
# GULP energy per Si atom -12389.162539 kJ/mol
# Density = 2.231787 g / cm^3
# Si number density = 22.368784 Si / 1000 Ang^3
#
#
#
# Elastic Constant Matrix: (Units=GPa)
#
#
# Indices 1 2 3 4 5 6 
#
# 1 97.3808 40.3985 33.8485 0.0000 0.0000 0.0000
# 2 40.3985 92.4393 46.0062 0.0000 0.0000 0.0000
# 3 33.8485 46.0062 132.4102 0.0000 0.0000 0.0000
# 4 0.0000 0.0000 0.0000 43.3695 0.0000 0.0000
# 5 0.0000 0.0000 0.0000 0.0000 30.8717 0.0000
# 6 0.0000 0.0000 0.0000 0.0000 0.0000 94.9172
#
#
#
# Elastic Compliance Matrix: (Units=1/GPa)
#
#
# Indices 1 2 3 4 5 6 
#
# 1 0.012820 -0.004802 -0.001609 0.000000 0.000000 0.000000
# 2 -0.004802 0.014878 -0.003942 0.000000 0.000000 0.000000
# 3 -0.001609 -0.003942 0.009333 0.000000 0.000000 0.000000
# 4 0.000000 0.000000 0.000000 0.023058 0.000000 0.000000
# 5 0.000000 0.000000 0.000000 0.000000 0.032392 0.000000
# 6 0.000000 0.000000 0.000000 0.000000 0.000000 0.010536
#
#
# Mechanical properties :
#
#
# Convention : Reuss Voigt Hill
#
# Bulk Modulus (GPa) = 61.25133 62.52630 61.88881
# Shear Modulus (GPa) = 38.71013 47.29681 43.00347
#
# Velocity S-wave (km/s) = 4.16449 4.60326 4.38936
# Velocity P-wave (km/s) = 7.11097 7.50110 7.30864
#
# Compressibility (1/GPa) = 0.01632618
#
# Stress axis : x y z
#
# Youngs Moduli (GPa) = 78.00107 67.21123 107.14450
#
# Poissons Ratio (x) = 0.32276 0.17237
# Poissons Ratio (y) = 0.37457 0.42236
# Poissons Ratio (z) = 0.12549 0.26494
#
# Static dielectric constant tensor:
#      x y z
#    x 3.280170 0.000000 0.000000 
#    y 0.000000 3.957660 0.000000 
#    z 0.000000 0.000000 4.191120 
# 
# 
# High freq. dielectric constant tensor:
#      x y z
#    x 1.881910 0.000000 0.000000 
#    y 0.000000 1.870860 0.000000 
#    z 0.000000 0.000000 1.891990 
# 
# From -- ./inp_files/28629.got.cif
#   From: 2010.06.25/outbox.cif.g09.slc.cpg/sg48_15_cif.got.tgz:28629.got - 2010.06.26 18:06:46.
