data_PCOD8202771
_publ_section_title
;
Structure prediction by ZEFSAII (Michael W. Deem and Ramdas Pophale) SiO2 
 PCOD8202771
Probable space group: P C C M
;
_chemical_formula_sum "Si O2"
_cell_formula_units_Z 56
_cell_length_a 21.483362
_cell_length_b 18.227368
_cell_length_c 8.866221
_cell_angle_alpha 90.000000
_cell_angle_beta 90.000000
_cell_angle_gamma 90.000000
_cell_volume 3471.880436
_symmetry_space_group_name_H-M "P C C M"
_symmetry_group_IT_number 49
_symmetry_cell_setting 'orthorhombic'
loop_
_space_group_symop_operation_xyz
x,y,z
-x,-y,z
x,-y,1/2-z
-x,y,1/2-z
-x,-y,-z
x,y,-z
-x,y,1/2+z
x,-y,1/2+z
loop_
_atom_site_type_symbol
_atom_site_label
_atom_site_fract_x
_atom_site_fract_y
_atom_site_fract_z
Si Si1 0.683793 0.577999 0.175783
Si Si2 0.936509 0.922478 0.322816
Si Si3 0.563378 0.331500 0.678532
Si Si4 0.698126 0.921165 0.820957
Si Si5 0.372201 0.203767 0.669422
Si Si6 0.812121 0.158300 0.823550
Si Si7 0.249371 0.300562 0.333618
O O1 0.693077 0.500000 0.250000
O O2 0.618359 0.613196 0.227906
O O3 0.741148 0.631143 0.221686
O O4 0.685873 0.566620 0.000000
O O5 0.946104 0.933763 0.500000
O O6 0.882438 0.864517 0.286537
O O7 0.000000 0.891673 0.250000
O O8 0.918175 0.000000 0.250000
O O9 0.500000 0.363172 0.750000
O O10 0.557601 0.326478 0.500000
O O11 0.575079 0.250237 0.744352
O O12 0.642000 0.870227 0.761078
O O13 0.765666 0.891272 0.773424
O O14 0.687265 0.000000 0.750000
O O15 0.695094 0.925555 0.000000
O O16 0.395184 0.185151 0.500000
O O17 0.310251 0.251043 0.663217
O O18 0.805595 0.245009 0.780976
O O19 0.795579 0.146561 0.000000
O O20 0.235529 0.332541 0.500000
#
# Coordination Sequence:
#
# PCOD8202771 Si02
#       7
#     8   8   8   8   8   8   8
#     4  10  20  32  47  68  94 121 148 178 217 263
#     4  10  19  30  43  61  89 125 163 197 232 269
#     4  10  20  33  49  69  90 117 152 184 216 259
#     4  11  20  29  44  66  90 115 146 186 230 274
#     4   9  17  31  48  65  87 114 144 182 226 268
#     4   9  18  31  46  65  89 119 154 191 229 270
#     4   8  15  29  47  65  87 114 144 180 223 266
#
# _framework density 16.129587999999998
#
# number of rings (size 3 to 8) (size 9 to 14) (size 15 to 20)
#    0.000    2.429    0.000    4.714    0.000    7.714 
#    0.000    1.429    0.000    0.429    0.000    3.000 
#    0.000    0.571    0.000    6.571    0.000    2.000 
#
# Total GULP energy -694283.247362 kJ/mol
# GULP energy per Si atom -12397.915131 kJ/mol
# Density = 1.609288 g / cm^3
# Si number density = 16.129588 Si / 1000 Ang^3
#
#
#
# Elastic Constant Matrix: (Units=GPa)
#
#
# Indices 1 2 3 4 5 6 
#
# 1 60.2449 43.6359 23.4653 0.0000 0.0000 0.0000
# 2 43.6359 117.6474 49.9346 0.0000 0.0000 0.0000
# 3 23.4653 49.9346 89.6282 0.0000 0.0000 0.0000
# 4 0.0000 0.0000 0.0000 25.9464 0.0000 0.0000
# 5 0.0000 0.0000 0.0000 0.0000 18.2429 0.0000
# 6 0.0000 0.0000 0.0000 0.0000 0.0000 19.3607
#
#
#
# Elastic Compliance Matrix: (Units=1/GPa)
#
#
# Indices 1 2 3 4 5 6 
#
# 1 0.022882 -0.007785 -0.001653 0.000000 0.000000 0.000000
# 2 -0.007785 0.013781 -0.005640 0.000000 0.000000 0.000000
# 3 -0.001653 -0.005640 0.014732 0.000000 0.000000 0.000000
# 4 0.000000 0.000000 0.000000 0.038541 0.000000 0.000000
# 5 0.000000 0.000000 0.000000 0.000000 0.054816 0.000000
# 6 0.000000 0.000000 0.000000 0.000000 0.000000 0.051651
#
#
# Mechanical properties :
#
#
# Convention : Reuss Voigt Hill
#
# Bulk Modulus (GPa) = 47.08372 55.73243 51.40807
# Shear Modulus (GPa) = 21.40052 22.74231 22.07142
#
# Velocity S-wave (km/s) = 3.64646 3.75904 3.70318
# Velocity P-wave (km/s) = 6.85443 7.31221 7.08702
#
# Compressibility (1/GPa) = 0.02123876
#
# Stress axis : x y z
#
# Youngs Moduli (GPa) = 43.70292 72.56207 67.87904
#
# Poissons Ratio (x) = 0.56491 0.11222
# Poissons Ratio (y) = 0.34024 0.38282
# Poissons Ratio (z) = 0.07225 0.40923
#
# Static dielectric constant tensor:
#      x y z
#    x 2.996040 0.000000 0.000000 
#    y 0.000000 3.121900 0.000000 
#    z 0.000000 0.000000 3.194780 
# 
# 
# High freq. dielectric constant tensor:
#      x y z
#    x 1.587910 0.000000 0.000000 
#    y 0.000000 1.608440 0.000000 
#    z 0.000000 0.000000 1.634630 
# 
# From -- ./inp_files/5888.got.cif
#   From: 2010.03.12/outbox.cif.g09.slc.cpg/sg49_3_cif.got.tgz:5888.got - 2010.04.14 03:58:27.
