data_PCOD8202465
_publ_section_title
;
Structure prediction by ZEFSAII (Michael W. Deem and Ramdas Pophale) SiO2 
 PCOD8202465
Probable space group: P C C M
;
_chemical_formula_sum "Si O2"
_cell_formula_units_Z 64
_cell_length_a 23.604479
_cell_length_b 19.252704
_cell_length_c 8.795607
_cell_angle_alpha 90.000000
_cell_angle_beta 90.000000
_cell_angle_gamma 90.000000
_cell_volume 3997.164017
_symmetry_space_group_name_H-M "P C C M"
_symmetry_group_IT_number 49
_symmetry_cell_setting 'orthorhombic'
loop_
_space_group_symop_operation_xyz
x,y,z
-x,-y,z
x,-y,1/2-z
-x,y,1/2-z
-x,-y,-z
x,y,-z
-x,y,1/2+z
x,-y,1/2+z
loop_
_atom_site_type_symbol
_atom_site_label
_atom_site_fract_x
_atom_site_fract_y
_atom_site_fract_z
Si Si1 0.755446 0.069651 0.177656
Si Si2 0.441815 0.575297 0.818638
Si Si3 0.886879 0.928611 0.320694
Si Si4 0.779540 0.427710 0.823274
Si Si5 0.330068 0.349209 0.319151
Si Si6 0.940101 0.792439 0.179729
Si Si7 0.730473 0.217314 0.819426
Si Si8 0.844073 0.708406 0.677359
O O1 0.820954 0.078967 0.221964
O O2 0.722174 0.138188 0.240106
O O3 0.729302 0.000000 0.250000
O O4 0.747548 0.061961 0.000000
O O5 0.429651 0.500000 0.750000
O O6 0.500000 0.605905 0.750000
O O7 0.391369 0.625606 0.762853
O O8 0.446067 0.570075 0.000000
O O9 0.896950 0.928589 0.500000
O O10 0.920378 0.865448 0.247754
O O11 0.910816 0.000000 0.250000
O O12 0.797413 0.500000 0.750000
O O13 0.719570 0.399599 0.756058
O O14 0.829425 0.372279 0.792047
O O15 0.771695 0.440471 0.000000
O O16 0.327119 0.350223 0.500000
O O17 0.318546 0.270064 0.260357
O O18 0.897839 0.730078 0.223607
O O19 0.000000 0.771840 0.250000
O O20 0.944666 0.799001 0.000000
O O21 0.791398 0.245196 0.766321
O O22 0.730382 0.216855 0.000000
O O23 0.856850 0.722153 0.500000
#
# Coordination Sequence:
#
# PCOD8202465 Si02
#       8
#     8   8   8   8   8   8   8   8
#     4   9  16  26  44  65  89 119 145 175 213 262
#     4  10  18  28  42  61  88 125 162 195 223 259
#     4  10  19  33  50  70  93 120 150 183 220 263
#     4   9  17  29  49  72  95 119 145 182 225 271
#     4   8  15  26  43  66  90 120 158 190 219 261
#     4  12  24  36  51  69  89 116 149 187 224 268
#     4   8  13  26  46  65  86 116 149 181 220 264
#     4   9  17  33  51  67  89 117 146 178 222 272
#
# _framework density 16.011351000000001
#
# number of rings (size 3 to 8) (size 9 to 14) (size 15 to 20)
#    0.000    2.625    1.250    4.125    0.000    1.250 
#    0.000    1.875    0.000    3.375    0.000    2.625 
#    0.000    0.500    0.000    6.250    0.000    0.000 
#
# Total GULP energy -793254.251040 kJ/mol
# GULP energy per Si atom -12394.597673 kJ/mol
# Density = 1.597491 g / cm^3
# Si number density = 16.011351 Si / 1000 Ang^3
#
#
#
# Elastic Constant Matrix: (Units=GPa)
#
#
# Indices 1 2 3 4 5 6 
#
# 1 94.5082 63.1350 34.5341 0.0000 0.0000 0.0000
# 2 63.1350 137.1129 32.8280 0.0000 0.0000 0.0000
# 3 34.5341 32.8280 52.7532 0.0000 0.0000 0.0000
# 4 0.0000 0.0000 0.0000 25.0372 0.0000 0.0000
# 5 0.0000 0.0000 0.0000 0.0000 11.2807 0.0000
# 6 0.0000 0.0000 0.0000 0.0000 0.0000 25.7039
#
#
#
# Elastic Compliance Matrix: (Units=1/GPa)
#
#
# Indices 1 2 3 4 5 6 
#
# 1 0.017532 -0.006257 -0.007583 0.000000 0.000000 0.000000
# 2 -0.006257 0.010803 -0.002627 0.000000 0.000000 0.000000
# 3 -0.007583 -0.002627 0.025555 0.000000 0.000000 0.000000
# 4 0.000000 0.000000 0.000000 0.039940 0.000000 0.000000
# 5 0.000000 0.000000 0.000000 0.000000 0.088647 0.000000
# 6 0.000000 0.000000 0.000000 0.000000 0.000000 0.038905
#
#
# Mechanical properties :
#
#
# Convention : Reuss Voigt Hill
#
# Bulk Modulus (GPa) = 47.71871 60.59650 54.15760
# Shear Modulus (GPa) = 19.13492 22.66286 20.89889
#
# Velocity S-wave (km/s) = 3.46075 3.76629 3.61675
# Velocity P-wave (km/s) = 6.77029 7.53932 7.16513
#
# Compressibility (1/GPa) = 0.02095614
#
# Stress axis : x y z
#
# Youngs Moduli (GPa) = 57.03794 92.56388 39.13112
#
# Poissons Ratio (x) = 0.57919 0.29675
# Poissons Ratio (y) = 0.35690 0.10278
# Poissons Ratio (z) = 0.43254 0.24313
#
# Static dielectric constant tensor:
#      x y z
#    x 3.006020 0.000000 0.000000 
#    y 0.000000 3.358530 0.000000 
#    z 0.000000 0.000000 2.859420 
# 
# 
# High freq. dielectric constant tensor:
#      x y z
#    x 1.582940 0.000000 0.000000 
#    y 0.000000 1.619440 0.000000 
#    z 0.000000 0.000000 1.600140 
# 
# From -- ./inp_files/6093.got.cif
#   From: 2010.03.12/outbox.cif.g09.slc.cpg/sg49_4_cif.got.tgz:6093.got - 2010.04.14 03:58:27.
