data_PCOD8202642
_publ_section_title
;
Structure prediction by ZEFSAII (Michael W. Deem and Ramdas Pophale) SiO2 
 PCOD8202642
Probable space group: P C C M
;
_chemical_formula_sum "Si O2"
_cell_formula_units_Z 56
_cell_length_a 15.573481
_cell_length_b 19.617009
_cell_length_c 9.027086
_cell_angle_alpha 90.000000
_cell_angle_beta 90.000000
_cell_angle_gamma 90.000000
_cell_volume 2757.820964
_symmetry_space_group_name_H-M "P C C M"
_symmetry_group_IT_number 49
_symmetry_cell_setting 'orthorhombic'
loop_
_space_group_symop_operation_xyz
x,y,z
-x,-y,z
x,-y,1/2-z
-x,y,1/2-z
-x,-y,-z
x,y,-z
-x,y,1/2+z
x,-y,1/2+z
loop_
_atom_site_type_symbol
_atom_site_label
_atom_site_fract_x
_atom_site_fract_y
_atom_site_fract_z
Si Si1 0.657609 0.212936 0.822239
Si Si2 0.584982 0.341901 0.676004
Si Si3 0.162378 0.200827 0.172165
Si Si4 0.914486 0.343626 0.330260
Si Si5 0.351200 0.063800 0.662927
Si Si6 0.751349 0.427376 0.325097
Si Si7 0.853436 0.933924 0.667007
O O1 0.595159 0.267515 0.748595
O O2 0.752358 0.223287 0.757763
O O3 0.622077 0.138004 0.774164
O O4 0.661182 0.220033 0.000000
O O5 0.500000 0.374753 0.750000
O O6 0.575015 0.335122 0.500000
O O7 0.664566 0.388956 0.721763
O O8 0.095940 0.262605 0.190357
O O9 0.119112 0.133750 0.243337
O O10 0.184749 0.187278 0.000000
O O11 0.925456 0.363277 0.500000
O O12 0.831834 0.383384 0.265986
O O13 0.000000 0.369166 0.250000
O O14 0.388524 0.055578 0.500000
O O15 0.248647 0.060712 0.663419
O O16 0.391317 0.000000 0.750000
O O17 0.753098 0.500000 0.250000
O O18 0.754914 0.436547 0.500000
O O19 0.890294 0.930220 0.500000
O O20 0.892433 0.000000 0.750000
#
# Coordination Sequence:
#
# PCOD8202642 Si02
#       7
#     8   8   8   8   8   8   8
#     4  10  19  32  53  82 114 153 202 247 296 356
#     4  11  23  41  63  90 124 158 199 245 295 354
#     4  10  18  32  53  78 114 155 196 249 303 353
#     4  10  22  40  61  89 123 159 201 245 296 354
#     4   8  15  25  40  68 105 143 189 240 287 344
#     4  10  23  44  66  92 125 158 195 239 292 353
#     4   9  16  26  42  71 107 147 197 247 300 359
#
# _framework density 20.305886000000001
#
# number of rings (size 3 to 8) (size 9 to 14) (size 15 to 20)
#    0.000    2.286    1.429    2.571    0.000    7.429 
#    0.000    2.857    0.000    0.857    0.000    6.000 
#    0.000    0.000    0.000    0.000    0.000    0.000 
#
# Total GULP energy -694312.011292 kJ/mol
# GULP energy per Si atom -12398.428773 kJ/mol
# Density = 2.025967 g / cm^3
# Si number density = 20.305886 Si / 1000 Ang^3
#
#
#
# Elastic Constant Matrix: (Units=GPa)
#
#
# Indices 1 2 3 4 5 6 
#
# 1 106.5303 53.4804 45.6075 0.0000 0.0000 0.0000
# 2 53.4804 144.2443 58.3906 0.0000 0.0000 0.0000
# 3 45.6075 58.3906 99.3636 0.0000 0.0000 0.0000
# 4 0.0000 0.0000 0.0000 39.6455 0.0000 0.0000
# 5 0.0000 0.0000 0.0000 0.0000 21.5424 0.0000
# 6 0.0000 0.0000 0.0000 0.0000 0.0000 6.6025
#
#
#
# Elastic Compliance Matrix: (Units=1/GPa)
#
#
# Indices 1 2 3 4 5 6 
#
# 1 0.012639 -0.003067 -0.003999 0.000000 0.000000 0.000000
# 2 -0.003067 0.009841 -0.004375 0.000000 0.000000 0.000000
# 3 -0.003999 -0.004375 0.014470 0.000000 0.000000 0.000000
# 4 0.000000 0.000000 0.000000 0.025224 0.000000 0.000000
# 5 0.000000 0.000000 0.000000 0.000000 0.046420 0.000000
# 6 0.000000 0.000000 0.000000 0.000000 0.000000 0.151459
#
#
# Mechanical properties :
#
#
# Convention : Reuss Voigt Hill
#
# Bulk Modulus (GPa) = 71.08330 73.89946 72.49138
# Shear Modulus (GPa) = 17.38381 26.40206 21.89293
#
# Velocity S-wave (km/s) = 2.92909 3.60976 3.28709
# Velocity P-wave (km/s) = 6.82068 7.33798 7.08405
#
# Compressibility (1/GPa) = 0.01406800
#
# Stress axis : x y z
#
# Youngs Moduli (GPa) = 79.12182 101.61573 69.10638
#
# Poissons Ratio (x) = 0.31169 0.27633
# Poissons Ratio (y) = 0.24269 0.30235
# Poissons Ratio (z) = 0.31638 0.44458
#
# Static dielectric constant tensor:
#      x y z
#    x 3.392980 0.000000 0.000000 
#    y 0.000000 3.820110 0.000000 
#    z 0.000000 0.000000 3.736330 
# 
# 
# High freq. dielectric constant tensor:
#      x y z
#    x 1.766620 0.000000 0.000000 
#    y 0.000000 1.798980 0.000000 
#    z 0.000000 0.000000 1.795230 
# 
# From -- ./inp_files/4051.got.cif
#   From: 2010.03.12/outbox.cif.g09.slc.cpg/sg49_3_cif.got.tgz:4051.got - 2010.04.14 03:58:27.
