data_PCOD8202649
_publ_section_title
;
Structure prediction by ZEFSAII (Michael W. Deem and Ramdas Pophale) SiO2 
 PCOD8202649
Probable space group: P C C M
;
_chemical_formula_sum "Si O2"
_cell_formula_units_Z 56
_cell_length_a 12.663879
_cell_length_b 12.660875
_cell_length_c 17.832584
_cell_angle_alpha 90.000000
_cell_angle_beta 90.000000
_cell_angle_gamma 90.000000
_cell_volume 2859.201426
_symmetry_space_group_name_H-M "P C C M"
_symmetry_group_IT_number 49
_symmetry_cell_setting 'orthorhombic'
loop_
_space_group_symop_operation_xyz
x,y,z
-x,-y,z
x,-y,1/2-z
-x,y,1/2-z
-x,-y,-z
x,y,-z
-x,y,1/2+z
x,-y,1/2+z
loop_
_atom_site_type_symbol
_atom_site_label
_atom_site_fract_x
_atom_site_fract_y
_atom_site_fract_z
Si Si1 0.796304 0.009139 0.338579
Si Si2 0.513775 0.304144 0.587638
Si Si3 0.889662 0.226211 0.339953
Si Si4 0.593452 0.920244 0.917400
Si Si5 0.698261 0.628842 0.330806
Si Si6 0.876595 0.214790 0.161708
Si Si7 0.713132 0.610965 0.158642
O O1 0.859129 0.110239 0.370656
O O2 0.675905 0.024011 0.362754
O O3 0.800115 0.000000 0.250000
O O4 0.847702 0.901443 0.370217
O O5 0.486599 0.303278 0.500000
O O6 0.547647 0.188226 0.617194
O O7 0.413059 0.348514 0.630968
O O8 0.613019 0.379032 0.604122
O O9 0.882295 0.219775 0.250909
O O10 0.810989 0.317183 0.370575
O O11 0.008322 0.250208 0.368810
O O12 0.500000 0.000000 0.926912
O O13 0.643442 0.897837 0.000000
O O14 0.786260 0.705700 0.366453
O O15 0.681658 0.647594 0.242277
O O16 0.743765 0.511758 0.344625
#
# Coordination Sequence:
#
# PCOD8202649 Si02
#       7
#     8   8   8   8   8   8   8
#     4  10  18  32  54  81 107 137 176 221 265 317
#     4  11  22  37  57  78 107 146 184 224 271 324
#     4   9  17  32  53  81 111 138 178 221 266 322
#     4  10  21  36  52  75 109 144 177 220 269 318
#     4  10  21  35  54  80 111 142 180 227 273 315
#     4   9  18  31  53  82 109 141 175 219 272 319
#     4  10  20  36  55  79 110 143 179 228 271 316
#
# _framework density 19.585887
#
# number of rings (size 3 to 8) (size 9 to 14) (size 15 to 20)
#    0.000    2.143    1.429    2.143    0.000    4.857 
#    2.571    2.857    0.000    4.286    0.000    2.000 
#    0.000    0.000    0.000    0.000    0.000    0.000 
#
# Total GULP energy -694251.444387 kJ/mol
# GULP energy per Si atom -12397.347221 kJ/mol
# Density = 1.954131 g / cm^3
# Si number density = 19.585887 Si / 1000 Ang^3
#
#
#
# Elastic Constant Matrix: (Units=GPa)
#
#
# Indices 1 2 3 4 5 6 
#
# 1 151.8072 70.6711 19.0323 0.0000 0.0000 0.0000
# 2 70.6711 130.1094 19.1927 0.0000 0.0000 0.0000
# 3 19.0323 19.1927 20.2243 0.0000 0.0000 0.0000
# 4 0.0000 0.0000 0.0000 18.5459 0.0000 0.0000
# 5 0.0000 0.0000 0.0000 0.0000 4.9368 0.0000
# 6 0.0000 0.0000 0.0000 0.0000 0.0000 25.7084
#
#
#
# Elastic Compliance Matrix: (Units=1/GPa)
#
#
# Indices 1 2 3 4 5 6 
#
# 1 0.009161 -0.004307 -0.004533 0.000000 0.000000 0.000000
# 2 -0.004307 0.010962 -0.006350 0.000000 0.000000 0.000000
# 3 -0.004533 -0.006350 0.059737 0.000000 0.000000 0.000000
# 4 0.000000 0.000000 0.000000 0.053920 0.000000 0.000000
# 5 0.000000 0.000000 0.000000 0.000000 0.202561 0.000000
# 6 0.000000 0.000000 0.000000 0.000000 0.000000 0.038898
#
#
# Mechanical properties :
#
#
# Convention : Reuss Voigt Hill
#
# Bulk Modulus (GPa) = 20.21025 57.77035 38.99030
# Shear Modulus (GPa) = 11.84518 22.72119 17.28319
#
# Velocity S-wave (km/s) = 2.46190 3.40969 2.97380
# Velocity P-wave (km/s) = 4.29214 6.71277 5.63399
#
# Compressibility (1/GPa) = 0.04947984
#
# Stress axis : x y z
#
# Youngs Moduli (GPa) = 109.16138 91.22470 16.73996
#
# Poissons Ratio (x) = 0.39291 0.07589
# Poissons Ratio (y) = 0.47017 0.10629
# Poissons Ratio (z) = 0.49487 0.57924
#
# Static dielectric constant tensor:
#      x y z
#    x 3.683460 0.000000 0.000000 
#    y 0.000000 3.875410 0.000000 
#    z 0.000000 0.000000 3.298070 
# 
# 
# High freq. dielectric constant tensor:
#      x y z
#    x 1.767540 0.000000 0.000000 
#    y 0.000000 1.777070 0.000000 
#    z 0.000000 0.000000 1.718090 
# 
# From -- ./inp_files/20489.got.cif
#   From: 2010.03.12/outbox.cif.g09.slc.cpg/sg49_11_cif.got.tgz:20489.got - 2010.04.14 03:58:27.
