data_PCOD8202364
_publ_section_title
;
Structure prediction by ZEFSAII (Michael W. Deem and Ramdas Pophale) SiO2 
 PCOD8202364
Probable space group: P C C M
;
_chemical_formula_sum "Si O2"
_cell_formula_units_Z 64
_cell_length_a 14.123819
_cell_length_b 28.493660
_cell_length_c 8.700375
_cell_angle_alpha 90.000000
_cell_angle_beta 90.000000
_cell_angle_gamma 90.000000
_cell_volume 3501.372794
_symmetry_space_group_name_H-M "P C C M"
_symmetry_group_IT_number 49
_symmetry_cell_setting 'orthorhombic'
loop_
_space_group_symop_operation_xyz
x,y,z
-x,-y,z
x,-y,1/2-z
-x,y,1/2-z
-x,-y,-z
x,y,-z
-x,y,1/2+z
x,-y,1/2+z
loop_
_atom_site_type_symbol
_atom_site_label
_atom_site_fract_x
_atom_site_fract_y
_atom_site_fract_z
Si Si1 0.723440 0.048686 0.318555
Si Si2 0.776513 0.811712 0.680233
Si Si3 0.099072 0.627845 0.675796
Si Si4 0.779511 0.449296 0.820009
Si Si5 0.395870 0.138485 0.818804
Si Si6 0.591735 0.448025 0.681302
Si Si7 0.896397 0.267906 0.676275
Si Si8 0.103867 0.098147 0.319224
O O1 0.732064 0.045382 0.500000
O O2 0.647967 0.088372 0.268282
O O3 0.827466 0.058651 0.250371
O O4 0.685033 0.000000 0.250000
O O5 0.758851 0.809784 0.500000
O O6 0.674873 0.821061 0.758779
O O7 0.818219 0.762741 0.737602
O O8 0.852942 0.851381 0.725343
O O9 0.095107 0.609563 0.500000
O O10 0.139873 0.587747 0.785270
O O11 0.147027 0.679174 0.684887
O O12 0.000000 0.638197 0.750000
O O13 0.805118 0.500000 0.750000
O O14 0.688136 0.424785 0.740146
O O15 0.762928 0.455892 0.000000
O O16 0.500000 0.144907 0.750000
O O17 0.403724 0.142873 0.000000
O O18 0.593815 0.500000 0.750000
O O19 0.500000 0.421136 0.750000
O O20 0.586402 0.449010 0.500000
O O21 0.906075 0.251732 0.500000
O O22 0.000000 0.262060 0.750000
O O23 0.097746 0.090725 0.500000
O O24 0.000000 0.093137 0.250000
#
# Coordination Sequence:
#
# PCOD8202364 Si02
#       8
#     8   8   8   8   8   8   8   8
#     4  10  21  36  53  74 102 137 177 221 263 310
#     4  10  20  34  55  81 108 136 170 212 259 311
#     4  10  21  37  54  76 105 139 177 217 258 305
#     4  11  21  34  52  75 103 138 178 220 264 311
#     4  10  21  37  57  80 107 138 175 218 265 313
#     4  10  17  28  46  70  98 127 162 205 251 299
#     4  10  20  34  55  81 110 140 172 210 256 309
#     4  10  20  33  50  74 104 137 172 213 258 309
#
# _framework density 18.278545000000001
#
# number of rings (size 3 to 8) (size 9 to 14) (size 15 to 20)
#    0.000    1.875    0.000    6.000    0.000    6.250 
#    0.000    3.750    0.000    0.750    0.000    0.000 
#    0.000    0.000    0.000    0.000    0.000    0.000 
#
# Total GULP energy -793461.772615 kJ/mol
# GULP energy per Si atom -12397.840197 kJ/mol
# Density = 1.823694 g / cm^3
# Si number density = 18.278545 Si / 1000 Ang^3
#
#
#
# Elastic Constant Matrix: (Units=GPa)
#
#
# Indices 1 2 3 4 5 6 
#
# 1 108.5631 43.1350 37.8401 0.0000 0.0000 0.0000
# 2 43.1350 82.6799 32.5403 0.0000 0.0000 0.0000
# 3 37.8401 32.5403 115.0339 0.0000 0.0000 0.0000
# 4 0.0000 0.0000 0.0000 40.0245 0.0000 0.0000
# 5 0.0000 0.0000 0.0000 0.0000 33.5860 0.0000
# 6 0.0000 0.0000 0.0000 0.0000 0.0000 19.4533
#
#
#
# Elastic Compliance Matrix: (Units=1/GPa)
#
#
# Indices 1 2 3 4 5 6 
#
# 1 0.012225 -0.005396 -0.002495 0.000000 0.000000 0.000000
# 2 -0.005396 0.015992 -0.002749 0.000000 0.000000 0.000000
# 3 -0.002495 -0.002749 0.010291 0.000000 0.000000 0.000000
# 4 0.000000 0.000000 0.000000 0.024985 0.000000 0.000000
# 5 0.000000 0.000000 0.000000 0.000000 0.029774 0.000000
# 6 0.000000 0.000000 0.000000 0.000000 0.000000 0.051405
#
#
# Mechanical properties :
#
#
# Convention : Reuss Voigt Hill
#
# Bulk Modulus (GPa) = 58.04238 59.25640 58.64939
# Shear Modulus (GPa) = 29.12155 31.46352 30.29253
#
# Velocity S-wave (km/s) = 3.99583 4.15340 4.07538
# Velocity P-wave (km/s) = 7.28781 7.44915 7.36893
#
# Compressibility (1/GPa) = 0.01722879
#
# Stress axis : x y z
#
# Youngs Moduli (GPa) = 81.80105 62.53229 97.16906
#
# Poissons Ratio (x) = 0.33742 0.24243
# Poissons Ratio (y) = 0.44139 0.26709
# Poissons Ratio (z) = 0.20409 0.17188
#
# Static dielectric constant tensor:
#      x y z
#    x 3.697540 0.000000 0.000000 
#    y 0.000000 3.254750 0.000000 
#    z 0.000000 0.000000 3.489310 
# 
# 
# High freq. dielectric constant tensor:
#      x y z
#    x 1.705840 0.000000 0.000000 
#    y 0.000000 1.686650 0.000000 
#    z 0.000000 0.000000 1.730190 
# 
# From -- ./inp_files/3104.got.cif
#   From: 2010.03.12/outbox.cif.g09.slc.cpg/sg49_2_cif.got.tgz:3104.got - 2010.04.14 03:58:27.
