data_PCOD8202580
_publ_section_title
;
Structure prediction by ZEFSAII (Michael W. Deem and Ramdas Pophale) SiO2 
 PCOD8202580
Probable space group: P C C M
;
_chemical_formula_sum "Si O2"
_cell_formula_units_Z 40
_cell_length_a 8.886917
_cell_length_b 21.055776
_cell_length_c 10.458393
_cell_angle_alpha 90.000000
_cell_angle_beta 90.000000
_cell_angle_gamma 90.000000
_cell_volume 1956.984263
_symmetry_space_group_name_H-M "P C C M"
_symmetry_group_IT_number 49
_symmetry_cell_setting 'orthorhombic'
loop_
_space_group_symop_operation_xyz
x,y,z
-x,-y,z
x,-y,1/2-z
-x,y,1/2-z
-x,-y,-z
x,y,-z
-x,y,1/2+z
x,-y,1/2+z
loop_
_atom_site_type_symbol
_atom_site_label
_atom_site_fract_x
_atom_site_fract_y
_atom_site_fract_z
Si Si1 0.754404 0.774364 0.643122
Si Si2 0.500000 0.142945 0.250000
Si Si3 0.255396 0.054018 0.856482
Si Si4 0.000000 0.136290 0.750000
Si Si5 0.179809 0.574155 0.500000
Si Si6 0.821287 0.430826 0.000000
Si Si7 0.820950 0.643709 0.252638
O O1 0.763204 0.746897 0.500000
O O2 0.601423 0.813144 0.659982
O O3 0.758890 0.715451 0.741100
O O4 0.896068 0.820402 0.661378
O O5 0.397548 0.100294 0.157786
O O6 0.100504 0.092398 0.841861
O O7 0.266239 0.000000 0.750000
O O8 0.259319 0.024714 0.000000
O O9 0.242118 0.502470 0.500000
O O10 0.241315 0.611165 0.375881
O O11 0.000716 0.571008 0.500000
O O12 0.760372 0.396356 0.873123
O O13 0.000000 0.645816 0.250000
#
# Coordination Sequence:
#
# PCOD8202580 Si02
#       7
#     8   4   8   4   4   4   8
#     4  11  21  39  60  85 122 160 203 250 296 356
#     4  10  25  42  60  88 117 162 206 248 294 346
#     4  11  24  43  66  93 122 155 197 245 298 358
#     4  10  23  38  62  94 123 156 192 244 302 358
#     4   9  18  28  46  79 123 153 190 242 297 354
#     4   9  16  30  48  77 117 159 194 236 295 356
#     4  10  18  30  52  83 115 156 195 242 299 352
#
# _framework density 20.439612
#
# number of rings (size 3 to 8) (size 9 to 14) (size 15 to 20)
#    0.000    1.800    2.000    2.400    0.000    8.800 
#    9.000    0.000    0.000    0.000    0.000    4.200 
#    0.000    0.000    0.000    0.000    0.000    0.000 
#
# Total GULP energy -496089.022082 kJ/mol
# GULP energy per Si atom -12402.225552 kJ/mol
# Density = 2.039309 g / cm^3
# Si number density = 20.439612 Si / 1000 Ang^3
#
#
#
# Elastic Constant Matrix: (Units=GPa)
#
#
# Indices 1 2 3 4 5 6 
#
# 1 85.1710 40.8425 32.6564 0.0000 0.0000 0.0000
# 2 40.8425 152.2760 77.8645 0.0000 0.0000 0.0000
# 3 32.6564 77.8645 176.6355 0.0000 0.0000 0.0000
# 4 0.0000 0.0000 0.0000 40.3829 0.0000 0.0000
# 5 0.0000 0.0000 0.0000 0.0000 8.1296 0.0000
# 6 0.0000 0.0000 0.0000 0.0000 0.0000 -52.4588
#
#
#
# Elastic Compliance Matrix: (Units=1/GPa)
#
#
# Indices 1 2 3 4 5 6 
#
# 1 0.013661 -0.003063 -0.001175 0.000000 0.000000 0.000000
# 2 -0.003063 0.009165 -0.003474 0.000000 0.000000 0.000000
# 3 -0.001175 -0.003474 0.007410 0.000000 0.000000 0.000000
# 4 0.000000 0.000000 0.000000 0.024763 0.000000 0.000000
# 5 0.000000 0.000000 0.000000 0.000000 0.123007 0.000000
# 6 0.000000 0.000000 0.000000 0.000000 0.000000 -0.019063
#
#
# Mechanical properties :
#
#
# Convention : Reuss Voigt Hill
#
# Bulk Modulus (GPa) = 67.51641 79.64548 73.58094
# Shear Modulus (GPa) = 27.88556 16.72535 22.30545
#
# Velocity S-wave (km/s) = 3.69764 2.86366 3.30704
# Velocity P-wave (km/s) = 7.16477 7.07000 7.11754
#
# Compressibility (1/GPa) = 0.01481121
#
# Stress axis : x y z
#
# Youngs Moduli (GPa) = 73.20361 109.11303 134.95320
#
# Poissons Ratio (x) = 0.33421 0.15862
# Poissons Ratio (y) = 0.22422 0.46879
# Poissons Ratio (z) = 0.08604 0.37903
#
# Static dielectric constant tensor:
#      x y z
#    x 3.398520 0.000000 0.000000 
#    y 0.000000 3.814990 0.000000 
#    z 0.000000 0.000000 3.620070 
# 
# 
# High freq. dielectric constant tensor:
#      x y z
#    x 1.767720 0.000000 0.000000 
#    y 0.000000 1.811120 0.000000 
#    z 0.000000 0.000000 1.801650 
# 
# From -- ./inp_files/8219.got.cif
#   From: 2010.03.12/outbox.cif.g09.slc.cpg/sg49_5_cif.got.tgz:8219.got - 2010.04.14 03:58:27.
