data_PCOD8202639
_publ_section_title
;
Structure prediction by ZEFSAII (Michael W. Deem and Ramdas Pophale) SiO2 
 PCOD8202639
Probable space group: P C C M
;
_chemical_formula_sum "Si O2"
_cell_formula_units_Z 64
_cell_length_a 8.820983
_cell_length_b 14.013910
_cell_length_c 29.368639
_cell_angle_alpha 90.000000
_cell_angle_beta 90.000000
_cell_angle_gamma 90.000000
_cell_volume 3630.447243
_symmetry_space_group_name_H-M "P C C M"
_symmetry_group_IT_number 49
_symmetry_cell_setting 'orthorhombic'
loop_
_space_group_symop_operation_xyz
x,y,z
-x,-y,z
x,-y,1/2-z
-x,y,1/2-z
-x,-y,-z
x,y,-z
-x,y,1/2+z
x,-y,1/2+z
loop_
_atom_site_type_symbol
_atom_site_label
_atom_site_fract_x
_atom_site_fract_y
_atom_site_fract_z
Si Si1 0.449969 0.397984 0.864903
Si Si2 0.470314 0.105001 0.646688
Si Si3 0.720540 0.105238 0.233087
Si Si4 0.044715 0.761466 0.798964
Si Si5 0.713661 0.231032 0.679916
Si Si6 0.734683 0.268866 0.125220
Si Si7 0.767589 0.560746 0.947948
Si Si8 0.913659 0.642251 0.551131
O O1 0.500000 0.500000 0.843854
O O2 0.352855 0.338541 0.827236
O O3 0.601594 0.344019 0.878348
O O4 0.361599 0.411648 0.912382
O O5 0.423129 0.099164 0.699722
O O6 0.628317 0.163090 0.643458
O O7 0.334574 0.161775 0.621912
O O8 0.500000 0.000000 0.625745
O O9 0.880436 0.134743 0.209829
O O10 0.683622 0.187966 0.269934
O O11 0.751582 0.000000 0.250000
O O12 0.172769 0.706041 0.828150
O O13 0.000000 0.712041 0.750000
O O14 0.893518 0.770305 0.829626
O O15 0.849512 0.275387 0.083337
O O16 0.830064 0.456193 0.936894
O O17 0.906382 0.634056 0.941778
O O18 0.705169 0.566303 0.000000
O O19 0.876576 0.673051 0.500000
#
# Coordination Sequence:
#
# PCOD8202639 Si02
#       8
#     8   8   8   8   8   8   8   8
#     4  11  21  34  51  77 108 147 179 221 270 330
#     4  10  19  32  51  76 104 140 174 219 275 323
#     4  10  18  32  53  77 103 133 172 231 290 324
#     4   9  20  35  51  73 103 138 180 235 268 322
#     4  10  20  31  50  74 103 133 178 215 274 322
#     4  10  20  34  52  77 109 142 183 223 271 328
#     4   9  18  32  54  82 109 137 176 222 277 333
#     4   9  17  32  55  84 110 138 176 226 278 329
#
# _framework density 17.628681
#
# number of rings (size 3 to 8) (size 9 to 14) (size 15 to 20)
#    0.000    2.250    2.500    1.875    0.000    4.000 
#    0.000    0.000    0.000   26.625    0.000    0.000 
#    0.000    9.000    0.000    0.000    0.000    0.000 
#
# Total GULP energy -792931.614300 kJ/mol
# GULP energy per Si atom -12389.556473 kJ/mol
# Density = 1.758856 g / cm^3
# Si number density = 17.628681 Si / 1000 Ang^3
#
#
#
# Elastic Constant Matrix: (Units=GPa)
#
#
# Indices 1 2 3 4 5 6 
#
# 1 110.7927 42.7972 41.6421 0.0000 0.0000 0.0000
# 2 42.7972 107.8445 42.3084 0.0000 0.0000 0.0000
# 3 41.6421 42.3084 75.7461 0.0000 0.0000 0.0000
# 4 0.0000 0.0000 0.0000 18.1814 0.0000 0.0000
# 5 0.0000 0.0000 0.0000 0.0000 30.8900 0.0000
# 6 0.0000 0.0000 0.0000 0.0000 0.0000 25.9196
#
#
#
# Elastic Compliance Matrix: (Units=1/GPa)
#
#
# Indices 1 2 3 4 5 6 
#
# 1 0.011995 -0.002783 -0.005040 0.000000 0.000000 0.000000
# 2 -0.002783 0.012520 -0.005463 0.000000 0.000000 0.000000
# 3 -0.005040 -0.005463 0.019024 0.000000 0.000000 0.000000
# 4 0.000000 0.000000 0.000000 0.055001 0.000000 0.000000
# 5 0.000000 0.000000 0.000000 0.000000 0.032373 0.000000
# 6 0.000000 0.000000 0.000000 0.000000 0.000000 0.038581
#
#
# Mechanical properties :
#
#
# Convention : Reuss Voigt Hill
#
# Bulk Modulus (GPa) = 58.93706 60.87540 59.90623
# Shear Modulus (GPa) = 24.78643 26.17391 25.48017
#
# Velocity S-wave (km/s) = 3.75377 3.85741 3.80594
# Velocity P-wave (km/s) = 7.23138 7.37878 7.30545
#
# Compressibility (1/GPa) = 0.01696725
#
# Stress axis : x y z
#
# Youngs Moduli (GPa) = 83.36673 79.87019 52.56418
#
# Poissons Ratio (x) = 0.22227 0.26492
# Poissons Ratio (y) = 0.23201 0.28718
# Poissons Ratio (z) = 0.42017 0.43636
#
# Static dielectric constant tensor:
#      x y z
#    x 3.577750 0.000000 0.000000 
#    y 0.000000 3.220640 0.000000 
#    z 0.000000 0.000000 3.117210 
# 
# 
# High freq. dielectric constant tensor:
#      x y z
#    x 1.705130 0.000000 0.000000 
#    y 0.000000 1.658100 0.000000 
#    z 0.000000 0.000000 1.650550 
# 
# From -- ./inp_files/26490.got.cif
#   From: 2010.03.12/outbox.cif.g09.slc.cpg/sg49_14_cif.got.tgz:26490.got - 2010.04.14 03:58:27.
