data_PCOD8202312
_publ_section_title
;
Structure prediction by ZEFSAII (Michael W. Deem and Ramdas Pophale) SiO2 
 PCOD8202312
Probable space group: P C C M
;
_chemical_formula_sum "Si O2"
_cell_formula_units_Z 58
_cell_length_a 25.146675
_cell_length_b 14.611206
_cell_length_c 9.006389
_cell_angle_alpha 90.000000
_cell_angle_beta 90.000000
_cell_angle_gamma 90.000000
_cell_volume 3309.156705
_symmetry_space_group_name_H-M "P C C M"
_symmetry_group_IT_number 49
_symmetry_cell_setting 'orthorhombic'
loop_
_space_group_symop_operation_xyz
x,y,z
-x,-y,z
x,-y,1/2-z
-x,y,1/2-z
-x,-y,-z
x,y,-z
-x,y,1/2+z
x,-y,1/2+z
loop_
_atom_site_type_symbol
_atom_site_label
_atom_site_fract_x
_atom_site_fract_y
_atom_site_fract_z
Si Si1 0.342498 0.401935 0.676208
Si Si2 0.917182 0.856653 0.665262
Si Si3 0.838371 0.591426 0.828077
Si Si4 0.051657 0.323881 0.172741
Si Si5 0.448064 0.399450 0.179318
Si Si6 0.240530 0.717411 0.170082
Si Si7 0.000000 0.000000 0.250000
Si Si8 0.800744 0.910313 0.328603
O O1 0.327774 0.500000 0.750000
O O2 0.352575 0.416032 0.500000
O O3 0.393608 0.355743 0.757978
O O4 0.296748 0.328265 0.708491
O O5 0.908303 0.816400 0.500000
O O6 0.938831 0.778505 0.771817
O O7 0.960582 0.937454 0.652373
O O8 0.860404 0.889497 0.730874
O O9 0.817983 0.500000 0.750000
O O10 0.899666 0.609528 0.789483
O O11 0.804998 0.676989 0.772951
O O12 0.828063 0.578570 0.000000
O O13 0.000000 0.367392 0.250000
O O14 0.040639 0.316991 0.000000
O O15 0.447394 0.500000 0.250000
O O16 0.500000 0.348588 0.250000
O O17 0.450157 0.400247 0.000000
O O18 0.240004 0.826254 0.201641
O O19 0.225168 0.697454 0.000000
O O20 0.804317 0.934100 0.500000
O O21 0.777120 0.000000 0.250000
#
# Coordination Sequence:
#
# PCOD8202312 Si02
#       8
#     8   8   8   8   8   8   2   8
#     4  10  19  31  48  73 105 141 182 223 260 304
#     4  11  22  35  53  75 103 128 155 195 246 307
#     4  11  24  39  57  79 101 130 167 209 255 308
#     4  11  24  39  56  76  98 124 158 199 248 303
#     4  10  17  27  44  68 102 143 184 222 261 303
#     4  10  21  37  56  77 105 139 175 216 262 308
#     4  12  22  32  52  86 104 124 162 196 260 312
#     4  10  21  37  55  77 102 134 167 206 257 311
#
# _framework density 17.527124000000001
#
# number of rings (size 3 to 8) (size 9 to 14) (size 15 to 20)
#    0.000    1.517    2.759    4.345    0.000    5.793 
#    0.000    1.379    0.000    0.000    0.000    0.000 
#    0.000    0.552    0.000    6.345    0.000    1.931 
#
# Total GULP energy -719059.251337 kJ/mol
# GULP energy per Si atom -12397.573299 kJ/mol
# Density = 1.748723 g / cm^3
# Si number density = 17.527124 Si / 1000 Ang^3
#
#
#
# Elastic Constant Matrix: (Units=GPa)
#
#
# Indices 1 2 3 4 5 6 
#
# 1 104.4332 43.9913 66.5418 0.0000 0.0000 0.0000
# 2 43.9913 74.8565 31.3902 0.0000 0.0000 0.0000
# 3 66.5418 31.3902 90.4426 0.0000 0.0000 0.0000
# 4 0.0000 0.0000 0.0000 21.1274 0.0000 0.0000
# 5 0.0000 0.0000 0.0000 0.0000 19.9919 0.0000
# 6 0.0000 0.0000 0.0000 0.0000 0.0000 50.7776
#
#
#
# Elastic Compliance Matrix: (Units=1/GPa)
#
#
# Indices 1 2 3 4 5 6 
#
# 1 0.020555 -0.006715 -0.012792 0.000000 0.000000 0.000000
# 2 -0.006715 0.017828 -0.001247 0.000000 0.000000 0.000000
# 3 -0.012792 -0.001247 0.020901 0.000000 0.000000 0.000000
# 4 0.000000 0.000000 0.000000 0.047332 0.000000 0.000000
# 5 0.000000 0.000000 0.000000 0.000000 0.050020 0.000000
# 6 0.000000 0.000000 0.000000 0.000000 0.000000 0.019694
#
#
# Mechanical properties :
#
#
# Convention : Reuss Voigt Hill
#
# Bulk Modulus (GPa) = 56.25804 61.50875 58.88340
# Shear Modulus (GPa) = 22.34479 26.89998 24.62238
#
# Velocity S-wave (km/s) = 3.57440 3.92185 3.75215
# Velocity P-wave (km/s) = 7.01445 7.46174 7.24155
#
# Compressibility (1/GPa) = 0.01777524
#
# Stress axis : x y z
#
# Youngs Moduli (GPa) = 48.64920 56.09059 47.84373
#
# Poissons Ratio (x) = 0.37668 0.61204
# Poissons Ratio (y) = 0.32670 0.05966
# Poissons Ratio (z) = 0.62234 0.06994
#
# Static dielectric constant tensor:
#      x y z
#    x 3.805650 0.000000 0.000000 
#    y 0.000000 3.050510 0.000000 
#    z 0.000000 0.000000 3.297520 
# 
# 
# High freq. dielectric constant tensor:
#      x y z
#    x 1.671990 0.000000 0.000000 
#    y 0.000000 1.646310 0.000000 
#    z 0.000000 0.000000 1.688130 
# 
# From -- ./inp_files/6455.got.cif
#   From: 2010.03.12/outbox.cif.g09.slc.cpg/sg49_4_cif.got.tgz:6455.got - 2010.04.14 03:58:27.
