data_PCOD8202205
_publ_section_title
;
Structure prediction by ZEFSAII (Michael W. Deem and Ramdas Pophale) SiO2 
 PCOD8202205
Probable space group: P C C M
;
_chemical_formula_sum "Si O2"
_cell_formula_units_Z 48
_cell_length_a 30.769327
_cell_length_b 9.896577
_cell_length_c 8.553906
_cell_angle_alpha 90.000000
_cell_angle_beta 90.000000
_cell_angle_gamma 90.000000
_cell_volume 2604.758589
_symmetry_space_group_name_H-M "P C C M"
_symmetry_group_IT_number 49
_symmetry_cell_setting 'orthorhombic'
loop_
_space_group_symop_operation_xyz
x,y,z
-x,-y,z
x,-y,1/2-z
-x,y,1/2-z
-x,-y,-z
x,y,-z
-x,y,1/2+z
x,-y,1/2+z
loop_
_atom_site_type_symbol
_atom_site_label
_atom_site_fract_x
_atom_site_fract_y
_atom_site_fract_z
Si Si1 0.128806 0.852954 0.679835
Si Si2 0.454015 0.146801 0.684650
Si Si3 0.291818 0.642830 0.815929
Si Si4 0.614672 0.353785 0.685021
Si Si5 0.043445 0.848830 0.183157
Si Si6 0.775102 0.150112 0.317561
O O1 0.116185 0.864293 0.500000
O O2 0.088538 0.774451 0.764494
O O3 0.176281 0.786143 0.703775
O O4 0.133433 0.000000 0.750000
O O5 0.500000 0.199385 0.750000
O O6 0.456870 0.139076 0.500000
O O7 0.416556 0.246649 0.736286
O O8 0.442502 0.000000 0.750000
O O9 0.274756 0.500000 0.750000
O O10 0.336327 0.684306 0.731234
O O11 0.256574 0.756297 0.781087
O O12 0.300149 0.630309 0.000000
O O13 0.601869 0.500000 0.750000
O O14 0.609213 0.350833 0.500000
O O15 0.000000 0.775543 0.250000
O O16 0.045450 0.000000 0.250000
O O17 0.039821 0.851014 0.000000
O O18 0.762253 0.148132 0.500000
O O19 0.771561 0.000000 0.250000
#
# Coordination Sequence:
#
# PCOD8202205 Si02
#       6
#     8   8   8   8   8   8
#     4   9  16  26  40  59  87 120 157 200 248 298
#     4  11  22  39  60  86 116 149 184 221 265 312
#     4  11  22  38  58  80 107 140 176 218 265 315
#     4  11  22  39  60  84 111 142 179 221 266 314
#     4  10  16  22  33  50  77 113 155 196 241 295
#     4  10  20  34  52  76 104 136 173 215 261 313
#
# _framework density 18.427810999999998
#
# number of rings (size 3 to 8) (size 9 to 14) (size 15 to 20)
#    0.000    1.667    0.000   10.000    0.000    3.000 
#    0.000    5.000    0.000    0.000    0.000    0.000 
#    0.000    0.667    0.000    7.000    0.000    5.167 
#
# Total GULP energy -595020.342215 kJ/mol
# GULP energy per Si atom -12396.257129 kJ/mol
# Density = 1.838587 g / cm^3
# Si number density = 18.427811 Si / 1000 Ang^3
#
#
#
# Elastic Constant Matrix: (Units=GPa)
#
#
# Indices 1 2 3 4 5 6 
#
# 1 113.0184 57.6453 40.4415 0.0000 0.0000 0.0000
# 2 57.6453 59.3570 28.0759 0.0000 0.0000 0.0000
# 3 40.4415 28.0759 155.8639 0.0000 0.0000 0.0000
# 4 0.0000 0.0000 0.0000 23.2588 0.0000 0.0000
# 5 0.0000 0.0000 0.0000 0.0000 32.3190 0.0000
# 6 0.0000 0.0000 0.0000 0.0000 0.0000 -91.2876
#
#
#
# Elastic Compliance Matrix: (Units=1/GPa)
#
#
# Indices 1 2 3 4 5 6 
#
# 1 0.017915 -0.016616 -0.001655 0.000000 0.000000 0.000000
# 2 -0.016616 0.033827 -0.001782 0.000000 0.000000 0.000000
# 3 -0.001655 -0.001782 0.007166 0.000000 0.000000 0.000000
# 4 0.000000 0.000000 0.000000 0.042995 0.000000 0.000000
# 5 0.000000 0.000000 0.000000 0.000000 0.030942 0.000000
# 6 0.000000 0.000000 0.000000 0.000000 0.000000 -0.010954
#
#
# Mechanical properties :
#
#
# Convention : Reuss Voigt Hill
#
# Bulk Modulus (GPa) = 53.18551 64.50718 58.84634
# Shear Modulus (GPa) = 29.71527 6.32981 18.02254
#
# Velocity S-wave (km/s) = 4.01998 1.85536 3.13070
# Velocity P-wave (km/s) = 7.10431 6.29851 6.71351
#
# Compressibility (1/GPa) = 0.01880211
#
# Stress axis : x y z
#
# Youngs Moduli (GPa) = 55.81808 29.56250 139.54052
#
# Poissons Ratio (x) = 0.49120 0.23100
# Poissons Ratio (y) = 0.92746 0.24866
# Poissons Ratio (z) = 0.09240 0.05268
#
# Static dielectric constant tensor:
#      x y z
#    x 4.223730 0.000000 0.000000 
#    y 0.000000 2.995360 0.000000 
#    z 0.000000 0.000000 3.627540 
# 
# 
# High freq. dielectric constant tensor:
#      x y z
#    x 1.739240 0.000000 0.000000 
#    y 0.000000 1.659680 0.000000 
#    z 0.000000 0.000000 1.742150 
# 
# From -- ./inp_files/6880.got.cif
#   From: 2010.03.12/outbox.cif.g09.slc.cpg/sg49_4_cif.got.tgz:6880.got - 2010.04.14 03:58:27.
