data_PCOD8202464
_publ_section_title
;
Structure prediction by ZEFSAII (Michael W. Deem and Ramdas Pophale) SiO2 
 PCOD8202464
Probable space group: P C C M
;
_chemical_formula_sum "Si O2"
_cell_formula_units_Z 64
_cell_length_a 26.177086
_cell_length_b 18.297074
_cell_length_c 8.799186
_cell_angle_alpha 90.000000
_cell_angle_beta 90.000000
_cell_angle_gamma 90.000000
_cell_volume 4214.494024
_symmetry_space_group_name_H-M "P C C M"
_symmetry_group_IT_number 49
_symmetry_cell_setting 'orthorhombic'
loop_
_space_group_symop_operation_xyz
x,y,z
-x,-y,z
x,-y,1/2-z
-x,y,1/2-z
-x,-y,-z
x,y,-z
-x,y,1/2+z
x,-y,1/2+z
loop_
_atom_site_type_symbol
_atom_site_label
_atom_site_fract_x
_atom_site_fract_y
_atom_site_fract_z
Si Si1 0.849218 0.831328 0.822409
Si Si2 0.642703 0.333915 0.678599
Si Si3 0.249820 0.920756 0.320374
Si Si4 0.445486 0.423122 0.680851
Si Si5 0.799156 0.296382 0.170216
Si Si6 0.052885 0.077991 0.179947
Si Si7 0.255627 0.421247 0.177513
Si Si8 0.304449 0.205923 0.327704
O O1 0.804771 0.887181 0.771525
O O2 0.844065 0.752659 0.742201
O O3 0.903341 0.864986 0.774289
O O4 0.845326 0.816892 0.000000
O O5 0.631135 0.334509 0.500000
O O6 0.594048 0.360882 0.772246
O O7 0.690055 0.386078 0.721040
O O8 0.653605 0.251329 0.733048
O O9 0.255709 0.925127 0.500000
O O10 0.295812 0.871774 0.253454
O O11 0.254599 0.000000 0.250000
O O12 0.426595 0.500000 0.750000
O O13 0.500000 0.401456 0.750000
O O14 0.449319 0.429796 0.500000
O O15 0.790752 0.371107 0.262451
O O16 0.747953 0.249761 0.175673
O O17 0.814932 0.317309 0.000000
O O18 0.000000 0.107423 0.250000
O O19 0.067424 0.000000 0.250000
O O20 0.047625 0.069257 0.000000
O O21 0.251582 0.500000 0.250000
O O22 0.249139 0.429172 0.000000
O O23 0.323564 0.193951 0.500000
#
# Coordination Sequence:
#
# PCOD8202464 Si02
#       8
#     8   8   8   8   8   8   8   8
#     4   9  18  30  43  59  82 112 144 176 214 255
#     4  10  19  31  46  64  86 115 147 179 215 255
#     4  10  18  28  42  61  85 113 144 178 214 255
#     4  11  21  33  47  64  87 115 147 184 220 255
#     4   9  17  28  43  61  82 108 140 175 211 251
#     4  10  19  30  43  60  83 111 143 180 216 252
#     4  10  19  29  43  62  87 115 144 176 210 250
#     4   9  17  29  43  61  84 111 142 176 212 253
#
# _framework density 15.185691
#
# number of rings (size 3 to 8) (size 9 to 14) (size 15 to 20)
#    0.000    2.250    0.000    4.875    0.000    7.000 
#    0.000    0.000    0.000    0.000    0.000    0.000 
#    0.000    1.000    0.000   10.250    0.000    5.875 
#
# Total GULP energy -793662.323440 kJ/mol
# GULP energy per Si atom -12400.973804 kJ/mol
# Density = 1.515113 g / cm^3
# Si number density = 15.185691 Si / 1000 Ang^3
#
#
#
# Elastic Constant Matrix: (Units=GPa)
#
#
# Indices 1 2 3 4 5 6 
#
# 1 74.5096 51.5420 43.4400 0.0000 0.0000 0.0000
# 2 51.5420 110.4925 54.8767 0.0000 0.0000 0.0000
# 3 43.4400 54.8767 94.4241 0.0000 0.0000 0.0000
# 4 0.0000 0.0000 0.0000 31.1333 0.0000 0.0000
# 5 0.0000 0.0000 0.0000 0.0000 21.3607 0.0000
# 6 0.0000 0.0000 0.0000 0.0000 0.0000 26.1798
#
#
#
# Elastic Compliance Matrix: (Units=1/GPa)
#
#
# Indices 1 2 3 4 5 6 
#
# 1 0.021869 -0.007316 -0.005809 0.000000 0.000000 0.000000
# 2 -0.007316 0.015170 -0.005451 0.000000 0.000000 0.000000
# 3 -0.005809 -0.005451 0.016431 0.000000 0.000000 0.000000
# 4 0.000000 0.000000 0.000000 0.032120 0.000000 0.000000
# 5 0.000000 0.000000 0.000000 0.000000 0.046815 0.000000
# 6 0.000000 0.000000 0.000000 0.000000 0.000000 0.038197
#
#
# Mechanical properties :
#
#
# Convention : Reuss Voigt Hill
#
# Bulk Modulus (GPa) = 61.28108 64.34929 62.81518
# Shear Modulus (GPa) = 23.45295 24.37259 23.91277
#
# Velocity S-wave (km/s) = 3.93416 4.01056 3.97254
# Velocity P-wave (km/s) = 7.81530 7.99456 7.90544
#
# Compressibility (1/GPa) = 0.01631825
#
# Stress axis : x y z
#
# Youngs Moduli (GPa) = 45.72758 65.91788 60.86186
#
# Poissons Ratio (x) = 0.48227 0.35353
# Poissons Ratio (y) = 0.33455 0.33174
# Poissons Ratio (z) = 0.26562 0.35930
#
# Static dielectric constant tensor:
#      x y z
#    x 2.766800 0.000000 0.000000 
#    y 0.000000 2.913710 0.000000 
#    z 0.000000 0.000000 3.086980 
# 
# 
# High freq. dielectric constant tensor:
#      x y z
#    x 1.547010 0.000000 0.000000 
#    y 0.000000 1.571160 0.000000 
#    z 0.000000 0.000000 1.602460 
# 
# From -- ./inp_files/5447.got.cif
#   From: 2010.03.12/outbox.cif.g09.slc.cpg/sg49_3_cif.got.tgz:5447.got - 2010.04.14 03:58:27.
