data_PCOD8202684
_publ_section_title
;
Structure prediction by ZEFSAII (Michael W. Deem and Ramdas Pophale) SiO2 
 PCOD8202684
Probable space group: P C C M
;
_chemical_formula_sum "Si O2"
_cell_formula_units_Z 40
_cell_length_a 7.451070
_cell_length_b 10.428278
_cell_length_c 25.300838
_cell_angle_alpha 90.000000
_cell_angle_beta 90.000000
_cell_angle_gamma 90.000000
_cell_volume 1965.921397
_symmetry_space_group_name_H-M "P C C M"
_symmetry_group_IT_number 49
_symmetry_cell_setting 'orthorhombic'
loop_
_space_group_symop_operation_xyz
x,y,z
-x,-y,z
x,-y,1/2-z
-x,y,1/2-z
-x,-y,-z
x,y,-z
-x,y,1/2+z
x,-y,1/2+z
loop_
_atom_site_type_symbol
_atom_site_label
_atom_site_fract_x
_atom_site_fract_y
_atom_site_fract_z
Si Si1 0.360378 0.885529 0.058565
Si Si2 0.808983 0.733739 0.818135
Si Si3 0.224339 0.727088 0.198156
Si Si4 0.501524 0.359983 0.616638
Si Si5 0.798708 0.014044 0.840389
O O1 0.455164 0.752071 0.075244
O O2 0.208373 0.932985 0.099225
O O3 0.500000 0.000000 0.058129
O O4 0.277305 0.866219 0.000000
O O5 0.769101 0.684799 0.758883
O O6 0.703235 0.647456 0.859905
O O7 0.023082 0.722565 0.827262
O O8 0.717672 0.873907 0.829750
O O9 0.357015 0.638674 0.164558
O O10 0.292729 0.875685 0.195509
O O11 0.500000 0.500000 0.588668
O O12 0.000000 0.000000 0.821011
#
# Coordination Sequence:
#
# PCOD8202684 Si02
#       5
#     8   8   8   8   8
#     4  10  20  37  59  81 103 135 184 231 278 328
#     4  10  18  34  53  79 116 145 177 224 262 312
#     4   9  20  32  53  82 110 148 185 214 262 323
#     4  11  23  37  54  79 111 147 183 221 271 322
#     4   9  17  32  54  83 110 139 175 225 278 321
#
# _framework density 20.346695
#
# number of rings (size 3 to 8) (size 9 to 14) (size 15 to 20)
#    0.000    2.200    2.000    1.200    0.000    5.600 
#    0.000    4.000    0.000    0.000    0.000    5.600 
#    0.000    0.000    0.000    0.000    0.000    0.000 
#
# Total GULP energy -495536.319851 kJ/mol
# GULP energy per Si atom -12388.407996 kJ/mol
# Density = 2.030038 g / cm^3
# Si number density = 20.346695 Si / 1000 Ang^3
#
#
#
# Elastic Constant Matrix: (Units=GPa)
#
#
# Indices 1 2 3 4 5 6 
#
# 1 52.0302 10.8699 0.7248 0.0000 0.0000 0.0000
# 2 10.8699 112.2821 11.2303 0.0000 0.0000 0.0000
# 3 0.7248 11.2303 71.2453 0.0000 0.0000 0.0000
# 4 0.0000 0.0000 0.0000 -4.0079 0.0000 0.0000
# 5 0.0000 0.0000 0.0000 0.0000 12.0837 0.0000
# 6 0.0000 0.0000 0.0000 0.0000 0.0000 20.9769
#
#
#
# Elastic Compliance Matrix: (Units=1/GPa)
#
#
# Indices 1 2 3 4 5 6 
#
# 1 0.019617 -0.001909 0.000101 0.000000 0.000000 0.000000
# 2 -0.001909 0.009235 -0.001436 0.000000 0.000000 0.000000
# 3 0.000101 -0.001436 0.014261 0.000000 0.000000 0.000000
# 4 0.000000 0.000000 0.000000 -0.249505 0.000000 0.000000
# 5 0.000000 0.000000 0.000000 0.000000 0.082756 0.000000
# 6 0.000000 0.000000 0.000000 0.000000 0.000000 0.047672
#
#
# Mechanical properties :
#
#
# Convention : Reuss Voigt Hill
#
# Bulk Modulus (GPa) = 27.30385 31.24530 29.27458
# Shear Modulus (GPa) = -87.30882 19.99270 -33.65806
#
# Velocity S-wave (km/s) = -6.55772 3.13805 -4.07163
# Velocity P-wave (km/s) = 6.62494 5.34037 2.77221
#
# Compressibility (1/GPa) = 0.03662487
#
# Stress axis : x y z
#
# Youngs Moduli (GPa) = 50.97603 108.28819 70.11945
#
# Poissons Ratio (x) = 0.20675 -0.00711
# Poissons Ratio (y) = 0.09733 0.10071
# Poissons Ratio (z) = -0.00517 0.15553
#
# Static dielectric constant tensor:
#      x y z
#    x 3.537570 0.000000 0.000000 
#    y 0.000000 3.875160 0.000000 
#    z 0.000000 0.000000 3.751370 
# 
# 
# High freq. dielectric constant tensor:
#      x y z
#    x 1.782460 0.000000 0.000000 
#    y 0.000000 1.797970 0.000000 
#    z 0.000000 0.000000 1.768430 
# 
# From -- ./inp_files/22198.got.cif
#   From: 2010.03.12/outbox.cif.g09.slc.cpg/sg49_12_cif.got.tgz:22198.got - 2010.04.14 03:58:27.
