data_PCOD8202790
_publ_section_title
;
Structure prediction by ZEFSAII (Michael W. Deem and Ramdas Pophale) SiO2 
 PCOD8202790
Probable space group: P C C M
;
_chemical_formula_sum "Si O2"
_cell_formula_units_Z 64
_cell_length_a 24.767523
_cell_length_b 15.003626
_cell_length_c 9.104928
_cell_angle_alpha 90.000000
_cell_angle_beta 90.000000
_cell_angle_gamma 90.000000
_cell_volume 3383.415391
_symmetry_space_group_name_H-M "P C C M"
_symmetry_group_IT_number 49
_symmetry_cell_setting 'orthorhombic'
loop_
_space_group_symop_operation_xyz
x,y,z
-x,-y,z
x,-y,1/2-z
-x,y,1/2-z
-x,-y,-z
x,y,-z
-x,y,1/2+z
x,-y,1/2+z
loop_
_atom_site_type_symbol
_atom_site_label
_atom_site_fract_x
_atom_site_fract_y
_atom_site_fract_z
Si Si1 0.056081 0.909696 0.673710
Si Si2 0.702053 0.358352 0.332159
Si Si3 0.817080 0.413875 0.328584
Si Si4 0.448069 0.768257 0.172559
Si Si5 0.332140 0.812106 0.834186
Si Si6 0.583954 0.587381 0.828782
Si Si7 0.770271 0.088451 0.831991
Si Si8 0.153327 0.781891 0.330092
O O1 0.048093 0.926075 0.500000
O O2 0.096451 0.828382 0.705450
O O3 0.000000 0.883154 0.750000
O O4 0.078652 0.000000 0.750000
O O5 0.714615 0.338280 0.500000
O O6 0.755477 0.405013 0.266883
O O7 0.694041 0.262426 0.264200
O O8 0.648779 0.417615 0.310427
O O9 0.843685 0.500000 0.250000
O O10 0.818718 0.433791 0.500000
O O11 0.850023 0.323251 0.290670
O O12 0.500000 0.813903 0.250000
O O13 0.395207 0.829330 0.206547
O O14 0.440205 0.671578 0.244656
O O15 0.458851 0.757826 0.000000
O O16 0.294922 0.899762 0.816585
O O17 0.330271 0.775704 0.000000
O O18 0.559775 0.500000 0.750000
O O19 0.567285 0.590805 0.000000
O O20 0.799728 0.174074 0.765728
O O21 0.789105 0.000000 0.750000
O O22 0.787769 0.078243 0.000000
O O23 0.169052 0.794696 0.500000
#
# Coordination Sequence:
#
# PCOD8202790 Si02
#       8
#     8   8   8   8   8   8   8   8
#     4  10  20  35  57  84 114 149 187 229 275 326
#     4   9  17  30  49  70  98 135 174 214 260 312
#     4  10  20  33  50  75 108 146 187 229 271 316
#     4  10  20  35  52  70  92 122 164 213 261 316
#     4   9  19  34  52  74 102 133 168 211 259 315
#     4  10  19  30  45  68  94 126 164 207 260 315
#     4  11  22  35  55  84 114 146 178 214 267 329
#     4  10  21  37  56  81 116 152 187 230 274 319
#
# _framework density 18.915799
#
# number of rings (size 3 to 8) (size 9 to 14) (size 15 to 20)
#    0.000    2.125    1.250    2.625    0.000    4.750 
#    0.000    1.250    0.000    0.750    0.000    5.250 
#    0.000    0.000    0.000    0.000    0.000    0.000 
#
# Total GULP energy -793336.032692 kJ/mol
# GULP energy per Si atom -12395.875511 kJ/mol
# Density = 1.887275 g / cm^3
# Si number density = 18.915799 Si / 1000 Ang^3
#
#
#
# Elastic Constant Matrix: (Units=GPa)
#
#
# Indices 1 2 3 4 5 6 
#
# 1 93.2260 44.7338 42.9964 0.0000 0.0000 0.0000
# 2 44.7338 96.5300 46.2805 0.0000 0.0000 0.0000
# 3 42.9964 46.2805 93.3396 0.0000 0.0000 0.0000
# 4 0.0000 0.0000 0.0000 25.3842 0.0000 0.0000
# 5 0.0000 0.0000 0.0000 0.0000 -0.1228 0.0000
# 6 0.0000 0.0000 0.0000 0.0000 0.0000 16.1946
#
#
#
# Elastic Compliance Matrix: (Units=1/GPa)
#
#
# Indices 1 2 3 4 5 6 
#
# 1 0.015159 -0.004824 -0.004591 0.000000 0.000000 0.000000
# 2 -0.004824 0.015125 -0.005277 0.000000 0.000000 0.000000
# 3 -0.004591 -0.005277 0.015445 0.000000 0.000000 0.000000
# 4 0.000000 0.000000 0.000000 0.039395 0.000000 0.000000
# 5 0.000000 0.000000 0.000000 0.000000 -8.140978 0.000000
# 6 0.000000 0.000000 0.000000 0.000000 0.000000 0.061749
#
#
# Mechanical properties :
#
#
# Convention : Reuss Voigt Hill
#
# Bulk Modulus (GPa) = 61.18255 61.23520 61.20888
# Shear Modulus (GPa) = -0.62820 18.23020 8.80100
#
# Velocity S-wave (km/s) = -0.57691 3.10781 2.15936
# Velocity P-wave (km/s) = 5.65430 6.73207 6.21659
#
# Compressibility (1/GPa) = 0.01634453
#
# Stress axis : x y z
#
# Youngs Moduli (GPa) = 65.96907 66.11531 64.74536
#
# Poissons Ratio (x) = 0.31892 0.29725
# Poissons Ratio (y) = 0.31821 0.34169
# Poissons Ratio (z) = 0.30287 0.34892
#
# Static dielectric constant tensor:
#      x y z
#    x 3.576340 0.000000 0.000000 
#    y 0.000000 3.242080 0.000000 
#    z 0.000000 0.000000 3.009040 
# 
# 
# High freq. dielectric constant tensor:
#      x y z
#    x 1.727580 0.000000 0.000000 
#    y 0.000000 1.709850 0.000000 
#    z 0.000000 0.000000 1.742240 
# 
# From -- ./inp_files/6498.got.cif
#   From: 2010.03.12/outbox.cif.g09.slc.cpg/sg49_4_cif.got.tgz:6498.got - 2010.04.14 03:58:27.
