data_PCOD8202488
_publ_section_title
;
Structure prediction by ZEFSAII (Michael W. Deem and Ramdas Pophale) SiO2 
 PCOD8202488
Probable space group: P C C M
;
_chemical_formula_sum "Si O2"
_cell_formula_units_Z 64
_cell_length_a 27.046082
_cell_length_b 18.470237
_cell_length_c 8.650681
_cell_angle_alpha 90.000000
_cell_angle_beta 90.000000
_cell_angle_gamma 90.000000
_cell_volume 4321.426451
_symmetry_space_group_name_H-M "P C C M"
_symmetry_group_IT_number 49
_symmetry_cell_setting 'orthorhombic'
loop_
_space_group_symop_operation_xyz
x,y,z
-x,-y,z
x,-y,1/2-z
-x,y,1/2-z
-x,-y,-z
x,y,-z
-x,y,1/2+z
x,-y,1/2+z
loop_
_atom_site_type_symbol
_atom_site_label
_atom_site_fract_x
_atom_site_fract_y
_atom_site_fract_z
Si Si1 0.843476 0.079762 0.318868
Si Si2 0.447429 0.335545 0.816636
Si Si3 0.643027 0.421510 0.814246
Si Si4 0.603074 0.795407 0.671238
Si Si5 0.296980 0.293168 0.668132
Si Si6 0.658388 0.922402 0.183020
Si Si7 0.952496 0.078963 0.321191
Si Si8 0.751734 0.844497 0.315231
O O1 0.831837 0.075224 0.500000
O O2 0.898428 0.113170 0.287802
O O3 0.806391 0.134264 0.235744
O O4 0.837422 0.000000 0.250000
O O5 0.500000 0.359576 0.750000
O O6 0.408841 0.393768 0.750848
O O7 0.436183 0.253387 0.763638
O O8 0.447232 0.339571 0.000000
O O9 0.655276 0.500000 0.750000
O O10 0.687895 0.369091 0.750598
O O11 0.641065 0.420217 0.000000
O O12 0.582061 0.814048 0.500000
O O13 0.652741 0.750930 0.650882
O O14 0.614680 0.868482 0.764956
O O15 0.275037 0.312084 0.500000
O O16 0.258597 0.237730 0.751015
O O17 0.712197 0.900234 0.246651
O O18 0.644220 0.000000 0.250000
O O19 0.661188 0.924938 0.000000
O O20 0.962400 0.072203 0.500000
O O21 0.000000 0.122519 0.250000
O O22 0.951403 0.000000 0.250000
O O23 0.746478 0.845265 0.500000
#
# Coordination Sequence:
#
# PCOD8202488 Si02
#       8
#     8   8   8   8   8   8   8   8
#     4  10  19  28  37  54  78 105 137 179 222 260
#     4  11  21  34  51  71  91 115 141 167 201 240
#     4  10  19  33  50  70  93 115 139 170 201 237
#     4   9  17  32  49  66  86 109 137 170 203 243
#     4   7  14  28  45  61  81 107 134 162 196 236
#     4  11  20  30  44  63  85 110 138 172 211 252
#     4   9  16  25  37  50  68  95 132 174 217 258
#     4  10  18  29  43  59  80 109 140 173 211 252
#
# _framework density 14.809925
#
# number of rings (size 3 to 8) (size 9 to 14) (size 15 to 20)
#    0.000    2.375    0.000    6.375    0.000    1.750 
#    0.000    3.125    0.000    0.375    0.000    2.625 
#    0.000    0.000    0.000    0.000    0.000    0.625 
#
# Total GULP energy -792928.233932 kJ/mol
# GULP energy per Si atom -12389.503655 kJ/mol
# Density = 1.477622 g / cm^3
# Si number density = 14.809925 Si / 1000 Ang^3
#
#
#
# Elastic Constant Matrix: (Units=GPa)
#
#
# Indices 1 2 3 4 5 6 
#
# 1 66.1182 43.5788 27.9548 0.0000 0.0000 0.0000
# 2 43.5788 100.6974 36.1881 0.0000 0.0000 0.0000
# 3 27.9548 36.1881 98.0270 0.0000 0.0000 0.0000
# 4 0.0000 0.0000 0.0000 19.9545 0.0000 0.0000
# 5 0.0000 0.0000 0.0000 0.0000 23.0471 0.0000
# 6 0.0000 0.0000 0.0000 0.0000 0.0000 12.1556
#
#
#
# Elastic Compliance Matrix: (Units=1/GPa)
#
#
# Indices 1 2 3 4 5 6 
#
# 1 0.021987 -0.008373 -0.003179 0.000000 0.000000 0.000000
# 2 -0.008373 0.014638 -0.003016 0.000000 0.000000 0.000000
# 3 -0.003179 -0.003016 0.012221 0.000000 0.000000 0.000000
# 4 0.000000 0.000000 0.000000 0.050114 0.000000 0.000000
# 5 0.000000 0.000000 0.000000 0.000000 0.043389 0.000000
# 6 0.000000 0.000000 0.000000 0.000000 0.000000 0.082267
#
#
# Mechanical properties :
#
#
# Convention : Reuss Voigt Hill
#
# Bulk Modulus (GPa) = 50.73508 53.36513 52.05011
# Shear Modulus (GPa) = 19.20686 21.50615 20.35650
#
# Velocity S-wave (km/s) = 3.60514 3.81484 3.71147
# Velocity P-wave (km/s) = 7.18758 7.45088 7.32041
#
# Compressibility (1/GPa) = 0.01971023
#
# Stress axis : x y z
#
# Youngs Moduli (GPa) = 45.48106 68.31441 81.82385
#
# Poissons Ratio (x) = 0.57199 0.26014
# Poissons Ratio (y) = 0.38081 0.24680
# Poissons Ratio (z) = 0.14459 0.20605
#
# Static dielectric constant tensor:
#      x y z
#    x 3.225410 0.000000 0.000000 
#    y 0.000000 2.947860 0.000000 
#    z 0.000000 0.000000 2.973250 
# 
# 
# High freq. dielectric constant tensor:
#      x y z
#    x 1.545030 0.000000 0.000000 
#    y 0.000000 1.538710 0.000000 
#    z 0.000000 0.000000 1.579390 
# 
# From -- ./inp_files/6792.got.cif
#   From: 2010.03.12/outbox.cif.g09.slc.cpg/sg49_4_cif.got.tgz:6792.got - 2010.04.14 03:58:27.
