data_PCOD8202722
_publ_section_title
;
Structure prediction by ZEFSAII (Michael W. Deem and Ramdas Pophale) SiO2 
 PCOD8202722
Probable space group: P C C M
;
_chemical_formula_sum "Si O2"
_cell_formula_units_Z 56
_cell_length_a 18.394782
_cell_length_b 21.510702
_cell_length_c 9.014086
_cell_angle_alpha 90.000000
_cell_angle_beta 90.000000
_cell_angle_gamma 90.000000
_cell_volume 3566.735680
_symmetry_space_group_name_H-M "P C C M"
_symmetry_group_IT_number 49
_symmetry_cell_setting 'orthorhombic'
loop_
_space_group_symop_operation_xyz
x,y,z
-x,-y,z
x,-y,1/2-z
-x,y,1/2-z
-x,-y,-z
x,y,-z
-x,y,1/2+z
x,-y,1/2+z
loop_
_atom_site_type_symbol
_atom_site_label
_atom_site_fract_x
_atom_site_fract_y
_atom_site_fract_z
Si Si1 0.782818 0.261947 0.332177
Si Si2 0.574904 0.302773 0.826446
Si Si3 0.835405 0.562258 0.174486
Si Si4 0.714858 0.372120 0.829373
Si Si5 0.350397 0.811676 0.669211
Si Si6 0.073830 0.317432 0.168505
Si Si7 0.577259 0.937578 0.176321
O O1 0.769570 0.289333 0.500000
O O2 0.752667 0.306985 0.206819
O O3 0.737666 0.197691 0.314825
O O4 0.870321 0.258794 0.309634
O O5 0.500000 0.321368 0.750000
O O6 0.629451 0.360864 0.795077
O O7 0.605100 0.237701 0.765001
O O8 0.562714 0.293184 0.000000
O O9 0.866325 0.500000 0.250000
O O10 0.752397 0.574434 0.230081
O O11 0.887170 0.619260 0.224990
O O12 0.834434 0.553148 0.000000
O O13 0.727998 0.389415 0.000000
O O14 0.375253 0.801312 0.500000
O O15 0.368400 0.881643 0.718569
O O16 0.000000 0.301693 0.250000
O O17 0.051571 0.326762 0.000000
O O18 0.500000 0.922469 0.250000
O O19 0.609946 0.000000 0.250000
O O20 0.568430 0.946379 0.000000
#
# Coordination Sequence:
#
# PCOD8202722 Si02
#       7
#     8   8   8   8   8   8   8
#     4   8  15  29  45  62  84 111 141 172 209 253
#     4  10  19  28  42  64  87 110 138 174 217 257
#     4  10  20  33  48  65  84 111 143 173 205 245
#     4   9  17  29  44  63  84 107 137 173 211 252
#     4   9  17  29  45  62  83 112 147 182 215 252
#     4   9  18  30  45  65  90 116 138 164 203 248
#     4  10  19  29  41  58  83 118 152 184 218 252
#
# _framework density 15.700631
#
# number of rings (size 3 to 8) (size 9 to 14) (size 15 to 20)
#    0.000    2.714    0.000    3.429    0.000    7.143 
#    0.000    1.429    0.000    0.429    0.000    3.000 
#    0.000    0.571    0.000    7.143    0.000    0.000 
#
# Total GULP energy -693827.807358 kJ/mol
# GULP energy per Si atom -12389.782274 kJ/mol
# Density = 1.566490 g / cm^3
# Si number density = 15.700631 Si / 1000 Ang^3
#
#
#
# Elastic Constant Matrix: (Units=GPa)
#
#
# Indices 1 2 3 4 5 6 
#
# 1 111.0612 36.3996 37.7830 0.0000 0.0000 0.0000
# 2 36.3996 52.6785 17.5793 0.0000 0.0000 0.0000
# 3 37.7830 17.5793 60.2886 0.0000 0.0000 0.0000
# 4 0.0000 0.0000 0.0000 18.1076 0.0000 0.0000
# 5 0.0000 0.0000 0.0000 0.0000 25.3401 0.0000
# 6 0.0000 0.0000 0.0000 0.0000 0.0000 19.7601
#
#
#
# Elastic Compliance Matrix: (Units=1/GPa)
#
#
# Indices 1 2 3 4 5 6 
#
# 1 0.013544 -0.007229 -0.006380 0.000000 0.000000 0.000000
# 2 -0.007229 0.024888 -0.002726 0.000000 0.000000 0.000000
# 3 -0.006380 -0.002726 0.021380 0.000000 0.000000 0.000000
# 4 0.000000 0.000000 0.000000 0.055225 0.000000 0.000000
# 5 0.000000 0.000000 0.000000 0.000000 0.039463 0.000000
# 6 0.000000 0.000000 0.000000 0.000000 0.000000 0.050607
#
#
# Mechanical properties :
#
#
# Convention : Reuss Voigt Hill
#
# Bulk Modulus (GPa) = 36.84492 45.28358 41.06425
# Shear Modulus (GPa) = 20.25713 21.45931 20.85822
#
# Velocity S-wave (km/s) = 3.59585 3.70101 3.64881
# Velocity P-wave (km/s) = 6.38422 6.86788 6.63046
#
# Compressibility (1/GPa) = 0.02714078
#
# Stress axis : x y z
#
# Youngs Moduli (GPa) = 73.83372 40.17957 46.77223
#
# Poissons Ratio (x) = 0.29048 0.29841
# Poissons Ratio (y) = 0.53378 0.12752
# Poissons Ratio (z) = 0.47106 0.10954
#
# Static dielectric constant tensor:
#      x y z
#    x 3.118680 0.000000 0.000000 
#    y 0.000000 2.893320 0.000000 
#    z 0.000000 0.000000 3.078450 
# 
# 
# High freq. dielectric constant tensor:
#      x y z
#    x 1.592320 0.000000 0.000000 
#    y 0.000000 1.566410 0.000000 
#    z 0.000000 0.000000 1.615530 
# 
# From -- ./inp_files/5166.got.cif
#   From: 2010.03.12/outbox.cif.g09.slc.cpg/sg49_3_cif.got.tgz:5166.got - 2010.04.14 03:58:27.
