data_PCOD8202399
_publ_section_title
;
Structure prediction by ZEFSAII (Michael W. Deem and Ramdas Pophale) SiO2 
 PCOD8202399
Probable space group: P C C M
;
_chemical_formula_sum "Si O2"
_cell_formula_units_Z 48
_cell_length_a 9.093543
_cell_length_b 31.253451
_cell_length_c 8.408010
_cell_angle_alpha 90.000000
_cell_angle_beta 90.000000
_cell_angle_gamma 90.000000
_cell_volume 2389.595124
_symmetry_space_group_name_H-M "P C C M"
_symmetry_group_IT_number 49
_symmetry_cell_setting 'orthorhombic'
loop_
_space_group_symop_operation_xyz
x,y,z
-x,-y,z
x,-y,1/2-z
-x,y,1/2-z
-x,-y,-z
x,y,-z
-x,y,1/2+z
x,-y,1/2+z
loop_
_atom_site_type_symbol
_atom_site_label
_atom_site_fract_x
_atom_site_fract_y
_atom_site_fract_z
Si Si1 0.834486 0.456443 0.688931
Si Si2 0.161440 0.790503 0.814310
Si Si3 0.663178 0.288350 0.686454
Si Si4 0.834271 0.367995 0.187981
Si Si5 0.664799 0.956883 0.686331
Si Si6 0.337489 0.869073 0.685234
O O1 0.753723 0.500000 0.750000
O O2 0.828405 0.453180 0.500000
O O3 0.762499 0.414099 0.767228
O O4 0.000000 0.458384 0.750000
O O5 0.257845 0.748880 0.783442
O O6 0.228993 0.830674 0.723532
O O7 0.000000 0.781134 0.750000
O O8 0.157465 0.800746 0.000000
O O9 0.500000 0.292169 0.750000
O O10 0.665837 0.277580 0.500000
O O11 0.742600 0.332854 0.718690
O O12 0.000000 0.365676 0.250000
O O13 0.827691 0.360025 0.000000
O O14 0.500000 0.956494 0.750000
O O15 0.666512 0.958480 0.500000
O O16 0.736774 0.912466 0.744648
O O17 0.746170 0.000000 0.750000
O O18 0.500000 0.859105 0.750000
O O19 0.353515 0.875359 0.500000
#
# Coordination Sequence:
#
# PCOD8202399 Si02
#       6
#     8   8   8   8   8   8
#     4  10  17  28  47  76 111 149 189 235 282 332
#     4  12  25  43  63  87 115 149 188 233 283 339
#     4  12  25  43  63  87 115 149 188 233 283 339
#     4  11  21  36  57  85 117 153 192 237 285 337
#     4  10  17  28  47  76 111 149 189 235 282 332
#     4  11  21  36  57  85 117 153 192 237 285 337
#
# _framework density 20.087085999999999
#
# number of rings (size 3 to 8) (size 9 to 14) (size 15 to 20)
#    0.000    1.000    0.000   13.000    0.000    0.000 
#    0.000    0.000    0.000    1.000    0.000    7.000 
#    0.000    0.000    0.000    0.000    0.000    0.000 
#
# Total GULP energy -595192.028158 kJ/mol
# GULP energy per Si atom -12399.833920 kJ/mol
# Density = 2.004137 g / cm^3
# Si number density = 20.087086 Si / 1000 Ang^3
#
#
#
# Elastic Constant Matrix: (Units=GPa)
#
#
# Indices 1 2 3 4 5 6 
#
# 1 58.5334 35.0602 9.3103 0.0000 0.0000 0.0000
# 2 35.0602 155.8140 10.8327 0.0000 0.0000 0.0000
# 3 9.3103 10.8327 143.3681 0.0000 0.0000 0.0000
# 4 0.0000 0.0000 0.0000 40.5733 0.0000 0.0000
# 5 0.0000 0.0000 0.0000 0.0000 22.2531 0.0000
# 6 0.0000 0.0000 0.0000 0.0000 0.0000 38.9168
#
#
#
# Elastic Compliance Matrix: (Units=1/GPa)
#
#
# Indices 1 2 3 4 5 6 
#
# 1 0.019875 -0.004406 -0.000958 0.000000 0.000000 0.000000
# 2 -0.004406 0.007428 -0.000275 0.000000 0.000000 0.000000
# 3 -0.000958 -0.000275 0.007058 0.000000 0.000000 0.000000
# 4 0.000000 0.000000 0.000000 0.024647 0.000000 0.000000
# 5 0.000000 0.000000 0.000000 0.000000 0.044938 0.000000
# 6 0.000000 0.000000 0.000000 0.000000 0.000000 0.025696
#
#
# Mechanical properties :
#
#
# Convention : Reuss Voigt Hill
#
# Bulk Modulus (GPa) = 43.31895 52.01356 47.66625
# Shear Modulus (GPa) = 33.64415 40.51613 37.08014
#
# Velocity S-wave (km/s) = 4.09701 4.49600 4.30114
# Velocity P-wave (km/s) = 6.63273 7.27340 6.96044
#
# Compressibility (1/GPa) = 0.02308459
#
# Stress axis : x y z
#
# Youngs Moduli (GPa) = 50.31321 134.61897 141.68232
#
# Poissons Ratio (x) = 0.59309 0.13571
# Poissons Ratio (y) = 0.22166 0.03899
# Poissons Ratio (z) = 0.04819 0.03704
#
# Static dielectric constant tensor:
#      x y z
#    x 3.192520 0.000000 0.000000 
#    y 0.000000 5.195240 0.000000 
#    z 0.000000 0.000000 3.796140 
# 
# 
# High freq. dielectric constant tensor:
#      x y z
#    x 1.731870 0.000000 0.000000 
#    y 0.000000 1.818270 0.000000 
#    z 0.000000 0.000000 1.810200 
# 
# From -- ./inp_files/2018.got.cif
#   From: 2010.03.12/outbox.cif.g09.slc.cpg/sg49_2_cif.got.tgz:2018.got - 2010.04.14 03:58:27.
