data_PCOD8202968
_publ_section_title
;
Structure prediction by ZEFSAII (Michael W. Deem and Ramdas Pophale) SiO2 
 PCOD8202968
Probable space group: P C C M
;
_chemical_formula_sum "Si O2"
_cell_formula_units_Z 56
_cell_length_a 15.386524
_cell_length_b 24.949088
_cell_length_c 8.871360
_cell_angle_alpha 90.000000
_cell_angle_beta 90.000000
_cell_angle_gamma 90.000000
_cell_volume 3405.535382
_symmetry_space_group_name_H-M "P C C M"
_symmetry_group_IT_number 49
_symmetry_cell_setting 'orthorhombic'
loop_
_space_group_symop_operation_xyz
x,y,z
-x,-y,z
x,-y,1/2-z
-x,y,1/2-z
-x,-y,-z
x,y,-z
-x,y,1/2+z
x,-y,1/2+z
loop_
_atom_site_type_symbol
_atom_site_label
_atom_site_fract_x
_atom_site_fract_y
_atom_site_fract_z
Si Si1 0.906994 0.168669 0.323973
Si Si2 0.415116 0.245345 0.668148
Si Si3 0.759374 0.753379 0.824349
Si Si4 0.413538 0.372887 0.329265
Si Si5 0.763834 0.371311 0.676765
Si Si6 0.093806 0.050545 0.175519
Si Si7 0.908439 0.556857 0.680099
O O1 0.921629 0.177257 0.500000
O O2 0.839853 0.212448 0.259050
O O3 0.865886 0.109393 0.292208
O O4 0.000000 0.177851 0.250000
O O5 0.500000 0.221698 0.750000
O O6 0.415037 0.222615 0.500000
O O7 0.328272 0.224948 0.748618
O O8 0.418434 0.309208 0.669982
O O9 0.776042 0.691328 0.788641
O O10 0.747691 0.763513 0.000000
O O11 0.500000 0.396510 0.250000
O O12 0.407171 0.395043 0.500000
O O13 0.330045 0.391776 0.233604
O O14 0.773186 0.384358 0.500000
O O15 0.836913 0.400159 0.774063
O O16 0.000000 0.051834 0.250000
O O17 0.146457 0.000000 0.250000
O O18 0.085697 0.039240 0.000000
O O19 0.880976 0.500000 0.750000
O O20 0.915922 0.552556 0.500000
O O21 0.000000 0.575590 0.750000
#
# Coordination Sequence:
#
# PCOD8202968 Si02
#       7
#     8   8   8   8   8   8   8
#     4   9  18  30  42  59  86 121 154 186 223 263
#     4   9  16  26  42  63  87 116 150 186 224 263
#     4   9  18  31  45  64  93 124 153 184 221 266
#     4   9  16  27  44  68  95 123 153 185 221 264
#     4  10  19  32  50  72  96 123 153 186 225 270
#     4   9  15  24  39  57  78 106 145 187 225 261
#     4  11  22  38  57  75  94 117 150 192 233 271
#
# _framework density 16.443816999999999
#
# number of rings (size 3 to 8) (size 9 to 14) (size 15 to 20)
#    0.000    2.571    0.000    3.857    0.000    5.714 
#    0.000    1.429    0.000    0.429    0.000    3.000 
#    0.000    0.571    0.000    6.571    0.000    2.286 
#
# Total GULP energy -694137.099185 kJ/mol
# GULP energy per Si atom -12395.305343 kJ/mol
# Density = 1.640639 g / cm^3
# Si number density = 16.443817 Si / 1000 Ang^3
#
#
#
# Elastic Constant Matrix: (Units=GPa)
#
#
# Indices 1 2 3 4 5 6 
#
# 1 124.9629 55.8482 56.8794 0.0000 0.0000 0.0000
# 2 55.8482 57.6591 41.2880 0.0000 0.0000 0.0000
# 3 56.8794 41.2880 107.4172 0.0000 0.0000 0.0000
# 4 0.0000 0.0000 0.0000 79.3970 0.0000 0.0000
# 5 0.0000 0.0000 0.0000 0.0000 30.0013 0.0000
# 6 0.0000 0.0000 0.0000 0.0000 0.0000 0.4266
#
#
#
# Elastic Compliance Matrix: (Units=1/GPa)
#
#
# Indices 1 2 3 4 5 6 
#
# 1 0.014880 -0.012101 -0.003228 0.000000 0.000000 0.000000
# 2 -0.012101 0.033771 -0.006573 0.000000 0.000000 0.000000
# 3 -0.003228 -0.006573 0.013545 0.000000 0.000000 0.000000
# 4 0.000000 0.000000 0.000000 0.012595 0.000000 0.000000
# 5 0.000000 0.000000 0.000000 0.000000 0.033332 0.000000
# 6 0.000000 0.000000 0.000000 0.000000 0.000000 2.344118
#
#
# Mechanical properties :
#
#
# Convention : Reuss Voigt Hill
#
# Bulk Modulus (GPa) = 54.37035 66.45228 60.41132
# Shear Modulus (GPa) = 1.99826 31.03323 16.51575
#
# Velocity S-wave (km/s) = 1.10356 4.34894 3.17262
# Velocity P-wave (km/s) = 5.89575 8.10661 7.08791
#
# Compressibility (1/GPa) = 0.01839238
#
# Stress axis : x y z
#
# Youngs Moduli (GPa) = 67.20518 29.61124 73.82764
#
# Poissons Ratio (x) = 0.35833 0.23830
# Poissons Ratio (y) = 0.81326 0.48525
# Poissons Ratio (z) = 0.21693 0.19463
#
# Static dielectric constant tensor:
#      x y z
#    x 3.118740 0.000000 0.000000 
#    y 0.000000 3.355070 0.000000 
#    z 0.000000 0.000000 3.258820 
# 
# 
# High freq. dielectric constant tensor:
#      x y z
#    x 1.619930 0.000000 0.000000 
#    y 0.000000 1.600880 0.000000 
#    z 0.000000 0.000000 1.648690 
# 
# From -- ./inp_files/4501.got.cif
#   From: 2010.03.12/outbox.cif.g09.slc.cpg/sg49_3_cif.got.tgz:4501.got - 2010.04.14 03:58:27.
