data_PCOD8202151
_publ_section_title
;
Structure prediction by ZEFSAII (Michael W. Deem and Ramdas Pophale) SiO2 
 PCOD8202151
Probable space group: P N N N
;
_chemical_formula_sum "Si O2"
_cell_formula_units_Z 30
_cell_length_a 4.769832
_cell_length_b 18.084129
_cell_length_c 13.558274
_cell_angle_alpha 90.000000
_cell_angle_beta 90.000000
_cell_angle_gamma 90.000000
_cell_volume 1169.513086
_symmetry_space_group_name_H-M "P N N N"
_symmetry_group_IT_number 48
_space_group.IT_coordinate_system_code '2'
_symmetry_cell_setting 'orthorhombic'
loop_
_space_group_symop_operation_xyz
x,y,z
1/2-x,1/2-y,z
x,1/2-y,1/2-z
1/2-x,y,1/2-z
-x,-y,-z
1/2+x,1/2+y,-z
-x,1/2+y,1/2+z
1/2+x,-y,1/2+z
loop_
_atom_site_type_symbol
_atom_site_label
_atom_site_fract_x
_atom_site_fract_y
_atom_site_fract_z
Si Si1 0.250000 0.362348 0.250000
Si Si2 0.750000 0.750000 0.584337
Si Si3 0.480695 0.338704 0.919892
Si Si4 0.250000 0.537101 0.750000
Si Si5 0.250000 0.750000 0.250000
Si Si6 0.018017 0.941042 0.415957
O O1 0.367081 0.314180 0.342356
O O2 0.506858 0.410539 0.204695
O O3 0.500140 0.782562 0.513699
O O4 0.542859 0.297776 0.817675
O O5 0.159791 0.366031 0.926457
O O6 0.663434 0.413108 0.920600
O O7 0.425061 0.483502 0.680626
O O8 0.000000 0.000000 0.500000
#
# Coordination Sequence:
#
# PCOD8202151 Si02
#       6
#     4   4   8   4   2   8
#     4  11  26  45  74 105 144 187 238 294 356 423
#     4  11  26  47  72 106 144 189 238 295 356 424
#     4  12  26  45  71 103 142 187 236 293 352 420
#     4  12  24  45  70 103 142 188 236 294 352 420
#     4  12  28  48  72 106 144 190 240 296 356 424
#     4  12  25  44  71 103 141 185 235 291 352 420
#
# _framework density 25.651698
#
# number of rings (size 3 to 8) (size 9 to 14) (size 15 to 20)
#    0.000    0.267    0.000    8.800    0.000   10.133 
#    0.000    0.000    0.000    0.000    0.000    0.000 
#    0.000    0.000    0.000    0.000    0.000    0.000 
#
# Total GULP energy -371828.791889 kJ/mol
# GULP energy per Si atom -12394.293063 kJ/mol
# Density = 2.559331 g / cm^3
# Si number density = 25.651698 Si / 1000 Ang^3
#
#
#
# Elastic Constant Matrix: (Units=GPa)
#
#
# Indices 1 2 3 4 5 6 
#
# 1 77.2738 36.0271 21.9053 0.0000 0.0000 0.0000
# 2 36.0271 148.5105 70.5816 0.0000 0.0000 0.0000
# 3 21.9053 70.5816 171.1083 0.0000 0.0000 0.0000
# 4 0.0000 0.0000 0.0000 -203.8896 0.0000 0.0000
# 5 0.0000 0.0000 0.0000 0.0000 39.1903 0.0000
# 6 0.0000 0.0000 0.0000 0.0000 0.0000 37.4625
#
#
#
# Elastic Compliance Matrix: (Units=1/GPa)
#
#
# Indices 1 2 3 4 5 6 
#
# 1 0.014627 -0.003307 -0.000509 0.000000 0.000000 0.000000
# 2 -0.003307 0.009123 -0.003340 0.000000 0.000000 0.000000
# 3 -0.000509 -0.003340 0.007287 0.000000 0.000000 0.000000
# 4 0.000000 0.000000 0.000000 -0.004905 0.000000 0.000000
# 5 0.000000 0.000000 0.000000 0.000000 0.025517 0.000000
# 6 0.000000 0.000000 0.000000 0.000000 0.000000 0.026693
#
#
# Mechanical properties :
#
#
# Convention : Reuss Voigt Hill
#
# Bulk Modulus (GPa) = 59.78455 72.65782 66.22119
# Shear Modulus (GPa) = 50.90208 -7.55544 21.67332
#
# Velocity S-wave (km/s) = 4.45944 -1.71808 2.90988
# Velocity P-wave (km/s) = 7.06204 4.94475 6.09602
#
# Compressibility (1/GPa) = 0.01672673
#
# Stress axis : x y z
#
# Youngs Moduli (GPa) = 68.36774 109.61298 137.22971
#
# Poissons Ratio (x) = 0.36245 0.06979
# Poissons Ratio (y) = 0.22607 0.45833
# Poissons Ratio (z) = 0.03477 0.36610
#
# Static dielectric constant tensor:
#      x y z
#    x 4.510580 0.000000 0.000000 
#    y 0.000000 5.062990 0.000000 
#    z 0.000000 0.000000 3.255140 
# 
# 
# High freq. dielectric constant tensor:
#      x y z
#    x 2.019110 0.000000 0.000000 
#    y 0.000000 2.059110 0.000000 
#    z 0.000000 0.000000 2.025180 
# 
# From -- ./inp_files/17410.got.cif
#   From: 2010.06.25/outbox.cif.g09.slc.cpg/sg48_9_cif.got.tgz:17410.got - 2010.06.26 18:06:46.
