data_PCOD8202773
_publ_section_title
;
Structure prediction by ZEFSAII (Michael W. Deem and Ramdas Pophale) SiO2 
 PCOD8202773
Probable space group: P C C M
;
_chemical_formula_sum "Si O2"
_cell_formula_units_Z 64
_cell_length_a 19.628675
_cell_length_b 19.365578
_cell_length_c 9.303046
_cell_angle_alpha 90.000000
_cell_angle_beta 90.000000
_cell_angle_gamma 90.000000
_cell_volume 3536.279769
_symmetry_space_group_name_H-M "P C C M"
_symmetry_group_IT_number 49
_symmetry_cell_setting 'orthorhombic'
loop_
_space_group_symop_operation_xyz
x,y,z
-x,-y,z
x,-y,1/2-z
-x,y,1/2-z
-x,-y,-z
x,y,-z
-x,y,1/2+z
x,-y,1/2+z
loop_
_atom_site_type_symbol
_atom_site_label
_atom_site_fract_x
_atom_site_fract_y
_atom_site_fract_z
Si Si1 0.844903 0.435122 0.161829
Si Si2 0.316120 0.566282 0.162840
Si Si3 0.680707 0.071646 0.330462
Si Si4 0.213905 0.185494 0.829172
Si Si5 0.062550 0.807781 0.340970
Si Si6 0.568931 0.178579 0.335829
Si Si7 0.678106 0.704398 0.833639
Si Si8 0.938004 0.353702 0.659720
O O1 0.874746 0.500000 0.250000
O O2 0.764512 0.437342 0.158446
O O3 0.868993 0.367905 0.250649
O O4 0.874352 0.434244 0.000000
O O5 0.345130 0.500000 0.250000
O O6 0.337436 0.636701 0.240875
O O7 0.345465 0.565301 0.000000
O O8 0.681669 0.058767 0.500000
O O9 0.746225 0.116540 0.282961
O O10 0.612690 0.112565 0.283992
O O11 0.683445 0.000000 0.250000
O O12 0.136863 0.180219 0.766918
O O13 0.255218 0.253667 0.775689
O O14 0.210512 0.191959 0.000000
O O15 0.060572 0.841645 0.500000
O O16 0.050596 0.726998 0.355139
O O17 0.000000 0.840753 0.250000
O O18 0.500000 0.184433 0.250000
O O19 0.548596 0.168429 0.500000
O O20 0.612391 0.247680 0.315108
O O21 0.688600 0.683089 0.000000
O O22 0.933711 0.386490 0.500000
O O23 0.000000 0.387381 0.750000
#
# Coordination Sequence:
#
# PCOD8202773 Si02
#       8
#     8   8   8   8   8   8   8   8
#     4  10  20  32  44  60  83 111 147 189 235 289
#     4  10  20  32  48  71  97 125 158 202 252 298
#     4   9  18  33  52  76 105 137 172 205 239 283
#     4   8  15  30  51  71  95 130 167 202 247 300
#     4   9  17  29  46  67  90 118 152 195 245 294
#     4   9  19  34  53  78 108 140 170 202 241 288
#     4   9  17  32  53  74  97 129 169 208 247 295
#     4  10  19  30  44  61  82 110 145 187 239 295
#
# _framework density 18.098116000000001
#
# number of rings (size 3 to 8) (size 9 to 14) (size 15 to 20)
#    0.000    2.750    0.000    3.375    0.000    4.500 
#    0.000    5.625    0.000    0.750    0.000    5.250 
#    0.000    0.000    0.000    0.000    0.000    0.000 
#
# Total GULP energy -793247.200720 kJ/mol
# GULP energy per Si atom -12394.487511 kJ/mol
# Density = 1.805692 g / cm^3
# Si number density = 18.098116 Si / 1000 Ang^3
#
#
#
# Elastic Constant Matrix: (Units=GPa)
#
#
# Indices 1 2 3 4 5 6 
#
# 1 102.7421 24.9784 38.9372 0.0000 0.0000 0.0000
# 2 24.9784 93.9295 43.1258 0.0000 0.0000 0.0000
# 3 38.9372 43.1258 97.5559 0.0000 0.0000 0.0000
# 4 0.0000 0.0000 0.0000 27.3906 0.0000 0.0000
# 5 0.0000 0.0000 0.0000 0.0000 26.8028 0.0000
# 6 0.0000 0.0000 0.0000 0.0000 0.0000 14.6215
#
#
#
# Elastic Compliance Matrix: (Units=1/GPa)
#
#
# Indices 1 2 3 4 5 6 
#
# 1 0.011575 -0.001201 -0.004089 0.000000 0.000000 0.000000
# 2 -0.001201 0.013482 -0.005481 0.000000 0.000000 0.000000
# 3 -0.004089 -0.005481 0.014305 0.000000 0.000000 0.000000
# 4 0.000000 0.000000 0.000000 0.036509 0.000000 0.000000
# 5 0.000000 0.000000 0.000000 0.000000 0.037310 0.000000
# 6 0.000000 0.000000 0.000000 0.000000 0.000000 0.068392
#
#
# Mechanical properties :
#
#
# Convention : Reuss Voigt Hill
#
# Bulk Modulus (GPa) = 56.11246 56.47891 56.29569
# Shear Modulus (GPa) = 23.91731 26.24206 25.07968
#
# Velocity S-wave (km/s) = 3.63924 3.81200 3.72662
# Velocity P-wave (km/s) = 6.98073 7.11688 7.04913
#
# Compressibility (1/GPa) = 0.01782135
#
# Stress axis : x y z
#
# Youngs Moduli (GPa) = 86.39567 74.17361 69.90392
#
# Poissons Ratio (x) = 0.08906 0.28584
# Poissons Ratio (y) = 0.10373 0.38312
# Poissons Ratio (z) = 0.35327 0.40652
#
# Static dielectric constant tensor:
#      x y z
#    x 3.323210 0.000000 0.000000 
#    y 0.000000 3.156690 0.000000 
#    z 0.000000 0.000000 3.474030 
# 
# 
# High freq. dielectric constant tensor:
#      x y z
#    x 1.688450 0.000000 0.000000 
#    y 0.000000 1.680640 0.000000 
#    z 0.000000 0.000000 1.693950 
# 
# From -- ./inp_files/5942.got.cif
#   From: 2010.03.12/outbox.cif.g09.slc.cpg/sg49_3_cif.got.tgz:5942.got - 2010.04.14 03:58:27.
