data_PCOD8202631
_publ_section_title
;
Structure prediction by ZEFSAII (Michael W. Deem and Ramdas Pophale) SiO2 
 PCOD8202631
Probable space group: P C C M
;
_chemical_formula_sum "Si O2"
_cell_formula_units_Z 64
_cell_length_a 18.613849
_cell_length_b 21.443688
_cell_length_c 8.814570
_cell_angle_alpha 90.000000
_cell_angle_beta 90.000000
_cell_angle_gamma 90.000000
_cell_volume 3518.331829
_symmetry_space_group_name_H-M "P C C M"
_symmetry_group_IT_number 49
_symmetry_cell_setting 'orthorhombic'
loop_
_space_group_symop_operation_xyz
x,y,z
-x,-y,z
x,-y,1/2-z
-x,y,1/2-z
-x,-y,-z
x,y,-z
-x,y,1/2+z
x,-y,1/2+z
loop_
_atom_site_type_symbol
_atom_site_label
_atom_site_fract_x
_atom_site_fract_y
_atom_site_fract_z
Si Si1 0.070801 0.397390 0.168704
Si Si2 0.641664 0.562429 0.179338
Si Si3 0.075987 0.933627 0.680111
Si Si4 0.931429 0.251150 0.668418
Si Si5 0.290054 0.258465 0.324437
Si Si6 0.171214 0.168621 0.674579
Si Si7 0.574713 0.308293 0.677993
Si Si8 0.220011 0.387113 0.678709
O O1 0.059972 0.324095 0.153963
O O2 0.142420 0.410307 0.263942
O O3 0.000000 0.426262 0.250000
O O4 0.077829 0.426439 0.000000
O O5 0.606348 0.500000 0.250000
O O6 0.594401 0.621658 0.231899
O O7 0.721926 0.568267 0.243626
O O8 0.644579 0.557081 0.000000
O O9 0.068534 0.939274 0.500000
O O10 0.141510 0.887104 0.721161
O O11 0.000000 0.910470 0.750000
O O12 0.096983 0.000000 0.750000
O O13 0.922546 0.221238 0.500000
O O14 0.866972 0.233049 0.779075
O O15 0.000000 0.220730 0.750000
O O16 0.309314 0.267682 0.500000
O O17 0.254092 0.189758 0.297893
O O18 0.363461 0.260307 0.229684
O O19 0.237510 0.315515 0.273600
O O20 0.157296 0.151240 0.500000
O O21 0.500000 0.287251 0.750000
O O22 0.567316 0.304215 0.500000
O O23 0.222581 0.396532 0.500000
#
# Coordination Sequence:
#
# PCOD8202631 Si02
#       8
#     8   8   8   8   8   8   8   8
#     4  10  19  29  43  64  92 124 160 202 248 300
#     4  10  21  36  54  78 102 132 169 209 248 295
#     4  11  22  37  53  71  98 139 186 232 274 315
#     4  10  19  28  40  61  91 125 161 203 248 296
#     4   9  19  33  51  74 102 133 167 204 251 305
#     4  11  20  32  49  71  99 132 171 216 260 307
#     4  10  21  36  56  79 108 139 169 202 246 300
#     4  10  18  32  51  71  97 130 163 206 257 306
#
# _framework density 18.190439000000001
#
# number of rings (size 3 to 8) (size 9 to 14) (size 15 to 20)
#    0.000    1.875    1.250    4.125    0.000    4.250 
#    0.000    1.250    0.000    0.375    0.000    2.625 
#    0.000    0.500    0.000    5.250    0.000    2.250 
#
# Total GULP energy -793321.268523 kJ/mol
# GULP energy per Si atom -12395.644821 kJ/mol
# Density = 1.814904 g / cm^3
# Si number density = 18.190439 Si / 1000 Ang^3
#
#
#
# Elastic Constant Matrix: (Units=GPa)
#
#
# Indices 1 2 3 4 5 6 
#
# 1 100.7568 18.6684 39.9447 0.0000 0.0000 0.0000
# 2 18.6684 54.6679 27.4837 0.0000 0.0000 0.0000
# 3 39.9447 27.4837 95.4559 0.0000 0.0000 0.0000
# 4 0.0000 0.0000 0.0000 22.4774 0.0000 0.0000
# 5 0.0000 0.0000 0.0000 0.0000 28.9120 0.0000
# 6 0.0000 0.0000 0.0000 0.0000 0.0000 8.3997
#
#
#
# Elastic Compliance Matrix: (Units=1/GPa)
#
#
# Indices 1 2 3 4 5 6 
#
# 1 0.012057 -0.001848 -0.004513 0.000000 0.000000 0.000000
# 2 -0.001848 0.021672 -0.005466 0.000000 0.000000 0.000000
# 3 -0.004513 -0.005466 0.013938 0.000000 0.000000 0.000000
# 4 0.000000 0.000000 0.000000 0.044489 0.000000 0.000000
# 5 0.000000 0.000000 0.000000 0.000000 0.034588 0.000000
# 6 0.000000 0.000000 0.000000 0.000000 0.000000 0.119051
#
#
# Mechanical properties :
#
#
# Convention : Reuss Voigt Hill
#
# Bulk Modulus (GPa) = 41.64693 47.00823 44.32758
# Shear Modulus (GPa) = 18.02103 22.94341 20.48222
#
# Velocity S-wave (km/s) = 3.15093 3.55532 3.35922
# Velocity P-wave (km/s) = 6.01519 6.53851 6.28230
#
# Compressibility (1/GPa) = 0.02401137
#
# Stress axis : x y z
#
# Youngs Moduli (GPa) = 82.94273 46.14346 71.74412
#
# Poissons Ratio (x) = 0.08528 0.32378
# Poissons Ratio (y) = 0.15330 0.39217
# Poissons Ratio (z) = 0.37432 0.25223
#
# Static dielectric constant tensor:
#      x y z
#    x 3.274960 0.000000 0.000000 
#    y 0.000000 3.127390 0.000000 
#    z 0.000000 0.000000 3.518270 
# 
# 
# High freq. dielectric constant tensor:
#      x y z
#    x 1.687560 0.000000 0.000000 
#    y 0.000000 1.669380 0.000000 
#    z 0.000000 0.000000 1.721910 
# 
# From -- ./inp_files/5426.got.cif
#   From: 2010.03.12/outbox.cif.g09.slc.cpg/sg49_3_cif.got.tgz:5426.got - 2010.04.14 03:58:27.
