data_PCOD8202453
_publ_section_title
;
Structure prediction by ZEFSAII (Michael W. Deem and Ramdas Pophale) SiO2 
 PCOD8202453
Probable space group: P C C M
;
_chemical_formula_sum "Si O2"
_cell_formula_units_Z 56
_cell_length_a 18.527236
_cell_length_b 21.622043
_cell_length_c 8.730542
_cell_angle_alpha 90.000000
_cell_angle_beta 90.000000
_cell_angle_gamma 90.000000
_cell_volume 3497.426257
_symmetry_space_group_name_H-M "P C C M"
_symmetry_group_IT_number 49
_symmetry_cell_setting 'orthorhombic'
loop_
_space_group_symop_operation_xyz
x,y,z
-x,-y,z
x,-y,1/2-z
-x,y,1/2-z
-x,-y,-z
x,y,-z
-x,y,1/2+z
x,-y,1/2+z
loop_
_atom_site_type_symbol
_atom_site_label
_atom_site_fract_x
_atom_site_fract_y
_atom_site_fract_z
Si Si1 0.783068 0.260260 0.324052
Si Si2 0.578277 0.309231 0.681857
Si Si3 0.835097 0.563652 0.181628
Si Si4 0.707291 0.371556 0.821499
Si Si5 0.345649 0.815352 0.677039
Si Si6 0.075281 0.318235 0.175140
Si Si7 0.578969 0.936345 0.183093
O O1 0.766894 0.282745 0.500000
O O2 0.750480 0.308311 0.205004
O O3 0.741106 0.195208 0.296007
O O4 0.869745 0.259693 0.299600
O O5 0.500000 0.319619 0.750000
O O6 0.575629 0.311665 0.500000
O O7 0.628824 0.364979 0.742877
O O8 0.609678 0.243280 0.742479
O O9 0.866382 0.500000 0.250000
O O10 0.753921 0.573516 0.245354
O O11 0.887775 0.618986 0.239146
O O12 0.832349 0.560559 0.000000
O O13 0.697679 0.385125 0.000000
O O14 0.364279 0.819908 0.500000
O O15 0.370914 0.880516 0.748159
O O16 0.000000 0.301315 0.250000
O O17 0.057724 0.328945 0.000000
O O18 0.500000 0.924740 0.250000
O O19 0.611526 0.000000 0.250000
O O20 0.575807 0.940394 0.000000
#
# Coordination Sequence:
#
# PCOD8202453 Si02
#       7
#     8   8   8   8   8   8   8
#     4   8  15  30  46  62  84 113 144 177 214 256
#     4  10  18  29  44  64  87 111 141 181 222 263
#     4  10  20  34  49  66  86 114 147 179 209 247
#     4  10  18  29  45  65  86 111 140 175 217 261
#     4   8  15  27  44  61  82 112 148 183 217 255
#     4   9  18  30  46  66  92 118 140 168 209 255
#     4  10  18  28  40  57  83 118 152 185 219 256
#
# _framework density 16.011775
#
# number of rings (size 3 to 8) (size 9 to 14) (size 15 to 20)
#    0.000    2.714    0.000    5.143    0.000    3.143 
#    0.000    7.857    0.000    0.429    0.000    3.000 
#    0.000    0.571    0.000    7.143    0.000    0.000 
#
# Total GULP energy -693826.945917 kJ/mol
# GULP energy per Si atom -12389.766891 kJ/mol
# Density = 1.597533 g / cm^3
# Si number density = 16.011775 Si / 1000 Ang^3
#
#
#
# Elastic Constant Matrix: (Units=GPa)
#
#
# Indices 1 2 3 4 5 6 
#
# 1 122.6139 37.5079 29.4478 0.0000 0.0000 0.0000
# 2 37.5079 55.0141 14.3255 0.0000 0.0000 0.0000
# 3 29.4478 14.3255 62.1605 0.0000 0.0000 0.0000
# 4 0.0000 0.0000 0.0000 13.2238 0.0000 0.0000
# 5 0.0000 0.0000 0.0000 0.0000 25.8609 0.0000
# 6 0.0000 0.0000 0.0000 0.0000 0.0000 19.8067
#
#
#
# Elastic Compliance Matrix: (Units=1/GPa)
#
#
# Indices 1 2 3 4 5 6 
#
# 1 0.011060 -0.006571 -0.003725 0.000000 0.000000 0.000000
# 2 -0.006571 0.023241 -0.002243 0.000000 0.000000 0.000000
# 3 -0.003725 -0.002243 0.018369 0.000000 0.000000 0.000000
# 4 0.000000 0.000000 0.000000 0.075621 0.000000 0.000000
# 5 0.000000 0.000000 0.000000 0.000000 0.038668 0.000000
# 6 0.000000 0.000000 0.000000 0.000000 0.000000 0.050488
#
#
# Mechanical properties :
#
#
# Convention : Reuss Voigt Hill
#
# Bulk Modulus (GPa) = 36.24267 44.70566 40.47416
# Shear Modulus (GPa) = 19.86297 22.34545 21.10421
#
# Velocity S-wave (km/s) = 3.52593 3.73978 3.63442
# Velocity P-wave (km/s) = 6.26581 6.82854 6.55322
#
# Compressibility (1/GPa) = 0.02759179
#
# Stress axis : x y z
#
# Youngs Moduli (GPa) = 90.41243 43.02705 54.43877
#
# Poissons Ratio (x) = 0.28272 0.20281
# Poissons Ratio (y) = 0.59408 0.12212
# Poissons Ratio (z) = 0.33683 0.09652
#
# Static dielectric constant tensor:
#      x y z
#    x 3.171140 0.000000 0.000000 
#    y 0.000000 3.088540 0.000000 
#    z 0.000000 0.000000 2.942730 
# 
# 
# High freq. dielectric constant tensor:
#      x y z
#    x 1.606700 0.000000 0.000000 
#    y 0.000000 1.581100 0.000000 
#    z 0.000000 0.000000 1.613710 
# 
# From -- ./inp_files/5351.got.cif
#   From: 2010.03.12/outbox.cif.g09.slc.cpg/sg49_3_cif.got.tgz:5351.got - 2010.04.14 03:58:27.
