data_PCOD8202346
_publ_section_title
;
Structure prediction by ZEFSAII (Michael W. Deem and Ramdas Pophale) SiO2 
 PCOD8202346
Probable space group: P C C M
;
_chemical_formula_sum "Si O2"
_cell_formula_units_Z 48
_cell_length_a 9.093423
_cell_length_b 30.852644
_cell_length_c 8.660381
_cell_angle_alpha 90.000000
_cell_angle_beta 90.000000
_cell_angle_gamma 90.000000
_cell_volume 2429.723086
_symmetry_space_group_name_H-M "P C C M"
_symmetry_group_IT_number 49
_symmetry_cell_setting 'orthorhombic'
loop_
_space_group_symop_operation_xyz
x,y,z
-x,-y,z
x,-y,1/2-z
-x,y,1/2-z
-x,-y,-z
x,y,-z
-x,y,1/2+z
x,-y,1/2+z
loop_
_atom_site_type_symbol
_atom_site_label
_atom_site_fract_x
_atom_site_fract_y
_atom_site_fract_z
Si Si1 0.339742 0.206410 0.817711
Si Si2 0.160774 0.871467 0.818734
Si Si3 0.656208 0.954488 0.680830
Si Si4 0.159464 0.715570 0.819488
Si Si5 0.663642 0.456867 0.682684
Si Si6 0.658744 0.629840 0.679744
O O1 0.500000 0.213960 0.750000
O O2 0.272952 0.162062 0.755350
O O3 0.238965 0.246204 0.769899
O O4 0.350901 0.203726 0.000000
O O5 0.220013 0.919268 0.778678
O O6 0.000000 0.865202 0.750000
O O7 0.153854 0.862942 0.000000
O O8 0.500000 0.939888 0.750000
O O9 0.634283 0.959881 0.500000
O O10 0.710493 0.000000 0.750000
O O11 0.240794 0.670793 0.786637
O O12 0.000000 0.710449 0.750000
O O13 0.153527 0.726928 0.000000
O O14 0.744380 0.500000 0.750000
O O15 0.500000 0.455643 0.750000
O O16 0.663100 0.459274 0.500000
O O17 0.737414 0.412062 0.740678
O O18 0.500000 0.639930 0.750000
O O19 0.639752 0.620053 0.500000
#
# Coordination Sequence:
#
# PCOD8202346 Si02
#       6
#     8   8   8   8   8   8
#     4  12  25  42  65  90 118 151 191 238 286 341
#     4  11  24  41  61  88 121 158 197 239 291 346
#     4  10  21  37  60  87 117 154 197 244 292 344
#     4  11  24  41  61  85 116 152 190 234 285 342
#     4  10  17  27  46  73 107 143 181 228 279 330
#     4  10  20  34  54  81 111 145 186 231 280 334
#
# _framework density 19.755337999999998
#
# number of rings (size 3 to 8) (size 9 to 14) (size 15 to 20)
#    0.000    1.333    0.000    8.500    0.000    8.333 
#    0.000    1.667    0.000    0.500    0.000    3.500 
#    0.000    0.000    0.000    0.000    0.000    0.000 
#
# Total GULP energy -595310.265708 kJ/mol
# GULP energy per Si atom -12402.297202 kJ/mol
# Density = 1.971037 g / cm^3
# Si number density = 19.755338 Si / 1000 Ang^3
#
#
#
# Elastic Constant Matrix: (Units=GPa)
#
#
# Indices 1 2 3 4 5 6 
#
# 1 81.8305 37.0980 38.6629 0.0000 0.0000 0.0000
# 2 37.0980 122.2602 72.0329 0.0000 0.0000 0.0000
# 3 38.6629 72.0329 153.7774 0.0000 0.0000 0.0000
# 4 0.0000 0.0000 0.0000 33.3624 0.0000 0.0000
# 5 0.0000 0.0000 0.0000 0.0000 27.4677 0.0000
# 6 0.0000 0.0000 0.0000 0.0000 0.0000 30.0283
#
#
#
# Elastic Compliance Matrix: (Units=1/GPa)
#
#
# Indices 1 2 3 4 5 6 
#
# 1 0.014698 -0.003153 -0.002219 0.000000 0.000000 0.000000
# 2 -0.003153 0.011973 -0.004816 0.000000 0.000000 0.000000
# 3 -0.002219 -0.004816 0.009317 0.000000 0.000000 0.000000
# 4 0.000000 0.000000 0.000000 0.029974 0.000000 0.000000
# 5 0.000000 0.000000 0.000000 0.000000 0.036406 0.000000
# 6 0.000000 0.000000 0.000000 0.000000 0.000000 0.033302
#
#
# Mechanical properties :
#
#
# Convention : Reuss Voigt Hill
#
# Bulk Modulus (GPa) = 64.04752 72.60618 68.32685
# Shear Modulus (GPa) = 31.00795 32.17663 31.59229
#
# Velocity S-wave (km/s) = 3.96611 4.04016 4.00331
# Velocity P-wave (km/s) = 7.31192 7.65483 7.48534
#
# Compressibility (1/GPa) = 0.01561341
#
# Stress axis : x y z
#
# Youngs Moduli (GPa) = 68.03699 83.51870 107.33536
#
# Poissons Ratio (x) = 0.26331 0.23813
# Poissons Ratio (y) = 0.21450 0.51692
# Poissons Ratio (z) = 0.15094 0.40222
#
# Static dielectric constant tensor:
#      x y z
#    x 3.416110 0.000000 0.000000 
#    y 0.000000 4.287360 0.000000 
#    z 0.000000 0.000000 3.823760 
# 
# 
# High freq. dielectric constant tensor:
#      x y z
#    x 1.747390 0.000000 0.000000 
#    y 0.000000 1.796740 0.000000 
#    z 0.000000 0.000000 1.792210 
# 
# From -- ./inp_files/2040.got.cif
#   From: 2010.03.12/outbox.cif.g09.slc.cpg/sg49_2_cif.got.tgz:2040.got - 2010.04.14 03:58:27.
