data_PCOD8202113
_publ_section_title
;
Structure prediction by ZEFSAII (Michael W. Deem and Ramdas Pophale) SiO2 
 PCOD8202113
Probable space group: P N N N
;
_chemical_formula_sum "Si O2"
_cell_formula_units_Z 40
_cell_length_a 11.332498
_cell_length_b 15.591234
_cell_length_c 9.519844
_cell_angle_alpha 90.000000
_cell_angle_beta 90.000000
_cell_angle_gamma 90.000000
_cell_volume 1682.038656
_symmetry_space_group_name_H-M "P N N N"
_symmetry_group_IT_number 48
_space_group.IT_coordinate_system_code '2'
_symmetry_cell_setting 'orthorhombic'
loop_
_space_group_symop_operation_xyz
x,y,z
1/2-x,1/2-y,z
x,1/2-y,1/2-z
1/2-x,y,1/2-z
-x,-y,-z
1/2+x,1/2+y,-z
-x,1/2+y,1/2+z
1/2+x,-y,1/2+z
loop_
_atom_site_type_symbol
_atom_site_label
_atom_site_fract_x
_atom_site_fract_y
_atom_site_fract_z
Si Si1 0.952444 0.041725 0.295094
Si Si2 0.474943 0.114239 0.488722
Si Si3 0.277104 0.096668 0.896941
Si Si4 0.007290 0.191794 0.483594
Si Si5 0.887183 0.395168 0.776777
O O1 0.962745 0.051119 0.124440
O O2 0.952881 0.136589 0.357280
O O3 0.834185 0.994224 0.346463
O O4 0.065076 0.984141 0.347839
O O5 0.340414 0.082716 0.511144
O O6 0.479742 0.211364 0.431392
O O7 0.543746 0.115178 0.633378
O O8 0.250000 0.145943 0.750000
O O9 0.363087 0.156530 0.984505
O O10 0.920692 0.182992 0.619107
O O11 0.750000 0.398978 0.750000
#
# Coordination Sequence:
#
# PCOD8202113 Si02
#       5
#     8   8   8   8   8
#     4  11  26  43  70 104 143 185 236 296 359 432
#     4  12  25  44  73 102 141 188 240 301 358 423
#     4  11  23  43  72 100 140 185 246 288 357 431
#     4  11  25  44  68 106 143 182 237 303 360 419
#     4  11  25  44  72  96 141 187 238 281 359 440
#
# _framework density 23.780667000000001
#
# number of rings (size 3 to 8) (size 9 to 14) (size 15 to 20)
#    0.000    0.800    4.000    4.800    5.600    2.400 
#    0.000    2.000    0.000    3.600    0.000    0.000 
#    0.000    0.000    0.000    0.000    0.000    0.000 
#
# Total GULP energy -495961.624414 kJ/mol
# GULP energy per Si atom -12399.040610 kJ/mol
# Density = 2.372654 g / cm^3
# Si number density = 23.780667 Si / 1000 Ang^3
#
#
#
# Elastic Constant Matrix: (Units=GPa)
#
#
# Indices 1 2 3 4 5 6 
#
# 1 167.2937 45.8446 23.8997 0.0000 0.0000 0.0000
# 2 45.8446 105.8112 -1.8121 0.0000 0.0000 0.0000
# 3 23.8997 -1.8121 61.4078 0.0000 0.0000 0.0000
# 4 0.0000 0.0000 0.0000 35.0937 0.0000 0.0000
# 5 0.0000 0.0000 0.0000 0.0000 13.5757 0.0000
# 6 0.0000 0.0000 0.0000 0.0000 0.0000 19.0849
#
#
#
# Elastic Compliance Matrix: (Units=1/GPa)
#
#
# Indices 1 2 3 4 5 6 
#
# 1 0.007273 -0.003201 -0.002925 0.000000 0.000000 0.000000
# 2 -0.003201 0.010865 0.001566 0.000000 0.000000 0.000000
# 3 -0.002925 0.001566 0.017469 0.000000 0.000000 0.000000
# 4 0.000000 0.000000 0.000000 0.028495 0.000000 0.000000
# 5 0.000000 0.000000 0.000000 0.000000 0.073661 0.000000
# 6 0.000000 0.000000 0.000000 0.000000 0.000000 0.052397
#
#
# Mechanical properties :
#
#
# Convention : Reuss Voigt Hill
#
# Bulk Modulus (GPa) = 37.75409 52.26413 45.00911
# Shear Modulus (GPa) = 24.02596 31.32289 27.67443
#
# Velocity S-wave (km/s) = 3.18199 3.63320 3.41506
# Velocity P-wave (km/s) = 5.42315 6.29488 5.87520
#
# Compressibility (1/GPa) = 0.02648720
#
# Stress axis : x y z
#
# Youngs Moduli (GPa) = 137.50289 92.04259 57.24370
#
# Poissons Ratio (x) = 0.29463 0.16743
# Poissons Ratio (y) = 0.44016 -0.08967
# Poissons Ratio (z) = 0.40218 -0.14418
#
# Static dielectric constant tensor:
#      x y z
#    x 5.169650 0.000000 0.000000 
#    y 0.000000 4.523700 0.000000 
#    z 0.000000 0.000000 4.341130 
# 
# 
# High freq. dielectric constant tensor:
#      x y z
#    x 1.936060 0.000000 0.000000 
#    y 0.000000 1.945470 0.000000 
#    z 0.000000 0.000000 1.949530 
# 
# From -- ./inp_files/10684.got.cif
#   From: 2010.06.25/outbox.cif.g09.slc.cpg/sg48_6_cif.got.tgz:10684.got - 2010.06.26 18:06:46.
