data_PCOD8202333
_publ_section_title
;
Structure prediction by ZEFSAII (Michael W. Deem and Ramdas Pophale) SiO2 
 PCOD8202333
Probable space group: P C C M
;
_chemical_formula_sum "Si O2"
_cell_formula_units_Z 32
_cell_length_a 9.350290
_cell_length_b 20.883704
_cell_length_c 8.613843
_cell_angle_alpha 90.000000
_cell_angle_beta 90.000000
_cell_angle_gamma 90.000000
_cell_volume 1682.013827
_symmetry_space_group_name_H-M "P C C M"
_symmetry_group_IT_number 49
_symmetry_cell_setting 'orthorhombic'
loop_
_space_group_symop_operation_xyz
x,y,z
-x,-y,z
x,-y,1/2-z
-x,y,1/2-z
-x,-y,-z
x,y,-z
-x,y,1/2+z
x,-y,1/2+z
loop_
_atom_site_type_symbol
_atom_site_label
_atom_site_fract_x
_atom_site_fract_y
_atom_site_fract_z
Si Si1 0.156928 0.814218 0.316851
Si Si2 0.655201 0.932545 0.815792
Si Si3 0.342124 0.305763 0.815736
Si Si4 0.659480 0.564070 0.684177
O O1 0.147721 0.814075 0.500000
O O2 0.235836 0.878199 0.257902
O O3 0.244576 0.752677 0.258236
O O4 0.000000 0.811891 0.250000
O O5 0.500000 0.915516 0.750000
O O6 0.711515 0.000000 0.750000
O O7 0.645093 0.936274 0.000000
O O8 0.500000 0.294479 0.750000
O O9 0.268893 0.370548 0.747052
O O10 0.351016 0.310989 0.000000
O O11 0.738156 0.500000 0.750000
O O12 0.500000 0.564526 0.750000
O O13 0.659927 0.562733 0.500000
#
# Coordination Sequence:
#
# PCOD8202333 Si02
#       4
#     8   8   8   8
#     4  10  23  38  54  76 106 140 177 215 259 309
#     4  10  20  36  57  83 108 137 173 214 259 309
#     4  10  19  33  52  77 104 135 173 216 260 310
#     4  10  17  27  45  72 103 135 168 211 260 308
#
# _framework density 19.024813999999999
#
# number of rings (size 3 to 8) (size 9 to 14) (size 15 to 20)
#    0.000    2.000    0.000    7.500    0.000    4.500 
#    0.000    2.500    0.000    0.750    0.000    5.250 
#    0.000    0.000    0.000    0.000    0.000    0.000 
#
# Total GULP energy -396747.073882 kJ/mol
# GULP energy per Si atom -12398.346059 kJ/mol
# Density = 1.898151 g / cm^3
# Si number density = 19.024814 Si / 1000 Ang^3
#
#
#
# Elastic Constant Matrix: (Units=GPa)
#
#
# Indices 1 2 3 4 5 6 
#
# 1 94.5803 92.0860 32.7823 0.0000 0.0000 0.0000
# 2 92.0860 220.0819 63.5312 0.0000 0.0000 0.0000
# 3 32.7823 63.5312 104.3628 0.0000 0.0000 0.0000
# 4 0.0000 0.0000 0.0000 33.1007 0.0000 0.0000
# 5 0.0000 0.0000 0.0000 0.0000 26.3031 0.0000
# 6 0.0000 0.0000 0.0000 0.0000 0.0000 8.4800
#
#
#
# Elastic Compliance Matrix: (Units=1/GPa)
#
#
# Indices 1 2 3 4 5 6 
#
# 1 0.017985 -0.007151 -0.001296 0.000000 0.000000 0.000000
# 2 -0.007151 0.008356 -0.002840 0.000000 0.000000 0.000000
# 3 -0.001296 -0.002840 0.011718 0.000000 0.000000 0.000000
# 4 0.000000 0.000000 0.000000 0.030211 0.000000 0.000000
# 5 0.000000 0.000000 0.000000 0.000000 0.038018 0.000000
# 6 0.000000 0.000000 0.000000 0.000000 0.000000 0.117925
#
#
# Mechanical properties :
#
#
# Convention : Reuss Voigt Hill
#
# Bulk Modulus (GPa) = 64.58406 88.42489 76.50448
# Shear Modulus (GPa) = 19.84533 28.95178 24.39856
#
# Velocity S-wave (km/s) = 3.23325 3.90525 3.58503
# Velocity P-wave (km/s) = 6.92528 8.18011 7.57871
#
# Compressibility (1/GPa) = 0.01548370
#
# Stress axis : x y z
#
# Youngs Moduli (GPa) = 55.60317 119.67810 85.33742
#
# Poissons Ratio (x) = 0.85581 0.11061
# Poissons Ratio (y) = 0.39761 0.24239
# Poissons Ratio (z) = 0.07207 0.33993
#
# Static dielectric constant tensor:
#      x y z
#    x 3.094830 0.000000 0.000000 
#    y 0.000000 4.536040 0.000000 
#    z 0.000000 0.000000 3.500680 
# 
# 
# High freq. dielectric constant tensor:
#      x y z
#    x 1.694240 0.000000 0.000000 
#    y 0.000000 1.770770 0.000000 
#    z 0.000000 0.000000 1.750460 
# 
# From -- ./inp_files/1399.got.cif
#   From: 2010.03.12/outbox.cif.g09.slc.cpg/sg49_1_cif.got.tgz:1399.got - 2010.04.14 03:58:27.
