data_PCOD8202154
_publ_section_title
;
Structure prediction by ZEFSAII (Michael W. Deem and Ramdas Pophale) SiO2 
 PCOD8202154
Probable space group: P N N N
;
_chemical_formula_sum "Si O2"
_cell_formula_units_Z 34
_cell_length_a 14.287609
_cell_length_b 12.757211
_cell_length_c 7.878349
_cell_angle_alpha 90.000000
_cell_angle_beta 90.000000
_cell_angle_gamma 90.000000
_cell_volume 1435.987009
_symmetry_space_group_name_H-M "P N N N"
_symmetry_group_IT_number 48
_space_group.IT_coordinate_system_code '2'
_symmetry_cell_setting 'orthorhombic'
loop_
_space_group_symop_operation_xyz
x,y,z
1/2-x,1/2-y,z
x,1/2-y,1/2-z
1/2-x,y,1/2-z
-x,-y,-z
1/2+x,1/2+y,-z
-x,1/2+y,1/2+z
1/2+x,-y,1/2+z
loop_
_atom_site_type_symbol
_atom_site_label
_atom_site_fract_x
_atom_site_fract_y
_atom_site_fract_z
Si Si1 0.081410 0.054155 0.603293
Si Si2 0.777271 0.571256 0.565738
Si Si3 0.750000 0.250000 0.250000
Si Si4 0.431224 0.225291 0.452546
Si Si5 0.108118 0.591811 0.579591
O O1 0.186721 0.037688 0.538721
O O2 0.058308 0.177287 0.581131
O O3 0.081777 0.000696 0.787244
O O4 0.000000 0.000000 0.500000
O O5 0.750000 0.608951 0.750000
O O6 0.834439 0.670204 0.490410
O O7 0.844193 0.469310 0.577013
O O8 0.818462 0.322033 0.358847
O O9 0.433406 0.250000 0.250000
O O10 0.516259 0.147122 0.491069
#
# Coordination Sequence:
#
# PCOD8202154 Si02
#       5
#     8   8   2   8   8
#     4  12  23  43  74 106 138 194 246 301 370 458
#     4  12  25  44  70 105 147 188 243 309 377 443
#     4  12  20  44  74  94 138 192 238 304 380 434
#     4  12  24  43  75 101 147 193 241 310 387 436
#     4  12  25  46  73 105 143 193 253 305 373 461
#
# _framework density 23.677094
#
# number of rings (size 3 to 8) (size 9 to 14) (size 15 to 20)
#    0.000    0.000    8.235    1.412    0.000    0.941 
#    0.000    2.941    0.000    0.000    0.000    0.000 
#    0.000    0.000    0.000    0.000    0.000    0.000 
#
# Total GULP energy -421297.179471 kJ/mol
# GULP energy per Si atom -12391.093514 kJ/mol
# Density = 2.362320 g / cm^3
# Si number density = 23.677094 Si / 1000 Ang^3
#
#
#
# Elastic Constant Matrix: (Units=GPa)
#
#
# Indices 1 2 3 4 5 6 
#
# 1 184.8309 85.5248 19.3672 0.0000 0.0000 0.0000
# 2 85.5248 180.9328 41.5247 0.0000 0.0000 0.0000
# 3 19.3672 41.5247 24.1538 0.0000 0.0000 0.0000
# 4 0.0000 0.0000 0.0000 43.1234 0.0000 0.0000
# 5 0.0000 0.0000 0.0000 0.0000 22.3984 0.0000
# 6 0.0000 0.0000 0.0000 0.0000 0.0000 120.9789
#
#
#
# Elastic Compliance Matrix: (Units=1/GPa)
#
#
# Indices 1 2 3 4 5 6 
#
# 1 0.006925 -0.003302 0.000124 0.000000 0.000000 0.000000
# 2 -0.003302 0.010703 -0.015753 0.000000 0.000000 0.000000
# 3 0.000124 -0.015753 0.068384 0.000000 0.000000 0.000000
# 4 0.000000 0.000000 0.000000 0.023189 0.000000 0.000000
# 5 0.000000 0.000000 0.000000 0.000000 0.044646 0.000000
# 6 0.000000 0.000000 0.000000 0.000000 0.000000 0.008266
#
#
# Mechanical properties :
#
#
# Convention : Reuss Voigt Hill
#
# Bulk Modulus (GPa) = 20.76836 75.86121 48.31479
# Shear Modulus (GPa) = 23.14541 53.53352 38.33946
#
# Velocity S-wave (km/s) = 3.12996 4.76014 4.02837
# Velocity P-wave (km/s) = 4.67469 7.89439 6.48745
#
# Compressibility (1/GPa) = 0.04815017
#
# Stress axis : x y z
#
# Youngs Moduli (GPa) = 144.39960 93.43191 14.62330
#
# Poissons Ratio (x) = 0.30850 -0.00181
# Poissons Ratio (y) = 0.47679 0.23036
# Poissons Ratio (z) = -0.01785 1.47181
#
# Static dielectric constant tensor:
#      x y z
#    x 4.620090 0.000000 0.000000 
#    y 0.000000 4.793650 0.000000 
#    z 0.000000 0.000000 4.056800 
# 
# 
# High freq. dielectric constant tensor:
#      x y z
#    x 1.972570 0.000000 0.000000 
#    y 0.000000 1.963770 0.000000 
#    z 0.000000 0.000000 1.905330 
# 
# From -- ./inp_files/10291.got.cif
#   From: 2010.06.25/outbox.cif.g09.slc.cpg/sg48_6_cif.got.tgz:10291.got - 2010.06.26 18:06:46.
