data_PCOD8202037
_publ_section_title
;
Structure prediction by ZEFSAII (Michael W. Deem and Ramdas Pophale) SiO2 
 PCOD8202037
Probable space group: P N N N
;
_chemical_formula_sum "Si O2"
_cell_formula_units_Z 48
_cell_length_a 10.249711
_cell_length_b 24.765035
_cell_length_c 9.766708
_cell_angle_alpha 90.000000
_cell_angle_beta 90.000000
_cell_angle_gamma 90.000000
_cell_volume 2479.126970
_symmetry_space_group_name_H-M "P N N N"
_symmetry_group_IT_number 48
_space_group.IT_coordinate_system_code '2'
_symmetry_cell_setting 'orthorhombic'
loop_
_space_group_symop_operation_xyz
x,y,z
1/2-x,1/2-y,z
x,1/2-y,1/2-z
1/2-x,y,1/2-z
-x,-y,-z
1/2+x,1/2+y,-z
-x,1/2+y,1/2+z
1/2+x,-y,1/2+z
loop_
_atom_site_type_symbol
_atom_site_label
_atom_site_fract_x
_atom_site_fract_y
_atom_site_fract_z
Si Si1 0.056364 0.891573 0.040490
Si Si2 0.956738 0.077792 0.248152
Si Si3 0.168334 0.494637 0.123566
Si Si4 0.095611 0.689894 0.243919
Si Si5 0.160204 0.469999 0.633844
Si Si6 0.862463 0.395308 0.974696
O O1 0.027956 0.837113 0.124042
O O2 0.977303 0.940319 0.111431
O O3 0.011856 0.883757 0.882165
O O4 0.209777 0.902325 0.057639
O O5 0.880896 0.113223 0.362439
O O6 0.084234 0.055420 0.322481
O O7 0.868470 0.030262 0.185841
O O8 0.250000 0.517877 0.250000
O O9 0.262493 0.471095 0.007480
O O10 0.079771 0.545275 0.068461
O O11 0.034722 0.750000 0.250000
O O12 0.250000 0.694313 0.250000
O O13 0.067223 0.653612 0.107550
O O14 0.250000 0.441207 0.750000
#
# Coordination Sequence:
#
# PCOD8202037 Si02
#       6
#     8   8   8   8   8   8
#     4  11  21  37  56  79 116 149 187 235 280 333
#     4  12  22  35  51  83 121 156 188 223 276 342
#     4  12  22  35  53  81 122 161 188 224 273 338
#     4   9  20  38  60  82 105 142 193 243 290 334
#     4  12  23  36  52  83 122 157 192 224 270 342
#     4  11  21  35  55  82 113 152 188 228 281 334
#
# _framework density 19.361654999999999
#
# number of rings (size 3 to 8) (size 9 to 14) (size 15 to 20)
#    0.000    0.833    5.000    5.000    2.333    0.000 
#    0.000    0.833    0.000    4.500    0.000    0.000 
#    0.000    0.000    0.000    0.000    0.000    0.000 
#
# Total GULP energy -594925.467994 kJ/mol
# GULP energy per Si atom -12394.280583 kJ/mol
# Density = 1.931759 g / cm^3
# Si number density = 19.361655 Si / 1000 Ang^3
#
#
#
# Elastic Constant Matrix: (Units=GPa)
#
#
# Indices 1 2 3 4 5 6 
#
# 1 49.0628 22.6201 41.4403 0.0000 0.0000 0.0000
# 2 22.6201 115.6591 70.9332 0.0000 0.0000 0.0000
# 3 41.4403 70.9332 184.0168 0.0000 0.0000 0.0000
# 4 0.0000 0.0000 0.0000 20.3944 0.0000 0.0000
# 5 0.0000 0.0000 0.0000 0.0000 33.5798 0.0000
# 6 0.0000 0.0000 0.0000 0.0000 0.0000 12.4384
#
#
#
# Elastic Compliance Matrix: (Units=1/GPa)
#
#
# Indices 1 2 3 4 5 6 
#
# 1 0.025490 -0.001918 -0.005001 0.000000 0.000000 0.000000
# 2 -0.001918 0.011467 -0.003988 0.000000 0.000000 0.000000
# 3 -0.005001 -0.003988 0.008098 0.000000 0.000000 0.000000
# 4 0.000000 0.000000 0.000000 0.049033 0.000000 0.000000
# 5 0.000000 0.000000 0.000000 0.000000 0.029780 0.000000
# 6 0.000000 0.000000 0.000000 0.000000 0.000000 0.080396
#
#
# Mechanical properties :
#
#
# Convention : Reuss Voigt Hill
#
# Bulk Modulus (GPa) = 43.02826 68.74731 55.88779
# Shear Modulus (GPa) = 21.38337 27.53220 24.45778
#
# Velocity S-wave (km/s) = 3.32688 3.77503 3.55802
# Velocity P-wave (km/s) = 6.08516 7.38818 6.76810
#
# Compressibility (1/GPa) = 0.02324054
#
# Stress axis : x y z
#
# Youngs Moduli (GPa) = 39.23039 87.20467 123.48900
#
# Poissons Ratio (x) = 0.16728 0.61757
# Poissons Ratio (y) = 0.07525 0.49251
# Poissons Ratio (z) = 0.19619 0.34780
#
# Static dielectric constant tensor:
#      x y z
#    x 3.360450 0.000000 0.000000 
#    y 0.000000 3.477530 0.000000 
#    z 0.000000 0.000000 4.164770 
# 
# 
# High freq. dielectric constant tensor:
#      x y z
#    x 1.731850 0.000000 0.000000 
#    y 0.000000 1.696380 0.000000 
#    z 0.000000 0.000000 1.785870 
# 
# From -- ./inp_files/11262.got.cif
#   From: 2010.06.25/outbox.cif.g09.slc.cpg/sg48_6_cif.got.tgz:11262.got - 2010.06.26 18:06:46.
