data_PCOD8202368
_publ_section_title
;
Structure prediction by ZEFSAII (Michael W. Deem and Ramdas Pophale) SiO2 
 PCOD8202368
Probable space group: P C C M
;
_chemical_formula_sum "Si O2"
_cell_formula_units_Z 48
_cell_length_a 30.638551
_cell_length_b 9.642442
_cell_length_c 8.631585
_cell_angle_alpha 90.000000
_cell_angle_beta 90.000000
_cell_angle_gamma 90.000000
_cell_volume 2550.033049
_symmetry_space_group_name_H-M "P C C M"
_symmetry_group_IT_number 49
_symmetry_cell_setting 'orthorhombic'
loop_
_space_group_symop_operation_xyz
x,y,z
-x,-y,z
x,-y,1/2-z
-x,y,1/2-z
-x,-y,-z
x,y,-z
-x,y,1/2+z
x,-y,1/2+z
loop_
_atom_site_type_symbol
_atom_site_label
_atom_site_fract_x
_atom_site_fract_y
_atom_site_fract_z
Si Si1 0.297762 0.147705 0.316758
Si Si2 0.456337 0.345320 0.683899
Si Si3 0.123920 0.347555 0.682899
Si Si4 0.801855 0.145982 0.181854
Si Si5 0.953555 0.148796 0.816445
Si Si6 0.631843 0.347427 0.683203
O O1 0.305450 0.151586 0.500000
O O2 0.247792 0.179868 0.270768
O O3 0.326036 0.262489 0.232010
O O4 0.312221 0.000000 0.250000
O O5 0.455824 0.500000 0.750000
O O6 0.500000 0.269376 0.750000
O O7 0.457376 0.345113 0.500000
O O8 0.411828 0.274235 0.745855
O O9 0.122231 0.500000 0.750000
O O10 0.125362 0.358988 0.500000
O O11 0.167088 0.268307 0.745408
O O12 0.081526 0.262441 0.737673
O O13 0.817525 0.000000 0.250000
O O14 0.806811 0.131978 0.000000
O O15 0.000000 0.196914 0.750000
O O16 0.939473 0.000000 0.750000
O O17 0.956475 0.136609 0.000000
O O18 0.637981 0.500000 0.750000
O O19 0.627310 0.354444 0.500000
#
# Coordination Sequence:
#
# PCOD8202368 Si02
#       6
#     8   8   8   8   8   8
#     4  10  20  36  56  79 106 138 175 217 263 317
#     4  10  17  28  46  71 102 136 174 217 263 313
#     4  10  22  37  53  78 109 141 174 214 262 314
#     4   9  19  36  57  79 103 133 174 216 258 309
#     4  10  20  35  56  80 106 137 178 219 260 308
#     4  11  21  34  52  77 107 140 177 220 267 315
#
# _framework density 18.823286
#
# number of rings (size 3 to 8) (size 9 to 14) (size 15 to 20)
#    0.000    2.000    0.000    6.500    0.000    3.667 
#    0.000    3.333    0.000    0.500    0.000    3.500 
#    0.000    0.000    0.000    0.000    0.000    0.000 
#
# Total GULP energy -595173.614553 kJ/mol
# GULP energy per Si atom -12399.450303 kJ/mol
# Density = 1.878044 g / cm^3
# Si number density = 18.823286 Si / 1000 Ang^3
#
#
#
# Elastic Constant Matrix: (Units=GPa)
#
#
# Indices 1 2 3 4 5 6 
#
# 1 149.5537 90.1695 53.9596 0.0000 0.0000 0.0000
# 2 90.1695 119.5216 41.8624 0.0000 0.0000 0.0000
# 3 53.9596 41.8624 109.1034 0.0000 0.0000 0.0000
# 4 0.0000 0.0000 0.0000 31.6904 0.0000 0.0000
# 5 0.0000 0.0000 0.0000 0.0000 29.9312 0.0000
# 6 0.0000 0.0000 0.0000 0.0000 0.0000 11.2908
#
#
#
# Elastic Compliance Matrix: (Units=1/GPa)
#
#
# Indices 1 2 3 4 5 6 
#
# 1 0.013119 -0.008808 -0.003109 0.000000 0.000000 0.000000
# 2 -0.008808 0.015580 -0.001622 0.000000 0.000000 0.000000
# 3 -0.003109 -0.001622 0.011325 0.000000 0.000000 0.000000
# 4 0.000000 0.000000 0.000000 0.031555 0.000000 0.000000
# 5 0.000000 0.000000 0.000000 0.000000 0.033410 0.000000
# 6 0.000000 0.000000 0.000000 0.000000 0.000000 0.088568
#
#
# Mechanical properties :
#
#
# Convention : Reuss Voigt Hill
#
# Bulk Modulus (GPa) = 77.23759 83.35131 80.29445
# Shear Modulus (GPa) = 22.22718 27.39496 24.81107
#
# Velocity S-wave (km/s) = 3.44006 3.81908 3.63451
# Velocity P-wave (km/s) = 7.54326 7.98901 7.76933
#
# Compressibility (1/GPa) = 0.01294706
#
# Stress axis : x y z
#
# Youngs Moduli (GPa) = 76.22566 64.18536 88.29894
#
# Poissons Ratio (x) = 0.56537 0.27448
# Poissons Ratio (y) = 0.67143 0.14318
# Poissons Ratio (z) = 0.23695 0.10408
#
# Static dielectric constant tensor:
#      x y z
#    x 4.217540 0.000000 0.000000 
#    y 0.000000 3.526450 0.000000 
#    z 0.000000 0.000000 3.471850 
# 
# 
# High freq. dielectric constant tensor:
#      x y z
#    x 1.752750 0.000000 0.000000 
#    y 0.000000 1.702540 0.000000 
#    z 0.000000 0.000000 1.741250 
# 
# From -- ./inp_files/6881.got.cif
#   From: 2010.03.12/outbox.cif.g09.slc.cpg/sg49_4_cif.got.tgz:6881.got - 2010.04.14 03:58:27.
