data_PCOD8202021
_publ_section_title
;
Structure prediction by ZEFSAII (Michael W. Deem and Ramdas Pophale) SiO2 
 PCOD8202021
Probable space group: P N N N
;
_chemical_formula_sum "Si O2"
_cell_formula_units_Z 40
_cell_length_a 19.991491
_cell_length_b 19.840055
_cell_length_c 4.870512
_cell_angle_alpha 90.000000
_cell_angle_beta 90.000000
_cell_angle_gamma 90.000000
_cell_volume 1931.802284
_symmetry_space_group_name_H-M "P N N N"
_symmetry_group_IT_number 48
_space_group.IT_coordinate_system_code '2'
_symmetry_cell_setting 'orthorhombic'
loop_
_space_group_symop_operation_xyz
x,y,z
1/2-x,1/2-y,z
x,1/2-y,1/2-z
1/2-x,y,1/2-z
-x,-y,-z
1/2+x,1/2+y,-z
-x,1/2+y,1/2+z
1/2+x,-y,1/2+z
loop_
_atom_site_type_symbol
_atom_site_label
_atom_site_fract_x
_atom_site_fract_y
_atom_site_fract_z
Si Si1 0.817653 0.499557 0.871434
Si Si2 0.793910 0.652128 0.998620
Si Si3 0.985530 0.602008 0.375373
Si Si4 0.059388 0.179661 0.372392
Si Si5 0.903201 0.024669 0.134813
O O1 0.750000 0.464731 0.750000
O O2 0.801855 0.571419 0.006380
O O3 0.864452 0.510386 0.612094
O O4 0.854193 0.455356 0.110698
O O5 0.750000 0.678233 0.750000
O O6 0.866558 0.687000 0.999515
O O7 0.750000 0.677266 0.250000
O O8 0.937473 0.629084 0.615565
O O9 0.956394 0.531304 0.259244
O O10 0.058658 0.590466 0.514092
O O11 0.989546 0.653251 0.116663
O O12 0.032139 0.250000 0.250000
#
# Coordination Sequence:
#
# PCOD8202021 Si02
#       5
#     8   8   8   8   8
#     4  11  20  33  56  86 115 148 184 236 300 360
#     4  11  21  35  54  74 110 153 198 242 282 337
#     4  11  22  38  57  82 109 150 200 242 304 344
#     4  12  24  40  56  78 113 154 207 254 288 339
#     4  11  20  36  59  82 113 146 192 243 294 373
#
# _framework density 20.706052
#
# number of rings (size 3 to 8) (size 9 to 14) (size 15 to 20)
#    0.000    0.800    4.000    6.000    0.000    3.600 
#    0.000    1.000    0.000    0.000    0.000    0.000 
#    0.000   22.400    0.000    0.200    0.000    0.000 
#
# Total GULP energy -495882.582045 kJ/mol
# GULP energy per Si atom -12397.064551 kJ/mol
# Density = 2.065892 g / cm^3
# Si number density = 20.706052 Si / 1000 Ang^3
#
#
#
# Elastic Constant Matrix: (Units=GPa)
#
#
# Indices 1 2 3 4 5 6 
#
# 1 91.0705 46.1257 54.1390 0.0000 0.0000 0.0000
# 2 46.1257 60.2131 40.9624 0.0000 0.0000 0.0000
# 3 54.1390 40.9624 163.6454 0.0000 0.0000 0.0000
# 4 0.0000 0.0000 0.0000 32.7802 0.0000 0.0000
# 5 0.0000 0.0000 0.0000 0.0000 48.3729 0.0000
# 6 0.0000 0.0000 0.0000 0.0000 0.0000 15.1866
#
#
#
# Elastic Compliance Matrix: (Units=1/GPa)
#
#
# Indices 1 2 3 4 5 6 
#
# 1 0.019260 -0.012558 -0.003228 0.000000 0.000000 0.000000
# 2 -0.012558 0.028204 -0.002905 0.000000 0.000000 0.000000
# 3 -0.003228 -0.002905 0.007906 0.000000 0.000000 0.000000
# 4 0.000000 0.000000 0.000000 0.030506 0.000000 0.000000
# 5 0.000000 0.000000 0.000000 0.000000 0.020673 0.000000
# 6 0.000000 0.000000 0.000000 0.000000 0.000000 0.065848
#
#
# Mechanical properties :
#
#
# Convention : Reuss Voigt Hill
#
# Bulk Modulus (GPa) = 55.59552 66.37592 60.98572
# Shear Modulus (GPa) = 23.17229 30.84806 27.01018
#
# Velocity S-wave (km/s) = 3.34894 3.86399 3.61565
# Velocity P-wave (km/s) = 6.47009 7.21340 6.85183
#
# Compressibility (1/GPa) = 0.01798706
#
# Stress axis : x y z
#
# Youngs Moduli (GPa) = 51.92114 35.45622 126.48489
#
# Poissons Ratio (x) = 0.44525 0.40835
# Poissons Ratio (y) = 0.65201 0.36747
# Poissons Ratio (z) = 0.16763 0.10301
#
# Static dielectric constant tensor:
#      x y z
#    x 3.922240 0.000000 0.000000 
#    y 0.000000 3.310450 0.000000 
#    z 0.000000 0.000000 3.964920 
# 
# 
# High freq. dielectric constant tensor:
#      x y z
#    x 1.796470 0.000000 0.000000 
#    y 0.000000 1.748980 0.000000 
#    z 0.000000 0.000000 1.839950 
# 
# From -- ./inp_files/4381.got.cif
#   From: 2010.06.25/outbox.cif.g09.slc.cpg/sg48_3_cif.got.tgz:4381.got - 2010.06.26 18:06:46.
