data_PCOD8202638
_publ_section_title
;
Structure prediction by ZEFSAII (Michael W. Deem and Ramdas Pophale) SiO2 
 PCOD8202638
Probable space group: P C C M
;
_chemical_formula_sum "Si O2"
_cell_formula_units_Z 56
_cell_length_a 18.585965
_cell_length_b 18.903204
_cell_length_c 8.944020
_cell_angle_alpha 90.000000
_cell_angle_beta 90.000000
_cell_angle_gamma 90.000000
_cell_volume 3142.340898
_symmetry_space_group_name_H-M "P C C M"
_symmetry_group_IT_number 49
_symmetry_cell_setting 'orthorhombic'
loop_
_space_group_symop_operation_xyz
x,y,z
-x,-y,z
x,-y,1/2-z
-x,y,1/2-z
-x,-y,-z
x,y,-z
-x,y,1/2+z
x,-y,1/2+z
loop_
_atom_site_type_symbol
_atom_site_label
_atom_site_fract_x
_atom_site_fract_y
_atom_site_fract_z
Si Si1 0.307957 0.931399 0.672868
Si Si2 0.426065 0.658713 0.822056
Si Si3 0.855289 0.929561 0.824083
Si Si4 0.206435 0.711087 0.175146
Si Si5 0.923845 0.217285 0.678084
Si Si6 0.656976 0.777759 0.175765
Si Si7 0.288581 0.572310 0.171285
O O1 0.305019 0.948574 0.500000
O O2 0.226626 0.919326 0.732403
O O3 0.355000 0.861360 0.705043
O O4 0.343737 0.000000 0.750000
O O5 0.500000 0.631501 0.750000
O O6 0.407277 0.736308 0.757668
O O7 0.363986 0.604625 0.769321
O O8 0.432198 0.663697 0.000000
O O9 0.900327 0.861388 0.772181
O O10 0.889098 0.000000 0.750000
O O11 0.859516 0.938499 0.000000
O O12 0.130655 0.725400 0.253398
O O13 0.266215 0.758052 0.256038
O O14 0.224749 0.628315 0.197659
O O15 0.204895 0.730676 0.000000
O O16 0.926090 0.225612 0.500000
O O17 0.000000 0.234736 0.750000
O O18 0.657271 0.760096 0.000000
O O19 0.267603 0.500000 0.250000
O O20 0.298699 0.553826 0.000000
#
# Coordination Sequence:
#
# PCOD8202638 Si02
#       7
#     8   8   8   8   8   8   8
#     4   9  17  29  46  71  99 130 171 217 265 313
#     4  10  21  36  53  80 112 144 178 210 250 304
#     4   9  18  32  47  68  99 134 174 216 263 317
#     4  10  20  35  54  78 105 135 174 217 256 307
#     4  11  22  36  52  74 103 138 179 221 268 318
#     4  10  18  32  53  76 103 137 176 219 262 308
#     4   9  20  36  56  83 111 138 172 206 248 303
#
# _framework density 17.821109
#
# number of rings (size 3 to 8) (size 9 to 14) (size 15 to 20)
#    0.000    2.286    1.429    2.571    0.000    6.286 
#    0.000    2.857    0.000    0.857    0.000    6.000 
#    0.000    0.000    0.000    0.000    0.000    0.000 
#
# Total GULP energy -694388.029286 kJ/mol
# GULP energy per Si atom -12399.786237 kJ/mol
# Density = 1.778055 g / cm^3
# Si number density = 17.821109 Si / 1000 Ang^3
#
#
#
# Elastic Constant Matrix: (Units=GPa)
#
#
# Indices 1 2 3 4 5 6 
#
# 1 72.1768 35.5334 27.7185 0.0000 0.0000 0.0000
# 2 35.5334 108.4688 46.2060 0.0000 0.0000 0.0000
# 3 27.7185 46.2060 73.3764 0.0000 0.0000 0.0000
# 4 0.0000 0.0000 0.0000 33.3649 0.0000 0.0000
# 5 0.0000 0.0000 0.0000 0.0000 26.8362 0.0000
# 6 0.0000 0.0000 0.0000 0.0000 0.0000 17.9614
#
#
#
# Elastic Compliance Matrix: (Units=1/GPa)
#
#
# Indices 1 2 3 4 5 6 
#
# 1 0.017365 -0.003955 -0.004069 0.000000 0.000000 0.000000
# 2 -0.003955 0.013500 -0.007007 0.000000 0.000000 0.000000
# 3 -0.004069 -0.007007 0.019578 0.000000 0.000000 0.000000
# 4 0.000000 0.000000 0.000000 0.029972 0.000000 0.000000
# 5 0.000000 0.000000 0.000000 0.000000 0.037263 0.000000
# 6 0.000000 0.000000 0.000000 0.000000 0.000000 0.055675
#
#
# Mechanical properties :
#
#
# Convention : Reuss Voigt Hill
#
# Bulk Modulus (GPa) = 49.06751 52.54866 50.80809
# Shear Modulus (GPa) = 23.78606 25.27012 24.52809
#
# Velocity S-wave (km/s) = 3.65734 3.76970 3.71394
# Velocity P-wave (km/s) = 6.74003 6.96407 6.85297
#
# Compressibility (1/GPa) = 0.02038008
#
# Stress axis : x y z
#
# Youngs Moduli (GPa) = 57.58813 74.07570 51.07840
#
# Poissons Ratio (x) = 0.29298 0.20784
# Poissons Ratio (y) = 0.22777 0.35790
# Poissons Ratio (z) = 0.23433 0.51904
#
# Static dielectric constant tensor:
#      x y z
#    x 3.140490 0.000000 0.000000 
#    y 0.000000 3.344800 0.000000 
#    z 0.000000 0.000000 3.317770 
# 
# 
# High freq. dielectric constant tensor:
#      x y z
#    x 1.662450 0.000000 0.000000 
#    y 0.000000 1.686520 0.000000 
#    z 0.000000 0.000000 1.698030 
# 
# From -- ./inp_files/5192.got.cif
#   From: 2010.03.12/outbox.cif.g09.slc.cpg/sg49_3_cif.got.tgz:5192.got - 2010.04.14 03:58:27.
