data_PCOD8202970
_publ_section_title
;
Structure prediction by ZEFSAII (Michael W. Deem and Ramdas Pophale) SiO2 
 PCOD8202970
Probable space group: P C C M
;
_chemical_formula_sum "Si O2"
_cell_formula_units_Z 48
_cell_length_a 10.041769
_cell_length_b 30.516486
_cell_length_c 8.771359
_cell_angle_alpha 90.000000
_cell_angle_beta 90.000000
_cell_angle_gamma 90.000000
_cell_volume 2687.890894
_symmetry_space_group_name_H-M "P C C M"
_symmetry_group_IT_number 49
_symmetry_cell_setting 'orthorhombic'
loop_
_space_group_symop_operation_xyz
x,y,z
-x,-y,z
x,-y,1/2-z
-x,y,1/2-z
-x,-y,-z
x,y,-z
-x,y,1/2+z
x,-y,1/2+z
loop_
_atom_site_type_symbol
_atom_site_label
_atom_site_fract_x
_atom_site_fract_y
_atom_site_fract_z
Si Si1 0.353327 0.457651 0.679345
Si Si2 0.861418 0.894031 0.176829
Si Si3 0.357366 0.046100 0.318562
Si Si4 0.137306 0.208932 0.175179
Si Si5 0.645855 0.730714 0.679659
Si Si6 0.357566 0.364199 0.677320
O O1 0.275569 0.500000 0.750000
O O2 0.500000 0.456620 0.750000
O O3 0.361977 0.464537 0.500000
O O4 0.282581 0.410323 0.720994
O O5 0.744396 0.916476 0.270657
O O6 0.841847 0.842501 0.197716
O O7 0.000000 0.909594 0.250000
O O8 0.857734 0.907933 0.000000
O O9 0.500000 0.058865 0.250000
O O10 0.367471 0.042682 0.500000
O O11 0.307854 0.000000 0.250000
O O12 0.260254 0.232220 0.254477
O O13 0.000000 0.224787 0.250000
O O14 0.132764 0.222544 0.000000
O O15 0.500000 0.736151 0.750000
O O16 0.633851 0.737340 0.500000
O O17 0.710460 0.682438 0.721110
O O18 0.500000 0.364419 0.750000
O O19 0.384123 0.364896 0.500000
#
# Coordination Sequence:
#
# PCOD8202970 Si02
#       6
#     8   8   8   8   8   8
#     4   9  14  20  30  47  73 107 147 186 229 280
#     4  10  21  38  58  81 107 136 172 212 255 301
#     4  11  22  38  59  83 112 144 177 213 254 298
#     4  10  21  37  56  77 103 134 168 209 255 302
#     4  10  19  32  50  72  99 131 168 208 251 299
#     4   8  15  25  37  55  82 116 152 193 238 285
#
# _framework density 17.857869000000001
#
# number of rings (size 3 to 8) (size 9 to 14) (size 15 to 20)
#    0.000    2.333    0.000    4.500    0.000    4.333 
#    0.000    1.667    0.000    0.000    0.000    0.000 
#    0.000    0.667    0.000    7.667    0.000    4.500 
#
# Total GULP energy -594658.669600 kJ/mol
# GULP energy per Si atom -12388.722283 kJ/mol
# Density = 1.781722 g / cm^3
# Si number density = 17.857869 Si / 1000 Ang^3
#
#
#
# Elastic Constant Matrix: (Units=GPa)
#
#
# Indices 1 2 3 4 5 6 
#
# 1 76.2781 51.4135 45.7705 0.0000 0.0000 0.0000
# 2 51.4135 76.1484 51.2023 0.0000 0.0000 0.0000
# 3 45.7705 51.2023 118.7492 0.0000 0.0000 0.0000
# 4 0.0000 0.0000 0.0000 26.2948 0.0000 0.0000
# 5 0.0000 0.0000 0.0000 0.0000 26.2569 0.0000
# 6 0.0000 0.0000 0.0000 0.0000 0.0000 -3.4975
#
#
#
# Elastic Compliance Matrix: (Units=1/GPa)
#
#
# Indices 1 2 3 4 5 6 
#
# 1 0.024952 -0.014618 -0.003314 0.000000 0.000000 0.000000
# 2 -0.014618 0.027058 -0.006033 0.000000 0.000000 0.000000
# 3 -0.003314 -0.006033 0.012300 0.000000 0.000000 0.000000
# 4 0.000000 0.000000 0.000000 0.038030 0.000000 0.000000
# 5 0.000000 0.000000 0.000000 0.000000 0.038085 0.000000
# 6 0.000000 0.000000 0.000000 0.000000 0.000000 -0.285922
#
#
# Mechanical properties :
#
#
# Convention : Reuss Voigt Hill
#
# Bulk Modulus (GPa) = 61.05151 63.10535 62.07843
# Shear Modulus (GPa) = -54.28531 17.99682 -18.14425
#
# Velocity S-wave (km/s) = -5.51947 3.17800 -3.19099
# Velocity P-wave (km/s) = 2.52145 6.99146 4.61101
#
# Compressibility (1/GPa) = 0.01637961
#
# Stress axis : x y z
#
# Youngs Moduli (GPa) = 40.07735 36.95699 81.30274
#
# Poissons Ratio (x) = 0.54025 0.26946
# Poissons Ratio (y) = 0.58586 0.49047
# Poissons Ratio (z) = 0.13283 0.22295
#
# Static dielectric constant tensor:
#      x y z
#    x 2.897300 0.000000 0.000000 
#    y 0.000000 4.079310 0.000000 
#    z 0.000000 0.000000 3.501110 
# 
# 
# High freq. dielectric constant tensor:
#      x y z
#    x 1.637670 0.000000 0.000000 
#    y 0.000000 1.715030 0.000000 
#    z 0.000000 0.000000 1.710540 
# 
# From -- ./inp_files/2049.got.cif
#   From: 2010.03.12/outbox.cif.g09.slc.cpg/sg49_2_cif.got.tgz:2049.got - 2010.04.14 03:58:27.
