data_PCOD8202204
_publ_section_title
;
Structure prediction by ZEFSAII (Michael W. Deem and Ramdas Pophale) SiO2 
 PCOD8202204
Probable space group: P C C M
;
_chemical_formula_sum "Si O2"
_cell_formula_units_Z 32
_cell_length_a 20.788556
_cell_length_b 9.824618
_cell_length_c 8.656540
_cell_angle_alpha 90.000000
_cell_angle_beta 90.000000
_cell_angle_gamma 90.000000
_cell_volume 1768.008453
_symmetry_space_group_name_H-M "P C C M"
_symmetry_group_IT_number 49
_symmetry_cell_setting 'orthorhombic'
loop_
_space_group_symop_operation_xyz
x,y,z
-x,-y,z
x,-y,1/2-z
-x,y,1/2-z
-x,-y,-z
x,y,-z
-x,y,1/2+z
x,-y,1/2+z
loop_
_atom_site_type_symbol
_atom_site_label
_atom_site_fract_x
_atom_site_fract_y
_atom_site_fract_z
Si Si1 0.064022 0.151867 0.317973
Si Si2 0.189464 0.147153 0.177896
Si Si3 0.431639 0.355078 0.682259
Si Si4 0.331610 0.149821 0.820120
O O1 0.059176 0.149802 0.500000
O O2 0.130476 0.226655 0.263812
O O3 0.000000 0.225552 0.250000
O O4 0.066893 0.000000 0.250000
O O5 0.259744 0.215135 0.199050
O O6 0.196740 0.000000 0.250000
O O7 0.170277 0.133989 0.000000
O O8 0.410248 0.500000 0.750000
O O9 0.500000 0.308464 0.750000
O O10 0.437625 0.367818 0.500000
O O11 0.379186 0.244386 0.725971
O O12 0.336254 0.000000 0.750000
O O13 0.350791 0.143972 0.000000
#
# Coordination Sequence:
#
# PCOD8202204 Si02
#       4
#     8   8   8   8
#     4  10  16  22  33  50  77 113 155 195 235 283
#     4   9  16  26  40  59  87 120 155 195 239 286
#     4  11  22  38  58  78 102 131 165 204 248 297
#     4  10  20  34  52  76 104 134 168 206 250 298
#
# _framework density 18.099461000000002
#
# number of rings (size 3 to 8) (size 9 to 14) (size 15 to 20)
#    0.000    2.000    0.000    9.000    0.000    3.500 
#    0.000    2.500    0.000    0.000    0.000    0.000 
#    0.000    1.000    0.000   10.500    0.000    7.750 
#
# Total GULP energy -396538.722436 kJ/mol
# GULP energy per Si atom -12391.835076 kJ/mol
# Density = 1.805827 g / cm^3
# Si number density = 18.099461 Si / 1000 Ang^3
#
#
#
# Elastic Constant Matrix: (Units=GPa)
#
#
# Indices 1 2 3 4 5 6 
#
# 1 149.1068 48.9317 70.9465 0.0000 0.0000 0.0000
# 2 48.9317 40.2563 29.3215 0.0000 0.0000 0.0000
# 3 70.9465 29.3215 178.0707 0.0000 0.0000 0.0000
# 4 0.0000 0.0000 0.0000 18.6031 0.0000 0.0000
# 5 0.0000 0.0000 0.0000 0.0000 35.4361 0.0000
# 6 0.0000 0.0000 0.0000 0.0000 0.0000 -4.4511
#
#
#
# Elastic Compliance Matrix: (Units=1/GPa)
#
#
# Indices 1 2 3 4 5 6 
#
# 1 0.012243 -0.012873 -0.002758 0.000000 0.000000 0.000000
# 2 -0.012873 0.041761 -0.001748 0.000000 0.000000 0.000000
# 3 -0.002758 -0.001748 0.007002 0.000000 0.000000 0.000000
# 4 0.000000 0.000000 0.000000 0.053754 0.000000 0.000000
# 5 0.000000 0.000000 0.000000 0.000000 0.028220 0.000000
# 6 0.000000 0.000000 0.000000 0.000000 0.000000 -0.224664
#
#
# Mechanical properties :
#
#
# Convention : Reuss Voigt Hill
#
# Bulk Modulus (GPa) = 38.09662 73.98144 56.03903
# Shear Modulus (GPa) = -130.97395 24.46656 -53.25370
#
# Velocity S-wave (km/s) = -8.51590 3.68065 -5.43016
# Velocity P-wave (km/s) = 8.69482 7.68288 2.87865
#
# Compressibility (1/GPa) = 0.02624905
#
# Stress axis : x y z
#
# Youngs Moduli (GPa) = 81.67602 23.94588 142.80637
#
# Poissons Ratio (x) = 0.30825 0.39391
# Poissons Ratio (y) = 1.05141 0.24957
# Poissons Ratio (z) = 0.22529 0.04185
#
# Static dielectric constant tensor:
#      x y z
#    x 4.641400 0.000000 0.000000 
#    y 0.000000 2.148150 0.000000 
#    z 0.000000 0.000000 3.550160 
# 
# 
# High freq. dielectric constant tensor:
#      x y z
#    x 1.735030 0.000000 0.000000 
#    y 0.000000 1.617240 0.000000 
#    z 0.000000 0.000000 1.727440 
# 
# From -- ./inp_files/1382.got.cif
#   From: 2010.03.12/outbox.cif.g09.slc.cpg/sg49_1_cif.got.tgz:1382.got - 2010.04.14 03:58:27.
