data_PCOD8202805
_publ_section_title
;
Structure prediction by ZEFSAII (Michael W. Deem and Ramdas Pophale) SiO2 
 PCOD8202805
Probable space group: P C C M
;
_chemical_formula_sum "Si O2"
_cell_formula_units_Z 64
_cell_length_a 18.875524
_cell_length_b 23.341967
_cell_length_c 8.703229
_cell_angle_alpha 90.000000
_cell_angle_beta 90.000000
_cell_angle_gamma 90.000000
_cell_volume 3834.571838
_symmetry_space_group_name_H-M "P C C M"
_symmetry_group_IT_number 49
_symmetry_cell_setting 'orthorhombic'
loop_
_space_group_symop_operation_xyz
x,y,z
-x,-y,z
x,-y,1/2-z
-x,y,1/2-z
-x,-y,-z
x,y,-z
-x,y,1/2+z
x,-y,1/2+z
loop_
_atom_site_type_symbol
_atom_site_label
_atom_site_fract_x
_atom_site_fract_y
_atom_site_fract_z
Si Si1 0.573367 0.750669 0.679843
Si Si2 0.789805 0.339785 0.176917
Si Si3 0.573256 0.617173 0.679823
Si Si4 0.924614 0.060689 0.181352
Si Si5 0.715035 0.766255 0.821835
Si Si6 0.926764 0.270957 0.821273
Si Si7 0.148831 0.835820 0.322234
Si Si8 0.710591 0.560713 0.819594
O O1 0.500000 0.773850 0.750000
O O2 0.574037 0.763108 0.500000
O O3 0.582889 0.683863 0.719850
O O4 0.637637 0.784906 0.761443
O O5 0.738522 0.288267 0.223693
O O6 0.871062 0.322151 0.204719
O O7 0.773522 0.395547 0.277289
O O8 0.773810 0.353924 0.000000
O O9 0.500000 0.594116 0.750000
O O10 0.572533 0.606000 0.500000
O O11 0.636272 0.581614 0.753193
O O12 0.865379 0.107053 0.225421
O O13 0.000000 0.080192 0.250000
O O14 0.900667 0.000000 0.250000
O O15 0.931559 0.055220 0.000000
O O16 0.769420 0.818458 0.794610
O O17 0.712615 0.748722 0.000000
O O18 0.903057 0.214214 0.732857
O O19 0.000000 0.293034 0.750000
O O20 0.934691 0.255794 0.000000
O O21 0.133012 0.847814 0.500000
O O22 0.731837 0.500000 0.750000
O O23 0.703696 0.555280 0.000000
#
# Coordination Sequence:
#
# PCOD8202805 Si02
#       8
#     8   8   8   8   8   8   8   8
#     4  10  19  30  48  70  99 131 163 200 240 292
#     4  10  20  35  52  72  97 124 156 194 240 292
#     4  10  20  34  51  72  97 126 159 197 236 283
#     4  11  21  34  51  71 100 139 179 216 251 292
#     4  10  19  31  50  73  99 130 164 202 246 291
#     4  10  20  33  52  76 102 129 159 198 243 291
#     4  10  20  33  49  73 104 136 171 209 246 289
#     4  12  24  37  54  72  94 123 157 197 239 289
#
# _framework density 16.690261
#
# number of rings (size 3 to 8) (size 9 to 14) (size 15 to 20)
#    0.000    1.625    1.250    5.250    0.000    4.250 
#    0.000    1.250    0.000    0.375    0.000    2.625 
#    0.000    0.500    0.000    5.250    0.000    2.250 
#
# Total GULP energy -793882.127127 kJ/mol
# GULP energy per Si atom -12404.408236 kJ/mol
# Density = 1.665227 g / cm^3
# Si number density = 16.690261 Si / 1000 Ang^3
#
#
#
# Elastic Constant Matrix: (Units=GPa)
#
#
# Indices 1 2 3 4 5 6 
#
# 1 116.8120 40.6785 46.8316 0.0000 0.0000 0.0000
# 2 40.6785 75.4065 39.2582 0.0000 0.0000 0.0000
# 3 46.8316 39.2582 106.0100 0.0000 0.0000 0.0000
# 4 0.0000 0.0000 0.0000 25.4930 0.0000 0.0000
# 5 0.0000 0.0000 0.0000 0.0000 31.0174 0.0000
# 6 0.0000 0.0000 0.0000 0.0000 0.0000 21.9120
#
#
#
# Elastic Compliance Matrix: (Units=1/GPa)
#
#
# Indices 1 2 3 4 5 6 
#
# 1 0.011471 -0.004398 -0.003439 0.000000 0.000000 0.000000
# 2 -0.004398 0.018115 -0.004766 0.000000 0.000000 0.000000
# 3 -0.003439 -0.004766 0.012717 0.000000 0.000000 0.000000
# 4 0.000000 0.000000 0.000000 0.039226 0.000000 0.000000
# 5 0.000000 0.000000 0.000000 0.000000 0.032240 0.000000
# 6 0.000000 0.000000 0.000000 0.000000 0.000000 0.045637
#
#
# Mechanical properties :
#
#
# Convention : Reuss Voigt Hill
#
# Bulk Modulus (GPa) = 58.48483 61.30723 59.89603
# Shear Modulus (GPa) = 26.27287 27.11517 26.69402
#
# Velocity S-wave (km/s) = 3.97185 4.03502 4.00356
# Velocity P-wave (km/s) = 7.49343 7.64987 7.57206
#
# Compressibility (1/GPa) = 0.01709845
#
# Stress axis : x y z
#
# Youngs Moduli (GPa) = 87.17705 55.20314 78.63433
#
# Poissons Ratio (x) = 0.24277 0.27041
# Poissons Ratio (y) = 0.38338 0.37474
# Poissons Ratio (z) = 0.29979 0.26308
#
# Static dielectric constant tensor:
#      x y z
#    x 3.292840 0.000000 0.000000 
#    y 0.000000 2.903890 0.000000 
#    z 0.000000 0.000000 3.293800 
# 
# 
# High freq. dielectric constant tensor:
#      x y z
#    x 1.643330 0.000000 0.000000 
#    y 0.000000 1.605560 0.000000 
#    z 0.000000 0.000000 1.666860 
# 
# From -- ./inp_files/5345.got.cif
#   From: 2010.03.12/outbox.cif.g09.slc.cpg/sg49_3_cif.got.tgz:5345.got - 2010.04.14 03:58:27.
