data_PCOD8202250
_publ_section_title
;
Structure prediction by ZEFSAII (Michael W. Deem and Ramdas Pophale) SiO2 
 PCOD8202250
Probable space group: P C C M
;
_chemical_formula_sum "Si O2"
_cell_formula_units_Z 64
_cell_length_a 26.733701
_cell_length_b 18.403340
_cell_length_c 8.907810
_cell_angle_alpha 90.000000
_cell_angle_beta 90.000000
_cell_angle_gamma 90.000000
_cell_volume 4382.547999
_symmetry_space_group_name_H-M "P C C M"
_symmetry_group_IT_number 49
_symmetry_cell_setting 'orthorhombic'
loop_
_space_group_symop_operation_xyz
x,y,z
-x,-y,z
x,-y,1/2-z
-x,y,1/2-z
-x,-y,-z
x,y,-z
-x,y,1/2+z
x,-y,1/2+z
loop_
_atom_site_type_symbol
_atom_site_label
_atom_site_fract_x
_atom_site_fract_y
_atom_site_fract_z
Si Si1 0.551578 0.341373 0.677846
Si Si2 0.049295 0.919713 0.680566
Si Si3 0.395708 0.200517 0.166440
Si Si4 0.350459 0.423260 0.821397
Si Si5 0.248379 0.160674 0.324306
Si Si6 0.706888 0.712613 0.165491
Si Si7 0.654324 0.076948 0.176530
Si Si8 0.148787 0.078630 0.679178
O O1 0.500000 0.367921 0.750000
O O2 0.547553 0.345533 0.500000
O O3 0.562997 0.257802 0.727000
O O4 0.595399 0.395062 0.735392
O O5 0.047644 0.920485 0.500000
O O6 0.100144 0.883233 0.743788
O O7 0.000000 0.879922 0.750000
O O8 0.050301 0.000000 0.750000
O O9 0.344369 0.243861 0.157187
O O10 0.390385 0.131841 0.277105
O O11 0.409952 0.172091 0.000000
O O12 0.337570 0.500000 0.750000
O O13 0.306674 0.367171 0.768981
O O14 0.350491 0.428687 0.000000
O O15 0.253575 0.165043 0.500000
O O16 0.253248 0.243122 0.264725
O O17 0.292619 0.108396 0.262955
O O18 0.195234 0.128836 0.275025
O O19 0.730396 0.705146 0.000000
O O20 0.643906 0.000000 0.250000
O O21 0.654378 0.067081 0.000000
O O22 0.141741 0.071683 0.500000
O O23 0.158759 0.000000 0.750000
#
# Coordination Sequence:
#
# PCOD8202250 Si02
#       8
#     8   8   8   8   8   8   8   8
#     4   9  18  31  46  63  83 104 128 154 187 226
#     4  10  17  26  38  51  68  95 132 172 212 250
#     4   8  15  29  44  57  75 100 126 155 187 225
#     4   9  18  31  45  64  86 108 131 157 185 219
#     4   9  18  28  39  57  80 103 130 162 197 235
#     4   8  15  28  44  58  76 102 131 157 186 225
#     4  10  18  27  40  59  79 100 126 157 193 234
#     4  10  18  27  37  53  77 103 133 171 209 244
#
# _framework density 14.603376000000001
#
# number of rings (size 3 to 8) (size 9 to 14) (size 15 to 20)
#    0.000    2.875    0.000    4.875    0.000    3.250 
#    0.000    3.750    0.000    0.375    0.000    2.625 
#    0.000    0.000    0.000    0.000    0.000    0.625 
#
# Total GULP energy -793103.299696 kJ/mol
# GULP energy per Si atom -12392.239058 kJ/mol
# Density = 1.457014 g / cm^3
# Si number density = 14.603376 Si / 1000 Ang^3
#
#
#
# Elastic Constant Matrix: (Units=GPa)
#
#
# Indices 1 2 3 4 5 6 
#
# 1 58.8854 34.2271 21.0552 0.0000 0.0000 0.0000
# 2 34.2271 93.6212 28.2705 0.0000 0.0000 0.0000
# 3 21.0552 28.2705 49.6942 0.0000 0.0000 0.0000
# 4 0.0000 0.0000 0.0000 22.2103 0.0000 0.0000
# 5 0.0000 0.0000 0.0000 0.0000 20.9643 0.0000
# 6 0.0000 0.0000 0.0000 0.0000 0.0000 12.6476
#
#
#
# Elastic Compliance Matrix: (Units=1/GPa)
#
#
# Indices 1 2 3 4 5 6 
#
# 1 0.022946 -0.006584 -0.005977 0.000000 0.000000 0.000000
# 2 -0.006584 0.014786 -0.005622 0.000000 0.000000 0.000000
# 3 -0.005977 -0.005622 0.025854 0.000000 0.000000 0.000000
# 4 0.000000 0.000000 0.000000 0.045024 0.000000 0.000000
# 5 0.000000 0.000000 0.000000 0.000000 0.047700 0.000000
# 6 0.000000 0.000000 0.000000 0.000000 0.000000 0.079067
#
#
# Mechanical properties :
#
#
# Convention : Reuss Voigt Hill
#
# Bulk Modulus (GPa) = 36.73700 41.03405 38.88553
# Shear Modulus (GPa) = 17.80528 19.07431 18.43980
#
# Velocity S-wave (km/s) = 3.49558 3.61800 3.55732
# Velocity P-wave (km/s) = 6.44230 6.75376 6.59987
#
# Compressibility (1/GPa) = 0.02722051
#
# Stress axis : x y z
#
# Youngs Moduli (GPa) = 43.58019 67.63099 38.67934
#
# Poissons Ratio (x) = 0.44530 0.23117
# Poissons Ratio (y) = 0.28694 0.21745
# Poissons Ratio (z) = 0.26046 0.38022
#
# Static dielectric constant tensor:
#      x y z
#    x 3.202880 0.000000 0.000000 
#    y 0.000000 2.817640 0.000000 
#    z 0.000000 0.000000 2.873220 
# 
# 
# High freq. dielectric constant tensor:
#      x y z
#    x 1.536100 0.000000 0.000000 
#    y 0.000000 1.528160 0.000000 
#    z 0.000000 0.000000 1.563660 
# 
# From -- ./inp_files/6789.got.cif
#   From: 2010.03.12/outbox.cif.g09.slc.cpg/sg49_4_cif.got.tgz:6789.got - 2010.04.14 03:58:27.
