data_PCOD8202397
_publ_section_title
;
Structure prediction by ZEFSAII (Michael W. Deem and Ramdas Pophale) SiO2 
 PCOD8202397
Probable space group: P C C M
;
_chemical_formula_sum "Si O2"
_cell_formula_units_Z 40
_cell_length_a 9.185067
_cell_length_b 25.807797
_cell_length_c 8.535264
_cell_angle_alpha 90.000000
_cell_angle_beta 90.000000
_cell_angle_gamma 90.000000
_cell_volume 2023.253131
_symmetry_space_group_name_H-M "P C C M"
_symmetry_group_IT_number 49
_symmetry_cell_setting 'orthorhombic'
loop_
_space_group_symop_operation_xyz
x,y,z
-x,-y,z
x,-y,1/2-z
-x,y,1/2-z
-x,-y,-z
x,y,-z
-x,y,1/2+z
x,-y,1/2+z
loop_
_atom_site_type_symbol
_atom_site_label
_atom_site_fract_x
_atom_site_fract_y
_atom_site_fract_z
Si Si1 0.339595 0.247744 0.184562
Si Si2 0.839000 0.846109 0.684720
Si Si3 0.162617 0.551985 0.685059
Si Si4 0.839117 0.342094 0.184431
Si Si5 0.344270 0.945491 0.817493
O O1 0.500000 0.240753 0.250000
O O2 0.252901 0.195911 0.222084
O O3 0.265455 0.295651 0.270610
O O4 0.341852 0.257820 0.000000
O O5 0.835414 0.833945 0.500000
O O6 0.773878 0.902233 0.724599
O O7 0.000000 0.844428 0.750000
O O8 0.243055 0.500000 0.750000
O O9 0.163862 0.550826 0.500000
O O10 0.234241 0.605234 0.746670
O O11 0.000000 0.552193 0.750000
O O12 0.000000 0.331360 0.250000
O O13 0.851590 0.347515 0.000000
O O14 0.500000 0.928791 0.750000
O O15 0.288138 0.000000 0.750000
O O16 0.364917 0.952222 0.000000
#
# Coordination Sequence:
#
# PCOD8202397 Si02
#       5
#     8   8   8   8   8
#     4  12  25  42  62  85 113 149 190 236 286 345
#     4  11  24  41  61  88 118 153 192 238 289 341
#     4  10  17  28  47  76 111 148 188 233 283 337
#     4  11  21  36  57  84 116 151 190 237 287 339
#     4  10  21  37  60  87 118 154 195 236 283 337
#
# _framework density 19.770140999999999
#
# number of rings (size 3 to 8) (size 9 to 14) (size 15 to 20)
#    0.000    1.200    0.000   10.200    0.000    5.200 
#    0.000    2.000    0.000    0.600    0.000    4.200 
#    0.000    0.000    0.000    0.000    0.000    0.000 
#
# Total GULP energy -496067.731522 kJ/mol
# GULP energy per Si atom -12401.693288 kJ/mol
# Density = 1.972514 g / cm^3
# Si number density = 19.770141 Si / 1000 Ang^3
#
#
#
# Elastic Constant Matrix: (Units=GPa)
#
#
# Indices 1 2 3 4 5 6 
#
# 1 104.2450 57.8202 33.2883 0.0000 0.0000 0.0000
# 2 57.8202 136.7064 52.5928 0.0000 0.0000 0.0000
# 3 33.2883 52.5928 156.4820 0.0000 0.0000 0.0000
# 4 0.0000 0.0000 0.0000 38.0958 0.0000 0.0000
# 5 0.0000 0.0000 0.0000 0.0000 22.7228 0.0000
# 6 0.0000 0.0000 0.0000 0.0000 0.0000 -32.1528
#
#
#
# Elastic Compliance Matrix: (Units=1/GPa)
#
#
# Indices 1 2 3 4 5 6 
#
# 1 0.012675 -0.004966 -0.001027 0.000000 0.000000 0.000000
# 2 -0.004966 0.010347 -0.002421 0.000000 0.000000 0.000000
# 3 -0.001027 -0.002421 0.007423 0.000000 0.000000 0.000000
# 4 0.000000 0.000000 0.000000 0.026250 0.000000 0.000000
# 5 0.000000 0.000000 0.000000 0.000000 0.044009 0.000000
# 6 0.000000 0.000000 0.000000 0.000000 0.000000 -0.031101
#
#
# Mechanical properties :
#
#
# Convention : Reuss Voigt Hill
#
# Bulk Modulus (GPa) = 73.44247 76.09289 74.76768
# Shear Modulus (GPa) = 54.96407 22.64863 38.80635
#
# Velocity S-wave (km/s) = 5.27844 3.38834 4.43524
# Velocity P-wave (km/s) = 8.62427 7.34031 8.00806
#
# Compressibility (1/GPa) = 0.01361610
#
# Stress axis : x y z
#
# Youngs Moduli (GPa) = 78.89456 96.64979 134.72023
#
# Poissons Ratio (x) = 0.47994 0.13842
# Poissons Ratio (y) = 0.39177 0.32617
# Poissons Ratio (z) = 0.08106 0.23400
#
# Static dielectric constant tensor:
#      x y z
#    x 3.312660 0.000000 0.000000 
#    y 0.000000 4.666900 0.000000 
#    z 0.000000 0.000000 3.518750 
# 
# 
# High freq. dielectric constant tensor:
#      x y z
#    x 1.741220 0.000000 0.000000 
#    y 0.000000 1.798140 0.000000 
#    z 0.000000 0.000000 1.795060 
# 
# From -- ./inp_files/1708.got.cif
#   From: 2010.03.12/outbox.cif.g09.slc.cpg/sg49_1_cif.got.tgz:1708.got - 2010.04.14 03:58:27.
