data_PCOD8202475
_publ_section_title
;
Structure prediction by ZEFSAII (Michael W. Deem and Ramdas Pophale) SiO2 
 PCOD8202475
Probable space group: P C C M
;
_chemical_formula_sum "Si O2"
_cell_formula_units_Z 64
_cell_length_a 23.681040
_cell_length_b 19.076187
_cell_length_c 8.747511
_cell_angle_alpha 90.000000
_cell_angle_beta 90.000000
_cell_angle_gamma 90.000000
_cell_volume 3951.635149
_symmetry_space_group_name_H-M "P C C M"
_symmetry_group_IT_number 49
_symmetry_cell_setting 'orthorhombic'
loop_
_space_group_symop_operation_xyz
x,y,z
-x,-y,z
x,-y,1/2-z
-x,y,1/2-z
-x,-y,-z
x,y,-z
-x,y,1/2+z
x,-y,1/2+z
loop_
_atom_site_type_symbol
_atom_site_label
_atom_site_fract_x
_atom_site_fract_y
_atom_site_fract_z
Si Si1 0.440046 0.787851 0.680499
Si Si2 0.060218 0.574439 0.318301
Si Si3 0.333989 0.292973 0.179169
Si Si4 0.837886 0.648932 0.679983
Si Si5 0.379695 0.928635 0.681054
Si Si6 0.742901 0.069436 0.177772
Si Si7 0.768624 0.779934 0.324390
Si Si8 0.732151 0.573463 0.818596
O O1 0.500000 0.768843 0.750000
O O2 0.445264 0.784177 0.500000
O O3 0.395075 0.730157 0.743872
O O4 0.419726 0.864879 0.732910
O O5 0.080085 0.500000 0.250000
O O6 0.056240 0.568823 0.500000
O O7 0.104308 0.633921 0.268703
O O8 0.000000 0.596256 0.250000
O O9 0.286836 0.238488 0.230953
O O10 0.317295 0.371893 0.227440
O O11 0.336162 0.285538 0.000000
O O12 0.846421 0.637185 0.500000
O O13 0.820861 0.729365 0.720605
O O14 0.790429 0.595818 0.739979
O O15 0.375762 0.934308 0.500000
O O16 0.317304 0.916566 0.745840
O O17 0.406039 0.000000 0.750000
O O18 0.782704 0.137870 0.205739
O O19 0.772001 0.000000 0.250000
O O20 0.733180 0.055668 0.000000
O O21 0.753268 0.766539 0.500000
O O22 0.712200 0.500000 0.750000
O O23 0.741322 0.569301 0.000000
#
# Coordination Sequence:
#
# PCOD8202475 Si02
#       8
#     8   8   8   8   8   8   8   8
#     4  10  21  34  48  65  85 112 146 185 226 272
#     4  11  21  34  50  70  97 134 172 203 234 269
#     4   9  18  33  49  65  88 115 145 181 227 277
#     4  10  19  32  48  70  99 128 160 197 231 269
#     4  10  19  31  46  64  87 115 147 183 222 266
#     4  10  18  28  44  67  92 122 154 185 225 273
#     4   9  18  30  47  69  93 121 154 191 231 272
#     4  10  19  31  49  71  94 119 147 185 229 276
#
# _framework density 16.195827000000001
#
# number of rings (size 3 to 8) (size 9 to 14) (size 15 to 20)
#    0.000    2.125    1.250    4.125    0.000    3.250 
#    0.000    1.250    0.000    0.375    0.000    2.625 
#    0.000    0.500    0.000    5.750    0.000    1.750 
#
# Total GULP energy -793403.694722 kJ/mol
# GULP energy per Si atom -12396.932730 kJ/mol
# Density = 1.615896 g / cm^3
# Si number density = 16.195827 Si / 1000 Ang^3
#
#
#
# Elastic Constant Matrix: (Units=GPa)
#
#
# Indices 1 2 3 4 5 6 
#
# 1 95.8329 62.7514 32.4586 0.0000 0.0000 0.0000
# 2 62.7514 127.4358 40.7726 0.0000 0.0000 0.0000
# 3 32.4586 40.7726 63.4081 0.0000 0.0000 0.0000
# 4 0.0000 0.0000 0.0000 23.3346 0.0000 0.0000
# 5 0.0000 0.0000 0.0000 0.0000 22.5075 0.0000
# 6 0.0000 0.0000 0.0000 0.0000 0.0000 23.4952
#
#
#
# Elastic Compliance Matrix: (Units=1/GPa)
#
#
# Indices 1 2 3 4 5 6 
#
# 1 0.016158 -0.006685 -0.003972 0.000000 0.000000 0.000000
# 2 -0.006685 0.012646 -0.004709 0.000000 0.000000 0.000000
# 3 -0.003972 -0.004709 0.020832 0.000000 0.000000 0.000000
# 4 0.000000 0.000000 0.000000 0.042855 0.000000 0.000000
# 5 0.000000 0.000000 0.000000 0.000000 0.044430 0.000000
# 6 0.000000 0.000000 0.000000 0.000000 0.000000 0.042562
#
#
# Mechanical properties :
#
#
# Convention : Reuss Voigt Hill
#
# Bulk Modulus (GPa) = 52.90421 62.07132 57.48776
# Shear Modulus (GPa) = 23.09284 23.91372 23.50328
#
# Velocity S-wave (km/s) = 3.78014 3.84674 3.81359
# Velocity P-wave (km/s) = 7.19645 7.62487 7.41375
#
# Compressibility (1/GPa) = 0.01890209
#
# Stress axis : x y z
#
# Youngs Moduli (GPa) = 61.88915 79.07756 48.00207
#
# Poissons Ratio (x) = 0.52867 0.19068
# Poissons Ratio (y) = 0.41376 0.22605
# Poissons Ratio (z) = 0.24585 0.37239
#
# Static dielectric constant tensor:
#      x y z
#    x 3.011680 0.000000 0.000000 
#    y 0.000000 3.396300 0.000000 
#    z 0.000000 0.000000 3.139760 
# 
# 
# High freq. dielectric constant tensor:
#      x y z
#    x 1.586850 0.000000 0.000000 
#    y 0.000000 1.625400 0.000000 
#    z 0.000000 0.000000 1.635750 
# 
# From -- ./inp_files/6649.got.cif
#   From: 2010.03.12/outbox.cif.g09.slc.cpg/sg49_4_cif.got.tgz:6649.got - 2010.04.14 03:58:27.
