data_PCOD8202111
_publ_section_title
;
Structure prediction by ZEFSAII (Michael W. Deem and Ramdas Pophale) SiO2 
 PCOD8202111
Probable space group: P N N N
;
_chemical_formula_sum "Si O2"
_cell_formula_units_Z 48
_cell_length_a 8.632213
_cell_length_b 10.316662
_cell_length_c 25.246019
_cell_angle_alpha 90.000000
_cell_angle_beta 90.000000
_cell_angle_gamma 90.000000
_cell_volume 2248.299971
_symmetry_space_group_name_H-M "P N N N"
_symmetry_group_IT_number 48
_space_group.IT_coordinate_system_code '2'
_symmetry_cell_setting 'orthorhombic'
loop_
_space_group_symop_operation_xyz
x,y,z
1/2-x,1/2-y,z
x,1/2-y,1/2-z
1/2-x,y,1/2-z
-x,-y,-z
1/2+x,1/2+y,-z
-x,1/2+y,1/2+z
1/2+x,-y,1/2+z
loop_
_atom_site_type_symbol
_atom_site_label
_atom_site_fract_x
_atom_site_fract_y
_atom_site_fract_z
Si Si1 0.504688 0.260008 0.809343
Si Si2 0.800608 0.381194 0.080698
Si Si3 0.265709 0.969861 0.191343
Si Si4 0.353060 0.356688 0.909720
Si Si5 0.333276 0.117651 0.090266
Si Si6 0.677892 0.379158 0.963508
O O1 0.432913 0.250000 0.750000
O O2 0.589818 0.124211 0.817139
O O3 0.613677 0.384740 0.818292
O O4 0.381020 0.279110 0.855034
O O5 0.750000 0.250000 0.112715
O O6 0.740490 0.513585 0.107069
O O7 0.985338 0.378725 0.077121
O O8 0.705474 0.371536 0.025819
O O9 0.250000 0.029873 0.250000
O O10 0.288507 0.088840 0.151279
O O11 0.250000 0.250000 0.942039
O O12 0.498585 0.389826 0.946976
O O13 0.250000 0.250000 0.073749
O O14 0.267500 0.004755 0.054497
O O15 0.750000 0.250000 0.935952
#
# Coordination Sequence:
#
# PCOD8202111 Si02
#       6
#     8   8   8   8   8   8
#     4   9  18  35  64  98 129 164 214 274 328 387
#     4  11  26  43  60  96 136 177 220 275 335 405
#     4   9  18  36  63  97 128 162 215 270 326 397
#     4  12  23  38  65  97 134 174 219 273 340 394
#     4  12  24  41  68  95 128 174 223 276 334 394
#     4  11  23  43  66  91 130 175 228 274 331 396
#
# _framework density 21.349466
#
# number of rings (size 3 to 8) (size 9 to 14) (size 15 to 20)
#    0.000    1.333    1.667    6.000    0.000    4.000 
#    0.000    0.000    0.000    0.000    0.000    0.000 
#    0.000    0.000    0.000    0.000    0.000    0.000 
#
# Total GULP energy -594820.096366 kJ/mol
# GULP energy per Si atom -12392.085341 kJ/mol
# Density = 2.130087 g / cm^3
# Si number density = 21.349466 Si / 1000 Ang^3
#
#
#
# Elastic Constant Matrix: (Units=GPa)
#
#
# Indices 1 2 3 4 5 6 
#
# 1 124.9511 55.4589 11.1088 0.0000 0.0000 0.0000
# 2 55.4589 128.9860 10.6862 0.0000 0.0000 0.0000
# 3 11.1088 10.6862 67.8218 0.0000 0.0000 0.0000
# 4 0.0000 0.0000 0.0000 209.0511 0.0000 0.0000
# 5 0.0000 0.0000 0.0000 0.0000 12.1672 0.0000
# 6 0.0000 0.0000 0.0000 0.0000 0.0000 32.4700
#
#
#
# Elastic Compliance Matrix: (Units=1/GPa)
#
#
# Indices 1 2 3 4 5 6 
#
# 1 0.009953 -0.004199 -0.000969 0.000000 0.000000 0.000000
# 2 -0.004199 0.009627 -0.000829 0.000000 0.000000 0.000000
# 3 -0.000969 -0.000829 0.015034 0.000000 0.000000 0.000000
# 4 0.000000 0.000000 0.000000 0.004784 0.000000 0.000000
# 5 0.000000 0.000000 0.000000 0.000000 0.082188 0.000000
# 6 0.000000 0.000000 0.000000 0.000000 0.000000 0.030798
#
#
# Mechanical properties :
#
#
# Convention : Reuss Voigt Hill
#
# Bulk Modulus (GPa) = 44.20844 52.91852 48.56348
# Shear Modulus (GPa) = 29.08388 67.03800 48.06094
#
# Velocity S-wave (km/s) = 3.69491 5.60968 4.74978
# Velocity P-wave (km/s) = 6.24140 8.17304 7.27165
#
# Compressibility (1/GPa) = 0.02262011
#
# Stress axis : x y z
#
# Youngs Moduli (GPa) = 100.47201 103.87516 66.51680
#
# Poissons Ratio (x) = 0.43619 0.06443
# Poissons Ratio (y) = 0.42190 0.05515
# Poissons Ratio (z) = 0.09732 0.08612
#
# Static dielectric constant tensor:
#      x y z
#    x 3.744110 0.000000 0.000000 
#    y 0.000000 4.306960 0.000000 
#    z 0.000000 0.000000 3.898640 
# 
# 
# High freq. dielectric constant tensor:
#      x y z
#    x 1.843940 0.000000 0.000000 
#    y 0.000000 1.847460 0.000000 
#    z 0.000000 0.000000 1.822820 
# 
# From -- ./inp_files/16773.got.cif
#   From: 2010.06.25/outbox.cif.g09.slc.cpg/sg48_9_cif.got.tgz:16773.got - 2010.06.26 18:06:46.
