data_PCOD8202534
_publ_section_title
;
Structure prediction by ZEFSAII (Michael W. Deem and Ramdas Pophale) SiO2 
 PCOD8202534
Probable space group: P C C M
;
_chemical_formula_sum "Si O2"
_cell_formula_units_Z 64
_cell_length_a 18.984563
_cell_length_b 23.691002
_cell_length_c 8.751150
_cell_angle_alpha 90.000000
_cell_angle_beta 90.000000
_cell_angle_gamma 90.000000
_cell_volume 3935.946278
_symmetry_space_group_name_H-M "P C C M"
_symmetry_group_IT_number 49
_symmetry_cell_setting 'orthorhombic'
loop_
_space_group_symop_operation_xyz
x,y,z
-x,-y,z
x,-y,1/2-z
-x,y,1/2-z
-x,-y,-z
x,y,-z
-x,y,1/2+z
x,-y,1/2+z
loop_
_atom_site_type_symbol
_atom_site_label
_atom_site_fract_x
_atom_site_fract_y
_atom_site_fract_z
Si Si1 0.924277 0.276914 0.320123
Si Si2 0.801291 0.663778 0.677632
Si Si3 0.573287 0.612730 0.818108
Si Si4 0.291755 0.441499 0.681186
Si Si5 0.157620 0.167798 0.820250
Si Si6 0.076263 0.941497 0.317988
Si Si7 0.280671 0.775546 0.175881
Si Si8 0.428665 0.264856 0.319673
O O1 0.931813 0.274919 0.500000
O O2 0.873315 0.328282 0.271917
O O3 0.891495 0.218255 0.254992
O O4 0.000000 0.287463 0.250000
O O5 0.820471 0.664452 0.500000
O O6 0.765913 0.605210 0.726850
O O7 0.746761 0.713395 0.719815
O O8 0.500000 0.589726 0.750000
O O9 0.633966 0.571746 0.759282
O O10 0.587429 0.675758 0.759154
O O11 0.570427 0.612427 0.000000
O O12 0.263356 0.500000 0.750000
O O13 0.302063 0.444580 0.500000
O O14 0.128716 0.107777 0.762198
O O15 0.238332 0.176334 0.767427
O O16 0.155609 0.169848 0.000000
O O17 0.070714 0.945635 0.500000
O O18 0.000000 0.927881 0.250000
O O19 0.105848 0.000000 0.250000
O O20 0.363888 0.777560 0.215363
O O21 0.267349 0.788521 0.000000
O O22 0.500000 0.237856 0.250000
O O23 0.436956 0.275297 0.500000
#
# Coordination Sequence:
#
# PCOD8202534 Si02
#       8
#     8   8   8   8   8   8   8   8
#     4  10  19  31  49  73  97 121 152 188 232 281
#     4   9  18  34  51  67  93 121 147 186 230 278
#     4  11  21  33  50  70  93 124 157 192 232 275
#     4  11  22  37  53  71  94 119 153 192 233 281
#     4   9  19  31  45  69  98 126 161 201 234 273
#     4  10  19  31  46  66  95 132 171 205 236 274
#     4   9  17  30  48  68  93 124 156 191 235 280
#     4  10  18  30  46  69  96 126 159 192 232 280
#
# _framework density 16.260384999999999
#
# number of rings (size 3 to 8) (size 9 to 14) (size 15 to 20)
#    0.000    2.125    1.250    4.125    0.000    3.750 
#    0.000    1.250    0.000    0.375    0.000    2.625 
#    0.000    0.500    0.000    5.500    0.000    4.000 
#
# Total GULP energy -793602.984212 kJ/mol
# GULP energy per Si atom -12400.046628 kJ/mol
# Density = 1.622338 g / cm^3
# Si number density = 16.260385 Si / 1000 Ang^3
#
#
#
# Elastic Constant Matrix: (Units=GPa)
#
#
# Indices 1 2 3 4 5 6 
#
# 1 117.6955 62.5651 41.5407 0.0000 0.0000 0.0000
# 2 62.5651 101.4920 38.0945 0.0000 0.0000 0.0000
# 3 41.5407 38.0945 75.2763 0.0000 0.0000 0.0000
# 4 0.0000 0.0000 0.0000 22.7725 0.0000 0.0000
# 5 0.0000 0.0000 0.0000 0.0000 29.3637 0.0000
# 6 0.0000 0.0000 0.0000 0.0000 0.0000 25.1989
#
#
#
# Elastic Compliance Matrix: (Units=1/GPa)
#
#
# Indices 1 2 3 4 5 6 
#
# 1 0.013554 -0.006849 -0.004014 0.000000 0.000000 0.000000
# 2 -0.006849 0.015624 -0.004127 0.000000 0.000000 0.000000
# 3 -0.004014 -0.004127 0.017588 0.000000 0.000000 0.000000
# 4 0.000000 0.000000 0.000000 0.043913 0.000000 0.000000
# 5 0.000000 0.000000 0.000000 0.000000 0.034056 0.000000
# 6 0.000000 0.000000 0.000000 0.000000 0.000000 0.039684
#
#
# Mechanical properties :
#
#
# Convention : Reuss Voigt Hill
#
# Bulk Modulus (GPa) = 59.57214 64.31828 61.94521
# Shear Modulus (GPa) = 25.00079 25.61791 25.30935
#
# Velocity S-wave (km/s) = 3.92539 3.97354 3.94954
# Velocity P-wave (km/s) = 7.56708 7.79058 7.67964
#
# Compressibility (1/GPa) = 0.01678637
#
# Stress axis : x y z
#
# Youngs Moduli (GPa) = 73.77975 64.00348 56.85700
#
# Poissons Ratio (x) = 0.43835 0.22821
# Poissons Ratio (y) = 0.50530 0.23467
# Poissons Ratio (z) = 0.29613 0.26416
#
# Static dielectric constant tensor:
#      x y z
#    x 3.251900 0.000000 0.000000 
#    y 0.000000 2.988820 0.000000 
#    z 0.000000 0.000000 3.118480 
# 
# 
# High freq. dielectric constant tensor:
#      x y z
#    x 1.622840 0.000000 0.000000 
#    y 0.000000 1.592300 0.000000 
#    z 0.000000 0.000000 1.636430 
# 
# From -- ./inp_files/6072.got.cif
#   From: 2010.03.12/outbox.cif.g09.slc.cpg/sg49_4_cif.got.tgz:6072.got - 2010.04.14 03:58:27.
