data_PCOD8202076
_publ_section_title
;
Structure prediction by ZEFSAII (Michael W. Deem and Ramdas Pophale) SiO2 
 PCOD8202076
Probable space group: P N N N
;
_chemical_formula_sum "Si O2"
_cell_formula_units_Z 40
_cell_length_a 8.541352
_cell_length_b 14.368994
_cell_length_c 14.869469
_cell_angle_alpha 90.000000
_cell_angle_beta 90.000000
_cell_angle_gamma 90.000000
_cell_volume 1824.939382
_symmetry_space_group_name_H-M "P N N N"
_symmetry_group_IT_number 48
_space_group.IT_coordinate_system_code '2'
_symmetry_cell_setting 'orthorhombic'
loop_
_space_group_symop_operation_xyz
x,y,z
1/2-x,1/2-y,z
x,1/2-y,1/2-z
1/2-x,y,1/2-z
-x,-y,-z
1/2+x,1/2+y,-z
-x,1/2+y,1/2+z
1/2+x,-y,1/2+z
loop_
_atom_site_type_symbol
_atom_site_label
_atom_site_fract_x
_atom_site_fract_y
_atom_site_fract_z
Si Si1 0.936901 0.048461 0.587961
Si Si2 0.070933 0.928962 0.071106
Si Si3 0.071191 0.517681 0.729187
Si Si4 0.932477 0.736294 0.023822
Si Si5 0.929257 0.218724 0.154776
O O1 0.752357 0.051480 0.581569
O O2 0.009940 0.152112 0.586956
O O3 0.000000 0.000000 0.500000
O O4 0.980797 0.987079 0.675593
O O5 0.043044 0.824237 0.041269
O O6 0.990428 0.933895 0.168497
O O7 0.000000 0.000000 0.000000
O O8 0.250000 0.502163 0.750000
O O9 0.051002 0.607250 0.663249
O O10 0.750000 0.750000 0.044294
O O11 0.961872 0.726169 0.916692
O O12 0.750000 0.250000 0.138979
O O13 0.993642 0.250000 0.250000
#
# Coordination Sequence:
#
# PCOD8202076 Si02
#       5
#     8   8   8   8   8
#     4  12  27  46  71 104 146 192 241 296 367 428
#     4  12  25  47  71 103 147 190 243 300 358 433
#     4  12  24  44  72 105 144 186 238 297 360 432
#     4  12  26  46  72 104 141 189 243 300 361 434
#     4  11  22  41  68 102 140 183 235 292 362 421
#
# _framework density 21.918536
#
# number of rings (size 3 to 8) (size 9 to 14) (size 15 to 20)
#    0.000    0.200    4.000    7.200    0.000    1.200 
#    3.600    4.000    0.000    0.000    0.000    0.000 
#    0.000    0.000    0.000    0.000    0.000    0.000 
#
# Total GULP energy -495801.238522 kJ/mol
# GULP energy per Si atom -12395.030963 kJ/mol
# Density = 2.186865 g / cm^3
# Si number density = 21.918536 Si / 1000 Ang^3
#
#
#
# Elastic Constant Matrix: (Units=GPa)
#
#
# Indices 1 2 3 4 5 6 
#
# 1 146.9412 19.3844 18.6906 0.0000 0.0000 0.0000
# 2 19.3844 91.7792 7.9206 0.0000 0.0000 0.0000
# 3 18.6906 7.9206 88.1784 0.0000 0.0000 0.0000
# 4 0.0000 0.0000 0.0000 63.4370 0.0000 0.0000
# 5 0.0000 0.0000 0.0000 0.0000 21.0606 0.0000
# 6 0.0000 0.0000 0.0000 0.0000 0.0000 32.6982
#
#
#
# Elastic Compliance Matrix: (Units=1/GPa)
#
#
# Indices 1 2 3 4 5 6 
#
# 1 0.007167 -0.001393 -0.001394 0.000000 0.000000 0.000000
# 2 -0.001393 0.011252 -0.000715 0.000000 0.000000 0.000000
# 3 -0.001394 -0.000715 0.011700 0.000000 0.000000 0.000000
# 4 0.000000 0.000000 0.000000 0.015764 0.000000 0.000000
# 5 0.000000 0.000000 0.000000 0.000000 0.047482 0.000000
# 6 0.000000 0.000000 0.000000 0.000000 0.000000 0.030583
#
#
# Mechanical properties :
#
#
# Convention : Reuss Voigt Hill
#
# Bulk Modulus (GPa) = 43.26475 46.54332 44.90403
# Shear Modulus (GPa) = 36.06029 42.16604 39.11316
#
# Velocity S-wave (km/s) = 4.06050 4.39083 4.22889
# Velocity P-wave (km/s) = 6.46261 6.85468 6.66153
#
# Compressibility (1/GPa) = 0.02311350
#
# Stress axis : x y z
#
# Youngs Moduli (GPa) = 139.53711 88.87518 85.46754
#
# Poissons Ratio (x) = 0.12383 0.11913
# Poissons Ratio (y) = 0.19442 0.06114
# Poissons Ratio (z) = 0.19450 0.06358
#
# Static dielectric constant tensor:
#      x y z
#    x 3.913650 0.000000 0.000000 
#    y 0.000000 4.387350 0.000000 
#    z 0.000000 0.000000 3.791130 
# 
# 
# High freq. dielectric constant tensor:
#      x y z
#    x 1.867980 0.000000 0.000000 
#    y 0.000000 1.867700 0.000000 
#    z 0.000000 0.000000 1.877320 
# 
# From -- ./inp_files/12342.got.cif
#   From: 2010.06.25/outbox.cif.g09.slc.cpg/sg48_7_cif.got.tgz:12342.got - 2010.06.26 18:06:46.
