data_PCOD8202854
_publ_section_title
;
Structure prediction by ZEFSAII (Michael W. Deem and Ramdas Pophale) SiO2 
 PCOD8202854
Probable space group: P C C M
;
_chemical_formula_sum "Si O2"
_cell_formula_units_Z 64
_cell_length_a 19.987005
_cell_length_b 20.307788
_cell_length_c 8.851057
_cell_angle_alpha 90.000000
_cell_angle_beta 90.000000
_cell_angle_gamma 90.000000
_cell_volume 3592.571991
_symmetry_space_group_name_H-M "P C C M"
_symmetry_group_IT_number 49
_symmetry_cell_setting 'orthorhombic'
loop_
_space_group_symop_operation_xyz
x,y,z
-x,-y,z
x,-y,1/2-z
-x,y,1/2-z
-x,-y,-z
x,y,-z
-x,y,1/2+z
x,-y,1/2+z
loop_
_atom_site_type_symbol
_atom_site_label
_atom_site_fract_x
_atom_site_fract_y
_atom_site_fract_z
Si Si1 0.433761 0.208559 0.676653
Si Si2 0.606188 0.064687 0.177210
Si Si3 0.735775 0.894271 0.827295
Si Si4 0.114450 0.933223 0.673662
Si Si5 0.071270 0.569931 0.818451
Si Si6 0.837128 0.313268 0.176908
Si Si7 0.932087 0.198874 0.179131
Si Si8 0.711462 0.240328 0.177601
O O1 0.500000 0.240614 0.750000
O O2 0.444267 0.210554 0.500000
O O3 0.427063 0.132883 0.734176
O O4 0.366935 0.249965 0.722548
O O5 0.683554 0.065471 0.225928
O O6 0.571063 0.000000 0.250000
O O7 0.600778 0.058012 0.000000
O O8 0.805917 0.930312 0.810727
O O9 0.742901 0.819962 0.768294
O O10 0.710693 0.893252 0.000000
O O11 0.091672 0.930928 0.500000
O O12 0.080441 0.873857 0.761134
O O13 0.088370 0.000000 0.750000
O O14 0.092350 0.500000 0.750000
O O15 0.128865 0.620345 0.759125
O O16 0.000000 0.592469 0.750000
O O17 0.065840 0.565944 0.000000
O O18 0.874425 0.248186 0.237252
O O19 0.757477 0.304646 0.216238
O O20 0.847462 0.317043 0.000000
O O21 0.000000 0.226930 0.250000
O O22 0.937283 0.197172 0.000000
O O23 0.715922 0.222946 0.000000
#
# Coordination Sequence:
#
# PCOD8202854 Si02
#       8
#     8   8   8   8   8   8   8   8
#     4   9  19  32  48  67  93 125 157 197 248 304
#     4  10  20  32  46  65  88 119 156 198 246 305
#     4  10  19  31  48  71  94 118 152 200 252 304
#     4  11  23  36  50  69  91 119 158 204 257 312
#     4  10  19  33  52  79 113 150 182 210 245 290
#     4   9  18  33  56  79 102 135 173 208 247 291
#     4  11  22  37  55  73  95 125 159 206 254 301
#     4   9  17  33  53  73  96 127 165 203 245 295
#
# _framework density 17.814534999999999
#
# number of rings (size 3 to 8) (size 9 to 14) (size 15 to 20)
#    0.000    2.125    1.250    3.750    0.000    5.500 
#    0.000    5.625    0.000    0.000    0.000    0.000 
#    0.000    0.500    0.000    6.250    0.000    0.000 
#
# Total GULP energy -793279.389941 kJ/mol
# GULP energy per Si atom -12394.990468 kJ/mol
# Density = 1.777399 g / cm^3
# Si number density = 17.814535 Si / 1000 Ang^3
#
#
#
# Elastic Constant Matrix: (Units=GPa)
#
#
# Indices 1 2 3 4 5 6 
#
# 1 116.9572 54.5422 30.9531 0.0000 0.0000 0.0000
# 2 54.5422 91.6824 21.5229 0.0000 0.0000 0.0000
# 3 30.9531 21.5229 59.3992 0.0000 0.0000 0.0000
# 4 0.0000 0.0000 0.0000 16.4863 0.0000 0.0000
# 5 0.0000 0.0000 0.0000 0.0000 25.8445 0.0000
# 6 0.0000 0.0000 0.0000 0.0000 0.0000 15.8107
#
#
#
# Elastic Compliance Matrix: (Units=1/GPa)
#
#
# Indices 1 2 3 4 5 6 
#
# 1 0.012747 -0.006584 -0.004257 0.000000 0.000000 0.000000
# 2 -0.006584 0.015322 -0.002121 0.000000 0.000000 0.000000
# 3 -0.004257 -0.002121 0.019822 0.000000 0.000000 0.000000
# 4 0.000000 0.000000 0.000000 0.060656 0.000000 0.000000
# 5 0.000000 0.000000 0.000000 0.000000 0.038693 0.000000
# 6 0.000000 0.000000 0.000000 0.000000 0.000000 0.063248
#
#
# Mechanical properties :
#
#
# Convention : Reuss Voigt Hill
#
# Bulk Modulus (GPa) = 45.52168 53.56392 49.54280
# Shear Modulus (GPa) = 20.51409 22.36299 21.43854
#
# Velocity S-wave (km/s) = 3.39711 3.54690 3.47281
# Velocity P-wave (km/s) = 6.40279 6.84885 6.62957
#
# Compressibility (1/GPa) = 0.02196755
#
# Stress axis : x y z
#
# Youngs Moduli (GPa) = 78.44902 65.26589 50.44898
#
# Poissons Ratio (x) = 0.42971 0.21476
# Poissons Ratio (y) = 0.51651 0.10700
# Poissons Ratio (z) = 0.33395 0.13842
#
# Static dielectric constant tensor:
#      x y z
#    x 3.507080 0.000000 0.000000 
#    y 0.000000 3.176400 0.000000 
#    z 0.000000 0.000000 3.259580 
# 
# 
# High freq. dielectric constant tensor:
#      x y z
#    x 1.690860 0.000000 0.000000 
#    y 0.000000 1.649480 0.000000 
#    z 0.000000 0.000000 1.687490 
# 
# From -- ./inp_files/5940.got.cif
#   From: 2010.03.12/outbox.cif.g09.slc.cpg/sg49_3_cif.got.tgz:5940.got - 2010.04.14 03:58:27.
