data_PCOD8202234
_publ_section_title
;
Structure prediction by ZEFSAII (Michael W. Deem and Ramdas Pophale) SiO2 
 PCOD8202234
Probable space group: P C C M
;
_chemical_formula_sum "Si O2"
_cell_formula_units_Z 56
_cell_length_a 5.258881
_cell_length_b 30.295364
_cell_length_c 18.319945
_cell_angle_alpha 90.000000
_cell_angle_beta 90.000000
_cell_angle_gamma 90.000000
_cell_volume 2918.728400
_symmetry_space_group_name_H-M "P C C M"
_symmetry_group_IT_number 49
_symmetry_cell_setting 'orthorhombic'
loop_
_space_group_symop_operation_xyz
x,y,z
-x,-y,z
x,-y,1/2-z
-x,y,1/2-z
-x,-y,-z
x,y,-z
-x,y,1/2+z
x,-y,1/2+z
loop_
_atom_site_type_symbol
_atom_site_label
_atom_site_fract_x
_atom_site_fract_y
_atom_site_fract_z
Si Si1 0.241876 0.900111 0.084695
Si Si2 0.249968 0.379525 0.701977
Si Si3 0.749135 0.748709 0.913731
Si Si4 0.749908 0.049585 0.219388
Si Si5 0.254710 0.153238 0.914213
Si Si6 0.749960 0.480895 0.831258
Si Si7 0.250122 0.303884 0.413246
O O1 0.250634 0.945828 0.131210
O O2 0.485912 0.871363 0.106791
O O3 0.993135 0.873688 0.110726
O O4 0.237400 0.913415 0.000000
O O5 0.500000 0.370493 0.750000
O O6 0.250475 0.428477 0.669872
O O7 0.248346 0.349411 0.630321
O O8 0.000000 0.370656 0.750000
O O9 0.747557 0.797868 0.878781
O O10 0.498331 0.723038 0.887682
O O11 0.003147 0.723693 0.888644
O O12 0.744586 0.752568 0.000000
O O13 0.500000 0.074181 0.250000
O O14 0.000000 0.074021 0.250000
O O15 0.749252 0.000000 0.250000
O O16 0.239334 0.158761 0.000000
O O17 0.500000 0.500000 0.872269
O O18 0.750009 0.500000 0.750000
O O19 0.000000 0.500000 0.872242
O O20 0.250805 0.313765 0.500000
#
# Coordination Sequence:
#
# PCOD8202234 Si02
#       7
#     8   8   8   8   8   8   8
#     4  10  19  33  56  86 109 131 179 241 270 294
#     4  12  21  33  55  80 102 137 176 224 269 309
#     4   9  17  33  54  77 106 144 179 212 262 327
#     4  10  21  38  56  76 109 151 182 211 261 334
#     4   9  17  30  55  85 107 132 178 233 273 301
#     4  10  16  30  49  75  96 123 172 225 254 312
#     4  10  21  35  53  77 109 144 178 213 260 327
#
# _framework density 19.186436
#
# number of rings (size 3 to 8) (size 9 to 14) (size 15 to 20)
#    0.000    2.000    2.857    2.571    0.000    3.429 
#    0.000    2.857    0.000   18.000    0.000    0.000 
#    0.000    0.000    0.000    0.000    0.000    0.000 
#
# Total GULP energy -693965.779112 kJ/mol
# GULP energy per Si atom -12392.246056 kJ/mol
# Density = 1.914277 g / cm^3
# Si number density = 19.186436 Si / 1000 Ang^3
#
#
#
# Elastic Constant Matrix: (Units=GPa)
#
#
# Indices 1 2 3 4 5 6 
#
# 1 176.8463 32.2102 38.9027 0.0000 0.0000 0.0000
# 2 32.2102 118.8259 60.3117 0.0000 0.0000 0.0000
# 3 38.9027 60.3117 72.4338 0.0000 0.0000 0.0000
# 4 0.0000 0.0000 0.0000 29.3539 0.0000 0.0000
# 5 0.0000 0.0000 0.0000 0.0000 7.2166 0.0000
# 6 0.0000 0.0000 0.0000 0.0000 0.0000 76.6196
#
#
#
# Elastic Compliance Matrix: (Units=1/GPa)
#
#
# Indices 1 2 3 4 5 6 
#
# 1 0.006412 0.000017 -0.003458 0.000000 0.000000 0.000000
# 2 0.000017 0.014576 -0.012146 0.000000 0.000000 0.000000
# 3 -0.003458 -0.012146 0.025776 0.000000 0.000000 0.000000
# 4 0.000000 0.000000 0.000000 0.034067 0.000000 0.000000
# 5 0.000000 0.000000 0.000000 0.000000 0.138569 0.000000
# 6 0.000000 0.000000 0.000000 0.000000 0.000000 0.013051
#
#
# Mechanical properties :
#
#
# Convention : Reuss Voigt Hill
#
# Bulk Modulus (GPa) = 64.14086 70.10612 67.12349
# Shear Modulus (GPa) = 18.59973 38.41678 28.50825
#
# Velocity S-wave (km/s) = 3.11693 4.47955 3.85886
# Velocity P-wave (km/s) = 6.81590 7.96077 7.41048
#
# Compressibility (1/GPa) = 0.01559069
#
# Stress axis : x y z
#
# Youngs Moduli (GPa) = 155.95202 68.60741 38.79600
#
# Poissons Ratio (x) = -0.00117 0.13416
# Poissons Ratio (y) = -0.00265 0.47120
# Poissons Ratio (z) = 0.53929 0.83327
#
# Static dielectric constant tensor:
#      x y z
#    x 3.835490 0.000000 0.000000 
#    y 0.000000 3.456400 0.000000 
#    z 0.000000 0.000000 3.053300 
# 
# 
# High freq. dielectric constant tensor:
#      x y z
#    x 1.783230 0.000000 0.000000 
#    y 0.000000 1.740770 0.000000 
#    z 0.000000 0.000000 1.696600 
# 
# From -- ./inp_files/10758.got.cif
#   From: 2010.03.12/outbox.cif.g09.slc.cpg/sg49_6_cif.got.tgz:10758.got - 2010.04.14 03:58:27.
