data_PCOD8202101
_publ_section_title
;
Structure prediction by ZEFSAII (Michael W. Deem and Ramdas Pophale) SiO2 
 PCOD8202101
Probable space group: P N N N
;
_chemical_formula_sum "Si O2"
_cell_formula_units_Z 32
_cell_length_a 4.880417
_cell_length_b 24.969166
_cell_length_c 12.251603
_cell_angle_alpha 90.000000
_cell_angle_beta 90.000000
_cell_angle_gamma 90.000000
_cell_volume 1492.979634
_symmetry_space_group_name_H-M "P N N N"
_symmetry_group_IT_number 48
_space_group.IT_coordinate_system_code '2'
_symmetry_cell_setting 'orthorhombic'
loop_
_space_group_symop_operation_xyz
x,y,z
1/2-x,1/2-y,z
x,1/2-y,1/2-z
1/2-x,y,1/2-z
-x,-y,-z
1/2+x,1/2+y,-z
-x,1/2+y,1/2+z
1/2+x,-y,1/2+z
loop_
_atom_site_type_symbol
_atom_site_label
_atom_site_fract_x
_atom_site_fract_y
_atom_site_fract_z
Si Si1 0.505100 0.615925 0.818653
Si Si2 0.771972 0.642547 0.377391
Si Si3 0.256523 0.460861 0.006483
Si Si4 0.743390 0.187559 0.996711
O O1 0.250000 0.590254 0.750000
O O2 0.688783 0.571742 0.881955
O O3 0.750000 0.645038 0.750000
O O4 0.347663 0.657909 0.894962
O O5 0.750000 0.652223 0.250000
O O6 0.754368 0.579475 0.403872
O O7 0.559693 0.671984 0.457913
O O8 0.064952 0.668918 0.398544
O O9 0.500000 0.500000 0.000000
O O10 0.000000 0.500000 0.000000
O O11 0.750000 0.250000 0.020782
#
# Coordination Sequence:
#
# PCOD8202101 Si02
#       4
#     8   8   8   8
#     4  11  23  42  65  93 128 165 210 261 313 374
#     4  11  24  42  64  94 128 164 211 261 312 375
#     4  11  23  41  64  92 127 166 210 260 313 372
#     4  11  24  43  65  93 129 165 208 262 314 373
#
# _framework density 21.43365
#
# number of rings (size 3 to 8) (size 9 to 14) (size 15 to 20)
#    0.000    1.000    0.000    9.000    0.000    6.500 
#    0.000    3.750    0.000    0.000    0.000    0.000 
#    0.000    0.000    0.000    0.000    0.000    0.000 
#
# Total GULP energy -396448.647754 kJ/mol
# GULP energy per Si atom -12389.020242 kJ/mol
# Density = 2.138487 g / cm^3
# Si number density = 21.433650 Si / 1000 Ang^3
#
#
#
# Elastic Constant Matrix: (Units=GPa)
#
#
# Indices 1 2 3 4 5 6 
#
# 1 72.8643 31.1426 -9.4869 0.0000 0.0000 0.0000
# 2 31.1426 143.7056 23.8891 0.0000 0.0000 0.0000
# 3 -9.4869 23.8891 88.3725 0.0000 0.0000 0.0000
# 4 0.0000 0.0000 0.0000 3.1180 0.0000 0.0000
# 5 0.0000 0.0000 0.0000 0.0000 42.8954 0.0000
# 6 0.0000 0.0000 0.0000 0.0000 0.0000 36.9743
#
#
#
# Elastic Compliance Matrix: (Units=1/GPa)
#
#
# Indices 1 2 3 4 5 6 
#
# 1 0.015731 -0.003863 0.002733 0.000000 0.000000 0.000000
# 2 -0.003863 0.008235 -0.002641 0.000000 0.000000 0.000000
# 3 0.002733 -0.002641 0.012323 0.000000 0.000000 0.000000
# 4 0.000000 0.000000 0.000000 0.320720 0.000000 0.000000
# 5 0.000000 0.000000 0.000000 0.000000 0.023312 0.000000
# 6 0.000000 0.000000 0.000000 0.000000 0.000000 0.027046
#
#
# Mechanical properties :
#
#
# Convention : Reuss Voigt Hill
#
# Bulk Modulus (GPa) = 34.78636 44.00356 39.39496
# Shear Modulus (GPa) = 11.77879 33.89073 22.83476
#
# Velocity S-wave (km/s) = 2.34678 3.98073 3.26754
# Velocity P-wave (km/s) = 4.85883 6.45779 5.71451
#
# Compressibility (1/GPa) = 0.02874690
#
# Stress axis : x y z
#
# Youngs Moduli (GPa) = 63.56760 121.43386 81.14892
#
# Poissons Ratio (x) = 0.46916 -0.22179
# Poissons Ratio (y) = 0.24559 0.21430
# Poissons Ratio (z) = -0.17374 0.32069
#
# Static dielectric constant tensor:
#      x y z
#    x 4.239710 0.000000 0.000000 
#    y 0.000000 3.855750 0.000000 
#    z 0.000000 0.000000 4.187000 
# 
# 
# High freq. dielectric constant tensor:
#      x y z
#    x 1.873510 0.000000 0.000000 
#    y 0.000000 1.832940 0.000000 
#    z 0.000000 0.000000 1.848220 
# 
# From -- ./inp_files/2113.got.cif
#   From: 2010.06.25/outbox.cif.g09.slc.cpg/sg48_2_cif.got.tgz:2113.got - 2010.06.26 18:06:46.
