data_PCOD8202535
_publ_section_title
;
Structure prediction by ZEFSAII (Michael W. Deem and Ramdas Pophale) SiO2 
 PCOD8202535
Probable space group: P C C M
;
_chemical_formula_sum "Si O2"
_cell_formula_units_Z 64
_cell_length_a 23.199140
_cell_length_b 18.404053
_cell_length_c 8.657352
_cell_angle_alpha 90.000000
_cell_angle_beta 90.000000
_cell_angle_gamma 90.000000
_cell_volume 3696.327445
_symmetry_space_group_name_H-M "P C C M"
_symmetry_group_IT_number 49
_symmetry_cell_setting 'orthorhombic'
loop_
_space_group_symop_operation_xyz
x,y,z
-x,-y,z
x,-y,1/2-z
-x,y,1/2-z
-x,-y,-z
x,y,-z
-x,y,1/2+z
x,-y,1/2+z
loop_
_atom_site_type_symbol
_atom_site_label
_atom_site_fract_x
_atom_site_fract_y
_atom_site_fract_z
Si Si1 0.440368 0.122535 0.325130
Si Si2 0.318969 0.077073 0.817411
Si Si3 0.936743 0.577972 0.686225
Si Si4 0.557925 0.294941 0.174983
Si Si5 0.249301 0.793761 0.817368
Si Si6 0.748708 0.430154 0.830767
Si Si7 0.672503 0.324285 0.677371
Si Si8 0.154738 0.310713 0.331172
O O1 0.500000 0.092547 0.250000
O O2 0.437201 0.093196 0.500000
O O3 0.383592 0.095774 0.236621
O O4 0.440441 0.208550 0.320117
O O5 0.268275 0.131917 0.763831
O O6 0.300138 0.000000 0.750000
O O7 0.319317 0.075295 0.000000
O O8 0.914168 0.500000 0.750000
O O9 0.935368 0.575146 0.500000
O O10 0.898554 0.646860 0.751270
O O11 0.000000 0.593005 0.750000
O O12 0.500000 0.325104 0.250000
O O13 0.605553 0.327947 0.286898
O O14 0.564943 0.323127 0.000000
O O15 0.299908 0.736591 0.787023
O O16 0.187344 0.759725 0.753190
O O17 0.244524 0.806387 0.000000
O O18 0.776645 0.500000 0.750000
O O19 0.697958 0.402725 0.718946
O O20 0.797161 0.370939 0.849381
O O21 0.723785 0.449111 0.000000
O O22 0.684171 0.303948 0.500000
O O23 0.133194 0.285429 0.500000
#
# Coordination Sequence:
#
# PCOD8202535 Si02
#       8
#     8   8   8   8   8   8   8   8
#     4  10  20  34  52  72  97 126 159 200 244 296
#     4  12  24  37  53  73  99 131 164 201 248 304
#     4  10  18  30  46  71 105 145 182 214 247 286
#     4  10  19  31  49  70  93 118 150 193 238 285
#     4  10  19  35  53  72  96 125 162 206 249 292
#     4  10  19  32  48  69  95 124 159 201 245 289
#     4  11  20  31  49  71  94 122 154 192 239 291
#     4   8  17  31  50  71  98 133 169 207 247 286
#
# _framework density 17.314482999999999
#
# number of rings (size 3 to 8) (size 9 to 14) (size 15 to 20)
#    0.000    1.875    1.250    5.625    0.000    1.250 
#    0.000    8.125    0.000    0.375    0.000    2.625 
#    0.000    0.500    0.000    5.750    0.000    1.750 
#
# Total GULP energy -792941.961261 kJ/mol
# GULP energy per Si atom -12389.718145 kJ/mol
# Density = 1.727507 g / cm^3
# Si number density = 17.314483 Si / 1000 Ang^3
#
#
#
# Elastic Constant Matrix: (Units=GPa)
#
#
# Indices 1 2 3 4 5 6 
#
# 1 96.9656 42.7429 30.0870 0.0000 0.0000 0.0000
# 2 42.7429 64.7782 32.0026 0.0000 0.0000 0.0000
# 3 30.0870 32.0026 106.8061 0.0000 0.0000 0.0000
# 4 0.0000 0.0000 0.0000 21.7586 0.0000 0.0000
# 5 0.0000 0.0000 0.0000 0.0000 16.4359 0.0000
# 6 0.0000 0.0000 0.0000 0.0000 0.0000 17.8895
#
#
#
# Elastic Compliance Matrix: (Units=1/GPa)
#
#
# Indices 1 2 3 4 5 6 
#
# 1 0.014732 -0.009003 -0.001452 0.000000 0.000000 0.000000
# 2 -0.009003 0.023622 -0.004542 0.000000 0.000000 0.000000
# 3 -0.001452 -0.004542 0.011133 0.000000 0.000000 0.000000
# 4 0.000000 0.000000 0.000000 0.045959 0.000000 0.000000
# 5 0.000000 0.000000 0.000000 0.000000 0.060842 0.000000
# 6 0.000000 0.000000 0.000000 0.000000 0.000000 0.055899
#
#
# Mechanical properties :
#
#
# Convention : Reuss Voigt Hill
#
# Bulk Modulus (GPa) = 51.30290 53.13497 52.21893
# Shear Modulus (GPa) = 20.10624 22.13128 21.11876
#
# Velocity S-wave (km/s) = 3.41139 3.57906 3.49623
# Velocity P-wave (km/s) = 6.72393 6.91624 6.82076
#
# Compressibility (1/GPa) = 0.01949207
#
# Stress axis : x y z
#
# Youngs Moduli (GPa) = 67.87791 42.33381 89.82545
#
# Poissons Ratio (x) = 0.38115 0.13046
# Poissons Ratio (y) = 0.61113 0.40795
# Poissons Ratio (z) = 0.09858 0.19226
#
# Static dielectric constant tensor:
#      x y z
#    x 3.403140 0.000000 0.000000 
#    y 0.000000 3.317540 0.000000 
#    z 0.000000 0.000000 3.345710 
# 
# 
# High freq. dielectric constant tensor:
#      x y z
#    x 1.650780 0.000000 0.000000 
#    y 0.000000 1.642830 0.000000 
#    z 0.000000 0.000000 1.675250 
# 
# From -- ./inp_files/6630.got.cif
#   From: 2010.03.12/outbox.cif.g09.slc.cpg/sg49_4_cif.got.tgz:6630.got - 2010.04.14 03:58:27.
