data_PCOD8202254
_publ_section_title
;
Structure prediction by ZEFSAII (Michael W. Deem and Ramdas Pophale) SiO2 
 PCOD8202254
Probable space group: P C C M
;
_chemical_formula_sum "Si O2"
_cell_formula_units_Z 48
_cell_length_a 13.675049
_cell_length_b 24.242199
_cell_length_c 8.571752
_cell_angle_alpha 90.000000
_cell_angle_beta 90.000000
_cell_angle_gamma 90.000000
_cell_volume 2841.649443
_symmetry_space_group_name_H-M "P C C M"
_symmetry_group_IT_number 49
_symmetry_cell_setting 'orthorhombic'
loop_
_space_group_symop_operation_xyz
x,y,z
-x,-y,z
x,-y,1/2-z
-x,y,1/2-z
-x,-y,-z
x,y,-z
-x,y,1/2+z
x,-y,1/2+z
loop_
_atom_site_type_symbol
_atom_site_label
_atom_site_fract_x
_atom_site_fract_y
_atom_site_fract_z
Si Si1 0.794142 0.277846 0.315995
Si Si2 0.894922 0.612443 0.814911
Si Si3 0.708053 0.558232 0.315411
Si Si4 0.603272 0.662055 0.184683
Si Si5 0.109250 0.944630 0.184775
Si Si6 0.891358 0.832433 0.814272
O O1 0.801682 0.275574 0.500000
O O2 0.866488 0.326068 0.255517
O O3 0.683388 0.292057 0.264674
O O4 0.827139 0.218670 0.249055
O O5 0.816360 0.569478 0.749757
O O6 0.000000 0.595747 0.750000
O O7 0.894126 0.608739 0.000000
O O8 0.671005 0.500000 0.250000
O O9 0.710735 0.557380 0.500000
O O10 0.630632 0.603491 0.258398
O O11 0.500000 0.682769 0.250000
O O12 0.600031 0.655122 0.000000
O O13 0.159136 0.888446 0.248013
O O14 0.000000 0.944209 0.250000
O O15 0.162786 0.000000 0.250000
O O16 0.109487 0.945525 0.000000
O O17 0.000000 0.824800 0.750000
O O18 0.894534 0.835264 0.000000
#
# Coordination Sequence:
#
# PCOD8202254 Si02
#       6
#     8   8   8   8   8   8
#     4   8  17  31  48  68  95 123 153 190 230 273
#     4  10  19  33  50  71  97 128 160 193 229 273
#     4  11  22  37  54  74  96 122 153 191 232 277
#     4  10  20  37  56  76  97 121 150 187 233 283
#     4  10  17  26  38  56  83 120 160 198 230 265
#     4  10  17  27  42  64  92 126 159 192 227 265
#
# _framework density 16.891597000000001
#
# number of rings (size 3 to 8) (size 9 to 14) (size 15 to 20)
#    0.000    2.167    0.000    7.500    0.000    0.667 
#    0.000   12.500    0.000    0.000    0.000    0.000 
#    0.000    0.667    0.000    7.667    0.000    2.333 
#
# Total GULP energy -595074.913089 kJ/mol
# GULP energy per Si atom -12397.394023 kJ/mol
# Density = 1.685315 g / cm^3
# Si number density = 16.891597 Si / 1000 Ang^3
#
#
#
# Elastic Constant Matrix: (Units=GPa)
#
#
# Indices 1 2 3 4 5 6 
#
# 1 77.5625 30.8295 23.6245 0.0000 0.0000 0.0000
# 2 30.8295 133.5690 38.4802 0.0000 0.0000 0.0000
# 3 23.6245 38.4802 109.9014 0.0000 0.0000 0.0000
# 4 0.0000 0.0000 0.0000 15.0439 0.0000 0.0000
# 5 0.0000 0.0000 0.0000 0.0000 22.6944 0.0000
# 6 0.0000 0.0000 0.0000 0.0000 0.0000 16.6989
#
#
#
# Elastic Compliance Matrix: (Units=1/GPa)
#
#
# Indices 1 2 3 4 5 6 
#
# 1 0.014653 -0.002752 -0.002186 0.000000 0.000000 0.000000
# 2 -0.002752 0.008844 -0.002505 0.000000 0.000000 0.000000
# 3 -0.002186 -0.002505 0.010446 0.000000 0.000000 0.000000
# 4 0.000000 0.000000 0.000000 0.066472 0.000000 0.000000
# 5 0.000000 0.000000 0.000000 0.000000 0.044064 0.000000
# 6 0.000000 0.000000 0.000000 0.000000 0.000000 0.059884
#
#
# Mechanical properties :
#
#
# Convention : Reuss Voigt Hill
#
# Bulk Modulus (GPa) = 52.47694 56.32234 54.39964
# Shear Modulus (GPa) = 22.16304 26.09401 24.12853
#
# Velocity S-wave (km/s) = 3.62619 3.93465 3.78356
# Velocity P-wave (km/s) = 6.97615 7.35240 7.16674
#
# Compressibility (1/GPa) = 0.01905599
#
# Stress axis : x y z
#
# Youngs Moduli (GPa) = 68.24710 113.07559 95.73024
#
# Poissons Ratio (x) = 0.31121 0.20928
# Poissons Ratio (y) = 0.18783 0.23979
# Poissons Ratio (z) = 0.14919 0.28324
#
# Static dielectric constant tensor:
#      x y z
#    x 2.930890 0.000000 0.000000 
#    y 0.000000 3.894710 0.000000 
#    z 0.000000 0.000000 3.153710 
# 
# 
# High freq. dielectric constant tensor:
#      x y z
#    x 1.611310 0.000000 0.000000 
#    y 0.000000 1.657230 0.000000 
#    z 0.000000 0.000000 1.660070 
# 
# From -- ./inp_files/4146.got.cif
#   From: 2010.03.12/outbox.cif.g09.slc.cpg/sg49_3_cif.got.tgz:4146.got - 2010.04.14 03:58:27.
