data_PCOD8202440
_publ_section_title
;
Structure prediction by ZEFSAII (Michael W. Deem and Ramdas Pophale) SiO2 
 PCOD8202440
Probable space group: P C C M
;
_chemical_formula_sum "Si O2"
_cell_formula_units_Z 56
_cell_length_a 29.725313
_cell_length_b 13.599658
_cell_length_c 8.818177
_cell_angle_alpha 90.000000
_cell_angle_beta 90.000000
_cell_angle_gamma 90.000000
_cell_volume 3564.784125
_symmetry_space_group_name_H-M "P C C M"
_symmetry_group_IT_number 49
_symmetry_cell_setting 'orthorhombic'
loop_
_space_group_symop_operation_xyz
x,y,z
-x,-y,z
x,-y,1/2-z
-x,y,1/2-z
-x,-y,-z
x,y,-z
-x,y,1/2+z
x,-y,1/2+z
loop_
_atom_site_type_symbol
_atom_site_label
_atom_site_fract_x
_atom_site_fract_y
_atom_site_fract_z
Si Si1 0.182739 0.207308 0.326470
Si Si2 0.736580 0.106427 0.322596
Si Si3 0.543295 0.891974 0.178542
Si Si4 0.870962 0.601078 0.321946
Si Si5 0.091056 0.104808 0.679279
Si Si6 0.360754 0.104829 0.823410
Si Si7 0.952938 0.709806 0.819257
O O1 0.196385 0.192968 0.500000
O O2 0.226166 0.184295 0.227020
O O3 0.167814 0.318717 0.293009
O O4 0.142385 0.133525 0.283069
O O5 0.740618 0.090404 0.500000
O O6 0.687304 0.153621 0.277545
O O7 0.744890 0.000000 0.250000
O O8 0.500000 0.834445 0.250000
O O9 0.591908 0.839445 0.218824
O O10 0.544446 0.000000 0.250000
O O11 0.535994 0.898867 0.000000
O O12 0.853175 0.500000 0.250000
O O13 0.881254 0.590930 0.500000
O O14 0.916295 0.631687 0.236574
O O15 0.082240 0.105422 0.500000
O O16 0.057680 0.181821 0.756715
O O17 0.080007 0.000000 0.750000
O O18 0.361532 0.000000 0.750000
O O19 0.361133 0.085643 0.000000
O O20 0.000000 0.674471 0.750000
O O21 0.954706 0.711341 0.000000
#
# Coordination Sequence:
#
# PCOD8202440 Si02
#       7
#     8   8   8   8   8   8   8
#     4   9  19  33  48  67  91 114 140 175 212 251
#     4  10  18  27  41  60  84 114 147 179 215 255
#     4   9  14  20  29  41  60  87 125 170 214 251
#     4  10  21  38  57  76  95 115 141 174 212 254
#     4  10  20  34  50  70  95 123 153 183 215 252
#     4   8  15  24  32  46  69  98 132 173 213 250
#     4  11  22  37  55  75  98 122 148 178 212 250
#
# _framework density 15.709225999999999
#
# number of rings (size 3 to 8) (size 9 to 14) (size 15 to 20)
#    0.000    2.429    0.000    4.714    0.000    6.286 
#    0.000    2.857    0.000    0.000    0.000    0.000 
#    0.000    0.000    0.000    0.000    0.000    0.714 
#
# Total GULP energy -693830.849028 kJ/mol
# GULP energy per Si atom -12389.836590 kJ/mol
# Density = 1.567347 g / cm^3
# Si number density = 15.709226 Si / 1000 Ang^3
#
#
#
# Elastic Constant Matrix: (Units=GPa)
#
#
# Indices 1 2 3 4 5 6 
#
# 1 128.4361 22.2434 48.1638 0.0000 0.0000 0.0000
# 2 22.2434 57.1784 22.6427 0.0000 0.0000 0.0000
# 3 48.1638 22.6427 83.8917 0.0000 0.0000 0.0000
# 4 0.0000 0.0000 0.0000 21.7815 0.0000 0.0000
# 5 0.0000 0.0000 0.0000 0.0000 24.7974 0.0000
# 6 0.0000 0.0000 0.0000 0.0000 0.0000 8.8301
#
#
#
# Elastic Compliance Matrix: (Units=1/GPa)
#
#
# Indices 1 2 3 4 5 6 
#
# 1 0.010090 -0.001826 -0.005300 0.000000 0.000000 0.000000
# 2 -0.001826 0.019913 -0.004326 0.000000 0.000000 0.000000
# 3 -0.005300 -0.004326 0.016130 0.000000 0.000000 0.000000
# 4 0.000000 0.000000 0.000000 0.045910 0.000000 0.000000
# 5 0.000000 0.000000 0.000000 0.000000 0.040327 0.000000
# 6 0.000000 0.000000 0.000000 0.000000 0.000000 0.113249
#
#
# Mechanical properties :
#
#
# Convention : Reuss Voigt Hill
#
# Bulk Modulus (GPa) = 43.05029 50.62290 46.83660
# Shear Modulus (GPa) = 18.09852 22.84557 20.47204
#
# Velocity S-wave (km/s) = 3.39793 3.81764 3.61388
# Velocity P-wave (km/s) = 6.54665 7.19217 6.87699
#
# Compressibility (1/GPa) = 0.02322865
#
# Stress axis : x y z
#
# Youngs Moduli (GPa) = 99.11107 50.21927 61.99475
#
# Poissons Ratio (x) = 0.09172 0.32856
# Poissons Ratio (y) = 0.18101 0.26819
# Poissons Ratio (z) = 0.52526 0.21725
#
# Static dielectric constant tensor:
#      x y z
#    x 3.751220 0.000000 0.000000 
#    y 0.000000 2.705960 0.000000 
#    z 0.000000 0.000000 2.876600 
# 
# 
# High freq. dielectric constant tensor:
#      x y z
#    x 1.616930 0.000000 0.000000 
#    y 0.000000 1.543620 0.000000 
#    z 0.000000 0.000000 1.620690 
# 
# From -- ./inp_files/7029.got.cif
#   From: 2010.03.12/outbox.cif.g09.slc.cpg/sg49_4_cif.got.tgz:7029.got - 2010.04.14 03:58:27.
