data_PCOD8202408
_publ_section_title
;
Structure prediction by ZEFSAII (Michael W. Deem and Ramdas Pophale) SiO2 
 PCOD8202408
Probable space group: P C C M
;
_chemical_formula_sum "Si O2"
_cell_formula_units_Z 64
_cell_length_a 15.361956
_cell_length_b 9.061906
_cell_length_c 24.282624
_cell_angle_alpha 90.000000
_cell_angle_beta 90.000000
_cell_angle_gamma 90.000000
_cell_volume 3380.350122
_symmetry_space_group_name_H-M "P C C M"
_symmetry_group_IT_number 49
_symmetry_cell_setting 'orthorhombic'
loop_
_space_group_symop_operation_xyz
x,y,z
-x,-y,z
x,-y,1/2-z
-x,y,1/2-z
-x,-y,-z
x,y,-z
-x,y,1/2+z
x,-y,1/2+z
loop_
_atom_site_type_symbol
_atom_site_label
_atom_site_fract_x
_atom_site_fract_y
_atom_site_fract_z
Si Si1 0.262028 0.670321 0.247116
Si Si2 0.894871 0.158612 0.564587
Si Si3 0.748144 0.679081 0.130122
Si Si4 0.907719 0.824114 0.435591
Si Si5 0.591001 0.139189 0.222780
Si Si6 0.594759 0.820445 0.937800
Si Si7 0.404818 0.146182 0.597803
Si Si8 0.238278 0.670448 0.127163
O O1 0.244347 0.500000 0.250000
O O2 0.235678 0.737142 0.306735
O O3 0.362738 0.706343 0.235644
O O4 0.218602 0.730841 0.189942
O O5 0.883057 0.184429 0.500000
O O6 0.829600 0.265314 0.595649
O O7 0.992699 0.198474 0.583190
O O8 0.874991 0.988471 0.579598
O O9 0.657640 0.739046 0.105540
O O10 0.742812 0.502860 0.128138
O O11 0.900132 0.797536 0.500000
O O12 0.849114 0.702809 0.405997
O O13 0.500000 0.156783 0.250000
O O14 0.576731 0.100983 0.159816
O O15 0.642608 0.000000 0.250000
O O16 0.493494 0.779072 0.925459
O O17 0.612843 0.996061 0.935559
O O18 0.616800 0.768342 0.000000
O O19 0.320499 0.252960 0.596204
#
# Coordination Sequence:
#
# PCOD8202408 Si02
#       8
#     8   8   8   8   8   8   8   8
#     4   9  20  36  50  70 104 141 174 209 257 315
#     4   9  19  37  59  83 107 137 173 213 262 315
#     4  11  21  36  55  78 108 142 176 219 264 310
#     4   9  19  37  60  82 108 137 171 214 261 314
#     4  10  17  28  49  75  96 124 173 227 265 301
#     4  11  22  36  53  75 105 143 181 217 262 317
#     4  10  20  35  52  73 104 141 179 218 262 315
#     4  10  22  36  55  80 107 140 178 216 264 313
#
# _framework density 18.932950000000002
#
# number of rings (size 3 to 8) (size 9 to 14) (size 15 to 20)
#    0.000    2.125    0.000    5.625    0.000    5.250 
#    0.000    6.250    0.000    3.750    0.000    0.000 
#    0.000    0.000    0.000    0.000    0.000    0.000 
#
# Total GULP energy -792963.690897 kJ/mol
# GULP energy per Si atom -12390.057670 kJ/mol
# Density = 1.888986 g / cm^3
# Si number density = 18.932950 Si / 1000 Ang^3
#
#
#
# Elastic Constant Matrix: (Units=GPa)
#
#
# Indices 1 2 3 4 5 6 
#
# 1 96.6089 33.9882 40.8374 0.0000 0.0000 0.0000
# 2 33.9882 39.3847 22.9609 0.0000 0.0000 0.0000
# 3 40.8374 22.9609 92.9640 0.0000 0.0000 0.0000
# 4 0.0000 0.0000 0.0000 28.6940 0.0000 0.0000
# 5 0.0000 0.0000 0.0000 0.0000 15.5203 0.0000
# 6 0.0000 0.0000 0.0000 0.0000 0.0000 26.0797
#
#
#
# Elastic Compliance Matrix: (Units=1/GPa)
#
#
# Indices 1 2 3 4 5 6 
#
# 1 0.016201 -0.011486 -0.004280 0.000000 0.000000 0.000000
# 2 -0.011486 0.037805 -0.004292 0.000000 0.000000 0.000000
# 3 -0.004280 -0.004292 0.013697 0.000000 0.000000 0.000000
# 4 0.000000 0.000000 0.000000 0.034850 0.000000 0.000000
# 5 0.000000 0.000000 0.000000 0.000000 0.064432 0.000000
# 6 0.000000 0.000000 0.000000 0.000000 0.000000 0.038344
#
#
# Mechanical properties :
#
#
# Convention : Reuss Voigt Hill
#
# Bulk Modulus (GPa) = 36.24832 47.17006 41.70919
# Shear Modulus (GPa) = 19.63556 22.80357 21.21957
#
# Velocity S-wave (km/s) = 3.22391 3.47427 3.35143
# Velocity P-wave (km/s) = 5.74851 6.40799 6.08719
#
# Compressibility (1/GPa) = 0.02758749
#
# Stress axis : x y z
#
# Youngs Moduli (GPa) = 61.72416 26.45170 73.00902
#
# Poissons Ratio (x) = 0.30383 0.31248
# Poissons Ratio (y) = 0.70897 0.31333
# Poissons Ratio (z) = 0.26418 0.11352
#
# Static dielectric constant tensor:
#      x y z
#    x 3.364160 0.000000 0.000000 
#    y 0.000000 0.859890 0.000000 
#    z 0.000000 0.000000 3.739540 
# 
# 
# High freq. dielectric constant tensor:
#      x y z
#    x 1.724860 0.000000 0.000000 
#    y 0.000000 1.722570 0.000000 
#    z 0.000000 0.000000 1.750560 
# 
# From -- ./inp_files/23239.got.cif
#   From: 2010.03.12/outbox.cif.g09.slc.cpg/sg49_12_cif.got.tgz:23239.got - 2010.04.14 03:58:27.
