data_PCOD8202313
_publ_section_title
;
Structure prediction by ZEFSAII (Michael W. Deem and Ramdas Pophale) SiO2 
 PCOD8202313
Probable space group: P C C M
;
_chemical_formula_sum "Si O2"
_cell_formula_units_Z 58
_cell_length_a 14.674698
_cell_length_b 25.155275
_cell_length_c 8.811376
_cell_angle_alpha 90.000000
_cell_angle_beta 90.000000
_cell_angle_gamma 90.000000
_cell_volume 3252.684766
_symmetry_space_group_name_H-M "P C C M"
_symmetry_group_IT_number 49
_symmetry_cell_setting 'orthorhombic'
loop_
_space_group_symop_operation_xyz
x,y,z
-x,-y,z
x,-y,1/2-z
-x,y,1/2-z
-x,-y,-z
x,y,-z
-x,y,1/2+z
x,-y,1/2+z
loop_
_atom_site_type_symbol
_atom_site_label
_atom_site_fract_x
_atom_site_fract_y
_atom_site_fract_z
Si Si1 0.640162 0.414490 0.668301
Si Si2 0.500000 0.500000 0.250000
Si Si3 0.901389 0.159174 0.678871
Si Si4 0.835019 0.554404 0.819555
Si Si5 0.909706 0.343144 0.178437
Si Si6 0.590116 0.699498 0.175864
Si Si7 0.215896 0.738571 0.674639
Si Si8 0.899288 0.947564 0.681298
O O1 0.669175 0.397296 0.500000
O O2 0.564177 0.460673 0.654285
O O3 0.732307 0.435983 0.746495
O O4 0.606559 0.359861 0.748279
O O5 0.914730 0.149599 0.500000
O O6 0.828670 0.205054 0.714388
O O7 0.855549 0.107189 0.757505
O O8 0.000000 0.173461 0.750000
O O9 0.872370 0.500000 0.750000
O O10 0.900162 0.600187 0.758588
O O11 0.838783 0.551443 0.000000
O O12 0.824375 0.306227 0.216532
O O13 0.000000 0.316057 0.250000
O O14 0.919569 0.349832 0.000000
O O15 0.500000 0.724974 0.250000
O O16 0.675580 0.738744 0.206193
O O17 0.569108 0.693888 0.000000
O O18 0.195964 0.723068 0.500000
O O19 0.899642 0.949709 0.500000
O O20 0.000000 0.946983 0.750000
O O21 0.848647 0.000000 0.750000
#
# Coordination Sequence:
#
# PCOD8202313 Si02
#       8
#     8   2   8   8   8   8   8   8
#     4  10  20  32  50  72 102 129 155 195 247 307
#     4  12  18  32  48  82 102 128 162 196 260 312
#     4  10  19  31  49  74 105 143 184 225 267 311
#     4  11  22  40  58  77 102 129 161 204 253 307
#     4  12  25  40  59  81 102 133 171 212 260 314
#     4  10  20  37  55  76 102 135 169 209 261 313
#     4  10  21  38  57  77 107 142 177 221 267 312
#     4  10  17  27  44  68 103 144 185 225 263 307
#
# _framework density 17.831423000000001
#
# number of rings (size 3 to 8) (size 9 to 14) (size 15 to 20)
#    0.000    1.517    2.759    5.172    0.000    3.034 
#    0.000    1.379    0.000    0.000    0.000    0.000 
#    0.000    0.552    0.000    6.345    0.000    1.931 
#
# Total GULP energy -718967.885254 kJ/mol
# GULP energy per Si atom -12395.998022 kJ/mol
# Density = 1.779084 g / cm^3
# Si number density = 17.831423 Si / 1000 Ang^3
#
#
#
# Elastic Constant Matrix: (Units=GPa)
#
#
# Indices 1 2 3 4 5 6 
#
# 1 85.5114 42.3310 34.6780 0.0000 0.0000 0.0000
# 2 42.3310 122.7358 48.4117 0.0000 0.0000 0.0000
# 3 34.6780 48.4117 109.8874 0.0000 0.0000 0.0000
# 4 0.0000 0.0000 0.0000 22.6730 0.0000 0.0000
# 5 0.0000 0.0000 0.0000 0.0000 22.2679 0.0000
# 6 0.0000 0.0000 0.0000 0.0000 0.0000 13.3985
#
#
#
# Elastic Compliance Matrix: (Units=1/GPa)
#
#
# Indices 1 2 3 4 5 6 
#
# 1 0.014848 -0.003961 -0.002941 0.000000 0.000000 0.000000
# 2 -0.003961 0.010918 -0.003560 0.000000 0.000000 0.000000
# 3 -0.002941 -0.003560 0.011597 0.000000 0.000000 0.000000
# 4 0.000000 0.000000 0.000000 0.044105 0.000000 0.000000
# 5 0.000000 0.000000 0.000000 0.000000 0.044908 0.000000
# 6 0.000000 0.000000 0.000000 0.000000 0.000000 0.074635
#
#
# Mechanical properties :
#
#
# Convention : Reuss Voigt Hill
#
# Bulk Modulus (GPa) = 60.83057 63.21957 62.02507
# Shear Modulus (GPa) = 21.98643 24.51547 23.25095
#
# Velocity S-wave (km/s) = 3.51524 3.71191 3.61492
# Velocity P-wave (km/s) = 7.11788 7.34180 7.23071
#
# Compressibility (1/GPa) = 0.01643910
#
# Stress axis : x y z
#
# Youngs Moduli (GPa) = 67.35057 91.59270 86.23254
#
# Poissons Ratio (x) = 0.36280 0.25357
# Poissons Ratio (y) = 0.26678 0.30698
# Poissons Ratio (z) = 0.19805 0.32607
#
# Static dielectric constant tensor:
#      x y z
#    x 3.221890 0.000000 0.000000 
#    y 0.000000 3.730920 0.000000 
#    z 0.000000 0.000000 3.197340 
# 
# 
# High freq. dielectric constant tensor:
#      x y z
#    x 1.665910 0.000000 0.000000 
#    y 0.000000 1.680430 0.000000 
#    z 0.000000 0.000000 1.688820 
# 
# From -- ./inp_files/4255.got.cif
#   From: 2010.03.12/outbox.cif.g09.slc.cpg/sg49_3_cif.got.tgz:4255.got - 2010.04.14 03:58:27.
