data_PCOD8202112
_publ_section_title
;
Structure prediction by ZEFSAII (Michael W. Deem and Ramdas Pophale) SiO2 
 PCOD8202112
Probable space group: P N N N
;
_chemical_formula_sum "Si O2"
_cell_formula_units_Z 32
_cell_length_a 16.714807
_cell_length_b 8.532328
_cell_length_c 10.175495
_cell_angle_alpha 90.000000
_cell_angle_beta 90.000000
_cell_angle_gamma 90.000000
_cell_volume 1451.190591
_symmetry_space_group_name_H-M "P N N N"
_symmetry_group_IT_number 48
_space_group.IT_coordinate_system_code '2'
_symmetry_cell_setting 'orthorhombic'
loop_
_space_group_symop_operation_xyz
x,y,z
1/2-x,1/2-y,z
x,1/2-y,1/2-z
1/2-x,y,1/2-z
-x,-y,-z
1/2+x,1/2+y,-z
-x,1/2+y,1/2+z
1/2+x,-y,1/2+z
loop_
_atom_site_type_symbol
_atom_site_label
_atom_site_fract_x
_atom_site_fract_y
_atom_site_fract_z
Si Si1 0.604101 0.077148 0.457570
Si Si2 0.415886 0.930264 0.041238
Si Si3 0.959588 0.922636 0.797442
Si Si4 0.736934 0.924082 0.095555
O O1 0.586043 0.246953 0.515856
O O2 0.556631 0.055046 0.317464
O O3 0.574948 0.943041 0.557121
O O4 0.698428 0.053311 0.447475
O O5 0.414489 0.958194 0.198581
O O6 0.500000 0.000000 0.000000
O O7 0.347798 0.016126 0.957012
O O8 0.939365 0.750000 0.750000
O O9 0.750000 0.750000 0.035723
O O10 0.750000 0.913367 0.250000
#
# Coordination Sequence:
#
# PCOD8202112 Si02
#       4
#     8   8   8   8
#     4  11  25  44  69 105 142 182 236 290 354 418
#     4  12  24  43  71 101 139 185 232 284 350 420
#     4  11  23  43  70 103 140 183 233 289 352 417
#     4  11  26  45  69 103 141 182 234 293 352 418
#
# _framework density 22.050858999999999
#
# number of rings (size 3 to 8) (size 9 to 14) (size 15 to 20)
#    0.000    0.750    2.500    4.500    3.500    2.000 
#    0.000    5.000    0.000    0.000    0.000    0.000 
#    0.000    0.000    0.000    0.000    0.000    0.000 
#
# Total GULP energy -396590.833337 kJ/mol
# GULP energy per Si atom -12393.463542 kJ/mol
# Density = 2.200067 g / cm^3
# Si number density = 22.050859 Si / 1000 Ang^3
#
#
#
# Elastic Constant Matrix: (Units=GPa)
#
#
# Indices 1 2 3 4 5 6 
#
# 1 163.8159 66.0535 42.6168 0.0000 0.0000 0.0000
# 2 66.0535 151.6932 50.7289 0.0000 0.0000 0.0000
# 3 42.6168 50.7289 99.8678 0.0000 0.0000 0.0000
# 4 0.0000 0.0000 0.0000 30.0308 0.0000 0.0000
# 5 0.0000 0.0000 0.0000 0.0000 39.9372 0.0000
# 6 0.0000 0.0000 0.0000 0.0000 0.0000 21.1362
#
#
#
# Elastic Compliance Matrix: (Units=1/GPa)
#
#
# Indices 1 2 3 4 5 6 
#
# 1 0.007694 -0.002713 -0.001905 0.000000 0.000000 0.000000
# 2 -0.002713 0.008898 -0.003362 0.000000 0.000000 0.000000
# 3 -0.001905 -0.003362 0.012534 0.000000 0.000000 0.000000
# 4 0.000000 0.000000 0.000000 0.033299 0.000000 0.000000
# 5 0.000000 0.000000 0.000000 0.000000 0.025039 0.000000
# 6 0.000000 0.000000 0.000000 0.000000 0.000000 0.047312
#
#
# Mechanical properties :
#
#
# Convention : Reuss Voigt Hill
#
# Bulk Modulus (GPa) = 75.95681 81.57504 78.76592
# Shear Modulus (GPa) = 32.23189 35.28601 33.75895
#
# Velocity S-wave (km/s) = 3.82738 4.00460 3.91699
# Velocity P-wave (km/s) = 7.35205 7.64571 7.50032
#
# Compressibility (1/GPa) = 0.01316538
#
# Stress axis : x y z
#
# Youngs Moduli (GPa) = 129.97078 112.38462 79.78314
#
# Poissons Ratio (x) = 0.30492 0.15199
# Poissons Ratio (y) = 0.35264 0.26823
# Poissons Ratio (z) = 0.24761 0.37784
#
# Static dielectric constant tensor:
#      x y z
#    x 4.402750 0.000000 0.000000 
#    y 0.000000 2.948670 0.000000 
#    z 0.000000 0.000000 3.974220 
# 
# 
# High freq. dielectric constant tensor:
#      x y z
#    x 1.868810 0.000000 0.000000 
#    y 0.000000 1.880320 0.000000 
#    z 0.000000 0.000000 1.871990 
# 
# From -- ./inp_files/10097.got.cif
#   From: 2010.06.25/outbox.cif.g09.slc.cpg/sg48_6_cif.got.tgz:10097.got - 2010.06.26 18:06:46.
