data_PCOD8202998
_publ_section_title
;
Structure prediction by ZEFSAII (Michael W. Deem and Ramdas Pophale) SiO2 
 PCOD8202998
Probable space group: P C C M
;
_chemical_formula_sum "Si O2"
_cell_formula_units_Z 56
_cell_length_a 22.437332
_cell_length_b 14.900272
_cell_length_c 8.880276
_cell_angle_alpha 90.000000
_cell_angle_beta 90.000000
_cell_angle_gamma 90.000000
_cell_volume 2968.874739
_symmetry_space_group_name_H-M "P C C M"
_symmetry_group_IT_number 49
_symmetry_cell_setting 'orthorhombic'
loop_
_space_group_symop_operation_xyz
x,y,z
-x,-y,z
x,-y,1/2-z
-x,y,1/2-z
-x,-y,-z
x,y,-z
-x,y,1/2+z
x,-y,1/2+z
loop_
_atom_site_type_symbol
_atom_site_label
_atom_site_fract_x
_atom_site_fract_y
_atom_site_fract_z
Si Si1 0.298430 0.905505 0.821455
Si Si2 0.667714 0.727488 0.177029
Si Si3 0.162172 0.908331 0.176754
Si Si4 0.244927 0.591543 0.822290
Si Si5 0.892493 0.589145 0.323982
Si Si6 0.437310 0.592612 0.322880
Si Si7 0.939453 0.776028 0.678213
O O1 0.338157 0.826237 0.749965
O O2 0.229808 0.885112 0.776621
O O3 0.318949 0.000000 0.750000
O O4 0.308009 0.909073 0.000000
O O5 0.722886 0.677160 0.252986
O O6 0.607735 0.673031 0.213286
O O7 0.679079 0.736044 0.000000
O O8 0.117542 0.831829 0.235709
O O9 0.140353 0.000000 0.250000
O O10 0.157673 0.919905 0.000000
O O11 0.270715 0.500000 0.750000
O O12 0.176115 0.602595 0.777975
O O13 0.255669 0.588898 0.000000
O O14 0.919694 0.500000 0.250000
O O15 0.898444 0.577905 0.500000
O O16 0.929785 0.674188 0.265889
O O17 0.413307 0.500000 0.250000
O O18 0.500000 0.620011 0.250000
O O19 0.445164 0.577255 0.500000
O O20 0.944564 0.782113 0.500000
O O21 0.000000 0.814369 0.750000
#
# Coordination Sequence:
#
# PCOD8202998 Si02
#       7
#     8   8   8   8   8   8   8
#     4  10  20  36  58  82 108 139 173 215 265 317
#     4  11  22  34  52  81 112 143 179 219 262 312
#     4   9  19  36  56  77 102 131 164 204 255 311
#     4  10  19  32  51  76 105 137 171 212 263 317
#     4   9  19  35  52  70  96 129 166 208 255 307
#     4  10  21  36  55  79 111 149 188 225 261 303
#     4  10  21  36  51  70  97 128 165 208 252 303
#
# _framework density 18.862365
#
# number of rings (size 3 to 8) (size 9 to 14) (size 15 to 20)
#    0.000    2.143    0.000    3.429    0.000    8.571 
#    0.000    4.286    0.000    0.429    0.000    3.000 
#    0.000    0.000    0.000    0.000    0.000    0.000 
#
# Total GULP energy -694523.582610 kJ/mol
# GULP energy per Si atom -12402.206832 kJ/mol
# Density = 1.881943 g / cm^3
# Si number density = 18.862365 Si / 1000 Ang^3
#
#
#
# Elastic Constant Matrix: (Units=GPa)
#
#
# Indices 1 2 3 4 5 6 
#
# 1 67.3856 51.6354 36.2199 0.0000 0.0000 0.0000
# 2 51.6354 142.2034 49.6314 0.0000 0.0000 0.0000
# 3 36.2199 49.6314 72.1939 0.0000 0.0000 0.0000
# 4 0.0000 0.0000 0.0000 37.3114 0.0000 0.0000
# 5 0.0000 0.0000 0.0000 0.0000 25.0864 0.0000
# 6 0.0000 0.0000 0.0000 0.0000 0.0000 33.6671
#
#
#
# Elastic Compliance Matrix: (Units=1/GPa)
#
#
# Indices 1 2 3 4 5 6 
#
# 1 0.023474 -0.005806 -0.007785 0.000000 0.000000 0.000000
# 2 -0.005806 0.010688 -0.004435 0.000000 0.000000 0.000000
# 3 -0.007785 -0.004435 0.020806 0.000000 0.000000 0.000000
# 4 0.000000 0.000000 0.000000 0.026801 0.000000 0.000000
# 5 0.000000 0.000000 0.000000 0.000000 0.039862 0.000000
# 6 0.000000 0.000000 0.000000 0.000000 0.000000 0.029703
#
#
# Mechanical properties :
#
#
# Convention : Reuss Voigt Hill
#
# Bulk Modulus (GPa) = 52.86643 61.86183 57.36413
# Shear Modulus (GPa) = 25.81407 28.83273 27.32340
#
# Velocity S-wave (km/s) = 3.70340 3.91395 3.81013
# Velocity P-wave (km/s) = 6.80994 7.30021 7.05933
#
# Compressibility (1/GPa) = 0.01891560
#
# Stress axis : x y z
#
# Youngs Moduli (GPa) = 42.60076 93.55940 48.06238
#
# Poissons Ratio (x) = 0.54324 0.37417
# Poissons Ratio (y) = 0.24736 0.21315
# Poissons Ratio (z) = 0.33165 0.41493
#
# Static dielectric constant tensor:
#      x y z
#    x 3.357750 0.000000 0.000000 
#    y 0.000000 3.723360 0.000000 
#    z 0.000000 0.000000 3.443030 
# 
# 
# High freq. dielectric constant tensor:
#      x y z
#    x 1.715720 0.000000 0.000000 
#    y 0.000000 1.738260 0.000000 
#    z 0.000000 0.000000 1.736290 
# 
# From -- ./inp_files/4009.got.cif
#   From: 2010.03.12/outbox.cif.g09.slc.cpg/sg49_3_cif.got.tgz:4009.got - 2010.04.14 03:58:27.
