data_PCOD8202911
_publ_section_title
;
Structure prediction by ZEFSAII (Michael W. Deem and Ramdas Pophale) SiO2 
 PCOD8202911
Probable space group: P C C M
;
_chemical_formula_sum "Si O2"
_cell_formula_units_Z 64
_cell_length_a 24.652324
_cell_length_b 15.380127
_cell_length_c 8.964481
_cell_angle_alpha 90.000000
_cell_angle_beta 90.000000
_cell_angle_gamma 90.000000
_cell_volume 3398.935628
_symmetry_space_group_name_H-M "P C C M"
_symmetry_group_IT_number 49
_symmetry_cell_setting 'orthorhombic'
loop_
_space_group_symop_operation_xyz
x,y,z
-x,-y,z
x,-y,1/2-z
-x,y,1/2-z
-x,-y,-z
x,y,-z
-x,y,1/2+z
x,-y,1/2+z
loop_
_atom_site_type_symbol
_atom_site_label
_atom_site_fract_x
_atom_site_fract_y
_atom_site_fract_z
Si Si1 0.895375 0.083916 0.175685
Si Si2 0.236534 0.701234 0.170211
Si Si3 0.334067 0.912666 0.674142
Si Si4 0.860632 0.588540 0.328987
Si Si5 0.056490 0.734422 0.823224
Si Si6 0.557747 0.589613 0.321656
Si Si7 0.357534 0.263954 0.672187
Si Si8 0.211485 0.129342 0.827598
O O1 0.925239 0.170421 0.233511
O O2 0.832648 0.082039 0.226059
O O3 0.924388 0.000000 0.250000
O O4 0.898147 0.075400 0.000000
O O5 0.202863 0.612576 0.196469
O O6 0.300195 0.687452 0.200644
O O7 0.212196 0.769572 0.285675
O O8 0.226692 0.734499 0.000000
O O9 0.346597 0.916314 0.500000
O O10 0.362782 0.826106 0.737833
O O11 0.270157 0.910437 0.709285
O O12 0.358098 0.000000 0.750000
O O13 0.875734 0.500000 0.250000
O O14 0.873772 0.573245 0.500000
O O15 0.898603 0.665862 0.267716
O O16 0.000000 0.708123 0.750000
O O17 0.050545 0.734039 0.000000
O O18 0.580098 0.500000 0.250000
O O19 0.500000 0.612062 0.250000
O O20 0.553321 0.579182 0.500000
O O21 0.597036 0.668308 0.274907
O O22 0.364716 0.239461 0.500000
O O23 0.195774 0.118707 0.000000
#
# Coordination Sequence:
#
# PCOD8202911 Si02
#       8
#     8   8   8   8   8   8   8   8
#     4  11  22  37  56  80 108 139 175 217 266 323
#     4   9  17  34  55  76 111 147 176 218 269 320
#     4  10  20  32  49  77 113 150 187 227 270 319
#     4  10  21  38  58  82 108 139 175 215 269 324
#     4  10  23  42  60  78 104 137 175 220 272 322
#     4  10  20  35  56  83 112 148 191 234 282 329
#     4   9  19  34  55  81 110 149 189 226 274 327
#     4  10  19  31  51  80 109 142 182 218 261 316
#
# _framework density 18.829423999999999
#
# number of rings (size 3 to 8) (size 9 to 14) (size 15 to 20)
#    0.000    2.125    1.250    2.250    0.000    6.500 
#    0.000    2.500    0.000    0.375    0.000    2.625 
#    0.000    0.000    0.000    0.000    0.000    0.000 
#
# Total GULP energy -793569.768424 kJ/mol
# GULP energy per Si atom -12399.527632 kJ/mol
# Density = 1.878657 g / cm^3
# Si number density = 18.829424 Si / 1000 Ang^3
#
#
#
# Elastic Constant Matrix: (Units=GPa)
#
#
# Indices 1 2 3 4 5 6 
#
# 1 82.2223 65.4703 34.6063 0.0000 0.0000 0.0000
# 2 65.4703 159.3926 57.9865 0.0000 0.0000 0.0000
# 3 34.6063 57.9865 66.9195 0.0000 0.0000 0.0000
# 4 0.0000 0.0000 0.0000 35.4020 0.0000 0.0000
# 5 0.0000 0.0000 0.0000 0.0000 24.4986 0.0000
# 6 0.0000 0.0000 0.0000 0.0000 0.0000 16.5183
#
#
#
# Elastic Compliance Matrix: (Units=1/GPa)
#
#
# Indices 1 2 3 4 5 6 
#
# 1 0.018943 -0.006158 -0.004460 0.000000 0.000000 0.000000
# 2 -0.006158 0.011164 -0.006489 0.000000 0.000000 0.000000
# 3 -0.004460 -0.006489 0.022872 0.000000 0.000000 0.000000
# 4 0.000000 0.000000 0.000000 0.028247 0.000000 0.000000
# 5 0.000000 0.000000 0.000000 0.000000 0.040819 0.000000
# 6 0.000000 0.000000 0.000000 0.000000 0.000000 0.060539
#
#
# Mechanical properties :
#
#
# Convention : Reuss Voigt Hill
#
# Bulk Modulus (GPa) = 53.29049 69.40674 61.34862
# Shear Modulus (GPa) = 22.41619 25.31520 23.86569
#
# Velocity S-wave (km/s) = 3.45409 3.67065 3.56401
# Velocity P-wave (km/s) = 6.65363 7.40984 7.04189
#
# Compressibility (1/GPa) = 0.01876507
#
# Stress axis : x y z
#
# Youngs Moduli (GPa) = 52.79050 89.57328 43.72067
#
# Poissons Ratio (x) = 0.55162 0.19498
# Poissons Ratio (y) = 0.32510 0.28371
# Poissons Ratio (z) = 0.23543 0.58125
#
# Static dielectric constant tensor:
#      x y z
#    x 3.339560 0.000000 0.000000 
#    y 0.000000 3.516970 0.000000 
#    z 0.000000 0.000000 3.403610 
# 
# 
# High freq. dielectric constant tensor:
#      x y z
#    x 1.710400 0.000000 0.000000 
#    y 0.000000 1.735050 0.000000 
#    z 0.000000 0.000000 1.731760 
# 
# From -- ./inp_files/6557.got.cif
#   From: 2010.03.12/outbox.cif.g09.slc.cpg/sg49_4_cif.got.tgz:6557.got - 2010.04.14 03:58:27.
