data_PCOD8202827
_publ_section_title
;
Structure prediction by ZEFSAII (Michael W. Deem and Ramdas Pophale) SiO2 
 PCOD8202827
Probable space group: P C C M
;
_chemical_formula_sum "Si O2"
_cell_formula_units_Z 56
_cell_length_a 31.505294
_cell_length_b 5.172906
_cell_length_c 17.804180
_cell_angle_alpha 90.000000
_cell_angle_beta 90.000000
_cell_angle_gamma 90.000000
_cell_volume 2901.617085
_symmetry_space_group_name_H-M "P C C M"
_symmetry_group_IT_number 49
_symmetry_cell_setting 'orthorhombic'
loop_
_space_group_symop_operation_xyz
x,y,z
-x,-y,z
x,-y,1/2-z
-x,y,1/2-z
-x,-y,-z
x,y,-z
-x,y,1/2+z
x,-y,1/2+z
loop_
_atom_site_type_symbol
_atom_site_label
_atom_site_fract_x
_atom_site_fract_y
_atom_site_fract_z
Si Si1 0.684684 0.133776 0.086026
Si Si2 0.263258 0.380756 0.914111
Si Si3 0.596960 0.006335 0.839112
Si Si4 0.169661 0.313596 0.089317
Si Si5 0.024865 0.749601 0.089352
Si Si6 0.880333 0.816299 0.410852
Si Si7 0.452179 0.501572 0.660485
O O1 0.707014 0.391820 0.121366
O O2 0.644347 0.046300 0.133085
O O3 0.717026 0.899948 0.093154
O O4 0.670838 0.182708 0.000000
O O5 0.216889 0.351801 0.876178
O O6 0.257196 0.468108 0.000000
O O7 0.569388 0.243095 0.870368
O O8 0.597811 0.000000 0.750000
O O9 0.575120 0.744530 0.869987
O O10 0.144179 0.563138 0.114910
O O11 0.144821 0.064271 0.122376
O O12 0.172921 0.284236 0.000000
O O13 0.072296 0.783015 0.122092
O O14 0.000000 0.500000 0.122026
O O15 0.026826 0.726979 0.000000
O O16 0.000000 0.000000 0.116568
O O17 0.882778 0.843861 0.500000
O O18 0.500000 0.500000 0.628584
O O19 0.453143 0.500000 0.750000
#
# Coordination Sequence:
#
# PCOD8202827 Si02
#       7
#     8   8   8   8   8   8   8
#     4  10  19  31  46  64  88 116 143 172 214 262
#     4   9  17  28  42  59  79 106 137 170 211 259
#     4  10  19  31  49  71  92 115 145 179 212 248
#     4   9  15  23  34  48  65  85 117 159 201 243
#     4   9  15  21  27  36  53  78 109 146 194 250
#     4   9  15  21  30  43  59  82 113 155 204 246
#     4   9  17  30  49  71  92 115 145 179 212 247
#
# _framework density 19.299582999999998
#
# number of rings (size 3 to 8) (size 9 to 14) (size 15 to 20)
#    0.000    2.714    0.000    3.000    0.000    8.571 
#    0.000    0.000    0.000    2.571    0.000    0.000 
#    0.000    0.000    0.000    0.000    0.000    0.000 
#
# Total GULP energy -694109.444325 kJ/mol
# GULP energy per Si atom -12394.811506 kJ/mol
# Density = 1.925566 g / cm^3
# Si number density = 19.299583 Si / 1000 Ang^3
#
#
#
# Elastic Constant Matrix: (Units=GPa)
#
#
# Indices 1 2 3 4 5 6 
#
# 1 161.0305 67.4744 9.0428 0.0000 0.0000 0.0000
# 2 67.4744 163.2668 9.5382 0.0000 0.0000 0.0000
# 3 9.0428 9.5382 3.3179 0.0000 0.0000 0.0000
# 4 0.0000 0.0000 0.0000 4.8304 0.0000 0.0000
# 5 0.0000 0.0000 0.0000 0.0000 -19.2088 0.0000
# 6 0.0000 0.0000 0.0000 0.0000 0.0000 43.3527
#
#
#
# Elastic Compliance Matrix: (Units=1/GPa)
#
#
# Indices 1 2 3 4 5 6 
#
# 1 0.008083 -0.002468 -0.014934 0.000000 0.000000 0.000000
# 2 -0.002468 0.008115 -0.016602 0.000000 0.000000 0.000000
# 3 -0.014934 -0.016602 0.389821 0.000000 0.000000 0.000000
# 4 0.000000 0.000000 0.000000 0.207023 0.000000 0.000000
# 5 0.000000 0.000000 0.000000 0.000000 -0.052059 0.000000
# 6 0.000000 0.000000 0.000000 0.000000 0.000000 0.023067
#
#
# Mechanical properties :
#
#
# Convention : Reuss Voigt Hill
#
# Bulk Modulus (GPa) = 2.95849 55.52512 29.24180
# Shear Modulus (GPa) = 6.53828 21.89884 14.21856
#
# Velocity S-wave (km/s) = 1.84259 3.37215 2.71722
# Velocity P-wave (km/s) = 2.46234 6.63283 5.00288
#
# Compressibility (1/GPa) = 0.33801049
#
# Stress axis : x y z
#
# Youngs Moduli (GPa) = 123.72007 123.23198 2.56528
#
# Poissons Ratio (x) = 0.30413 0.03831
# Poissons Ratio (y) = 0.30533 0.04259
# Poissons Ratio (z) = 1.84769 2.04587
#
# Static dielectric constant tensor:
#      x y z
#    x 3.801410 0.000000 0.000000 
#    y 0.000000 3.815920 0.000000 
#    z 0.000000 0.000000 2.704290 
# 
# 
# High freq. dielectric constant tensor:
#      x y z
#    x 1.774020 0.000000 0.000000 
#    y 0.000000 1.774690 0.000000 
#    z 0.000000 0.000000 1.651840 
# 
# From -- ./inp_files/21267.got.cif
#   From: 2010.03.12/outbox.cif.g09.slc.cpg/sg49_11_cif.got.tgz:21267.got - 2010.04.14 03:58:27.
