data_PCOD8202635
_publ_section_title
;
Structure prediction by ZEFSAII (Michael W. Deem and Ramdas Pophale) SiO2 
 PCOD8202635
Probable space group: P C C M
;
_chemical_formula_sum "Si O2"
_cell_formula_units_Z 64
_cell_length_a 14.612087
_cell_length_b 23.579917
_cell_length_c 9.161366
_cell_angle_alpha 90.000000
_cell_angle_beta 90.000000
_cell_angle_gamma 90.000000
_cell_volume 3156.565133
_symmetry_space_group_name_H-M "P C C M"
_symmetry_group_IT_number 49
_symmetry_cell_setting 'orthorhombic'
loop_
_space_group_symop_operation_xyz
x,y,z
-x,-y,z
x,-y,1/2-z
-x,y,1/2-z
-x,-y,-z
x,y,-z
-x,y,1/2+z
x,-y,1/2+z
loop_
_atom_site_type_symbol
_atom_site_label
_atom_site_fract_x
_atom_site_fract_y
_atom_site_fract_z
Si Si1 0.724135 0.339214 0.334043
Si Si2 0.406733 0.441239 0.173267
Si Si3 0.634574 0.052661 0.661704
Si Si4 0.147171 0.056061 0.167508
Si Si5 0.910874 0.284263 0.328640
Si Si6 0.416872 0.277931 0.660666
Si Si7 0.152860 0.829782 0.172710
Si Si8 0.362384 0.155753 0.659909
O O1 0.700383 0.323488 0.500000
O O2 0.680153 0.400280 0.295735
O O3 0.832541 0.332581 0.305833
O O4 0.679257 0.292011 0.232782
O O5 0.379870 0.500000 0.250000
O O6 0.500000 0.417940 0.250000
O O7 0.423254 0.449305 0.000000
O O8 0.596277 0.047957 0.500000
O O9 0.743632 0.053597 0.669236
O O10 0.595473 0.110780 0.728329
O O11 0.594059 0.000000 0.750000
O O12 0.113619 0.112201 0.254505
O O13 0.108518 0.000000 0.250000
O O14 0.111535 0.057464 0.000000
O O15 0.927620 0.273464 0.500000
O O16 0.890981 0.224190 0.252167
O O17 0.000000 0.310375 0.250000
O O18 0.500000 0.305543 0.750000
O O19 0.421041 0.304463 0.500000
O O20 0.427342 0.210301 0.657642
O O21 0.260439 0.825633 0.203762
O O22 0.129728 0.829080 0.000000
O O23 0.358804 0.126961 0.500000
#
# Coordination Sequence:
#
# PCOD8202635 Si02
#       8
#     8   8   8   8   8   8   8   8
#     4  10  22  39  60  86 119 156 197 242 286 336
#     4  10  20  36  59  92 129 167 204 241 283 332
#     4   9  16  25  41  64  91 125 168 217 271 331
#     4   9  16  26  42  69 100 134 175 224 283 349
#     4  11  23  39  59  84 114 150 194 245 296 349
#     4  11  22  35  53  80 113 150 188 229 280 339
#     4  10  18  32  52  75 104 140 183 233 289 350
#     4   9  18  31  47  69 100 135 174 221 273 333
#
# _framework density 20.275203000000001
#
# number of rings (size 3 to 8) (size 9 to 14) (size 15 to 20)
#    0.000    2.125    1.250    3.000    0.000    7.000 
#    0.000    0.000    0.000    1.125    0.000    7.875 
#    0.000    0.000    0.000    0.000    0.000    0.000 
#
# Total GULP energy -793370.565647 kJ/mol
# GULP energy per Si atom -12396.415088 kJ/mol
# Density = 2.022906 g / cm^3
# Si number density = 20.275203 Si / 1000 Ang^3
#
#
#
# Elastic Constant Matrix: (Units=GPa)
#
#
# Indices 1 2 3 4 5 6 
#
# 1 84.3534 39.9125 55.8680 0.0000 0.0000 0.0000
# 2 39.9125 108.0378 63.2444 0.0000 0.0000 0.0000
# 3 55.8680 63.2444 160.6134 0.0000 0.0000 0.0000
# 4 0.0000 0.0000 0.0000 23.8167 0.0000 0.0000
# 5 0.0000 0.0000 0.0000 0.0000 22.6693 0.0000
# 6 0.0000 0.0000 0.0000 0.0000 0.0000 4.6888
#
#
#
# Elastic Compliance Matrix: (Units=1/GPa)
#
#
# Indices 1 2 3 4 5 6 
#
# 1 0.016377 -0.003529 -0.004307 0.000000 0.000000 0.000000
# 2 -0.003529 0.012789 -0.003808 0.000000 0.000000 0.000000
# 3 -0.004307 -0.003808 0.009224 0.000000 0.000000 0.000000
# 4 0.000000 0.000000 0.000000 0.041987 0.000000 0.000000
# 5 0.000000 0.000000 0.000000 0.000000 0.044113 0.000000
# 6 0.000000 0.000000 0.000000 0.000000 0.000000 0.213274
#
#
# Mechanical properties :
#
#
# Convention : Reuss Voigt Hill
#
# Bulk Modulus (GPa) = 66.21898 74.56159 70.39029
# Shear Modulus (GPa) = 13.65794 23.16693 18.41243
#
# Velocity S-wave (km/s) = 2.59825 3.38394 3.01678
# Velocity P-wave (km/s) = 6.46005 7.21960 6.85036
#
# Compressibility (1/GPa) = 0.01510141
#
# Stress axis : x y z
#
# Youngs Moduli (GPa) = 61.06020 78.19127 108.41320
#
# Poissons Ratio (x) = 0.27593 0.46695
# Poissons Ratio (y) = 0.21548 0.41289
# Poissons Ratio (z) = 0.26299 0.29779
#
# Static dielectric constant tensor:
#      x y z
#    x 3.472950 0.000000 0.000000 
#    y 0.000000 3.542880 0.000000 
#    z 0.000000 0.000000 3.902100 
# 
# 
# High freq. dielectric constant tensor:
#      x y z
#    x 1.771010 0.000000 0.000000 
#    y 0.000000 1.775340 0.000000 
#    z 0.000000 0.000000 1.807810 
# 
# From -- ./inp_files/4390.got.cif
#   From: 2010.03.12/outbox.cif.g09.slc.cpg/sg49_3_cif.got.tgz:4390.got - 2010.04.14 03:58:27.
