data_PCOD8202672
_publ_section_title
;
Structure prediction by ZEFSAII (Michael W. Deem and Ramdas Pophale) SiO2 
 PCOD8202672
Probable space group: P C C M
;
_chemical_formula_sum "Si O2"
_cell_formula_units_Z 64
_cell_length_a 16.239472
_cell_length_b 11.563636
_cell_length_c 16.789601
_cell_angle_alpha 90.000000
_cell_angle_beta 90.000000
_cell_angle_gamma 90.000000
_cell_volume 3152.874562
_symmetry_space_group_name_H-M "P C C M"
_symmetry_group_IT_number 49
_symmetry_cell_setting 'orthorhombic'
loop_
_space_group_symop_operation_xyz
x,y,z
-x,-y,z
x,-y,1/2-z
-x,y,1/2-z
-x,-y,-z
x,y,-z
-x,y,1/2+z
x,-y,1/2+z
loop_
_atom_site_type_symbol
_atom_site_label
_atom_site_fract_x
_atom_site_fract_y
_atom_site_fract_z
Si Si1 0.651362 0.671284 0.094130
Si Si2 0.217105 0.982902 0.091374
Si Si3 0.333258 0.418804 0.409769
Si Si4 0.474365 0.750978 0.091799
Si Si5 0.178567 0.723372 0.091418
Si Si6 0.355995 0.095356 0.689753
Si Si7 0.905438 0.632196 0.266925
Si Si8 0.223078 0.194136 0.191648
O O1 0.666030 0.543963 0.133358
O O2 0.565800 0.726768 0.124284
O O3 0.726048 0.751589 0.119163
O O4 0.645997 0.661319 0.000000
O O5 0.170793 0.861038 0.104692
O O6 0.313417 0.964887 0.112992
O O7 0.181755 0.078024 0.153764
O O8 0.209124 0.024086 0.000000
O O9 0.307024 0.440704 0.500000
O O10 0.424714 0.368638 0.403805
O O11 0.266911 0.326033 0.375958
O O12 0.433738 0.836958 0.155353
O O13 0.472841 0.798013 0.000000
O O14 0.107340 0.658414 0.139755
O O15 0.164822 0.692202 0.000000
O O16 0.284270 0.169410 0.734521
O O17 0.391677 0.000000 0.750000
O O18 0.880599 0.500000 0.250000
O O19 0.849075 0.719369 0.216479
O O20 0.000000 0.656881 0.250000
#
# Coordination Sequence:
#
# PCOD8202672 Si02
#       8
#     8   8   8   8   8   8   8   8
#     4  10  21  34  52  83 121 158 200 248 300 359
#     4  10  19  36  63  90 117 158 206 247 294 359
#     4   9  16  30  57  86 111 149 197 251 300 346
#     4  10  18  33  55  81 112 152 203 253 301 353
#     4  10  19  37  66  93 120 159 209 248 295 369
#     4  10  20  34  57  82 114 155 206 251 301 354
#     4  11  24  43  66  95 125 159 195 244 312 379
#     4  11  22  38  58  85 121 156 198 248 306 362
#
# _framework density 20.298936999999999
#
# number of rings (size 3 to 8) (size 9 to 14) (size 15 to 20)
#    0.000    1.875    2.500    1.875    0.000    2.000 
#    0.000    8.750    0.000   11.250    0.000    0.000 
#    0.000    0.000    0.000    0.000    0.000    0.000 
#
# Total GULP energy -793257.365793 kJ/mol
# GULP energy per Si atom -12394.646341 kJ/mol
# Density = 2.025274 g / cm^3
# Si number density = 20.298937 Si / 1000 Ang^3
#
#
#
# Elastic Constant Matrix: (Units=GPa)
#
#
# Indices 1 2 3 4 5 6 
#
# 1 104.1466 61.1847 43.7700 0.0000 0.0000 0.0000
# 2 61.1847 138.0779 60.5974 0.0000 0.0000 0.0000
# 3 43.7700 60.5974 91.1274 0.0000 0.0000 0.0000
# 4 0.0000 0.0000 0.0000 28.0079 0.0000 0.0000
# 5 0.0000 0.0000 0.0000 0.0000 23.6712 0.0000
# 6 0.0000 0.0000 0.0000 0.0000 0.0000 22.7383
#
#
#
# Elastic Compliance Matrix: (Units=1/GPa)
#
#
# Indices 1 2 3 4 5 6 
#
# 1 0.013774 -0.004519 -0.003611 0.000000 0.000000 0.000000
# 2 -0.004519 0.011709 -0.005616 0.000000 0.000000 0.000000
# 3 -0.003611 -0.005616 0.016443 0.000000 0.000000 0.000000
# 4 0.000000 0.000000 0.000000 0.035704 0.000000 0.000000
# 5 0.000000 0.000000 0.000000 0.000000 0.042245 0.000000
# 6 0.000000 0.000000 0.000000 0.000000 0.000000 0.043979
#
#
# Mechanical properties :
#
#
# Convention : Reuss Voigt Hill
#
# Bulk Modulus (GPa) = 69.27885 73.82846 71.55366
# Shear Modulus (GPa) = 25.48973 26.07014 25.77994
#
# Velocity S-wave (km/s) = 3.54745 3.58762 3.56759
# Velocity P-wave (km/s) = 7.14021 7.32194 7.23165
#
# Compressibility (1/GPa) = 0.01443442
#
# Stress axis : x y z
#
# Youngs Moduli (GPa) = 72.59929 85.40248 60.81784
#
# Poissons Ratio (x) = 0.38592 0.21962
# Poissons Ratio (y) = 0.32806 0.34155
# Poissons Ratio (z) = 0.26216 0.47961
#
# Static dielectric constant tensor:
#      x y z
#    x 3.325640 0.000000 0.000000 
#    y 0.000000 3.938800 0.000000 
#    z 0.000000 0.000000 3.709360 
# 
# 
# High freq. dielectric constant tensor:
#      x y z
#    x 1.753640 0.000000 0.000000 
#    y 0.000000 1.806900 0.000000 
#    z 0.000000 0.000000 1.793980 
# 
# From -- ./inp_files/17976.got.cif
#   From: 2010.03.12/outbox.cif.g09.slc.cpg/sg49_9_cif.got.tgz:17976.got - 2010.04.14 03:58:27.
