data_PCOD8202157
_publ_section_title
;
Structure prediction by ZEFSAII (Michael W. Deem and Ramdas Pophale) SiO2 
 PCOD8202157
Probable space group: P N N N
;
_chemical_formula_sum "Si O2"
_cell_formula_units_Z 34
_cell_length_a 5.324322
_cell_length_b 32.175558
_cell_length_c 9.893785
_cell_angle_alpha 90.000000
_cell_angle_beta 90.000000
_cell_angle_gamma 90.000000
_cell_volume 1694.934300
_symmetry_space_group_name_H-M "P N N N"
_symmetry_group_IT_number 48
_space_group.IT_coordinate_system_code '2'
_symmetry_cell_setting 'orthorhombic'
loop_
_space_group_symop_operation_xyz
x,y,z
1/2-x,1/2-y,z
x,1/2-y,1/2-z
1/2-x,y,1/2-z
-x,-y,-z
1/2+x,1/2+y,-z
-x,1/2+y,1/2+z
1/2+x,-y,1/2+z
loop_
_atom_site_type_symbol
_atom_site_label
_atom_site_fract_x
_atom_site_fract_y
_atom_site_fract_z
Si Si1 0.750000 0.250000 0.750000
Si Si2 0.795923 0.868365 0.597462
Si Si3 0.295262 0.918692 0.534845
Si Si4 0.143766 0.294327 0.892558
Si Si5 0.250000 0.988457 0.750000
Si Si6 0.250000 0.957671 0.250000
O O1 0.637601 0.217078 0.855557
O O2 0.750000 0.853853 0.750000
O O3 0.560966 0.895959 0.552079
O O4 0.818923 0.827414 0.508615
O O5 0.058443 0.892701 0.588449
O O6 0.298742 0.961521 0.616728
O O7 0.270284 0.927495 0.377255
O O8 0.250000 0.250000 0.939509
O O9 0.250000 0.310948 0.750000
O O10 0.499587 0.015407 0.770198
#
# Coordination Sequence:
#
# PCOD8202157 Si02
#       6
#     2   8   8   8   4   4
#     4   8  18  42  64 104 124 168 214 282 318 364
#     4  12  25  44  66  95 139 179 211 273 328 385
#     4  12  26  44  66 101 134 170 221 273 332 389
#     4   9  22  40  69  97 131 170 220 267 321 384
#     4  12  22  48  66  96 135 172 213 280 330 402
#     4  12  26  41  74  98 123 176 229 268 332 392
#
# _framework density 20.059774999999998
#
# number of rings (size 3 to 8) (size 9 to 14) (size 15 to 20)
#    0.000    1.176    2.353    4.235    9.882    0.471 
#    0.000    0.000    0.000    0.000    0.000    0.000 
#    0.000    0.000    0.000    0.000    0.000    0.000 
#
# Total GULP energy -421220.898705 kJ/mol
# GULP energy per Si atom -12388.849962 kJ/mol
# Density = 2.001412 g / cm^3
# Si number density = 20.059775 Si / 1000 Ang^3
#
#
#
# Elastic Constant Matrix: (Units=GPa)
#
#
# Indices 1 2 3 4 5 6 
#
# 1 121.7046 26.6129 4.9935 0.0000 0.0000 0.0000
# 2 26.6129 77.4569 40.1233 0.0000 0.0000 0.0000
# 3 4.9935 40.1233 130.2233 0.0000 0.0000 0.0000
# 4 0.0000 0.0000 0.0000 31.2691 0.0000 0.0000
# 5 0.0000 0.0000 0.0000 0.0000 43.3883 0.0000
# 6 0.0000 0.0000 0.0000 0.0000 0.0000 165.6310
#
#
#
# Elastic Compliance Matrix: (Units=1/GPa)
#
#
# Indices 1 2 3 4 5 6 
#
# 1 0.008940 -0.003444 0.000718 0.000000 0.000000 0.000000
# 2 -0.003444 0.016689 -0.005010 0.000000 0.000000 0.000000
# 3 0.000718 -0.005010 0.009195 0.000000 0.000000 0.000000
# 4 0.000000 0.000000 0.000000 0.031980 0.000000 0.000000
# 5 0.000000 0.000000 0.000000 0.000000 0.023048 0.000000
# 6 0.000000 0.000000 0.000000 0.000000 0.000000 0.006038
#
#
# Mechanical properties :
#
#
# Convention : Reuss Voigt Hill
#
# Bulk Modulus (GPa) = 51.67091 52.53827 52.10459
# Shear Modulus (GPa) = 42.44051 65.23468 53.83759
#
# Velocity S-wave (km/s) = 4.60467 5.70883 5.18622
# Velocity P-wave (km/s) = 7.35425 8.34877 7.86724
#
# Compressibility (1/GPa) = 0.01935325
#
# Stress axis : x y z
#
# Youngs Moduli (GPa) = 111.85449 59.92035 108.75235
#
# Poissons Ratio (x) = 0.20635 -0.07811
# Poissons Ratio (y) = 0.38520 0.54485
# Poissons Ratio (z) = -0.08034 0.30020
#
# Static dielectric constant tensor:
#      x y z
#    x 4.276750 0.000000 0.000000 
#    y 0.000000 3.435160 0.000000 
#    z 0.000000 0.000000 3.750880 
# 
# 
# High freq. dielectric constant tensor:
#      x y z
#    x 1.809020 0.000000 0.000000 
#    y 0.000000 1.780620 0.000000 
#    z 0.000000 0.000000 1.793750 
# 
# From -- ./inp_files/6852.got.cif
#   From: 2010.06.25/outbox.cif.g09.slc.cpg/sg48_4_cif.got.tgz:6852.got - 2010.06.26 18:06:46.
