data_PCOD8202391
_publ_section_title
;
Structure prediction by ZEFSAII (Michael W. Deem and Ramdas Pophale) SiO2 
 PCOD8202391
Probable space group: P C C M
;
_chemical_formula_sum "Si O2"
_cell_formula_units_Z 48
_cell_length_a 31.172623
_cell_length_b 9.148004
_cell_length_c 8.694889
_cell_angle_alpha 90.000000
_cell_angle_beta 90.000000
_cell_angle_gamma 90.000000
_cell_volume 2479.497845
_symmetry_space_group_name_H-M "P C C M"
_symmetry_group_IT_number 49
_symmetry_cell_setting 'orthorhombic'
loop_
_space_group_symop_operation_xyz
x,y,z
-x,-y,z
x,-y,1/2-z
-x,y,1/2-z
-x,-y,-z
x,y,-z
-x,y,1/2+z
x,-y,1/2+z
loop_
_atom_site_type_symbol
_atom_site_label
_atom_site_fract_x
_atom_site_fract_y
_atom_site_fract_z
Si Si1 0.457275 0.162524 0.816841
Si Si2 0.958906 0.340785 0.178537
Si Si3 0.370437 0.839605 0.817770
Si Si4 0.294319 0.341889 0.179564
Si Si5 0.864241 0.340189 0.820283
Si Si6 0.210077 0.844837 0.677777
O O1 0.500000 0.243133 0.750000
O O2 0.413465 0.235079 0.754075
O O3 0.456939 0.000000 0.750000
O O4 0.458301 0.162735 0.000000
O O5 0.958507 0.500000 0.250000
O O6 0.911909 0.273984 0.214474
O O7 0.000000 0.252361 0.250000
O O8 0.967143 0.352616 0.000000
O O9 0.331359 0.737086 0.774027
O O10 0.362014 0.000000 0.750000
O O11 0.375303 0.851781 0.000000
O O12 0.287827 0.500000 0.250000
O O13 0.250231 0.258643 0.207852
O O14 0.306510 0.348959 0.000000
O O15 0.856947 0.500000 0.750000
O O16 0.831806 0.223245 0.753424
O O17 0.856285 0.357735 0.000000
O O18 0.200432 0.866761 0.500000
O O19 0.221124 0.000000 0.750000
#
# Coordination Sequence:
#
# PCOD8202391 Si02
#       6
#     8   8   8   8   8   8
#     4  10  17  28  47  75 110 146 185 229 274 322
#     4   9  16  26  44  72 105 141 178 221 266 314
#     4  11  21  35  56  83 114 149 187 230 277 326
#     4  11  24  41  60  84 111 143 181 224 273 327
#     4  10  20  34  54  81 113 146 184 226 273 323
#     4  11  24  40  60  83 110 143 181 224 274 328
#
# _framework density 19.35876
#
# number of rings (size 3 to 8) (size 9 to 14) (size 15 to 20)
#    0.000    1.667    0.000    8.000    0.000    7.333 
#    0.000    0.000    0.000    1.000    0.000    7.000 
#    0.000    0.000    0.000    0.000    0.000    0.000 
#
# Total GULP energy -595019.088717 kJ/mol
# GULP energy per Si atom -12396.231015 kJ/mol
# Density = 1.931470 g / cm^3
# Si number density = 19.358760 Si / 1000 Ang^3
#
#
#
# Elastic Constant Matrix: (Units=GPa)
#
#
# Indices 1 2 3 4 5 6 
#
# 1 140.8549 37.9280 81.4846 0.0000 0.0000 0.0000
# 2 37.9280 76.7008 44.8239 0.0000 0.0000 0.0000
# 3 81.4846 44.8239 165.7820 0.0000 0.0000 0.0000
# 4 0.0000 0.0000 0.0000 25.2461 0.0000 0.0000
# 5 0.0000 0.0000 0.0000 0.0000 35.5773 0.0000
# 6 0.0000 0.0000 0.0000 0.0000 0.0000 52.2884
#
#
#
# Elastic Compliance Matrix: (Units=1/GPa)
#
#
# Indices 1 2 3 4 5 6 
#
# 1 0.010321 -0.002540 -0.004386 0.000000 0.000000 0.000000
# 2 -0.002540 0.016110 -0.003107 0.000000 0.000000 0.000000
# 3 -0.004386 -0.003107 0.009028 0.000000 0.000000 0.000000
# 4 0.000000 0.000000 0.000000 0.039610 0.000000 0.000000
# 5 0.000000 0.000000 0.000000 0.000000 0.028108 0.000000
# 6 0.000000 0.000000 0.000000 0.000000 0.000000 0.019125
#
#
# Mechanical properties :
#
#
# Convention : Reuss Voigt Hill
#
# Bulk Modulus (GPa) = 64.97106 79.09007 72.03056
# Shear Modulus (GPa) = 33.89868 37.22912 35.56390
#
# Velocity S-wave (km/s) = 4.18913 4.39009 4.29079
# Velocity P-wave (km/s) = 7.55201 8.16338 7.86364
#
# Compressibility (1/GPa) = 0.01539147
#
# Stress axis : x y z
#
# Youngs Moduli (GPa) = 96.89119 62.07465 110.76795
#
# Poissons Ratio (x) = 0.15770 0.48583
# Poissons Ratio (y) = 0.24614 0.34416
# Poissons Ratio (z) = 0.42496 0.19287
#
# Static dielectric constant tensor:
#      x y z
#    x 4.997350 0.000000 0.000000 
#    y 0.000000 3.070690 0.000000 
#    z 0.000000 0.000000 3.742730 
# 
# 
# High freq. dielectric constant tensor:
#      x y z
#    x 1.786410 0.000000 0.000000 
#    y 0.000000 1.702110 0.000000 
#    z 0.000000 0.000000 1.776440 
# 
# From -- ./inp_files/2115.got.cif
#   From: 2010.03.12/outbox.cif.g09.slc.cpg/sg49_2_cif.got.tgz:2115.got - 2010.04.14 03:58:27.
