data_PCOD8202690
_publ_section_title
;
Structure prediction by ZEFSAII (Michael W. Deem and Ramdas Pophale) SiO2 
 PCOD8202690
Probable space group: P C C M
;
_chemical_formula_sum "Si O2"
_cell_formula_units_Z 64
_cell_length_a 19.694245
_cell_length_b 20.611075
_cell_length_c 8.947797
_cell_angle_alpha 90.000000
_cell_angle_beta 90.000000
_cell_angle_gamma 90.000000
_cell_volume 3632.085828
_symmetry_space_group_name_H-M "P C C M"
_symmetry_group_IT_number 49
_symmetry_cell_setting 'orthorhombic'
loop_
_space_group_symop_operation_xyz
x,y,z
-x,-y,z
x,-y,1/2-z
-x,y,1/2-z
-x,-y,-z
x,y,-z
-x,y,1/2+z
x,-y,1/2+z
loop_
_atom_site_type_symbol
_atom_site_label
_atom_site_fract_x
_atom_site_fract_y
_atom_site_fract_z
Si Si1 0.929772 0.880410 0.324361
Si Si2 0.432386 0.229461 0.175515
Si Si3 0.202608 0.688792 0.677158
Si Si4 0.712147 0.189013 0.322926
Si Si5 0.432448 0.621030 0.324497
Si Si6 0.202455 0.065983 0.821822
Si Si7 0.069620 0.270485 0.325661
Si Si8 0.290909 0.566217 0.323583
O O1 0.931261 0.895828 0.500000
O O2 0.871691 0.921379 0.244411
O O3 0.916383 0.804923 0.291845
O O4 0.000000 0.902721 0.250000
O O5 0.500000 0.199562 0.250000
O O6 0.365647 0.191587 0.235084
O O7 0.423220 0.304218 0.222484
O O8 0.440596 0.221666 0.000000
O O9 0.193063 0.693573 0.500000
O O10 0.245408 0.749952 0.739695
O O11 0.129533 0.687399 0.754574
O O12 0.240659 0.623445 0.725747
O O13 0.711791 0.194716 0.500000
O O14 0.746304 0.122426 0.269101
O O15 0.500000 0.591244 0.250000
O O16 0.440164 0.614195 0.500000
O O17 0.366833 0.582301 0.265871
O O18 0.231187 0.000000 0.750000
O O19 0.198173 0.060875 0.000000
O O20 0.064560 0.284832 0.500000
O O21 0.000000 0.293291 0.250000
O O22 0.265016 0.500000 0.250000
O O23 0.290579 0.558501 0.500000
#
# Coordination Sequence:
#
# PCOD8202690 Si02
#       8
#     8   8   8   8   8   8   8   8
#     4  10  20  34  52  77 108 141 176 212 252 305
#     4   9  16  30  51  77 103 130 169 214 261 309
#     4  10  18  34  57  78 101 137 179 217 259 310
#     4   9  17  32  56  77  99 135 176 213 258 312
#     4   9  17  30  48  71 101 137 174 212 253 304
#     4  11  22  36  54  76 104 140 176 216 263 312
#     4  10  20  33  53  82 111 137 169 215 261 307
#     4  10  21  35  52  74 105 142 178 217 261 312
#
# _framework density 17.620729999999998
#
# number of rings (size 3 to 8) (size 9 to 14) (size 15 to 20)
#    0.000    2.250    2.500    1.125    0.000    2.500 
#    0.000    4.375    0.000    0.750    0.000    5.250 
#    0.000    0.000    0.000    0.000    0.000    0.000 
#
# Total GULP energy -793681.260940 kJ/mol
# GULP energy per Si atom -12401.269702 kJ/mol
# Density = 1.758062 g / cm^3
# Si number density = 17.620730 Si / 1000 Ang^3
#
#
#
# Elastic Constant Matrix: (Units=GPa)
#
#
# Indices 1 2 3 4 5 6 
#
# 1 144.2391 71.8704 40.3092 0.0000 0.0000 0.0000
# 2 71.8704 112.1119 39.0271 0.0000 0.0000 0.0000
# 3 40.3092 39.0271 49.6443 0.0000 0.0000 0.0000
# 4 0.0000 0.0000 0.0000 17.6740 0.0000 0.0000
# 5 0.0000 0.0000 0.0000 0.0000 30.4474 0.0000
# 6 0.0000 0.0000 0.0000 0.0000 0.0000 23.8042
#
#
#
# Elastic Compliance Matrix: (Units=1/GPa)
#
#
# Indices 1 2 3 4 5 6 
#
# 1 0.010907 -0.005382 -0.004625 0.000000 0.000000 0.000000
# 2 -0.005382 0.014936 -0.007372 0.000000 0.000000 0.000000
# 3 -0.004625 -0.007372 0.029694 0.000000 0.000000 0.000000
# 4 0.000000 0.000000 0.000000 0.056580 0.000000 0.000000
# 5 0.000000 0.000000 0.000000 0.000000 0.032844 0.000000
# 6 0.000000 0.000000 0.000000 0.000000 0.000000 0.042009
#
#
# Mechanical properties :
#
#
# Convention : Reuss Voigt Hill
#
# Bulk Modulus (GPa) = 48.12497 67.60097 57.86297
# Shear Modulus (GPa) = 21.86701 24.70436 23.28568
#
# Velocity S-wave (km/s) = 3.52658 3.74840 3.63918
# Velocity P-wave (km/s) = 6.62972 7.56186 7.11108
#
# Compressibility (1/GPa) = 0.02077924
#
# Stress axis : x y z
#
# Youngs Moduli (GPa) = 91.68206 66.95191 33.67694
#
# Poissons Ratio (x) = 0.36034 0.15576
# Poissons Ratio (y) = 0.49345 0.24826
# Poissons Ratio (z) = 0.42404 0.49355
#
# Static dielectric constant tensor:
#      x y z
#    x 3.431920 0.000000 0.000000 
#    y 0.000000 3.174470 0.000000 
#    z 0.000000 0.000000 3.093360 
# 
# 
# High freq. dielectric constant tensor:
#      x y z
#    x 1.688190 0.000000 0.000000 
#    y 0.000000 1.658000 0.000000 
#    z 0.000000 0.000000 1.670140 
# 
# From -- ./inp_files/5260.got.cif
#   From: 2010.03.12/outbox.cif.g09.slc.cpg/sg49_3_cif.got.tgz:5260.got - 2010.04.14 03:58:27.
