data_PCOD8202705
_publ_section_title
;
Structure prediction by ZEFSAII (Michael W. Deem and Ramdas Pophale) SiO2 
 PCOD8202705
Probable space group: P C C M
;
_chemical_formula_sum "Si O2"
_cell_formula_units_Z 48
_cell_length_a 10.029975
_cell_length_b 8.502275
_cell_length_c 28.227887
_cell_angle_alpha 90.000000
_cell_angle_beta 90.000000
_cell_angle_gamma 90.000000
_cell_volume 2407.206617
_symmetry_space_group_name_H-M "P C C M"
_symmetry_group_IT_number 49
_symmetry_cell_setting 'orthorhombic'
loop_
_space_group_symop_operation_xyz
x,y,z
-x,-y,z
x,-y,1/2-z
-x,y,1/2-z
-x,-y,-z
x,y,-z
-x,y,1/2+z
x,-y,1/2+z
loop_
_atom_site_type_symbol
_atom_site_label
_atom_site_fract_x
_atom_site_fract_y
_atom_site_fract_z
Si Si1 0.748134 0.298821 0.342987
Si Si2 0.147680 0.684794 0.755295
Si Si3 0.500463 0.313057 0.099568
Si Si4 0.027807 0.180784 0.093775
Si Si5 0.776889 0.668138 0.358881
Si Si6 0.102911 0.355721 0.000000
Si Si7 0.586825 0.346165 0.500000
O O1 0.753956 0.261778 0.286935
O O2 0.602875 0.248647 0.361366
O O3 0.860093 0.191139 0.366302
O O4 0.776998 0.479575 0.356955
O O5 0.131244 0.500000 0.750000
O O6 0.211416 0.735254 0.805404
O O7 0.000000 0.761003 0.750000
O O8 0.500000 0.500000 0.098836
O O9 0.646737 0.257604 0.115822
O O10 0.454398 0.248815 0.047577
O O11 0.899472 0.278908 0.109367
O O12 0.081324 0.250741 0.045499
O O13 0.000000 0.000000 0.084842
O O14 0.000000 0.500000 0.000000
O O15 0.259151 0.403978 0.000000
O O16 0.500000 0.500000 0.500000
#
# Coordination Sequence:
#
# PCOD8202705 Si02
#       7
#     8   8   8   8   8   4   4
#     4  10  18  36  59  84 116 156 196 245 301 345
#     4   9  16  28  54  88 117 147 194 252 291 345
#     4   9  19  32  56  85 118 149 193 252 294 357
#     4  12  25  39  57  87 123 154 195 244 292 350
#     4  10  20  36  59  87 116 156 200 238 300 353
#     4  12  25  41  69  90 112 156 198 248 299 349
#     4  10  20  35  57  94 121 137 191 248 299 354
#
# _framework density 19.940124999999998
#
# number of rings (size 3 to 8) (size 9 to 14) (size 15 to 20)
#    0.000    1.833    3.333    1.750    4.667    0.667 
#    0.000    5.833    0.000    1.000    0.000    2.333 
#    0.000    0.000    0.000    0.000    0.000    0.000 
#
# Total GULP energy -595022.973351 kJ/mol
# GULP energy per Si atom -12396.311945 kJ/mol
# Density = 1.989474 g / cm^3
# Si number density = 19.940125 Si / 1000 Ang^3
#
#
#
# Elastic Constant Matrix: (Units=GPa)
#
#
# Indices 1 2 3 4 5 6 
#
# 1 154.6007 11.3561 70.6808 0.0000 0.0000 0.0000
# 2 11.3561 38.6117 5.4268 0.0000 0.0000 0.0000
# 3 70.6808 5.4268 153.6711 0.0000 0.0000 0.0000
# 4 0.0000 0.0000 0.0000 215.1013 0.0000 0.0000
# 5 0.0000 0.0000 0.0000 0.0000 42.7390 0.0000
# 6 0.0000 0.0000 0.0000 0.0000 0.0000 7.2343
#
#
#
# Elastic Compliance Matrix: (Units=1/GPa)
#
#
# Indices 1 2 3 4 5 6 
#
# 1 0.008330 -0.001921 -0.003764 0.000000 0.000000 0.000000
# 2 -0.001921 0.026471 -0.000051 0.000000 0.000000 0.000000
# 3 -0.003764 -0.000051 0.008240 0.000000 0.000000 0.000000
# 4 0.000000 0.000000 0.000000 0.004649 0.000000 0.000000
# 5 0.000000 0.000000 0.000000 0.000000 0.023398 0.000000
# 6 0.000000 0.000000 0.000000 0.000000 0.000000 0.138231
#
#
# Mechanical properties :
#
#
# Convention : Reuss Voigt Hill
#
# Bulk Modulus (GPa) = 31.67588 57.97898 44.82743
# Shear Modulus (GPa) = 21.61565 70.30958 45.96261
#
# Velocity S-wave (km/s) = 3.29603 5.94448 4.80628
# Velocity P-wave (km/s) = 5.51408 8.73244 7.30276
#
# Compressibility (1/GPa) = 0.03156976
#
# Stress axis : x y z
#
# Youngs Moduli (GPa) = 120.04797 37.77712 121.35563
#
# Poissons Ratio (x) = 0.07257 0.45673
# Poissons Ratio (y) = 0.23061 0.00622
# Poissons Ratio (z) = 0.45180 0.00194
#
# Static dielectric constant tensor:
#      x y z
#    x 3.889940 0.000000 0.000000 
#    y 0.000000 3.051230 0.000000 
#    z 0.000000 0.000000 4.380190 
# 
# 
# High freq. dielectric constant tensor:
#      x y z
#    x 1.787670 0.000000 0.000000 
#    y 0.000000 1.715530 0.000000 
#    z 0.000000 0.000000 1.800960 
# 
# From -- ./inp_files/26350.got.cif
#   From: 2010.03.12/outbox.cif.g09.slc.cpg/sg49_14_cif.got.tgz:26350.got - 2010.04.14 03:58:27.
