data_PCOD8202449
_publ_section_title
;
Structure prediction by ZEFSAII (Michael W. Deem and Ramdas Pophale) SiO2 
 PCOD8202449
Probable space group: P C C M
;
_chemical_formula_sum "Si O2"
_cell_formula_units_Z 42
_cell_length_a 12.878073
_cell_length_b 9.074693
_cell_length_c 20.385689
_cell_angle_alpha 90.000000
_cell_angle_beta 90.000000
_cell_angle_gamma 90.000000
_cell_volume 2382.364553
_symmetry_space_group_name_H-M "P C C M"
_symmetry_group_IT_number 49
_symmetry_cell_setting 'orthorhombic'
loop_
_space_group_symop_operation_xyz
x,y,z
-x,-y,z
x,-y,1/2-z
-x,y,1/2-z
-x,-y,-z
x,y,-z
-x,y,1/2+z
x,-y,1/2+z
loop_
_atom_site_type_symbol
_atom_site_label
_atom_site_fract_x
_atom_site_fract_y
_atom_site_fract_z
Si Si1 0.381582 0.839960 0.076128
Si Si2 0.596466 0.153579 0.631985
Si Si3 0.988841 0.835303 0.922230
Si Si4 0.500000 0.000000 0.250000
Si Si5 0.219659 0.672722 0.577656
Si Si6 0.186394 0.662645 0.077773
O O1 0.487422 0.778985 0.107608
O O2 0.284261 0.752437 0.107021
O O3 0.369012 0.013910 0.088313
O O4 0.387144 0.807393 0.000000
O O5 0.683739 0.277132 0.622635
O O6 0.577525 0.101258 0.706764
O O7 0.877840 0.771676 0.901503
O O8 0.080605 0.732749 0.893159
O O9 0.998093 0.838044 0.000000
O O10 0.000000 0.000000 0.893472
O O11 0.245397 0.686065 0.500000
O O12 0.193734 0.506774 0.598534
O O13 0.184602 0.677593 0.000000
#
# Coordination Sequence:
#
# PCOD8202449 Si02
#       6
#     8   8   8   2   8   8
#     4   9  16  27  45  68  93 121 151 186 227 275
#     4  10  18  31  49  66  88 118 156 200 234 279
#     4   9  16  26  41  64  98 135 162 181 212 268
#     4   8  20  36  50  66  86 116 160 200 244 278
#     4  10  18  27  44  71 100 128 155 188 233 280
#     4   9  17  27  40  66 105 135 152 179 225 281
#
# _framework density 17.629545
#
# number of rings (size 3 to 8) (size 9 to 14) (size 15 to 20)
#    0.000    2.857    0.000    4.000    0.000    6.095 
#    0.000    2.857    0.000    9.143    0.000   16.667 
#    0.000   18.286    0.000    0.000    0.000    0.000 
#
# Total GULP energy -520642.900798 kJ/mol
# GULP energy per Si atom -12396.259543 kJ/mol
# Density = 1.758942 g / cm^3
# Si number density = 17.629545 Si / 1000 Ang^3
#
#
#
# Elastic Constant Matrix: (Units=GPa)
#
#
# Indices 1 2 3 4 5 6 
#
# 1 129.6196 62.4929 25.8621 0.0000 0.0000 0.0000
# 2 62.4929 100.4386 13.5036 0.0000 0.0000 0.0000
# 3 25.8621 13.5036 48.0196 0.0000 0.0000 0.0000
# 4 0.0000 0.0000 0.0000 5.7961 0.0000 0.0000
# 5 0.0000 0.0000 0.0000 0.0000 3.5530 0.0000
# 6 0.0000 0.0000 0.0000 0.0000 0.0000 35.0744
#
#
#
# Elastic Compliance Matrix: (Units=1/GPa)
#
#
# Indices 1 2 3 4 5 6 
#
# 1 0.011885 -0.006791 -0.004491 0.000000 0.000000 0.000000
# 2 -0.006791 0.014228 -0.000344 0.000000 0.000000 0.000000
# 3 -0.004491 -0.000344 0.023340 0.000000 0.000000 0.000000
# 4 0.000000 0.000000 0.000000 0.172529 0.000000 0.000000
# 5 0.000000 0.000000 0.000000 0.000000 0.281453 0.000000
# 6 0.000000 0.000000 0.000000 0.000000 0.000000 0.028511
#
#
# Mechanical properties :
#
#
# Convention : Reuss Voigt Hill
#
# Bulk Modulus (GPa) = 38.16570 53.53279 45.84924
# Shear Modulus (GPa) = 8.86631 20.63265 14.74948
#
# Velocity S-wave (km/s) = 2.24503 3.42474 2.89560
# Velocity P-wave (km/s) = 5.33066 6.78747 6.10269
#
# Compressibility (1/GPa) = 0.02620154
#
# Stress axis : x y z
#
# Youngs Moduli (GPa) = 84.13844 70.28414 42.84428
#
# Poissons Ratio (x) = 0.47731 0.19243
# Poissons Ratio (y) = 0.57139 0.01472
# Poissons Ratio (z) = 0.37789 0.02415
#
# Static dielectric constant tensor:
#      x y z
#    x 3.531120 0.000000 0.000000 
#    y 0.000000 3.331500 0.000000 
#    z 0.000000 0.000000 2.706060 
# 
# 
# High freq. dielectric constant tensor:
#      x y z
#    x 1.699270 0.000000 0.000000 
#    y 0.000000 1.681450 0.000000 
#    z 0.000000 0.000000 1.612250 
# 
# From -- ./inp_files/22813.got.cif
#   From: 2010.03.12/outbox.cif.g09.slc.cpg/sg49_12_cif.got.tgz:22813.got - 2010.04.14 03:58:27.
