data_PCOD8202659
_publ_section_title
;
Structure prediction by ZEFSAII (Michael W. Deem and Ramdas Pophale) SiO2 
 PCOD8202659
Probable space group: P C C M
;
_chemical_formula_sum "Si O2"
_cell_formula_units_Z 38
_cell_length_a 11.029868
_cell_length_b 6.203256
_cell_length_c 29.697859
_cell_angle_alpha 90.000000
_cell_angle_beta 90.000000
_cell_angle_gamma 90.000000
_cell_volume 2031.960027
_symmetry_space_group_name_H-M "P C C M"
_symmetry_group_IT_number 49
_symmetry_cell_setting 'orthorhombic'
loop_
_space_group_symop_operation_xyz
x,y,z
-x,-y,z
x,-y,1/2-z
-x,y,1/2-z
-x,-y,-z
x,y,-z
-x,y,1/2+z
x,-y,1/2+z
loop_
_atom_site_type_symbol
_atom_site_label
_atom_site_fract_x
_atom_site_fract_y
_atom_site_fract_z
Si Si1 0.831205 0.814695 0.051687
Si Si2 0.500000 0.000000 0.250000
Si Si3 0.633110 0.444528 0.591543
Si Si4 0.000000 0.500000 0.395142
Si Si5 0.802048 0.186489 0.117789
Si Si6 0.619467 0.108231 0.664281
O O1 0.692993 0.728713 0.057508
O O2 0.914527 0.630129 0.071761
O O3 0.854666 0.033758 0.078800
O O4 0.861557 0.859552 0.000000
O O5 0.410515 0.859350 0.282342
O O6 0.500000 0.500000 0.574022
O O7 0.701912 0.669127 0.593710
O O8 0.637603 0.340994 0.641887
O O9 0.084810 0.337755 0.364914
O O10 0.738784 0.044303 0.157288
O O11 0.500000 0.000000 0.641197
#
# Coordination Sequence:
#
# PCOD8202659 Si02
#       6
#     8   2   8   4   8   8
#     4  10  22  35  52  77 105 140 189 243 279 316
#     4   8  16  32  58  88 112 130 164 216 270 322
#     4  10  18  33  53  75 109 147 177 216 272 339
#     4  10  21  36  56  76 101 144 192 230 281 324
#     4  10  20  34  53  78 109 145 181 225 269 327
#     4   9  17  32  55  82 113 134 171 218 273 326
#
# _framework density 18.701153000000001
#
# number of rings (size 3 to 8) (size 9 to 14) (size 15 to 20)
#    0.632    1.684    2.105    0.947    0.000    5.474 
#    0.000    5.789    0.000    0.000    0.000   42.737 
#    0.000    0.000    0.000    0.000    0.000    0.000 
#
# Total GULP energy -470769.459256 kJ/mol
# GULP energy per Si atom -12388.669980 kJ/mol
# Density = 1.865859 g / cm^3
# Si number density = 18.701153 Si / 1000 Ang^3
#
#
#
# Elastic Constant Matrix: (Units=GPa)
#
#
# Indices 1 2 3 4 5 6 
#
# 1 107.6066 37.0683 14.3859 0.0000 0.0000 0.0000
# 2 37.0683 92.9647 20.9882 0.0000 0.0000 0.0000
# 3 14.3859 20.9882 78.0173 0.0000 0.0000 0.0000
# 4 0.0000 0.0000 0.0000 9.8744 0.0000 0.0000
# 5 0.0000 0.0000 0.0000 0.0000 18.3498 0.0000
# 6 0.0000 0.0000 0.0000 0.0000 0.0000 36.6318
#
#
#
# Elastic Compliance Matrix: (Units=1/GPa)
#
#
# Indices 1 2 3 4 5 6 
#
# 1 0.010830 -0.004118 -0.000889 0.000000 0.000000 0.000000
# 2 -0.004118 0.013018 -0.002743 0.000000 0.000000 0.000000
# 3 -0.000889 -0.002743 0.013720 0.000000 0.000000 0.000000
# 4 0.000000 0.000000 0.000000 0.101272 0.000000 0.000000
# 5 0.000000 0.000000 0.000000 0.000000 0.054496 0.000000
# 6 0.000000 0.000000 0.000000 0.000000 0.000000 0.027299
#
#
# Mechanical properties :
#
#
# Convention : Reuss Voigt Hill
#
# Bulk Modulus (GPa) = 45.31404 47.05261 46.18333
# Shear Modulus (GPa) = 20.53468 26.71430 23.62449
#
# Velocity S-wave (km/s) = 3.31727 3.78363 3.55810
# Velocity P-wave (km/s) = 6.24144 6.65603 6.45206
#
# Compressibility (1/GPa) = 0.02206821
#
# Stress axis : x y z
#
# Youngs Moduli (GPa) = 92.33211 76.81740 72.88886
#
# Poissons Ratio (x) = 0.31631 0.06482
# Poissons Ratio (y) = 0.38020 0.19992
# Poissons Ratio (z) = 0.08211 0.21069
#
# Static dielectric constant tensor:
#      x y z
#    x 3.807930 0.000000 0.000000 
#    y 0.000000 3.566100 0.000000 
#    z 0.000000 0.000000 2.958020 
# 
# 
# High freq. dielectric constant tensor:
#      x y z
#    x 1.740450 0.000000 0.000000 
#    y 0.000000 1.737840 0.000000 
#    z 0.000000 0.000000 1.665930 
# 
# From -- ./inp_files/26582.got.cif
#   From: 2010.03.12/outbox.cif.g09.slc.cpg/sg49_14_cif.got.tgz:26582.got - 2010.04.14 03:58:27.
