data_PCOD8202958
_publ_section_title
;
Structure prediction by ZEFSAII (Michael W. Deem and Ramdas Pophale) SiO2 
 PCOD8202958
Probable space group: P C C M
;
_chemical_formula_sum "Si O2"
_cell_formula_units_Z 48
_cell_length_a 18.709291
_cell_length_b 14.718958
_cell_length_c 8.915433
_cell_angle_alpha 90.000000
_cell_angle_beta 90.000000
_cell_angle_gamma 90.000000
_cell_volume 2455.143248
_symmetry_space_group_name_H-M "P C C M"
_symmetry_group_IT_number 49
_symmetry_cell_setting 'orthorhombic'
loop_
_space_group_symop_operation_xyz
x,y,z
-x,-y,z
x,-y,1/2-z
-x,y,1/2-z
-x,-y,-z
x,y,-z
-x,y,1/2+z
x,-y,1/2+z
loop_
_atom_site_type_symbol
_atom_site_label
_atom_site_fract_x
_atom_site_fract_y
_atom_site_fract_z
Si Si1 0.284330 0.083851 0.335230
Si Si2 0.426919 0.663516 0.677739
Si Si3 0.805270 0.243615 0.824705
Si Si4 0.564791 0.145423 0.830862
Si Si5 0.271364 0.594687 0.677766
Si Si6 0.075881 0.095242 0.321670
O O1 0.250772 0.075851 0.500000
O O2 0.261781 0.181428 0.273273
O O3 0.369456 0.076463 0.332463
O O4 0.249447 0.000000 0.250000
O O5 0.500000 0.620030 0.750000
O O6 0.434470 0.657620 0.500000
O O7 0.419912 0.766773 0.730594
O O8 0.352987 0.616001 0.731373
O O9 0.790554 0.334867 0.731361
O O10 0.874572 0.182781 0.782472
O O11 0.805049 0.269481 0.000000
O O12 0.500000 0.092124 0.750000
O O13 0.545377 0.175803 0.000000
O O14 0.248557 0.500000 0.750000
O O15 0.267633 0.589323 0.500000
O O16 0.069317 0.082189 0.500000
O O17 0.000000 0.119452 0.250000
O O18 0.104590 0.000000 0.250000
#
# Coordination Sequence:
#
# PCOD8202958 Si02
#       6
#     8   8   8   8   8   8
#     4  10  21  34  51  75 104 141 182 226 274 327
#     4  10  20  34  54  79 104 139 184 234 293 346
#     4  10  21  39  59  82 115 152 187 229 282 333
#     4  10  19  32  50  70  98 137 179 228 279 328
#     4  11  24  39  59  85 112 147 190 238 290 346
#     4  10  20  35  60  92 127 162 194 231 273 325
#
# _framework density 19.550794
#
# number of rings (size 3 to 8) (size 9 to 14) (size 15 to 20)
#    0.000    1.833    1.667    4.000    0.000    6.000 
#    0.000    3.333    0.000    0.500    0.000    3.500 
#    0.000    0.000    0.000    0.000    0.000    0.000 
#
# Total GULP energy -594656.923845 kJ/mol
# GULP energy per Si atom -12388.685913 kJ/mol
# Density = 1.950630 g / cm^3
# Si number density = 19.550794 Si / 1000 Ang^3
#
#
#
# Elastic Constant Matrix: (Units=GPa)
#
#
# Indices 1 2 3 4 5 6 
#
# 1 107.1516 43.6017 45.0678 0.0000 0.0000 0.0000
# 2 43.6017 114.3163 49.4428 0.0000 0.0000 0.0000
# 3 45.0678 49.4428 94.7910 0.0000 0.0000 0.0000
# 4 0.0000 0.0000 0.0000 27.4019 0.0000 0.0000
# 5 0.0000 0.0000 0.0000 0.0000 23.0234 0.0000
# 6 0.0000 0.0000 0.0000 0.0000 0.0000 40.2823
#
#
#
# Elastic Compliance Matrix: (Units=1/GPa)
#
#
# Indices 1 2 3 4 5 6 
#
# 1 0.012321 -0.002797 -0.004399 0.000000 0.000000 0.000000
# 2 -0.002797 0.011931 -0.004893 0.000000 0.000000 0.000000
# 3 -0.004399 -0.004893 0.015193 0.000000 0.000000 0.000000
# 4 0.000000 0.000000 0.000000 0.036494 0.000000 0.000000
# 5 0.000000 0.000000 0.000000 0.000000 0.043434 0.000000
# 6 0.000000 0.000000 0.000000 0.000000 0.000000 0.024825
#
#
# Mechanical properties :
#
#
# Convention : Reuss Voigt Hill
#
# Bulk Modulus (GPa) = 65.50219 65.83149 65.66684
# Shear Modulus (GPa) = 28.82424 30.01796 29.42110
#
# Velocity S-wave (km/s) = 3.84386 3.92265 3.88345
# Velocity P-wave (km/s) = 7.29909 7.36623 7.33274
#
# Compressibility (1/GPa) = 0.01526667
#
# Stress axis : x y z
#
# Youngs Moduli (GPa) = 81.16322 83.81677 65.81777
#
# Poissons Ratio (x) = 0.23441 0.28954
# Poissons Ratio (y) = 0.22699 0.32207
# Poissons Ratio (z) = 0.35705 0.41015
#
# Static dielectric constant tensor:
#      x y z
#    x 3.856890 0.000000 0.000000 
#    y 0.000000 3.344470 0.000000 
#    z 0.000000 0.000000 3.625960 
# 
# 
# High freq. dielectric constant tensor:
#      x y z
#    x 1.755970 0.000000 0.000000 
#    y 0.000000 1.744950 0.000000 
#    z 0.000000 0.000000 1.766740 
# 
# From -- ./inp_files/3832.got.cif
#   From: 2010.03.12/outbox.cif.g09.slc.cpg/sg49_2_cif.got.tgz:3832.got - 2010.04.14 03:58:27.
