data_PCOD8202306
_publ_section_title
;
Structure prediction by ZEFSAII (Michael W. Deem and Ramdas Pophale) SiO2 
 PCOD8202306
Probable space group: P C C M
;
_chemical_formula_sum "Si O2"
_cell_formula_units_Z 64
_cell_length_a 19.168635
_cell_length_b 20.921538
_cell_length_c 8.866820
_cell_angle_alpha 90.000000
_cell_angle_beta 90.000000
_cell_angle_gamma 90.000000
_cell_volume 3555.925779
_symmetry_space_group_name_H-M "P C C M"
_symmetry_group_IT_number 49
_symmetry_cell_setting 'orthorhombic'
loop_
_space_group_symop_operation_xyz
x,y,z
-x,-y,z
x,-y,1/2-z
-x,y,1/2-z
-x,-y,-z
x,y,-z
-x,y,1/2+z
x,-y,1/2+z
loop_
_atom_site_type_symbol
_atom_site_label
_atom_site_fract_x
_atom_site_fract_y
_atom_site_fract_z
Si Si1 0.575396 0.690405 0.320802
Si Si2 0.669630 0.190025 0.824314
Si Si3 0.168817 0.063376 0.170697
Si Si4 0.075029 0.439970 0.174553
Si Si5 0.665006 0.062676 0.668913
Si Si6 0.422857 0.563012 0.319110
Si Si7 0.170797 0.192849 0.322080
Si Si8 0.924525 0.298577 0.676078
O O1 0.500000 0.703934 0.250000
O O2 0.568789 0.680089 0.500000
O O3 0.624254 0.749308 0.277330
O O4 0.611903 0.628199 0.243212
O O5 0.637439 0.127429 0.745641
O O6 0.748971 0.202527 0.773225
O O7 0.666500 0.176152 0.000000
O O8 0.251876 0.061186 0.176235
O O9 0.141585 0.125757 0.258775
O O10 0.138036 0.000000 0.250000
O O11 0.141111 0.065945 0.000000
O O12 0.117501 0.500000 0.250000
O O13 0.108215 0.369840 0.201522
O O14 0.000000 0.437747 0.250000
O O15 0.067395 0.455098 0.000000
O O16 0.636684 0.061782 0.500000
O O17 0.634057 0.000000 0.750000
O O18 0.384458 0.500000 0.250000
O O19 0.500000 0.564186 0.250000
O O20 0.423407 0.560695 0.500000
O O21 0.160953 0.193143 0.500000
O O22 0.128734 0.250518 0.251092
O O23 0.932410 0.283439 0.500000
O O24 0.000000 0.291115 0.750000
#
# Coordination Sequence:
#
# PCOD8202306 Si02
#       8
#     8   8   8   8   8   8   8   8
#     4  10  19  32  49  71  98 127 159 197 239 286
#     4   9  19  33  49  70  98 128 159 195 238 285
#     4   9  16  27  44  68  95 123 156 197 237 277
#     4   9  16  26  43  66  92 119 152 192 233 273
#     4   9  16  26  44  68  94 122 156 196 237 278
#     4  10  17  27  44  67  93 121 155 196 238 281
#     4  10  19  32  50  72  97 128 161 196 238 283
#     4  10  20  33  49  72  99 128 160 197 238 283
#
# _framework density 17.998125999999999
#
# number of rings (size 3 to 8) (size 9 to 14) (size 15 to 20)
#    0.000    2.500    0.000    4.875    0.000    6.000 
#    0.000    0.000    0.000    1.500    0.000    7.000 
#    0.000    0.000    0.000    0.000    0.000    0.000 
#
# Total GULP energy -793233.093731 kJ/mol
# GULP energy per Si atom -12394.267090 kJ/mol
# Density = 1.795716 g / cm^3
# Si number density = 17.998126 Si / 1000 Ang^3
#
#
#
# Elastic Constant Matrix: (Units=GPa)
#
#
# Indices 1 2 3 4 5 6 
#
# 1 34.7629 48.3776 30.5921 0.0000 0.0000 0.0000
# 2 48.3776 205.4619 95.5876 0.0000 0.0000 0.0000
# 3 30.5921 95.5876 134.0630 0.0000 0.0000 0.0000
# 4 0.0000 0.0000 0.0000 40.3222 0.0000 0.0000
# 5 0.0000 0.0000 0.0000 0.0000 13.8457 0.0000
# 6 0.0000 0.0000 0.0000 0.0000 0.0000 25.6951
#
#
#
# Elastic Compliance Matrix: (Units=1/GPa)
#
#
# Indices 1 2 3 4 5 6 
#
# 1 0.044165 -0.008545 -0.003986 0.000000 0.000000 0.000000
# 2 -0.008545 0.008936 -0.004422 0.000000 0.000000 0.000000
# 3 -0.003986 -0.004422 0.011521 0.000000 0.000000 0.000000
# 4 0.000000 0.000000 0.000000 0.024800 0.000000 0.000000
# 5 0.000000 0.000000 0.000000 0.000000 0.072224 0.000000
# 6 0.000000 0.000000 0.000000 0.000000 0.000000 0.038918
#
#
# Mechanical properties :
#
#
# Convention : Reuss Voigt Hill
#
# Bulk Modulus (GPa) = 32.55379 80.37803 56.46591
# Shear Modulus (GPa) = 20.43246 29.28796 24.86021
#
# Velocity S-wave (km/s) = 3.37301 4.03833 3.72057
# Velocity P-wave (km/s) = 5.77028 8.15477 7.06387
#
# Compressibility (1/GPa) = 0.03071839
#
# Stress axis : x y z
#
# Youngs Moduli (GPa) = 22.64234 111.90568 86.79554
#
# Poissons Ratio (x) = 0.95620 0.34594
# Poissons Ratio (y) = 0.19347 0.38378
# Poissons Ratio (z) = 0.09024 0.49481
#
# Static dielectric constant tensor:
#      x y z
#    x 2.748210 0.000000 0.000000 
#    y 0.000000 4.198740 0.000000 
#    z 0.000000 0.000000 3.485600 
# 
# 
# High freq. dielectric constant tensor:
#      x y z
#    x 1.622220 0.000000 0.000000 
#    y 0.000000 1.726310 0.000000 
#    z 0.000000 0.000000 1.715750 
# 
# From -- ./inp_files/5998.got.cif
#   From: 2010.03.12/outbox.cif.g09.slc.cpg/sg49_3_cif.got.tgz:5998.got - 2010.04.14 03:58:27.
