data_PCOD8202957
_publ_section_title
;
Structure prediction by ZEFSAII (Michael W. Deem and Ramdas Pophale) SiO2 
 PCOD8202957
Probable space group: P C C M
;
_chemical_formula_sum "Si O2"
_cell_formula_units_Z 64
_cell_length_a 23.193917
_cell_length_b 19.096615
_cell_length_c 8.892856
_cell_angle_alpha 90.000000
_cell_angle_beta 90.000000
_cell_angle_gamma 90.000000
_cell_volume 3938.870941
_symmetry_space_group_name_H-M "P C C M"
_symmetry_group_IT_number 49
_symmetry_cell_setting 'orthorhombic'
loop_
_space_group_symop_operation_xyz
x,y,z
-x,-y,z
x,-y,1/2-z
-x,y,1/2-z
-x,-y,-z
x,y,-z
-x,y,1/2+z
x,-y,1/2+z
loop_
_atom_site_type_symbol
_atom_site_label
_atom_site_fract_x
_atom_site_fract_y
_atom_site_fract_z
Si Si1 0.832660 0.799283 0.174252
Si Si2 0.339716 0.849585 0.172656
Si Si3 0.059071 0.293468 0.176536
Si Si4 0.439723 0.073676 0.821667
Si Si5 0.113299 0.428366 0.678265
Si Si6 0.245382 0.431541 0.673255
Si Si7 0.267770 0.719954 0.173662
Si Si8 0.778535 0.925720 0.675660
O O1 0.894935 0.767388 0.209636
O O2 0.784879 0.743377 0.223512
O O3 0.826293 0.871875 0.263682
O O4 0.823928 0.815488 0.000000
O O5 0.392069 0.868487 0.282307
O O6 0.323971 0.768038 0.201844
O O7 0.284966 0.897147 0.215288
O O8 0.358138 0.862086 0.000000
O O9 0.076772 0.365525 0.254392
O O10 0.000000 0.266712 0.250000
O O11 0.051862 0.306870 0.000000
O O12 0.500000 0.098027 0.750000
O O13 0.420189 0.000000 0.750000
O O14 0.446125 0.065764 0.000000
O O15 0.089284 0.500000 0.750000
O O16 0.105518 0.430037 0.500000
O O17 0.179907 0.418554 0.727179
O O18 0.273234 0.500000 0.750000
O O19 0.246517 0.449159 0.500000
O O20 0.282107 0.361300 0.710872
O O21 0.247723 0.728076 0.000000
O O22 0.787224 0.933601 0.500000
O O23 0.788418 0.000000 0.750000
#
# Coordination Sequence:
#
# PCOD8202957 Si02
#       8
#     8   8   8   8   8   8   8   8
#     4  10  20  33  50  71  94 118 151 191 234 285
#     4   9  18  31  48  71  99 129 163 199 233 273
#     4  11  23  36  51  70  91 119 155 194 236 283
#     4  11  21  33  49  68  96 133 172 205 238 275
#     4  10  19  32  50  69  94 122 155 193 232 280
#     4   9  17  28  45  68  94 126 158 190 232 281
#     4   9  17  31  49  69  95 128 160 193 238 284
#     4  10  20  33  52  75 100 127 154 189 234 281
#
# _framework density 16.248311000000001
#
# number of rings (size 3 to 8) (size 9 to 14) (size 15 to 20)
#    0.000    2.125    1.250    4.125    0.000    6.250 
#    0.000    1.250    0.000    0.375    0.000    2.625 
#    0.000    0.500    0.000    5.750    0.000    1.750 
#
# Total GULP energy -793634.542473 kJ/mol
# GULP energy per Si atom -12400.539726 kJ/mol
# Density = 1.621133 g / cm^3
# Si number density = 16.248311 Si / 1000 Ang^3
#
#
#
# Elastic Constant Matrix: (Units=GPa)
#
#
# Indices 1 2 3 4 5 6 
#
# 1 75.8063 53.9404 48.6727 0.0000 0.0000 0.0000
# 2 53.9404 132.5720 53.4363 0.0000 0.0000 0.0000
# 3 48.6727 53.4363 91.3474 0.0000 0.0000 0.0000
# 4 0.0000 0.0000 0.0000 29.4654 0.0000 0.0000
# 5 0.0000 0.0000 0.0000 0.0000 22.4374 0.0000
# 6 0.0000 0.0000 0.0000 0.0000 0.0000 22.0902
#
#
#
# Elastic Compliance Matrix: (Units=1/GPa)
#
#
# Indices 1 2 3 4 5 6 
#
# 1 0.023004 -0.005783 -0.008875 0.000000 0.000000 0.000000
# 2 -0.005783 0.011324 -0.003543 0.000000 0.000000 0.000000
# 3 -0.008875 -0.003543 0.017749 0.000000 0.000000 0.000000
# 4 0.000000 0.000000 0.000000 0.033938 0.000000 0.000000
# 5 0.000000 0.000000 0.000000 0.000000 0.044568 0.000000
# 6 0.000000 0.000000 0.000000 0.000000 0.000000 0.045269
#
#
# Mechanical properties :
#
#
# Convention : Reuss Voigt Hill
#
# Bulk Modulus (GPa) = 63.79195 67.98048 65.88621
# Shear Modulus (GPa) = 22.99074 24.37702 23.68388
#
# Velocity S-wave (km/s) = 3.76568 3.87755 3.82202
# Velocity P-wave (km/s) = 7.63237 7.87251 7.75337
#
# Compressibility (1/GPa) = 0.01567596
#
# Stress axis : x y z
#
# Youngs Moduli (GPa) = 43.46996 88.30737 56.34269
#
# Poissons Ratio (x) = 0.51066 0.50002
# Poissons Ratio (y) = 0.25138 0.19963
# Poissons Ratio (z) = 0.38578 0.31288
#
# Static dielectric constant tensor:
#      x y z
#    x 2.849670 0.000000 0.000000 
#    y 0.000000 3.194740 0.000000 
#    z 0.000000 0.000000 3.153570 
# 
# 
# High freq. dielectric constant tensor:
#      x y z
#    x 1.587800 0.000000 0.000000 
#    y 0.000000 1.625890 0.000000 
#    z 0.000000 0.000000 1.638160 
# 
# From -- ./inp_files/6614.got.cif
#   From: 2010.03.12/outbox.cif.g09.slc.cpg/sg49_4_cif.got.tgz:6614.got - 2010.04.14 03:58:27.
