data_PCOD8202521
_publ_section_title
;
Structure prediction by ZEFSAII (Michael W. Deem and Ramdas Pophale) SiO2 
 PCOD8202521
Probable space group: P C C M
;
_chemical_formula_sum "Si O2"
_cell_formula_units_Z 64
_cell_length_a 19.571266
_cell_length_b 20.387522
_cell_length_c 8.965989
_cell_angle_alpha 90.000000
_cell_angle_beta 90.000000
_cell_angle_gamma 90.000000
_cell_volume 3577.515829
_symmetry_space_group_name_H-M "P C C M"
_symmetry_group_IT_number 49
_symmetry_cell_setting 'orthorhombic'
loop_
_space_group_symop_operation_xyz
x,y,z
-x,-y,z
x,-y,1/2-z
-x,y,1/2-z
-x,-y,-z
x,y,-z
-x,y,1/2+z
x,-y,1/2+z
loop_
_atom_site_type_symbol
_atom_site_label
_atom_site_fract_x
_atom_site_fract_y
_atom_site_fract_z
Si Si1 0.428639 0.066991 0.675905
Si Si2 0.651458 0.432127 0.323275
Si Si3 0.066853 0.770205 0.831291
Si Si4 0.797255 0.230243 0.675017
Si Si5 0.335120 0.810556 0.172565
Si Si6 0.572655 0.686833 0.676738
Si Si7 0.066838 0.386141 0.332150
Si Si8 0.201587 0.619434 0.673234
O O1 0.500000 0.087788 0.750000
O O2 0.439533 0.057231 0.500000
O O3 0.374394 0.123063 0.711472
O O4 0.401348 0.000000 0.750000
O O5 0.628169 0.500000 0.250000
O O6 0.638811 0.432655 0.500000
O O7 0.605293 0.377065 0.249308
O O8 0.730969 0.420875 0.284650
O O9 0.133991 0.797633 0.749736
O O10 0.065958 0.691968 0.823088
O O11 0.000000 0.798844 0.750000
O O12 0.066840 0.795606 0.000000
O O13 0.804898 0.222177 0.500000
O O14 0.733601 0.188105 0.731424
O O15 0.785528 0.305666 0.722779
O O16 0.381139 0.748893 0.218351
O O17 0.314936 0.806512 0.000000
O O18 0.500000 0.700175 0.750000
O O19 0.565142 0.677221 0.500000
O O20 0.065042 0.412121 0.500000
O O21 0.136834 0.412101 0.257858
O O22 0.000000 0.415007 0.250000
O O23 0.184108 0.616206 0.500000
#
# Coordination Sequence:
#
# PCOD8202521 Si02
#       8
#     8   8   8   8   8   8   8   8
#     4  10  20  35  54  78 108 144 182 219 258 306
#     4  11  23  40  58  78 101 130 168 213 263 317
#     4   9  16  26  40  63  97 135 172 211 255 306
#     4  10  18  29  48  73 101 135 172 213 260 309
#     4  10  21  35  53  79 110 141 175 215 260 308
#     4  11  23  39  59  81 105 133 167 211 261 314
#     4   9  16  25  42  67  95 127 163 202 248 301
#     4   9  18  32  49  70  98 128 163 207 254 307
#
# _framework density 17.889509
#
# number of rings (size 3 to 8) (size 9 to 14) (size 15 to 20)
#    0.000    2.125    1.250    3.000    0.000    6.250 
#    0.000    1.250    0.000    0.375    0.000    2.625 
#    0.000    0.500    0.000    5.250    0.000    3.125 
#
# Total GULP energy -793749.964134 kJ/mol
# GULP energy per Si atom -12402.343190 kJ/mol
# Density = 1.784879 g / cm^3
# Si number density = 17.889509 Si / 1000 Ang^3
#
#
#
# Elastic Constant Matrix: (Units=GPa)
#
#
# Indices 1 2 3 4 5 6 
#
# 1 132.8550 44.1308 70.2001 0.0000 0.0000 0.0000
# 2 44.1308 69.6631 38.0532 0.0000 0.0000 0.0000
# 3 70.2001 38.0532 107.7020 0.0000 0.0000 0.0000
# 4 0.0000 0.0000 0.0000 17.9991 0.0000 0.0000
# 5 0.0000 0.0000 0.0000 0.0000 39.9603 0.0000
# 6 0.0000 0.0000 0.0000 0.0000 0.0000 -11.1069
#
#
#
# Elastic Compliance Matrix: (Units=1/GPa)
#
#
# Indices 1 2 3 4 5 6 
#
# 1 0.012429 -0.004273 -0.006592 0.000000 0.000000 0.000000
# 2 -0.004273 0.019257 -0.004019 0.000000 0.000000 0.000000
# 3 -0.006592 -0.004019 0.015001 0.000000 0.000000 0.000000
# 4 0.000000 0.000000 0.000000 0.055558 0.000000 0.000000
# 5 0.000000 0.000000 0.000000 0.000000 0.025025 0.000000
# 6 0.000000 0.000000 0.000000 0.000000 0.000000 -0.090035
#
#
# Mechanical properties :
#
#
# Convention : Reuss Voigt Hill
#
# Bulk Modulus (GPa) = 59.09951 68.33203 63.71577
# Shear Modulus (GPa) = 68.82918 19.89292 44.36105
#
# Velocity S-wave (km/s) = 6.20952 3.33827 4.98509
# Velocity P-wave (km/s) = 9.19339 7.28960 8.29629
#
# Compressibility (1/GPa) = 0.01692061
#
# Stress axis : x y z
#
# Youngs Moduli (GPa) = 80.45379 51.92926 66.66141
#
# Poissons Ratio (x) = 0.22191 0.43941
# Poissons Ratio (y) = 0.34380 0.26788
# Poissons Ratio (z) = 0.53033 0.20868
#
# Static dielectric constant tensor:
#      x y z
#    x 3.447100 0.000000 0.000000 
#    y 0.000000 2.945890 0.000000 
#    z 0.000000 0.000000 3.411070 
# 
# 
# High freq. dielectric constant tensor:
#      x y z
#    x 1.703240 0.000000 0.000000 
#    y 0.000000 1.645580 0.000000 
#    z 0.000000 0.000000 1.706930 
# 
# From -- ./inp_files/5316.got.cif
#   From: 2010.03.12/outbox.cif.g09.slc.cpg/sg49_3_cif.got.tgz:5316.got - 2010.04.14 03:58:27.
