data_PCOD8202714
_publ_section_title
;
Structure prediction by ZEFSAII (Michael W. Deem and Ramdas Pophale) SiO2 
 PCOD8202714
Probable space group: P C C M
;
_chemical_formula_sum "Si O2"
_cell_formula_units_Z 64
_cell_length_a 18.412302
_cell_length_b 21.502854
_cell_length_c 9.073981
_cell_angle_alpha 90.000000
_cell_angle_beta 90.000000
_cell_angle_gamma 90.000000
_cell_volume 3592.543714
_symmetry_space_group_name_H-M "P C C M"
_symmetry_group_IT_number 49
_symmetry_cell_setting 'orthorhombic'
loop_
_space_group_symop_operation_xyz
x,y,z
-x,-y,z
x,-y,1/2-z
-x,y,1/2-z
-x,-y,-z
x,y,-z
-x,y,1/2+z
x,-y,1/2+z
loop_
_atom_site_type_symbol
_atom_site_label
_atom_site_fract_x
_atom_site_fract_y
_atom_site_fract_z
Si Si1 0.632464 0.062859 0.328814
Si Si2 0.065548 0.247513 0.339827
Si Si3 0.828494 0.678973 0.166714
Si Si4 0.930722 0.898856 0.663293
Si Si5 0.704382 0.761708 0.169274
Si Si6 0.425841 0.185186 0.676179
Si Si7 0.075313 0.564653 0.324303
Si Si8 0.213050 0.884835 0.666622
O O1 0.608178 0.063297 0.500000
O O2 0.593144 0.118217 0.242895
O O3 0.719328 0.068590 0.315533
O O4 0.606828 0.000000 0.250000
O O5 0.062780 0.278021 0.500000
O O6 0.139696 0.265955 0.263900
O O7 0.057802 0.174300 0.347300
O O8 0.000000 0.278407 0.250000
O O9 0.741867 0.692830 0.183224
O O10 0.857964 0.611363 0.215144
O O11 0.853352 0.690750 0.000000
O O12 0.929052 0.928352 0.500000
O O13 0.853384 0.912357 0.738661
O O14 0.000000 0.927905 0.750000
O O15 0.635345 0.764547 0.276857
O O16 0.761237 0.815972 0.215999
O O17 0.679691 0.774400 0.000000
O O18 0.500000 0.208785 0.750000
O O19 0.431849 0.181939 0.500000
O O20 0.098367 0.500000 0.250000
O O21 0.064887 0.556765 0.500000
O O22 0.000000 0.588052 0.250000
O O23 0.184341 0.882156 0.500000
#
# Coordination Sequence:
#
# PCOD8202714 Si02
#       8
#     8   8   8   8   8   8   8   8
#     4  10  21  37  56  80 104 132 167 205 245 289
#     4  10  19  27  38  60  89 121 157 198 243 292
#     4  10  19  31  48  68  94 128 166 210 257 301
#     4  10  19  28  41  62  89 120 156 195 241 293
#     4   9  18  33  51  73 101 130 161 200 247 301
#     4  11  22  37  57  80 108 139 167 197 237 291
#     4  10  20  33  48  66  93 135 182 226 267 305
#     4   9  17  31  50  68  95 127 156 196 249 297
#
# _framework density 17.814675999999999
#
# number of rings (size 3 to 8) (size 9 to 14) (size 15 to 20)
#    0.000    2.125    1.250    4.125    0.000    6.250 
#    0.000    1.250    0.000    0.375    0.000    2.625 
#    0.000    0.500    0.000    5.750    0.000    1.750 
#
# Total GULP energy -793178.956806 kJ/mol
# GULP energy per Si atom -12393.421200 kJ/mol
# Density = 1.777413 g / cm^3
# Si number density = 17.814676 Si / 1000 Ang^3
#
#
#
# Elastic Constant Matrix: (Units=GPa)
#
#
# Indices 1 2 3 4 5 6 
#
# 1 86.4551 23.7085 49.7253 0.0000 0.0000 0.0000
# 2 23.7085 58.6632 26.3814 0.0000 0.0000 0.0000
# 3 49.7253 26.3814 117.9898 0.0000 0.0000 0.0000
# 4 0.0000 0.0000 0.0000 -10.3880 0.0000 0.0000
# 5 0.0000 0.0000 0.0000 0.0000 30.4634 0.0000
# 6 0.0000 0.0000 0.0000 0.0000 0.0000 16.7718
#
#
#
# Elastic Compliance Matrix: (Units=1/GPa)
#
#
# Indices 1 2 3 4 5 6 
#
# 1 0.016001 -0.003818 -0.005890 0.000000 0.000000 0.000000
# 2 -0.003818 0.019863 -0.002832 0.000000 0.000000 0.000000
# 3 -0.005890 -0.002832 0.011591 0.000000 0.000000 0.000000
# 4 0.000000 0.000000 0.000000 -0.096265 0.000000 0.000000
# 5 0.000000 0.000000 0.000000 0.000000 0.032826 0.000000
# 6 0.000000 0.000000 0.000000 0.000000 0.000000 0.059624
#
#
# Mechanical properties :
#
#
# Convention : Reuss Voigt Hill
#
# Bulk Modulus (GPa) = 44.69265 51.41537 48.05401
# Shear Modulus (GPa) = 65.63485 18.25563 41.94524
#
# Velocity S-wave (km/s) = 6.07644 3.20465 4.85762
# Velocity P-wave (km/s) = 8.62397 6.52816 7.64819
#
# Compressibility (1/GPa) = 0.02237504
#
# Stress axis : x y z
#
# Youngs Moduli (GPa) = 62.49473 50.34442 86.27572
#
# Poissons Ratio (x) = 0.19222 0.50815
# Poissons Ratio (y) = 0.23861 0.24434
# Poissons Ratio (z) = 0.36809 0.14258
#
# Static dielectric constant tensor:
#      x y z
#    x 3.302470 0.000000 0.000000 
#    y 0.000000 3.005350 0.000000 
#    z 0.000000 0.000000 3.508050 
# 
# 
# High freq. dielectric constant tensor:
#      x y z
#    x 1.676050 0.000000 0.000000 
#    y 0.000000 1.648760 0.000000 
#    z 0.000000 0.000000 1.702780 
# 
# From -- ./inp_files/5423.got.cif
#   From: 2010.03.12/outbox.cif.g09.slc.cpg/sg49_3_cif.got.tgz:5423.got - 2010.04.14 03:58:27.
