data_PCOD8202890
_publ_section_title
;
Structure prediction by ZEFSAII (Michael W. Deem and Ramdas Pophale) SiO2 
 PCOD8202890
Probable space group: P C C M
;
_chemical_formula_sum "Si O2"
_cell_formula_units_Z 64
_cell_length_a 15.091036
_cell_length_b 24.886673
_cell_length_c 8.886350
_cell_angle_alpha 90.000000
_cell_angle_beta 90.000000
_cell_angle_gamma 90.000000
_cell_volume 3337.408064
_symmetry_space_group_name_H-M "P C C M"
_symmetry_group_IT_number 49
_symmetry_cell_setting 'orthorhombic'
loop_
_space_group_symop_operation_xyz
x,y,z
-x,-y,z
x,-y,1/2-z
-x,y,1/2-z
-x,-y,-z
x,y,-z
-x,y,1/2+z
x,-y,1/2+z
loop_
_atom_site_type_symbol
_atom_site_label
_atom_site_fract_x
_atom_site_fract_y
_atom_site_fract_z
Si Si1 0.089136 0.358674 0.323003
Si Si2 0.586813 0.822818 0.324875
Si Si3 0.410288 0.404328 0.177539
Si Si4 0.628879 0.283331 0.329817
Si Si5 0.233913 0.445456 0.678191
Si Si6 0.908090 0.943676 0.677481
Si Si7 0.831026 0.740074 0.828337
Si Si8 0.218112 0.153340 0.323798
O O1 0.077716 0.356742 0.500000
O O2 0.169420 0.397134 0.273978
O O3 0.103686 0.298385 0.263123
O O4 0.000000 0.382304 0.250000
O O5 0.500000 0.850427 0.250000
O O6 0.575931 0.830469 0.500000
O O7 0.587326 0.759714 0.283913
O O8 0.679089 0.849818 0.268378
O O9 0.500000 0.427628 0.250000
O O10 0.406281 0.341322 0.217079
O O11 0.330309 0.435476 0.254009
O O12 0.407867 0.414699 0.000000
O O13 0.601606 0.267574 0.500000
O O14 0.734065 0.284854 0.313406
O O15 0.195310 0.500000 0.750000
O O16 0.240637 0.451291 0.500000
O O17 0.922013 0.950628 0.500000
O O18 0.829592 0.902362 0.715026
O O19 0.000000 0.923134 0.750000
O O20 0.879402 0.000000 0.750000
O O21 0.834577 0.799831 0.760953
O O22 0.863303 0.742810 0.000000
O O23 0.215585 0.166748 0.500000
#
# Coordination Sequence:
#
# PCOD8202890 Si02
#       8
#     8   8   8   8   8   8   8   8
#     4  11  24  41  63  88 115 148 185 227 281 340
#     4  10  19  31  49  75 110 150 190 232 275 325
#     4  11  22  37  58  85 116 147 185 229 277 336
#     4   9  18  32  52  79 110 147 184 223 271 325
#     4  11  25  44  65  86 110 144 184 232 285 337
#     4  10  20  36  58  83 112 146 189 236 286 336
#     4  10  19  34  57  85 117 150 186 228 276 331
#     4   9  20  36  54  80 116 156 192 231 280 337
#
# _framework density 19.176558
#
# number of rings (size 3 to 8) (size 9 to 14) (size 15 to 20)
#    0.000    1.875    1.250    3.000    0.000    6.500 
#    0.000    3.750    0.000    0.375    0.000    2.625 
#    0.000    0.000    0.000    0.000    0.000    0.000 
#
# Total GULP energy -793766.907959 kJ/mol
# GULP energy per Si atom -12402.607937 kJ/mol
# Density = 1.913291 g / cm^3
# Si number density = 19.176558 Si / 1000 Ang^3
#
#
#
# Elastic Constant Matrix: (Units=GPa)
#
#
# Indices 1 2 3 4 5 6 
#
# 1 109.2112 57.1427 48.3406 0.0000 0.0000 0.0000
# 2 57.1427 93.9128 49.7456 0.0000 0.0000 0.0000
# 3 48.3406 49.7456 88.8280 0.0000 0.0000 0.0000
# 4 0.0000 0.0000 0.0000 27.0493 0.0000 0.0000
# 5 0.0000 0.0000 0.0000 0.0000 33.2560 0.0000
# 6 0.0000 0.0000 0.0000 0.0000 0.0000 13.3382
#
#
#
# Elastic Compliance Matrix: (Units=1/GPa)
#
#
# Indices 1 2 3 4 5 6 
#
# 1 0.014448 -0.006577 -0.004179 0.000000 0.000000 0.000000
# 2 -0.006577 0.018133 -0.006576 0.000000 0.000000 0.000000
# 3 -0.004179 -0.006576 0.017215 0.000000 0.000000 0.000000
# 4 0.000000 0.000000 0.000000 0.036970 0.000000 0.000000
# 5 0.000000 0.000000 0.000000 0.000000 0.030070 0.000000
# 6 0.000000 0.000000 0.000000 0.000000 0.000000 0.074973
#
#
# Mechanical properties :
#
#
# Convention : Reuss Voigt Hill
#
# Bulk Modulus (GPa) = 66.08735 66.93442 66.51089
# Shear Modulus (GPa) = 21.59678 23.84357 22.72018
#
# Velocity S-wave (km/s) = 3.35954 3.52997 3.44581
# Velocity P-wave (km/s) = 7.04174 7.18292 7.11268
#
# Compressibility (1/GPa) = 0.01513149
#
# Stress axis : x y z
#
# Youngs Moduli (GPa) = 69.21428 55.14691 58.09051
#
# Poissons Ratio (x) = 0.36272 0.24277
# Poissons Ratio (y) = 0.45525 0.38198
# Poissons Ratio (z) = 0.28926 0.36263
#
# Static dielectric constant tensor:
#      x y z
#    x 3.673030 0.000000 0.000000 
#    y 0.000000 3.340350 0.000000 
#    z 0.000000 0.000000 3.540400 
# 
# 
# High freq. dielectric constant tensor:
#      x y z
#    x 1.754020 0.000000 0.000000 
#    y 0.000000 1.723200 0.000000 
#    z 0.000000 0.000000 1.755210 
# 
# From -- ./inp_files/4411.got.cif
#   From: 2010.03.12/outbox.cif.g09.slc.cpg/sg49_3_cif.got.tgz:4411.got - 2010.04.14 03:58:27.
