data_PCOD8202670
_publ_section_title
;
Structure prediction by ZEFSAII (Michael W. Deem and Ramdas Pophale) SiO2 
 PCOD8202670
Probable space group: P C C M
;
_chemical_formula_sum "Si O2"
_cell_formula_units_Z 56
_cell_length_a 20.481570
_cell_length_b 15.422193
_cell_length_c 8.601576
_cell_angle_alpha 90.000000
_cell_angle_beta 90.000000
_cell_angle_gamma 90.000000
_cell_volume 2716.986051
_symmetry_space_group_name_H-M "P C C M"
_symmetry_group_IT_number 49
_symmetry_cell_setting 'orthorhombic'
loop_
_space_group_symop_operation_xyz
x,y,z
-x,-y,z
x,-y,1/2-z
-x,y,1/2-z
-x,-y,-z
x,y,-z
-x,y,1/2+z
x,-y,1/2+z
loop_
_atom_site_type_symbol
_atom_site_label
_atom_site_fract_x
_atom_site_fract_y
_atom_site_fract_z
Si Si1 0.930142 0.770385 0.683400
Si Si2 0.566427 0.768974 0.184108
Si Si3 0.296421 0.178880 0.177399
Si Si4 0.170255 0.908061 0.685152
Si Si5 0.602127 0.411624 0.181364
Si Si6 0.126372 0.413175 0.683524
Si Si7 0.735820 0.374547 0.321871
O O1 0.929476 0.782627 0.500000
O O2 0.877299 0.833727 0.756371
O O3 0.914854 0.671306 0.731944
O O4 0.000000 0.796834 0.750000
O O5 0.500000 0.812047 0.250000
O O6 0.630667 0.818961 0.254131
O O7 0.568560 0.668577 0.231670
O O8 0.566676 0.774529 0.000000
O O9 0.244303 0.110939 0.249493
O O10 0.261946 0.271345 0.194825
O O11 0.307397 0.153697 0.000000
O O12 0.169006 0.908231 0.500000
O O13 0.146529 0.000000 0.750000
O O14 0.571226 0.500000 0.250000
O O15 0.679591 0.413035 0.212797
O O16 0.587482 0.403947 0.000000
O O17 0.090730 0.500000 0.750000
O O18 0.135081 0.418257 0.500000
O O19 0.196276 0.412123 0.765506
O O20 0.721882 0.401677 0.500000
#
# Coordination Sequence:
#
# PCOD8202670 Si02
#       7
#     8   8   8   8   8   8   8
#     4  11  25  44  65  92 125 165 207 255 305 366
#     4  10  20  36  55  81 111 151 198 243 299 362
#     4   8  17  34  59  85 116 154 193 239 297 356
#     4  11  22  41  68  99 128 160 198 249 307 370
#     4  11  21  33  48  72 106 148 195 251 304 357
#     4  11  23  37  57  86 120 160 209 256 304 359
#     4  10  18  33  55  80 111 152 198 248 304 358
#
# _framework density 20.611073999999999
#
# number of rings (size 3 to 8) (size 9 to 14) (size 15 to 20)
#    0.000    1.714    1.429    4.714    0.000    2.571 
#    0.000    6.429    0.000    0.429    0.000    3.000 
#    0.000    0.000    0.000    0.000    0.000    0.000 
#
# Total GULP energy -694241.322826 kJ/mol
# GULP energy per Si atom -12397.166479 kJ/mol
# Density = 2.056416 g / cm^3
# Si number density = 20.611074 Si / 1000 Ang^3
#
#
#
# Elastic Constant Matrix: (Units=GPa)
#
#
# Indices 1 2 3 4 5 6 
#
# 1 129.2906 48.0674 34.8866 0.0000 0.0000 0.0000
# 2 48.0674 92.8798 38.5456 0.0000 0.0000 0.0000
# 3 34.8866 38.5456 86.8466 0.0000 0.0000 0.0000
# 4 0.0000 0.0000 0.0000 23.4404 0.0000 0.0000
# 5 0.0000 0.0000 0.0000 0.0000 28.0119 0.0000
# 6 0.0000 0.0000 0.0000 0.0000 0.0000 20.5115
#
#
#
# Elastic Compliance Matrix: (Units=1/GPa)
#
#
# Indices 1 2 3 4 5 6 
#
# 1 0.009875 -0.004246 -0.002082 0.000000 0.000000 0.000000
# 2 -0.004246 0.015024 -0.004962 0.000000 0.000000 0.000000
# 3 -0.002082 -0.004962 0.014553 0.000000 0.000000 0.000000
# 4 0.000000 0.000000 0.000000 0.042661 0.000000 0.000000
# 5 0.000000 0.000000 0.000000 0.000000 0.035699 0.000000
# 6 0.000000 0.000000 0.000000 0.000000 0.000000 0.048753
#
#
# Mechanical properties :
#
#
# Convention : Reuss Voigt Hill
#
# Bulk Modulus (GPa) = 59.27519 61.33511 60.30515
# Shear Modulus (GPa) = 25.67122 26.89392 26.28257
#
# Velocity S-wave (km/s) = 3.53300 3.61616 3.57482
# Velocity P-wave (km/s) = 6.74271 6.87448 6.80891
#
# Compressibility (1/GPa) = 0.01687046
#
# Stress axis : x y z
#
# Youngs Moduli (GPa) = 101.26497 66.56202 68.71280
#
# Poissons Ratio (x) = 0.28266 0.14307
# Poissons Ratio (y) = 0.43002 0.34096
# Poissons Ratio (z) = 0.21084 0.33029
#
# Static dielectric constant tensor:
#      x y z
#    x 3.962030 0.000000 0.000000 
#    y 0.000000 3.779930 0.000000 
#    z 0.000000 0.000000 3.652170 
# 
# 
# High freq. dielectric constant tensor:
#      x y z
#    x 1.811860 0.000000 0.000000 
#    y 0.000000 1.788460 0.000000 
#    z 0.000000 0.000000 1.800080 
# 
# From -- ./inp_files/5777.got.cif
#   From: 2010.03.12/outbox.cif.g09.slc.cpg/sg49_3_cif.got.tgz:5777.got - 2010.04.14 03:58:27.
