data_PCOD8202275
_publ_section_title
;
Structure prediction by ZEFSAII (Michael W. Deem and Ramdas Pophale) SiO2 
 PCOD8202275
Probable space group: P C C M
;
_chemical_formula_sum "Si O2"
_cell_formula_units_Z 64
_cell_length_a 26.409182
_cell_length_b 18.402558
_cell_length_c 8.805158
_cell_angle_alpha 90.000000
_cell_angle_beta 90.000000
_cell_angle_gamma 90.000000
_cell_volume 4279.276001
_symmetry_space_group_name_H-M "P C C M"
_symmetry_group_IT_number 49
_symmetry_cell_setting 'orthorhombic'
loop_
_space_group_symop_operation_xyz
x,y,z
-x,-y,z
x,-y,1/2-z
-x,y,1/2-z
-x,-y,-z
x,y,-z
-x,y,1/2+z
x,-y,1/2+z
loop_
_atom_site_type_symbol
_atom_site_label
_atom_site_fract_x
_atom_site_fract_y
_atom_site_fract_z
Si Si1 0.755810 0.157277 0.676967
Si Si2 0.347262 0.922751 0.323656
Si Si3 0.552426 0.344814 0.180407
Si Si4 0.848152 0.079143 0.180220
Si Si5 0.291631 0.715313 0.168218
Si Si6 0.347540 0.423297 0.320052
Si Si7 0.949865 0.080484 0.681775
Si Si8 0.397186 0.797342 0.832369
O O1 0.769261 0.149991 0.500000
O O2 0.707537 0.108506 0.722710
O O3 0.801734 0.131028 0.780521
O O4 0.745139 0.241801 0.716416
O O5 0.351311 0.933764 0.500000
O O6 0.391914 0.867741 0.274025
O O7 0.356273 0.000000 0.250000
O O8 0.500000 0.373080 0.250000
O O9 0.597431 0.397008 0.240489
O O10 0.562440 0.261094 0.232983
O O11 0.549879 0.347817 0.000000
O O12 0.898171 0.116419 0.255518
O O13 0.837465 0.000000 0.250000
O O14 0.854958 0.072111 0.000000
O O15 0.303531 0.633934 0.228723
O O16 0.344640 0.755611 0.156206
O O17 0.266666 0.713101 0.000000
O O18 0.332765 0.500000 0.250000
O O19 0.349124 0.429074 0.500000
O O20 0.951323 0.080175 0.500000
O O21 0.000000 0.120489 0.750000
O O22 0.949214 0.000000 0.750000
O O23 0.413360 0.824184 0.000000
#
# Coordination Sequence:
#
# PCOD8202275 Si02
#       8
#     8   8   8   8   8   8   8   8
#     4  10  19  29  41  60  82 105 134 167 204 247
#     4  10  19  28  41  60  80 101 127 159 198 240
#     4   9  18  31  46  64  84 107 131 158 192 232
#     4  11  20  29  40  56  79 108 141 179 220 255
#     4   8  15  29  45  59  78 106 134 161 193 234
#     4   9  18  31  46  65  88 111 136 162 192 227
#     4  10  17  27  40  54  73 100 137 179 220 260
#     4   8  15  29  45  58  76 101 129 158 191 231
#
# _framework density 14.9558
#
# number of rings (size 3 to 8) (size 9 to 14) (size 15 to 20)
#    0.000    2.625    0.000    6.000    0.000    4.250 
#    0.000    3.750    0.000    0.375    0.000    2.625 
#    0.000    0.000    0.000    0.000    0.000    0.625 
#
# Total GULP energy -793210.264324 kJ/mol
# GULP energy per Si atom -12393.910380 kJ/mol
# Density = 1.492176 g / cm^3
# Si number density = 14.955800 Si / 1000 Ang^3
#
#
#
# Elastic Constant Matrix: (Units=GPa)
#
#
# Indices 1 2 3 4 5 6 
#
# 1 46.4339 25.0025 21.6062 0.0000 0.0000 0.0000
# 2 25.0025 89.3383 25.0530 0.0000 0.0000 0.0000
# 3 21.6062 25.0530 65.0519 0.0000 0.0000 0.0000
# 4 0.0000 0.0000 0.0000 22.0658 0.0000 0.0000
# 5 0.0000 0.0000 0.0000 0.0000 18.6767 0.0000
# 6 0.0000 0.0000 0.0000 0.0000 0.0000 -163.4536
#
#
#
# Elastic Compliance Matrix: (Units=1/GPa)
#
#
# Indices 1 2 3 4 5 6 
#
# 1 0.027960 -0.005853 -0.007032 0.000000 0.000000 0.000000
# 2 -0.005853 0.013774 -0.003361 0.000000 0.000000 0.000000
# 3 -0.007032 -0.003361 0.019002 0.000000 0.000000 0.000000
# 4 0.000000 0.000000 0.000000 0.045319 0.000000 0.000000
# 5 0.000000 0.000000 0.000000 0.000000 0.053543 0.000000
# 6 0.000000 0.000000 0.000000 0.000000 0.000000 -0.006118
#
#
# Mechanical properties :
#
#
# Convention : Reuss Voigt Hill
#
# Bulk Modulus (GPa) = 35.40565 38.23860 36.82212
# Shear Modulus (GPa) = 25.59036 -15.93140 4.82948
#
# Velocity S-wave (km/s) = 4.14099 -3.26733 1.79894
# Velocity P-wave (km/s) = 6.82559 3.37481 5.38414
#
# Compressibility (1/GPa) = 0.02824408
#
# Stress axis : x y z
#
# Youngs Moduli (GPa) = 35.76577 72.60154 52.62508
#
# Poissons Ratio (x) = 0.42492 0.37008
# Poissons Ratio (y) = 0.20933 0.17686
# Poissons Ratio (z) = 0.25152 0.24399
#
# Static dielectric constant tensor:
#      x y z
#    x 3.166580 0.000000 0.000000 
#    y 0.000000 3.165730 0.000000 
#    z 0.000000 0.000000 2.920250 
# 
# 
# High freq. dielectric constant tensor:
#      x y z
#    x 1.548050 0.000000 0.000000 
#    y 0.000000 1.542170 0.000000 
#    z 0.000000 0.000000 1.581110 
# 
# From -- ./inp_files/6788.got.cif
#   From: 2010.03.12/outbox.cif.g09.slc.cpg/sg49_4_cif.got.tgz:6788.got - 2010.04.14 03:58:27.
