data_PCOD8202114
_publ_section_title
;
Structure prediction by ZEFSAII (Michael W. Deem and Ramdas Pophale) SiO2 
 PCOD8202114
Probable space group: P N N N
;
_chemical_formula_sum "Si O2"
_cell_formula_units_Z 58
_cell_length_a 11.105781
_cell_length_b 8.878405
_cell_length_c 26.000482
_cell_angle_alpha 90.000000
_cell_angle_beta 90.000000
_cell_angle_gamma 90.000000
_cell_volume 2563.689687
_symmetry_space_group_name_H-M "P N N N"
_symmetry_group_IT_number 48
_space_group.IT_coordinate_system_code '2'
_symmetry_cell_setting 'orthorhombic'
loop_
_space_group_symop_operation_xyz
x,y,z
1/2-x,1/2-y,z
x,1/2-y,1/2-z
1/2-x,y,1/2-z
-x,-y,-z
1/2+x,1/2+y,-z
-x,1/2+y,1/2+z
1/2+x,-y,1/2+z
loop_
_atom_site_type_symbol
_atom_site_label
_atom_site_fract_x
_atom_site_fract_y
_atom_site_fract_z
Si Si1 0.940480 0.475609 0.279178
Si Si2 0.750000 0.250000 0.250000
Si Si3 0.957934 0.486311 0.161098
Si Si4 0.424235 0.680056 0.422687
Si Si5 0.706624 0.583204 0.134175
Si Si6 0.809581 0.488823 0.569136
Si Si7 0.368282 0.345625 0.971200
Si Si8 0.873357 0.699400 0.661883
O O1 0.839258 0.346218 0.285323
O O2 0.956130 0.534021 0.221284
O O3 0.888599 0.597719 0.318968
O O4 0.068559 0.416723 0.298338
O O5 0.818216 0.468674 0.143870
O O6 0.015557 0.622439 0.129755
O O7 0.031561 0.333209 0.150931
O O8 0.331535 0.550647 0.442916
O O9 0.361259 0.835806 0.407078
O O10 0.523630 0.722653 0.466107
O O11 0.750000 0.750000 0.124755
O O12 0.639956 0.547349 0.080037
O O13 0.882965 0.536550 0.518074
O O14 0.828644 0.622539 0.609380
O O15 0.250000 0.250000 0.983953
O O16 0.750000 0.750000 0.689556
#
# Coordination Sequence:
#
# PCOD8202114 Si02
#       8
#     8   2   8   8   8   8   8   8
#     4  12  24  42  71  97 144 186 231 298 360 416
#     4  12  20  44  56 100 132 176 228 300 352 416
#     4  12  23  43  68 101 140 184 230 299 349 423
#     4  11  24  47  68 101 146 178 239 294 352 431
#     4  11  23  44  70 107 140 179 238 297 362 430
#     4  11  26  46  72  99 143 195 229 297 360 424
#     4  11  23  43  73 104 138 178 239 293 364 429
#     4  12  25  44  68 104 141 190 248 280 351 429
#
# _framework density 22.623643000000001
#
# number of rings (size 3 to 8) (size 9 to 14) (size 15 to 20)
#    0.000    0.552    6.897    1.655    0.000    3.862 
#    0.000    2.759    0.000    3.310    0.000    0.000 
#    0.000    0.000    0.000    0.000    0.000    0.000 
#
# Total GULP energy -718782.729617 kJ/mol
# GULP energy per Si atom -12392.805683 kJ/mol
# Density = 2.257215 g / cm^3
# Si number density = 22.623643 Si / 1000 Ang^3
#
#
#
# Elastic Constant Matrix: (Units=GPa)
#
#
# Indices 1 2 3 4 5 6 
#
# 1 140.7794 33.2700 45.1674 0.0000 0.0000 0.0000
# 2 33.2700 65.3588 42.9324 0.0000 0.0000 0.0000
# 3 45.1674 42.9324 149.0088 0.0000 0.0000 0.0000
# 4 0.0000 0.0000 0.0000 24.1104 0.0000 0.0000
# 5 0.0000 0.0000 0.0000 0.0000 29.9170 0.0000
# 6 0.0000 0.0000 0.0000 0.0000 0.0000 42.2700
#
#
#
# Elastic Compliance Matrix: (Units=1/GPa)
#
#
# Indices 1 2 3 4 5 6 
#
# 1 0.008379 -0.003203 -0.001617 0.000000 0.000000 0.000000
# 2 -0.003203 0.020096 -0.004819 0.000000 0.000000 0.000000
# 3 -0.001617 -0.004819 0.008590 0.000000 0.000000 0.000000
# 4 0.000000 0.000000 0.000000 0.041476 0.000000 0.000000
# 5 0.000000 0.000000 0.000000 0.000000 0.033426 0.000000
# 6 0.000000 0.000000 0.000000 0.000000 0.000000 0.023657
#
#
# Mechanical properties :
#
#
# Convention : Reuss Voigt Hill
#
# Bulk Modulus (GPa) = 56.22268 66.43184 61.32726
# Shear Modulus (GPa) = 31.08843 34.84462 32.96652
#
# Velocity S-wave (km/s) = 3.71098 3.92878 3.82143
# Velocity P-wave (km/s) = 6.57777 7.07164 6.82917
#
# Compressibility (1/GPa) = 0.01778642
#
# Stress axis : x y z
#
# Youngs Moduli (GPa) = 119.34481 49.76048 116.41901
#
# Poissons Ratio (x) = 0.15939 0.18825
# Poissons Ratio (y) = 0.38227 0.56105
# Poissons Ratio (z) = 0.19298 0.23981
#
# Static dielectric constant tensor:
#      x y z
#    x 4.653840 0.000000 0.000000 
#    y 0.000000 3.984570 0.000000 
#    z 0.000000 0.000000 4.034260 
# 
# 
# High freq. dielectric constant tensor:
#      x y z
#    x 1.915170 0.000000 0.000000 
#    y 0.000000 1.879130 0.000000 
#    z 0.000000 0.000000 1.884020 
# 
# From -- ./inp_files/37758.got.cif
#   From: 2010.06.25/outbox.cif.g09.slc.cpg/sg48_19_cif.got.tgz:37758.got - 2010.06.26 18:06:46.
