data_PCOD8202936
_publ_section_title
;
Structure prediction by ZEFSAII (Michael W. Deem and Ramdas Pophale) SiO2 
 PCOD8202936
Probable space group: P C C M
;
_chemical_formula_sum "Si O2"
_cell_formula_units_Z 64
_cell_length_a 28.384161
_cell_length_b 14.779641
_cell_length_c 8.664359
_cell_angle_alpha 90.000000
_cell_angle_beta 90.000000
_cell_angle_gamma 90.000000
_cell_volume 3634.765400
_symmetry_space_group_name_H-M "P C C M"
_symmetry_group_IT_number 49
_symmetry_cell_setting 'orthorhombic'
loop_
_space_group_symop_operation_xyz
x,y,z
-x,-y,z
x,-y,1/2-z
-x,y,1/2-z
-x,-y,-z
x,y,-z
-x,y,1/2+z
x,-y,1/2+z
loop_
_atom_site_type_symbol
_atom_site_label
_atom_site_fract_x
_atom_site_fract_y
_atom_site_fract_z
Si Si1 0.584302 0.903993 0.183582
Si Si2 0.623703 0.594557 0.816874
Si Si3 0.236237 0.784324 0.318480
Si Si4 0.851230 0.098461 0.319079
Si Si5 0.548134 0.726717 0.317187
Si Si6 0.730752 0.408151 0.320624
Si Si7 0.686071 0.906399 0.682141
Si Si8 0.954407 0.099222 0.680807
O O1 0.550460 0.829269 0.256798
O O2 0.637614 0.882820 0.233515
O O3 0.567558 0.000000 0.250000
O O4 0.580394 0.902995 0.000000
O O5 0.604632 0.500000 0.750000
O O6 0.593274 0.674240 0.745217
O O7 0.677542 0.609777 0.761068
O O8 0.618488 0.596124 0.000000
O O9 0.245783 0.800670 0.500000
O O10 0.186878 0.827796 0.263890
O O11 0.236049 0.677321 0.279415
O O12 0.277428 0.827676 0.218194
O O13 0.848422 0.083956 0.500000
O O14 0.902934 0.138947 0.273336
O O15 0.840574 0.000000 0.250000
O O16 0.500000 0.683308 0.250000
O O17 0.547386 0.723192 0.500000
O O18 0.752393 0.500000 0.250000
O O19 0.728694 0.425044 0.500000
O O20 0.677382 0.915366 0.500000
O O21 0.706824 0.000000 0.750000
O O22 0.961004 0.095427 0.500000
O O23 0.000000 0.153560 0.750000
O O24 0.955290 0.000000 0.750000
#
# Coordination Sequence:
#
# PCOD8202936 Si02
#       8
#     8   8   8   8   8   8   8   8
#     4  11  22  39  59  79 102 132 168 206 243 284
#     4  10  20  37  59  83 106 132 162 198 241 291
#     4  10  19  32  48  69  98 132 163 199 244 292
#     4   9  18  29  42  62  93 129 167 203 243 289
#     4  12  25  41  59  82 107 133 163 199 242 292
#     4   9  19  34  54  75  98 125 157 194 236 283
#     4  11  21  33  50  74 101 132 166 201 237 282
#     4   9  15  24  38  57  81 117 161 205 244 285
#
# _framework density 17.607738000000001
#
# number of rings (size 3 to 8) (size 9 to 14) (size 15 to 20)
#    0.000    1.875    0.000    6.375    0.000    4.500 
#    0.000    2.500    0.000    0.000    0.000    0.000 
#    0.000    0.500    0.000    6.250    0.000    0.000 
#
# Total GULP energy -793456.394917 kJ/mol
# GULP energy per Si atom -12397.756171 kJ/mol
# Density = 1.756766 g / cm^3
# Si number density = 17.607738 Si / 1000 Ang^3
#
#
#
# Elastic Constant Matrix: (Units=GPa)
#
#
# Indices 1 2 3 4 5 6 
#
# 1 82.4987 48.7112 26.2869 0.0000 0.0000 0.0000
# 2 48.7112 96.2900 28.8166 0.0000 0.0000 0.0000
# 3 26.2869 28.8166 85.8615 0.0000 0.0000 0.0000
# 4 0.0000 0.0000 0.0000 26.9620 0.0000 0.0000
# 5 0.0000 0.0000 0.0000 0.0000 34.3933 0.0000
# 6 0.0000 0.0000 0.0000 0.0000 0.0000 15.6052
#
#
#
# Elastic Compliance Matrix: (Units=1/GPa)
#
#
# Indices 1 2 3 4 5 6 
#
# 1 0.017831 -0.008211 -0.002703 0.000000 0.000000 0.000000
# 2 -0.008211 0.015326 -0.002630 0.000000 0.000000 0.000000
# 3 -0.002703 -0.002630 0.013357 0.000000 0.000000 0.000000
# 4 0.000000 0.000000 0.000000 0.037089 0.000000 0.000000
# 5 0.000000 0.000000 0.000000 0.000000 0.029075 0.000000
# 6 0.000000 0.000000 0.000000 0.000000 0.000000 0.064081
#
#
# Mechanical properties :
#
#
# Convention : Reuss Voigt Hill
#
# Bulk Modulus (GPa) = 51.47883 52.47552 51.97718
# Shear Modulus (GPa) = 23.77280 26.11445 24.94363
#
# Velocity S-wave (km/s) = 3.67840 3.85531 3.76790
# Velocity P-wave (km/s) = 6.88047 7.04877 6.96513
#
# Compressibility (1/GPa) = 0.01942546
#
# Stress axis : x y z
#
# Youngs Moduli (GPa) = 56.08149 65.24717 74.86787
#
# Poissons Ratio (x) = 0.53578 0.20238
# Poissons Ratio (y) = 0.46051 0.19689
# Poissons Ratio (z) = 0.15160 0.17159
#
# Static dielectric constant tensor:
#      x y z
#    x 4.026880 0.000000 0.000000 
#    y 0.000000 3.233590 0.000000 
#    z 0.000000 0.000000 3.353220 
# 
# 
# High freq. dielectric constant tensor:
#      x y z
#    x 1.672430 0.000000 0.000000 
#    y 0.000000 1.657260 0.000000 
#    z 0.000000 0.000000 1.691400 
# 
# From -- ./inp_files/7080.got.cif
#   From: 2010.03.12/outbox.cif.g09.slc.cpg/sg49_4_cif.got.tgz:7080.got - 2010.04.14 03:58:27.
