data_PCOD8202448
_publ_section_title
;
Structure prediction by ZEFSAII (Michael W. Deem and Ramdas Pophale) SiO2 
 PCOD8202448
Probable space group: P C C M
;
_chemical_formula_sum "Si O2"
_cell_formula_units_Z 48
_cell_length_a 23.402680
_cell_length_b 12.881024
_cell_length_c 9.108418
_cell_angle_alpha 90.000000
_cell_angle_beta 90.000000
_cell_angle_gamma 90.000000
_cell_volume 2745.737003
_symmetry_space_group_name_H-M "P C C M"
_symmetry_group_IT_number 49
_symmetry_cell_setting 'orthorhombic'
loop_
_space_group_symop_operation_xyz
x,y,z
-x,-y,z
x,-y,1/2-z
-x,y,1/2-z
-x,-y,-z
x,y,-z
-x,y,1/2+z
x,-y,1/2+z
loop_
_atom_site_type_symbol
_atom_site_label
_atom_site_fract_x
_atom_site_fract_y
_atom_site_fract_z
Si Si1 0.744410 0.107317 0.672689
Si Si2 0.439425 0.607130 0.177301
Si Si3 0.172514 0.290418 0.832189
Si Si4 0.344457 0.767355 0.839397
Si Si5 0.743720 0.412579 0.842818
Si Si6 0.057297 0.391778 0.172678
O O1 0.739233 0.090446 0.500000
O O2 0.798146 0.181460 0.715335
O O3 0.681957 0.148486 0.727572
O O4 0.758904 0.000000 0.750000
O O5 0.416069 0.500000 0.250000
O O6 0.500000 0.632937 0.250000
O O7 0.399898 0.705801 0.220838
O O8 0.442941 0.594087 0.000000
O O9 0.198368 0.384433 0.740195
O O10 0.104453 0.300030 0.805750
O O11 0.188687 0.309822 0.000000
O O12 0.295753 0.684496 0.863756
O O13 0.357753 0.818239 0.000000
O O14 0.710418 0.500000 0.750000
O O15 0.760691 0.459228 0.000000
O O16 0.075518 0.500000 0.250000
O O17 0.000000 0.349199 0.250000
O O18 0.047030 0.412516 0.000000
#
# Coordination Sequence:
#
# PCOD8202448 Si02
#       6
#     8   8   8   8   8   8
#     4  10  20  35  55  76  97 122 155 199 250 299
#     4  10  19  31  48  71 102 137 171 203 236 279
#     4   9  19  33  48  68  94 124 158 196 237 284
#     4   9  19  33  48  69  96 127 162 199 239 286
#     4  10  18  27  42  65  94 125 156 191 233 282
#     4  10  19  31  47  69  98 131 165 196 230 274
#
# _framework density 17.481645
#
# number of rings (size 3 to 8) (size 9 to 14) (size 15 to 20)
#    0.000    2.333    0.000    4.000    0.000    5.333 
#    0.000    0.000    0.000    1.000    0.000    7.000 
#    0.000    0.000    0.000    0.000    0.000    0.000 
#
# Total GULP energy -594636.257837 kJ/mol
# GULP energy per Si atom -12388.255372 kJ/mol
# Density = 1.744186 g / cm^3
# Si number density = 17.481645 Si / 1000 Ang^3
#
#
#
# Elastic Constant Matrix: (Units=GPa)
#
#
# Indices 1 2 3 4 5 6 
#
# 1 101.0894 42.6137 41.3319 0.0000 0.0000 0.0000
# 2 42.6137 78.5627 49.0900 0.0000 0.0000 0.0000
# 3 41.3319 49.0900 112.1371 0.0000 0.0000 0.0000
# 4 0.0000 0.0000 0.0000 26.5716 0.0000 0.0000
# 5 0.0000 0.0000 0.0000 0.0000 0.7534 0.0000
# 6 0.0000 0.0000 0.0000 0.0000 0.0000 18.0480
#
#
#
# Elastic Compliance Matrix: (Units=1/GPa)
#
#
# Indices 1 2 3 4 5 6 
#
# 1 0.013277 -0.005704 -0.002397 0.000000 0.000000 0.000000
# 2 -0.005704 0.019972 -0.006641 0.000000 0.000000 0.000000
# 3 -0.002397 -0.006641 0.012708 0.000000 0.000000 0.000000
# 4 0.000000 0.000000 0.000000 0.037634 0.000000 0.000000
# 5 0.000000 0.000000 0.000000 0.000000 1.327354 0.000000
# 6 0.000000 0.000000 0.000000 0.000000 0.000000 0.055408
#
#
# Mechanical properties :
#
#
# Convention : Reuss Voigt Hill
#
# Bulk Modulus (GPa) = 60.70070 61.98451 61.34260
# Shear Modulus (GPa) = 3.33039 19.65817 11.49428
#
# Velocity S-wave (km/s) = 1.38174 3.35700 2.56697
# Velocity P-wave (km/s) = 6.11094 7.11054 6.62961
#
# Compressibility (1/GPa) = 0.01647427
#
# Stress axis : x y z
#
# Youngs Moduli (GPa) = 75.32077 50.06991 78.69012
#
# Poissons Ratio (x) = 0.28560 0.18858
# Poissons Ratio (y) = 0.42963 0.52256
# Poissons Ratio (z) = 0.18051 0.33250
#
# Static dielectric constant tensor:
#      x y z
#    x 3.314020 0.000000 0.000000 
#    y 0.000000 3.113750 0.000000 
#    z 0.000000 0.000000 3.651590 
# 
# 
# High freq. dielectric constant tensor:
#      x y z
#    x 1.667170 0.000000 0.000000 
#    y 0.000000 1.644740 0.000000 
#    z 0.000000 0.000000 1.693490 
# 
# From -- ./inp_files/2917.got.cif
#   From: 2010.03.12/outbox.cif.g09.slc.cpg/sg49_2_cif.got.tgz:2917.got - 2010.04.14 03:58:27.
