data_PCOD8202963
_publ_section_title
;
Structure prediction by ZEFSAII (Michael W. Deem and Ramdas Pophale) SiO2 
 PCOD8202963
Probable space group: P C C M
;
_chemical_formula_sum "Si O2"
_cell_formula_units_Z 64
_cell_length_a 19.442414
_cell_length_b 19.344901
_cell_length_c 9.063978
_cell_angle_alpha 90.000000
_cell_angle_beta 90.000000
_cell_angle_gamma 90.000000
_cell_volume 3409.067033
_symmetry_space_group_name_H-M "P C C M"
_symmetry_group_IT_number 49
_symmetry_cell_setting 'orthorhombic'
loop_
_space_group_symop_operation_xyz
x,y,z
-x,-y,z
x,-y,1/2-z
-x,y,1/2-z
-x,-y,-z
x,y,-z
-x,y,1/2+z
x,-y,1/2+z
loop_
_atom_site_type_symbol
_atom_site_label
_atom_site_fract_x
_atom_site_fract_y
_atom_site_fract_z
Si Si1 0.682522 0.568054 0.666786
Si Si2 0.308296 0.287133 0.828892
Si Si3 0.219571 0.823990 0.171260
Si Si4 0.067327 0.833326 0.827501
Si Si5 0.657582 0.927413 0.672436
Si Si6 0.843394 0.562208 0.660910
Si Si7 0.064642 0.677770 0.172719
Si Si8 0.430911 0.181031 0.829047
O O1 0.650403 0.500000 0.750000
O O2 0.651531 0.572988 0.500000
O O3 0.671943 0.639880 0.753387
O O4 0.762720 0.555869 0.656527
O O5 0.243710 0.245839 0.756652
O O6 0.375988 0.241442 0.809168
O O7 0.290645 0.300619 0.000000
O O8 0.144981 0.856890 0.219025
O O9 0.272959 0.884897 0.199770
O O10 0.215362 0.801413 0.000000
O O11 0.071266 0.755172 0.769594
O O12 0.000000 0.869446 0.750000
O O13 0.055331 0.843746 0.000000
O O14 0.641723 0.937003 0.500000
O O15 0.593971 0.888668 0.748570
O O16 0.668479 0.000000 0.750000
O O17 0.877018 0.500000 0.750000
O O18 0.875862 0.554999 0.500000
O O19 0.867154 0.636372 0.723996
O O20 0.000000 0.641056 0.250000
O O21 0.053229 0.679294 0.000000
O O22 0.500000 0.206848 0.750000
O O23 0.444602 0.164454 0.000000
#
# Coordination Sequence:
#
# PCOD8202963 Si02
#       8
#     8   8   8   8   8   8   8   8
#     4  10  19  32  50  71  97 129 167 212 263 314
#     4  10  20  33  52  79 107 135 172 217 262 310
#     4   9  18  33  53  75 102 138 176 215 262 315
#     4   9  17  30  47  68  93 122 161 209 261 312
#     4  10  20  35  56  82 112 145 179 214 255 302
#     4   9  18  30  42  57  79 110 148 192 241 295
#     4   9  17  28  40  55  78 108 144 188 239 295
#     4  10  21  37  57  83 114 145 178 213 250 299
#
# _framework density 18.773465000000002
#
# number of rings (size 3 to 8) (size 9 to 14) (size 15 to 20)
#    0.000    2.500    0.000    2.250    0.000    6.000 
#    0.000    5.000    0.000    0.750    0.000    5.250 
#    0.000    0.000    0.000    0.000    0.000    0.000 
#
# Total GULP energy -792926.658711 kJ/mol
# GULP energy per Si atom -12389.479042 kJ/mol
# Density = 1.873074 g / cm^3
# Si number density = 18.773465 Si / 1000 Ang^3
#
#
#
# Elastic Constant Matrix: (Units=GPa)
#
#
# Indices 1 2 3 4 5 6 
#
# 1 72.9510 6.5291 31.2077 0.0000 0.0000 0.0000
# 2 6.5291 82.9568 47.1483 0.0000 0.0000 0.0000
# 3 31.2077 47.1483 99.3996 0.0000 0.0000 0.0000
# 4 0.0000 0.0000 0.0000 -44.1529 0.0000 0.0000
# 5 0.0000 0.0000 0.0000 0.0000 26.3678 0.0000
# 6 0.0000 0.0000 0.0000 0.0000 0.0000 15.5659
#
#
#
# Elastic Compliance Matrix: (Units=1/GPa)
#
#
# Indices 1 2 3 4 5 6 
#
# 1 0.016123 0.002202 -0.006106 0.000000 0.000000 0.000000
# 2 0.002202 0.016804 -0.008662 0.000000 0.000000 0.000000
# 3 -0.006106 -0.008662 0.016086 0.000000 0.000000 0.000000
# 4 0.000000 0.000000 0.000000 -0.022649 0.000000 0.000000
# 5 0.000000 0.000000 0.000000 0.000000 0.037925 0.000000
# 6 0.000000 0.000000 0.000000 0.000000 0.000000 0.064243
#
#
# Mechanical properties :
#
#
# Convention : Reuss Voigt Hill
#
# Bulk Modulus (GPa) = 41.87607 47.23084 44.55345
# Shear Modulus (GPa) = 30.93556 10.91764 20.92660
#
# Velocity S-wave (km/s) = 4.06376 2.41414 3.34232
# Velocity P-wave (km/s) = 6.66132 5.74314 6.21920
#
# Compressibility (1/GPa) = 0.02387999
#
# Stress axis : x y z
#
# Youngs Moduli (GPa) = 62.02326 59.50898 62.16525
#
# Poissons Ratio (x) = -0.13101 0.37960
# Poissons Ratio (y) = -0.13654 0.53847
# Poissons Ratio (z) = 0.37873 0.51546
#
# Static dielectric constant tensor:
#      x y z
#    x 3.564450 0.000000 0.000000 
#    y 0.000000 3.359500 0.000000 
#    z 0.000000 0.000000 3.733340 
# 
# 
# High freq. dielectric constant tensor:
#      x y z
#    x 1.717560 0.000000 0.000000 
#    y 0.000000 1.713090 0.000000 
#    z 0.000000 0.000000 1.733310 
# 
# From -- ./inp_files/5997.got.cif
#   From: 2010.03.12/outbox.cif.g09.slc.cpg/sg49_3_cif.got.tgz:5997.got - 2010.04.14 03:58:27.
