data_PCOD8202737
_publ_section_title
;
Structure prediction by ZEFSAII (Michael W. Deem and Ramdas Pophale) SiO2 
 PCOD8202737
Probable space group: P C C M
;
_chemical_formula_sum "Si O2"
_cell_formula_units_Z 64
_cell_length_a 25.933467
_cell_length_b 18.362419
_cell_length_c 8.830506
_cell_angle_alpha 90.000000
_cell_angle_beta 90.000000
_cell_angle_gamma 90.000000
_cell_volume 4205.097441
_symmetry_space_group_name_H-M "P C C M"
_symmetry_group_IT_number 49
_symmetry_cell_setting 'orthorhombic'
loop_
_space_group_symop_operation_xyz
x,y,z
-x,-y,z
x,-y,1/2-z
-x,y,1/2-z
-x,-y,-z
x,y,-z
-x,y,1/2+z
x,-y,1/2+z
loop_
_atom_site_type_symbol
_atom_site_label
_atom_site_fract_x
_atom_site_fract_y
_atom_site_fract_z
Si Si1 0.748173 0.921562 0.676936
Si Si2 0.643378 0.837960 0.674897
Si Si3 0.246204 0.576924 0.679058
Si Si4 0.052914 0.423764 0.676671
Si Si5 0.801472 0.795284 0.830804
Si Si6 0.693689 0.713236 0.167664
Si Si7 0.554329 0.076730 0.320446
Si Si8 0.154177 0.337218 0.323693
O O1 0.757428 0.928126 0.500000
O O2 0.692297 0.888055 0.713864
O O3 0.793654 0.871646 0.744832
O O4 0.751586 0.000000 0.750000
O O5 0.627712 0.843233 0.500000
O O6 0.655677 0.753761 0.715581
O O7 0.596256 0.862929 0.778930
O O8 0.260782 0.500000 0.750000
O O9 0.238988 0.570390 0.500000
O O10 0.294164 0.630619 0.719459
O O11 0.192816 0.606165 0.745853
O O12 0.070056 0.500000 0.750000
O O13 0.044215 0.436996 0.500000
O O14 0.096383 0.363787 0.707599
O O15 0.000000 0.394745 0.750000
O O16 0.747964 0.753406 0.836418
O O17 0.842117 0.744298 0.743276
O O18 0.821997 0.810791 0.000000
O O19 0.668678 0.714932 0.000000
O O20 0.500000 0.101145 0.250000
O O21 0.549190 0.068825 0.500000
O O22 0.572182 0.000000 0.250000
O O23 0.167997 0.334766 0.500000
#
# Coordination Sequence:
#
# PCOD8202737 Si02
#       8
#     8   8   8   8   8   8   8   8
#     4  10  19  29  43  63  88 116 146 179 212 252
#     4  10  19  30  45  64  85 113 146 177 213 253
#     4  10  19  29  43  63  87 115 146 178 213 254
#     4  10  20  31  44  61  83 111 143 180 216 252
#     4   9  17  29  44  61  83 111 142 176 213 253
#     4   8  16  29  42  59  83 111 142 175 210 249
#     4  11  21  33  47  63  86 113 144 181 216 251
#     4  10  19  30  44  62  84 112 145 178 215 256
#
# _framework density 15.219623
#
# number of rings (size 3 to 8) (size 9 to 14) (size 15 to 20)
#    0.000    2.250    0.000    5.625    0.000    9.000 
#    0.000    0.000    0.000    0.000    0.000    0.000 
#    0.000    1.000    0.000   10.500    0.000    5.750 
#
# Total GULP energy -793576.398888 kJ/mol
# GULP energy per Si atom -12399.631233 kJ/mol
# Density = 1.518498 g / cm^3
# Si number density = 15.219623 Si / 1000 Ang^3
#
#
#
# Elastic Constant Matrix: (Units=GPa)
#
#
# Indices 1 2 3 4 5 6 
#
# 1 65.1512 47.1977 49.4576 0.0000 0.0000 0.0000
# 2 47.1977 114.1213 59.5432 0.0000 0.0000 0.0000
# 3 49.4576 59.5432 116.6208 0.0000 0.0000 0.0000
# 4 0.0000 0.0000 0.0000 29.3691 0.0000 0.0000
# 5 0.0000 0.0000 0.0000 0.0000 21.7100 0.0000
# 6 0.0000 0.0000 0.0000 0.0000 0.0000 21.7707
#
#
#
# Elastic Compliance Matrix: (Units=1/GPa)
#
#
# Indices 1 2 3 4 5 6 
#
# 1 0.026025 -0.006822 -0.007554 0.000000 0.000000 0.000000
# 2 -0.006822 0.013733 -0.004118 0.000000 0.000000 0.000000
# 3 -0.007554 -0.004118 0.013881 0.000000 0.000000 0.000000
# 4 0.000000 0.000000 0.000000 0.034049 0.000000 0.000000
# 5 0.000000 0.000000 0.000000 0.000000 0.046062 0.000000
# 6 0.000000 0.000000 0.000000 0.000000 0.000000 0.045933
#
#
# Mechanical properties :
#
#
# Convention : Reuss Voigt Hill
#
# Bulk Modulus (GPa) = 60.05852 67.58780 63.82316
# Shear Modulus (GPa) = 22.49994 23.88296 23.19145
#
# Velocity S-wave (km/s) = 3.84910 3.96564 3.90781
# Velocity P-wave (km/s) = 7.70072 8.09155 7.89855
#
# Compressibility (1/GPa) = 0.01665043
#
# Stress axis : x y z
#
# Youngs Moduli (GPa) = 38.42391 72.81793 72.04063
#
# Poissons Ratio (x) = 0.49678 0.54419
# Poissons Ratio (y) = 0.26214 0.29669
# Poissons Ratio (z) = 0.29025 0.29989
#
# Static dielectric constant tensor:
#      x y z
#    x 2.709650 0.000000 0.000000 
#    y 0.000000 3.027070 0.000000 
#    z 0.000000 0.000000 3.125400 
# 
# 
# High freq. dielectric constant tensor:
#      x y z
#    x 1.545670 0.000000 0.000000 
#    y 0.000000 1.573830 0.000000 
#    z 0.000000 0.000000 1.604880 
# 
# From -- ./inp_files/5415.got.cif
#   From: 2010.03.12/outbox.cif.g09.slc.cpg/sg49_3_cif.got.tgz:5415.got - 2010.04.14 03:58:27.
