data_PCOD8202858
_publ_section_title
;
Structure prediction by ZEFSAII (Michael W. Deem and Ramdas Pophale) SiO2 
 PCOD8202858
Probable space group: P C C M
;
_chemical_formula_sum "Si O2"
_cell_formula_units_Z 64
_cell_length_a 11.683038
_cell_length_b 17.157021
_cell_length_c 17.808528
_cell_angle_alpha 90.000000
_cell_angle_beta 90.000000
_cell_angle_gamma 90.000000
_cell_volume 3569.650488
_symmetry_space_group_name_H-M "P C C M"
_symmetry_group_IT_number 49
_symmetry_cell_setting 'orthorhombic'
loop_
_space_group_symop_operation_xyz
x,y,z
-x,-y,z
x,-y,1/2-z
-x,y,1/2-z
-x,-y,-z
x,y,-z
-x,y,1/2+z
x,-y,1/2+z
loop_
_atom_site_type_symbol
_atom_site_label
_atom_site_fract_x
_atom_site_fract_y
_atom_site_fract_z
Si Si1 0.110989 0.549406 0.412978
Si Si2 0.466850 0.675679 0.918482
Si Si3 0.869556 0.714010 0.836865
Si Si4 0.498074 0.908446 0.836787
Si Si5 0.694460 0.823232 0.417357
Si Si6 0.344151 0.784806 0.589991
Si Si7 0.130045 0.728500 0.164706
Si Si8 0.742236 0.593062 0.587987
O O1 0.098125 0.574163 0.500000
O O2 0.131806 0.624562 0.362746
O O3 0.223420 0.496363 0.399404
O O4 0.000000 0.500000 0.387398
O O5 0.379602 0.746464 0.926975
O O6 0.579975 0.710602 0.877961
O O7 0.387638 0.608852 0.878538
O O8 0.506439 0.644448 0.000000
O O9 0.785607 0.769259 0.885125
O O10 0.831895 0.718513 0.750720
O O11 0.996756 0.746832 0.846304
O O12 0.500000 0.884436 0.750000
O O13 0.376558 0.886538 0.871838
O O14 0.605453 0.865348 0.876945
O O15 0.500000 0.000000 0.849008
O O16 0.727016 0.855877 0.500000
O O17 0.808342 0.803335 0.370851
O O18 0.353555 0.789321 0.500000
O O19 0.161226 0.647795 0.124076
O O20 0.740244 0.613941 0.500000
#
# Coordination Sequence:
#
# PCOD8202858 Si02
#       8
#     8   8   8   8   8   8   8   8
#     4  10  19  31  48  71  98 132 179 232 281 327
#     4   7  13  27  47  70  94 126 167 210 259 308
#     4  11  22  33  47  73 107 140 178 227 285 331
#     4  10  20  35  58  88 118 144 169 207 262 319
#     4   9  17  31  54  79 103 136 181 221 252 307
#     4  10  20  34  53  78 109 142 177 221 267 318
#     4  10  20  33  49  73 101 138 181 222 275 329
#     4   9  16  30  50  69  94 129 176 229 272 320
#
# _framework density 17.928926000000001
#
# number of rings (size 3 to 8) (size 9 to 14) (size 15 to 20)
#    0.000    2.500    1.250    3.375    0.000    3.000 
#    0.000    0.625    0.000    3.750    0.000   10.500 
#    0.000    0.000    0.000    0.000    0.000    0.000 
#
# Total GULP energy -793007.268723 kJ/mol
# GULP energy per Si atom -12390.738574 kJ/mol
# Density = 1.788812 g / cm^3
# Si number density = 17.928926 Si / 1000 Ang^3
#
#
#
# Elastic Constant Matrix: (Units=GPa)
#
#
# Indices 1 2 3 4 5 6 
#
# 1 91.6707 45.2696 51.7299 0.0000 0.0000 0.0000
# 2 45.2696 77.1531 51.0264 0.0000 0.0000 0.0000
# 3 51.7299 51.0264 109.0668 0.0000 0.0000 0.0000
# 4 0.0000 0.0000 0.0000 18.8526 0.0000 0.0000
# 5 0.0000 0.0000 0.0000 0.0000 27.4279 0.0000
# 6 0.0000 0.0000 0.0000 0.0000 0.0000 24.8684
#
#
#
# Elastic Compliance Matrix: (Units=1/GPa)
#
#
# Indices 1 2 3 4 5 6 
#
# 1 0.017005 -0.006724 -0.004920 0.000000 0.000000 0.000000
# 2 -0.006724 0.021427 -0.006835 0.000000 0.000000 0.000000
# 3 -0.004920 -0.006835 0.014700 0.000000 0.000000 0.000000
# 4 0.000000 0.000000 0.000000 0.053043 0.000000 0.000000
# 5 0.000000 0.000000 0.000000 0.000000 0.036459 0.000000
# 6 0.000000 0.000000 0.000000 0.000000 0.000000 0.040212
#
#
# Mechanical properties :
#
#
# Convention : Reuss Voigt Hill
#
# Bulk Modulus (GPa) = 61.82720 63.77139 62.79929
# Shear Modulus (GPa) = 22.20279 22.88742 22.54510
#
# Velocity S-wave (km/s) = 3.52288 3.57678 3.54993
# Velocity P-wave (km/s) = 7.14892 7.25975 7.20455
#
# Compressibility (1/GPa) = 0.01617411
#
# Stress axis : x y z
#
# Youngs Moduli (GPa) = 58.80477 46.66924 68.02706
#
# Poissons Ratio (x) = 0.31381 0.33467
# Poissons Ratio (y) = 0.39542 0.46500
# Poissons Ratio (z) = 0.28930 0.31901
#
# Static dielectric constant tensor:
#      x y z
#    x 3.695630 0.000000 0.000000 
#    y 0.000000 3.117240 0.000000 
#    z 0.000000 0.000000 3.354090 
# 
# 
# High freq. dielectric constant tensor:
#      x y z
#    x 1.695010 0.000000 0.000000 
#    y 0.000000 1.662600 0.000000 
#    z 0.000000 0.000000 1.689210 
# 
# From -- ./inp_files/13078.got.cif
#   From: 2010.03.12/outbox.cif.g09.slc.cpg/sg49_7_cif.got.tgz:13078.got - 2010.04.14 03:58:27.
