data_PCOD8202745
_publ_section_title
;
Structure prediction by ZEFSAII (Michael W. Deem and Ramdas Pophale) SiO2 
 PCOD8202745
Probable space group: P C C M
;
_chemical_formula_sum "Si O2"
_cell_formula_units_Z 58
_cell_length_a 22.428067
_cell_length_b 17.704488
_cell_length_c 9.110014
_cell_angle_alpha 90.000000
_cell_angle_beta 90.000000
_cell_angle_gamma 90.000000
_cell_volume 3617.381065
_symmetry_space_group_name_H-M "P C C M"
_symmetry_group_IT_number 49
_symmetry_cell_setting 'orthorhombic'
loop_
_space_group_symop_operation_xyz
x,y,z
-x,-y,z
x,-y,1/2-z
-x,y,1/2-z
-x,-y,-z
x,y,-z
-x,y,1/2+z
x,-y,1/2+z
loop_
_atom_site_type_symbol
_atom_site_label
_atom_site_fract_x
_atom_site_fract_y
_atom_site_fract_z
Si Si1 0.500000 0.500000 0.750000
Si Si2 0.445610 0.353956 0.837980
Si Si3 0.166537 0.922191 0.669897
Si Si4 0.787478 0.578626 0.172138
Si Si5 0.317544 0.305566 0.171409
Si Si6 0.059451 0.806694 0.670316
Si Si7 0.243154 0.190936 0.665578
Si Si8 0.135499 0.692243 0.166609
O O1 0.456471 0.445098 0.844134
O O2 0.500000 0.314522 0.750000
O O3 0.381545 0.334104 0.768040
O O4 0.447327 0.320321 0.000000
O O5 0.181004 0.936448 0.500000
O O6 0.108275 0.871393 0.690277
O O7 0.224096 0.882869 0.743159
O O8 0.152836 0.000000 0.750000
O O9 0.775300 0.500000 0.250000
O O10 0.729105 0.628165 0.202298
O O11 0.845222 0.617294 0.245855
O O12 0.799743 0.567633 0.000000
O O13 0.300266 0.229637 0.258425
O O14 0.318989 0.285756 0.000000
O O15 0.047053 0.789903 0.500000
O O16 0.080005 0.729236 0.748367
O O17 0.000000 0.835997 0.750000
O O18 0.259822 0.167047 0.500000
O O19 0.189480 0.249551 0.666610
O O20 0.116936 0.671478 0.000000
#
# Coordination Sequence:
#
# PCOD8202745 Si02
#       8
#     2   8   8   8   8   8   8   8
#     4   8  18  28  42  56  86 124 164 196 240 280
#     4   9  18  29  42  59  85 121 160 197 236 278
#     4  10  20  33  50  72 100 130 154 184 223 268
#     4  10  19  29  44  65  89 115 148 191 239 284
#     4   9  18  31  44  63  90 122 157 196 237 279
#     4  10  20  33  50  71  94 123 157 188 221 261
#     4   9  17  30  48  69  90 118 154 191 229 274
#     4   9  17  31  48  65  88 116 149 188 231 275
#
# _framework density 16.033698999999999
#
# number of rings (size 3 to 8) (size 9 to 14) (size 15 to 20)
#    0.414    2.207    0.000    2.276    0.966    6.345 
#    0.000    1.379    0.000    0.414    0.000    2.897 
#    0.000    0.552    0.000    5.793    0.000    3.172 
#
# Total GULP energy -718971.716076 kJ/mol
# GULP energy per Si atom -12396.064070 kJ/mol
# Density = 1.599721 g / cm^3
# Si number density = 16.033699 Si / 1000 Ang^3
#
#
#
# Elastic Constant Matrix: (Units=GPa)
#
#
# Indices 1 2 3 4 5 6 
#
# 1 80.9392 44.2290 50.4539 0.0000 0.0000 0.0000
# 2 44.2290 55.7122 53.6125 0.0000 0.0000 0.0000
# 3 50.4539 53.6125 127.0288 0.0000 0.0000 0.0000
# 4 0.0000 0.0000 0.0000 29.4620 0.0000 0.0000
# 5 0.0000 0.0000 0.0000 0.0000 25.9395 0.0000
# 6 0.0000 0.0000 0.0000 0.0000 0.0000 14.7068
#
#
#
# Elastic Compliance Matrix: (Units=1/GPa)
#
#
# Indices 1 2 3 4 5 6 
#
# 1 0.022222 -0.015404 -0.002325 0.000000 0.000000 0.000000
# 2 -0.015404 0.040903 -0.011145 0.000000 0.000000 0.000000
# 3 -0.002325 -0.011145 0.013499 0.000000 0.000000 0.000000
# 4 0.000000 0.000000 0.000000 0.033942 0.000000 0.000000
# 5 0.000000 0.000000 0.000000 0.000000 0.038551 0.000000
# 6 0.000000 0.000000 0.000000 0.000000 0.000000 0.067996
#
#
# Mechanical properties :
#
#
# Convention : Reuss Voigt Hill
#
# Bulk Modulus (GPa) = 52.97590 62.25233 57.61412
# Shear Modulus (GPa) = 17.78387 21.71398 19.74892
#
# Velocity S-wave (km/s) = 3.33401 3.68403 3.51338
# Velocity P-wave (km/s) = 6.92336 7.55026 7.24359
#
# Compressibility (1/GPa) = 0.01887651
#
# Stress axis : x y z
#
# Youngs Moduli (GPa) = 45.00098 24.44780 74.07785
#
# Poissons Ratio (x) = 0.37660 0.17221
# Poissons Ratio (y) = 0.69321 0.82559
# Poissons Ratio (z) = 0.10462 0.27247
#
# Static dielectric constant tensor:
#      x y z
#    x 2.968820 0.000000 0.000000 
#    y 0.000000 2.846600 0.000000 
#    z 0.000000 0.000000 3.187390 
# 
# 
# High freq. dielectric constant tensor:
#      x y z
#    x 1.595900 0.000000 0.000000 
#    y 0.000000 1.588470 0.000000 
#    z 0.000000 0.000000 1.631720 
# 
# From -- ./inp_files/4276.got.cif
#   From: 2010.03.12/outbox.cif.g09.slc.cpg/sg49_3_cif.got.tgz:4276.got - 2010.04.14 03:58:27.
