data_PCOD8202626
_publ_section_title
;
Structure prediction by ZEFSAII (Michael W. Deem and Ramdas Pophale) SiO2 
 PCOD8202626
Probable space group: P C C M
;
_chemical_formula_sum "Si O2"
_cell_formula_units_Z 64
_cell_length_a 20.132330
_cell_length_b 19.732770
_cell_length_c 9.004570
_cell_angle_alpha 90.000000
_cell_angle_beta 90.000000
_cell_angle_gamma 90.000000
_cell_volume 3577.215246
_symmetry_space_group_name_H-M "P C C M"
_symmetry_group_IT_number 49
_symmetry_cell_setting 'orthorhombic'
loop_
_space_group_symop_operation_xyz
x,y,z
-x,-y,z
x,-y,1/2-z
-x,y,1/2-z
-x,-y,-z
x,y,-z
-x,y,1/2+z
x,-y,1/2+z
loop_
_atom_site_type_symbol
_atom_site_label
_atom_site_fract_x
_atom_site_fract_y
_atom_site_fract_z
Si Si1 0.744501 0.285157 0.175866
Si Si2 0.564945 0.886401 0.168323
Si Si3 0.070113 0.930159 0.676996
Si Si4 0.608808 0.736520 0.170846
Si Si5 0.184355 0.173667 0.826826
Si Si6 0.435760 0.393374 0.675015
Si Si7 0.289710 0.434092 0.327501
Si Si8 0.705662 0.932666 0.175503
O O1 0.681286 0.253254 0.258218
O O2 0.809478 0.244271 0.234347
O O3 0.749326 0.365301 0.217329
O O4 0.735831 0.276823 0.000000
O O5 0.500000 0.914599 0.250000
O O6 0.568555 0.805752 0.181475
O O7 0.631686 0.918646 0.237725
O O8 0.558644 0.909988 0.000000
O O9 0.063818 0.940563 0.500000
O O10 0.118174 0.867526 0.715855
O O11 0.000000 0.911437 0.750000
O O12 0.097215 0.000000 0.750000
O O13 0.566599 0.682808 0.263627
O O14 0.617063 0.713172 0.000000
O O15 0.247084 0.128754 0.778975
O O16 0.184933 0.191808 0.000000
O O17 0.500000 0.429846 0.750000
O O18 0.445773 0.391632 0.500000
O O19 0.367178 0.429583 0.720753
O O20 0.257563 0.500000 0.250000
O O21 0.283715 0.446709 0.500000
O O22 0.734453 0.000000 0.250000
O O23 0.706518 0.941578 0.000000
#
# Coordination Sequence:
#
# PCOD8202626 Si02
#       8
#     8   8   8   8   8   8   8   8
#     4  10  20  33  52  78 103 127 165 214 255 302
#     4  10  21  34  48  64  88 117 155 207 258 312
#     4  10  20  34  55  82 117 155 188 221 256 305
#     4  10  18  32  50  67  91 123 156 203 261 313
#     4  10  20  36  56  78 106 139 177 215 254 303
#     4  10  20  32  45  67  93 119 159 205 253 315
#     4   9  20  35  49  69  97 128 164 206 256 314
#     4  10  21  37  51  69  94 123 164 210 256 307
#
# _framework density 17.891013000000001
#
# number of rings (size 3 to 8) (size 9 to 14) (size 15 to 20)
#    0.000    2.125    1.250    3.375    0.000    7.500 
#    0.000    2.500    0.000    0.000    0.000    0.000 
#    0.000    0.500    0.000    5.500    0.000    4.000 
#
# Total GULP energy -793424.292642 kJ/mol
# GULP energy per Si atom -12397.254573 kJ/mol
# Density = 1.785029 g / cm^3
# Si number density = 17.891013 Si / 1000 Ang^3
#
#
#
# Elastic Constant Matrix: (Units=GPa)
#
#
# Indices 1 2 3 4 5 6 
#
# 1 76.4414 42.2455 31.4887 0.0000 0.0000 0.0000
# 2 42.2455 105.6167 41.1352 0.0000 0.0000 0.0000
# 3 31.4887 41.1352 62.3324 0.0000 0.0000 0.0000
# 4 0.0000 0.0000 0.0000 27.1600 0.0000 0.0000
# 5 0.0000 0.0000 0.0000 0.0000 22.4044 0.0000
# 6 0.0000 0.0000 0.0000 0.0000 0.0000 14.1941
#
#
#
# Elastic Compliance Matrix: (Units=1/GPa)
#
#
# Indices 1 2 3 4 5 6 
#
# 1 0.018294 -0.005004 -0.005939 0.000000 0.000000 0.000000
# 2 -0.005004 0.014113 -0.006785 0.000000 0.000000 0.000000
# 3 -0.005939 -0.006785 0.023521 0.000000 0.000000 0.000000
# 4 0.000000 0.000000 0.000000 0.036819 0.000000 0.000000
# 5 0.000000 0.000000 0.000000 0.000000 0.044634 0.000000
# 6 0.000000 0.000000 0.000000 0.000000 0.000000 0.070452
#
#
# Mechanical properties :
#
#
# Convention : Reuss Voigt Hill
#
# Bulk Modulus (GPa) = 48.85133 52.68102 50.76618
# Shear Modulus (GPa) = 19.99092 21.38644 20.68868
#
# Velocity S-wave (km/s) = 3.34634 3.46117 3.40424
# Velocity P-wave (km/s) = 6.50345 6.74406 6.62485
#
# Compressibility (1/GPa) = 0.02047027
#
# Stress axis : x y z
#
# Youngs Moduli (GPa) = 54.66249 70.85886 42.51484
#
# Poissons Ratio (x) = 0.35459 0.25251
# Poissons Ratio (y) = 0.27354 0.28848
# Poissons Ratio (z) = 0.32465 0.48080
#
# Static dielectric constant tensor:
#      x y z
#    x 3.150650 0.000000 0.000000 
#    y 0.000000 3.310850 0.000000 
#    z 0.000000 0.000000 3.285660 
# 
# 
# High freq. dielectric constant tensor:
#      x y z
#    x 1.655120 0.000000 0.000000 
#    y 0.000000 1.689970 0.000000 
#    z 0.000000 0.000000 1.696600 
# 
# From -- ./inp_files/6051.got.cif
#   From: 2010.03.12/outbox.cif.g09.slc.cpg/sg49_4_cif.got.tgz:6051.got - 2010.04.14 03:58:27.
