data_PCOD8202939
_publ_section_title
;
Structure prediction by ZEFSAII (Michael W. Deem and Ramdas Pophale) SiO2 
 PCOD8202939
Probable space group: P C C M
;
_chemical_formula_sum "Si O2"
_cell_formula_units_Z 52
_cell_length_a 5.096921
_cell_length_b 18.411103
_cell_length_c 31.394193
_cell_angle_alpha 90.000000
_cell_angle_beta 90.000000
_cell_angle_gamma 90.000000
_cell_volume 2946.029109
_symmetry_space_group_name_H-M "P C C M"
_symmetry_group_IT_number 49
_symmetry_cell_setting 'orthorhombic'
loop_
_space_group_symop_operation_xyz
x,y,z
-x,-y,z
x,-y,1/2-z
-x,y,1/2-z
-x,-y,-z
x,y,-z
-x,y,1/2+z
x,-y,1/2+z
loop_
_atom_site_type_symbol
_atom_site_label
_atom_site_fract_x
_atom_site_fract_y
_atom_site_fract_z
Si Si1 0.599644 0.801450 0.297103
Si Si2 0.881557 0.268882 0.331033
Si Si3 0.467825 0.584279 0.449976
Si Si4 0.957559 0.630232 0.597532
Si Si5 0.000000 0.500000 0.840999
Si Si6 0.747526 0.594868 0.220977
Si Si7 0.746797 0.032975 0.202458
O O1 0.500000 0.781820 0.250000
O O2 0.346662 0.793902 0.329262
O O3 0.728661 0.880844 0.297942
O O4 0.844109 0.750193 0.308490
O O5 0.958456 0.294719 0.378924
O O6 0.729174 0.332253 0.306446
O O7 0.500000 0.500000 0.437009
O O8 0.492935 0.594998 0.500000
O O9 0.181555 0.608477 0.435493
O O10 0.685292 0.636454 0.428233
O O11 0.899341 0.567729 0.631845
O O12 0.239605 0.473458 0.811221
O O13 0.500000 0.584881 0.250000
O O14 0.000000 0.597203 0.250000
O O15 0.500000 0.000000 0.177219
O O16 0.748014 0.000000 0.250000
O O17 0.000000 0.000000 0.178482
#
# Coordination Sequence:
#
# PCOD8202939 Si02
#       7
#     8   8   8   8   4   8   8
#     4  12  21  35  54  73 105 139 191 236 260 301
#     4  11  24  35  53  74  99 146 173 220 283 316
#     4  11  21  36  62  86 101 127 165 218 276 332
#     4  11  22  40  53  78 109 129 173 210 278 342
#     4  10  23  36  55  66  92 138 158 228 285 308
#     4  11  23  38  48  66  90 121 187 225 267 305
#     4  10  19  32  48  76  97 131 175 233 271 300
#
# _framework density 17.650877000000001
#
# number of rings (size 3 to 8) (size 9 to 14) (size 15 to 20)
#    0.000    1.077    3.077    5.308    2.154    7.385 
#    0.000    2.308    0.000    0.000    0.000    0.000 
#    0.000    0.000    0.000    0.000    0.000  193.846 
#
# Total GULP energy -644479.002444 kJ/mol
# GULP energy per Si atom -12393.826970 kJ/mol
# Density = 1.761070 g / cm^3
# Si number density = 17.650877 Si / 1000 Ang^3
#
#
#
# Elastic Constant Matrix: (Units=GPa)
#
#
# Indices 1 2 3 4 5 6 
#
# 1 137.0980 26.4211 31.9652 0.0000 0.0000 0.0000
# 2 26.4211 69.0264 26.6706 0.0000 0.0000 0.0000
# 3 31.9652 26.6706 63.6547 0.0000 0.0000 0.0000
# 4 0.0000 0.0000 0.0000 10.8343 0.0000 0.0000
# 5 0.0000 0.0000 0.0000 0.0000 21.5367 0.0000
# 6 0.0000 0.0000 0.0000 0.0000 0.0000 31.5242
#
#
#
# Elastic Compliance Matrix: (Units=1/GPa)
#
#
# Indices 1 2 3 4 5 6 
#
# 1 0.008467 -0.001907 -0.003453 0.000000 0.000000 0.000000
# 2 -0.001907 0.017715 -0.006465 0.000000 0.000000 0.000000
# 3 -0.003453 -0.006465 0.020152 0.000000 0.000000 0.000000
# 4 0.000000 0.000000 0.000000 0.092300 0.000000 0.000000
# 5 0.000000 0.000000 0.000000 0.000000 0.046432 0.000000
# 6 0.000000 0.000000 0.000000 0.000000 0.000000 0.031722
#
#
# Mechanical properties :
#
#
# Convention : Reuss Voigt Hill
#
# Bulk Modulus (GPa) = 44.08158 48.87701 46.47929
# Shear Modulus (GPa) = 20.16145 25.09384 22.62764
#
# Velocity S-wave (km/s) = 3.38336 3.77460 3.58433
# Velocity P-wave (km/s) = 6.34754 6.83725 6.59694
#
# Compressibility (1/GPa) = 0.02268521
#
# Stress axis : x y z
#
# Youngs Moduli (GPa) = 118.11230 56.44953 49.62207
#
# Poissons Ratio (x) = 0.10763 0.17133
# Poissons Ratio (y) = 0.22520 0.32080
# Poissons Ratio (z) = 0.40781 0.36494
#
# Static dielectric constant tensor:
#      x y z
#    x 2.625270 0.000000 0.000000 
#    y 0.000000 3.275300 0.000000 
#    z 0.000000 0.000000 3.133760 
# 
# 
# High freq. dielectric constant tensor:
#      x y z
#    x 1.714890 0.000000 0.000000 
#    y 0.000000 1.660770 0.000000 
#    z 0.000000 0.000000 1.638820 
# 
# From -- ./inp_files/24039.got.cif
#   From: 2010.03.12/outbox.cif.g09.slc.cpg/sg49_13_cif.got.tgz:24039.got - 2010.04.14 03:58:27.
