data_PCOD8202437
_publ_section_title
;
Structure prediction by ZEFSAII (Michael W. Deem and Ramdas Pophale) SiO2 
 PCOD8202437
Probable space group: P C C M
;
_chemical_formula_sum "Si O2"
_cell_formula_units_Z 64
_cell_length_a 26.616926
_cell_length_b 18.397804
_cell_length_c 8.907922
_cell_angle_alpha 90.000000
_cell_angle_beta 90.000000
_cell_angle_gamma 90.000000
_cell_volume 4362.146938
_symmetry_space_group_name_H-M "P C C M"
_symmetry_group_IT_number 49
_symmetry_cell_setting 'orthorhombic'
loop_
_space_group_symop_operation_xyz
x,y,z
-x,-y,z
x,-y,1/2-z
-x,y,1/2-z
-x,-y,-z
x,y,-z
-x,y,1/2+z
x,-y,1/2+z
loop_
_atom_site_type_symbol
_atom_site_label
_atom_site_fract_x
_atom_site_fract_y
_atom_site_fract_z
Si Si1 0.842614 0.077167 0.325468
Si Si2 0.447901 0.342774 0.822441
Si Si3 0.645120 0.423529 0.821377
Si Si4 0.596147 0.786516 0.665363
Si Si5 0.296456 0.288003 0.664643
Si Si6 0.652997 0.076470 0.177461
Si Si7 0.952543 0.078618 0.324225
Si Si8 0.744408 0.841518 0.175789
O O1 0.838567 0.060696 0.500000
O O2 0.897519 0.112719 0.288602
O O3 0.800170 0.134180 0.274998
O O4 0.833359 0.000000 0.250000
O O5 0.500000 0.368301 0.750000
O O6 0.405737 0.394611 0.753427
O O7 0.438066 0.257720 0.782455
O O8 0.449429 0.352408 0.000000
O O9 0.659702 0.500000 0.750000
O O10 0.692229 0.370462 0.782067
O O11 0.636918 0.428688 0.000000
O O12 0.570436 0.783766 0.500000
O O13 0.650160 0.750326 0.653603
O O14 0.606313 0.869597 0.717085
O O15 0.270860 0.287637 0.500000
O O16 0.261279 0.243329 0.778604
O O17 0.705245 0.106426 0.241351
O O18 0.639174 0.000000 0.250000
O O19 0.659492 0.068458 0.000000
O O20 0.962368 0.072645 0.500000
O O21 0.000000 0.122391 0.250000
O O22 0.951503 0.000000 0.250000
O O23 0.734988 0.849100 0.000000
#
# Coordination Sequence:
#
# PCOD8202437 Si02
#       8
#     8   8   8   8   8   8   8   8
#     4   9  18  27  35  51  75 102 133 174 215 248
#     4  11  21  33  50  69  88 110 134 159 191 229
#     4  10  20  34  50  69  91 111 134 161 189 222
#     4   8  16  31  46  61  82 106 132 162 195 232
#     4   8  16  30  45  61  83 108 131 159 192 228
#     4  10  19  29  42  60  82 105 130 164 203 240
#     4   9  15  24  35  47  65  91 128 170 212 251
#     4  10  18  27  40  58  80 106 136 166 200 242
#
# _framework density 14.671675
#
# number of rings (size 3 to 8) (size 9 to 14) (size 15 to 20)
#    0.000    2.625    0.000    4.875    0.000    8.250 
#    0.000    1.250    0.000    0.375    0.000    2.625 
#    0.000    0.000    0.000    0.000    0.000    0.625 
#
# Total GULP energy -793056.653001 kJ/mol
# GULP energy per Si atom -12391.510203 kJ/mol
# Density = 1.463828 g / cm^3
# Si number density = 14.671675 Si / 1000 Ang^3
#
#
#
# Elastic Constant Matrix: (Units=GPa)
#
#
# Indices 1 2 3 4 5 6 
#
# 1 54.9599 29.3664 28.5285 0.0000 0.0000 0.0000
# 2 29.3664 94.8047 36.6157 0.0000 0.0000 0.0000
# 3 28.5285 36.6157 79.6103 0.0000 0.0000 0.0000
# 4 0.0000 0.0000 0.0000 21.5743 0.0000 0.0000
# 5 0.0000 0.0000 0.0000 0.0000 25.2092 0.0000
# 6 0.0000 0.0000 0.0000 0.0000 0.0000 10.7812
#
#
#
# Elastic Compliance Matrix: (Units=1/GPa)
#
#
# Indices 1 2 3 4 5 6 
#
# 1 0.024183 -0.005039 -0.006348 0.000000 0.000000 0.000000
# 2 -0.005039 0.013876 -0.004577 0.000000 0.000000 0.000000
# 3 -0.006348 -0.004577 0.016941 0.000000 0.000000 0.000000
# 4 0.000000 0.000000 0.000000 0.046351 0.000000 0.000000
# 5 0.000000 0.000000 0.000000 0.000000 0.039668 0.000000
# 6 0.000000 0.000000 0.000000 0.000000 0.000000 0.092754
#
#
# Mechanical properties :
#
#
# Convention : Reuss Voigt Hill
#
# Bulk Modulus (GPa) = 43.34148 46.48844 44.91496
# Shear Modulus (GPa) = 18.28876 20.50392 19.39634
#
# Velocity S-wave (km/s) = 3.53446 3.74239 3.63991
# Velocity P-wave (km/s) = 6.80159 7.10131 6.95307
#
# Compressibility (1/GPa) = 0.02307258
#
# Stress axis : x y z
#
# Youngs Moduli (GPa) = 41.35176 72.06482 59.02819
#
# Poissons Ratio (x) = 0.36313 0.37473
# Poissons Ratio (y) = 0.20837 0.27015
# Poissons Ratio (z) = 0.26252 0.32981
#
# Static dielectric constant tensor:
#      x y z
#    x 3.193510 0.000000 0.000000 
#    y 0.000000 3.013600 0.000000 
#    z 0.000000 0.000000 2.980120 
# 
# 
# High freq. dielectric constant tensor:
#      x y z
#    x 1.535970 0.000000 0.000000 
#    y 0.000000 1.533600 0.000000 
#    z 0.000000 0.000000 1.575810 
# 
# From -- ./inp_files/6791.got.cif
#   From: 2010.03.12/outbox.cif.g09.slc.cpg/sg49_4_cif.got.tgz:6791.got - 2010.04.14 03:58:27.
