data_PCOD8202569
_publ_section_title
;
Structure prediction by ZEFSAII (Michael W. Deem and Ramdas Pophale) SiO2 
 PCOD8202569
Probable space group: P C C M
;
_chemical_formula_sum "Si O2"
_cell_formula_units_Z 48
_cell_length_a 19.406050
_cell_length_b 14.381520
_cell_length_c 10.251259
_cell_angle_alpha 90.000000
_cell_angle_beta 90.000000
_cell_angle_gamma 90.000000
_cell_volume 2861.008458
_symmetry_space_group_name_H-M "P C C M"
_symmetry_group_IT_number 49
_symmetry_cell_setting 'orthorhombic'
loop_
_space_group_symop_operation_xyz
x,y,z
-x,-y,z
x,-y,1/2-z
-x,y,1/2-z
-x,-y,-z
x,y,-z
-x,y,1/2+z
x,-y,1/2+z
loop_
_atom_site_type_symbol
_atom_site_label
_atom_site_fract_x
_atom_site_fract_y
_atom_site_fract_z
Si Si1 0.951823 0.897520 0.360728
Si Si2 0.943924 0.678454 0.352778
Si Si3 0.209067 0.289990 0.346268
Si Si4 0.425743 0.609674 0.000000
Si Si5 0.580187 0.388763 0.500000
Si Si6 0.796213 0.074641 0.852685
Si Si7 0.339849 0.610337 0.246660
O O1 0.986180 0.921735 0.500000
O O2 0.947762 0.788051 0.349498
O O3 0.877419 0.944030 0.353281
O O4 0.000000 0.940869 0.250000
O O5 0.959337 0.640638 0.500000
O O6 0.864325 0.660641 0.311395
O O7 0.000000 0.635383 0.250000
O O8 0.222537 0.301348 0.500000
O O9 0.215714 0.181199 0.307411
O O10 0.264662 0.344984 0.261434
O O11 0.502738 0.652197 0.000000
O O12 0.426944 0.499030 0.000000
O O13 0.386012 0.645787 0.126810
O O14 0.621794 0.352921 0.375027
O O15 0.762941 0.000000 0.750000
O O16 0.766696 0.058324 0.000000
O O17 0.331146 0.500000 0.250000
#
# Coordination Sequence:
#
# PCOD8202569 Si02
#       7
#     8   8   8   4   4   8   8
#     4   8  14  24  38  56  79 106 138 179 228 284
#     4   8  14  26  43  61  81 112 155 197 238 281
#     4   9  17  32  50  65  91 130 162 190 236 294
#     4   9  16  30  50  68 102 140 152 167 222 282
#     4   9  18  28  44  78 106 124 154 187 212 264
#     4   9  18  31  44  60  84 116 154 193 233 277
#     4  10  18  30  49  73 101 132 158 183 221 271
#
# _framework density 16.777301000000001
#
# number of rings (size 3 to 8) (size 9 to 14) (size 15 to 20)
#    0.000    3.167    0.833    2.500    0.000    3.000 
#    3.000    3.333    0.000    0.500    0.000    2.333 
#    0.000    4.000    0.000    0.000    0.000    0.000 
#
# Total GULP energy -594673.601418 kJ/mol
# GULP energy per Si atom -12389.033363 kJ/mol
# Density = 1.673911 g / cm^3
# Si number density = 16.777301 Si / 1000 Ang^3
#
#
#
# Elastic Constant Matrix: (Units=GPa)
#
#
# Indices 1 2 3 4 5 6 
#
# 1 120.4599 25.2032 64.5986 0.0000 0.0000 0.0000
# 2 25.2032 24.9570 21.9652 0.0000 0.0000 0.0000
# 3 64.5986 21.9652 133.5960 0.0000 0.0000 0.0000
# 4 0.0000 0.0000 0.0000 14.7083 0.0000 0.0000
# 5 0.0000 0.0000 0.0000 0.0000 28.8299 0.0000
# 6 0.0000 0.0000 0.0000 0.0000 0.0000 -1.3143
#
#
#
# Elastic Compliance Matrix: (Units=1/GPa)
#
#
# Indices 1 2 3 4 5 6 
#
# 1 0.012616 -0.008619 -0.004683 0.000000 0.000000 0.000000
# 2 -0.008619 0.052736 -0.004503 0.000000 0.000000 0.000000
# 3 -0.004683 -0.004503 0.010490 0.000000 0.000000 0.000000
# 4 0.000000 0.000000 0.000000 0.067989 0.000000 0.000000
# 5 0.000000 0.000000 0.000000 0.000000 0.034686 0.000000
# 6 0.000000 0.000000 0.000000 0.000000 0.000000 -0.760874
#
#
# Mechanical properties :
#
#
# Convention : Reuss Voigt Hill
#
# Bulk Modulus (GPa) = 24.85584 55.83856 40.34720
# Shear Modulus (GPa) = -9.37497 19.59450 5.10976
#
# Velocity S-wave (km/s) = -2.36644 3.42119 1.74707
# Velocity P-wave (km/s) = 2.71673 6.99718 5.30759
#
# Compressibility (1/GPa) = 0.04023199
#
# Stress axis : x y z
#
# Youngs Moduli (GPa) = 79.26224 18.96234 95.32679
#
# Poissons Ratio (x) = 0.16343 0.44645
# Poissons Ratio (y) = 0.68315 0.42926
# Poissons Ratio (z) = 0.37122 0.08539
#
# Static dielectric constant tensor:
#      x y z
#    x 3.177160 0.000000 0.000000 
#    y 0.000000 2.738050 0.000000 
#    z 0.000000 0.000000 3.548200 
# 
# 
# High freq. dielectric constant tensor:
#      x y z
#    x 1.627040 0.000000 0.000000 
#    y 0.000000 1.607340 0.000000 
#    z 0.000000 0.000000 1.653750 
# 
# From -- ./inp_files/5867.got.cif
#   From: 2010.03.12/outbox.cif.g09.slc.cpg/sg49_3_cif.got.tgz:5867.got - 2010.04.14 03:58:27.
