data_PCOD8202376
_publ_section_title
;
Structure prediction by ZEFSAII (Michael W. Deem and Ramdas Pophale) SiO2 
 PCOD8202376
Probable space group: P C C M
;
_chemical_formula_sum "Si O2"
_cell_formula_units_Z 64
_cell_length_a 14.879393
_cell_length_b 25.805385
_cell_length_c 8.878115
_cell_angle_alpha 90.000000
_cell_angle_beta 90.000000
_cell_angle_gamma 90.000000
_cell_volume 3408.916188
_symmetry_space_group_name_H-M "P C C M"
_symmetry_group_IT_number 49
_symmetry_cell_setting 'orthorhombic'
loop_
_space_group_symop_operation_xyz
x,y,z
-x,-y,z
x,-y,1/2-z
-x,y,1/2-z
-x,-y,-z
x,y,-z
-x,y,1/2+z
x,-y,1/2+z
loop_
_atom_site_type_symbol
_atom_site_label
_atom_site_fract_x
_atom_site_fract_y
_atom_site_fract_z
Si Si1 0.679164 0.547642 0.337806
Si Si2 0.909038 0.336089 0.821760
Si Si3 0.901806 0.844800 0.180496
Si Si4 0.900634 0.051194 0.818640
Si Si5 0.412661 0.627535 0.332587
Si Si6 0.217886 0.242883 0.321458
Si Si7 0.886007 0.451410 0.162842
Si Si8 0.592148 0.250234 0.672457
O O1 0.632499 0.500000 0.250000
O O2 0.632188 0.552933 0.500000
O O3 0.671988 0.602194 0.250785
O O4 0.782716 0.535567 0.359271
O O5 0.822936 0.299788 0.781255
O O6 0.897302 0.394934 0.756887
O O7 0.000000 0.312119 0.750000
O O8 0.919661 0.337208 0.000000
O O9 0.855742 0.896371 0.253880
O O10 0.840274 0.797321 0.227149
O O11 0.000000 0.835633 0.250000
O O12 0.908165 0.849891 0.000000
O O13 0.000000 0.051515 0.750000
O O14 0.851081 0.000000 0.750000
O O15 0.900901 0.050164 0.000000
O O16 0.500000 0.605558 0.250000
O O17 0.413822 0.606299 0.500000
O O18 0.408491 0.688478 0.325634
O O19 0.212507 0.232156 0.500000
O O20 0.320481 0.234450 0.267985
O O21 0.930910 0.500000 0.250000
O O22 0.933419 0.448644 0.000000
O O23 0.500000 0.229096 0.750000
O O24 0.597373 0.229512 0.500000
#
# Coordination Sequence:
#
# PCOD8202376 Si02
#       8
#     8   8   8   8   8   8   8   8
#     4  10  19  32  49  67  89 115 146 185 233 288
#     4  10  22  37  53  74 101 132 168 208 255 309
#     4  11  21  34  51  76 111 151 193 234 275 322
#     4  10  17  28  46  71 104 146 193 237 278 318
#     4  10  20  33  49  69  92 117 148 185 234 294
#     4  11  22  37  56  78 106 141 178 220 268 320
#     4   9  19  35  52  70  90 117 153 197 246 297
#     4  10  21  37  57  80 103 130 165 209 258 313
#
# _framework density 18.774294999999999
#
# number of rings (size 3 to 8) (size 9 to 14) (size 15 to 20)
#    0.000    1.875    0.000    6.000    0.000    6.000 
#    0.000    2.500    0.000    0.000    0.000    0.000 
#    0.000    0.500    0.000    5.000    0.000    3.000 
#
# Total GULP energy -793041.010903 kJ/mol
# GULP energy per Si atom -12391.265795 kJ/mol
# Density = 1.873156 g / cm^3
# Si number density = 18.774295 Si / 1000 Ang^3
#
#
#
# Elastic Constant Matrix: (Units=GPa)
#
#
# Indices 1 2 3 4 5 6 
#
# 1 75.7991 29.0815 35.2315 0.0000 0.0000 0.0000
# 2 29.0815 94.6161 46.1405 0.0000 0.0000 0.0000
# 3 35.2315 46.1405 145.3224 0.0000 0.0000 0.0000
# 4 0.0000 0.0000 0.0000 26.7588 0.0000 0.0000
# 5 0.0000 0.0000 0.0000 0.0000 26.0411 0.0000
# 6 0.0000 0.0000 0.0000 0.0000 0.0000 21.8992
#
#
#
# Elastic Compliance Matrix: (Units=1/GPa)
#
#
# Indices 1 2 3 4 5 6 
#
# 1 0.015810 -0.003538 -0.002710 0.000000 0.000000 0.000000
# 2 -0.003538 0.013297 -0.003364 0.000000 0.000000 0.000000
# 3 -0.002710 -0.003364 0.008606 0.000000 0.000000 0.000000
# 4 0.000000 0.000000 0.000000 0.037371 0.000000 0.000000
# 5 0.000000 0.000000 0.000000 0.000000 0.038401 0.000000
# 6 0.000000 0.000000 0.000000 0.000000 0.000000 0.045664
#
#
# Mechanical properties :
#
#
# Convention : Reuss Voigt Hill
#
# Bulk Modulus (GPa) = 54.08430 59.62716 56.85573
# Shear Modulus (GPa) = 27.09520 28.62545 27.86032
#
# Velocity S-wave (km/s) = 3.80308 3.90900 3.85640
# Velocity P-wave (km/s) = 6.93936 7.22514 7.08369
#
# Compressibility (1/GPa) = 0.01848965
#
# Stress axis : x y z
#
# Youngs Moduli (GPa) = 63.25296 75.20486 116.19447
#
# Poissons Ratio (x) = 0.26607 0.31483
# Poissons Ratio (y) = 0.22379 0.39089
# Poissons Ratio (z) = 0.17138 0.25300
#
# Static dielectric constant tensor:
#      x y z
#    x 3.338060 0.000000 0.000000 
#    y 0.000000 3.860610 0.000000 
#    z 0.000000 0.000000 3.829430 
# 
# 
# High freq. dielectric constant tensor:
#      x y z
#    x 1.702030 0.000000 0.000000 
#    y 0.000000 1.711850 0.000000 
#    z 0.000000 0.000000 1.746110 
# 
# From -- ./inp_files/4392.got.cif
#   From: 2010.03.12/outbox.cif.g09.slc.cpg/sg49_3_cif.got.tgz:4392.got - 2010.04.14 03:58:27.
