data_PCOD8202142
_publ_section_title
;
Structure prediction by ZEFSAII (Michael W. Deem and Ramdas Pophale) SiO2 
 PCOD8202142
Probable space group: P N N N
;
_chemical_formula_sum "Si O2"
_cell_formula_units_Z 24
_cell_length_a 10.218413
_cell_length_b 8.040331
_cell_length_c 11.910756
_cell_angle_alpha 90.000000
_cell_angle_beta 90.000000
_cell_angle_gamma 90.000000
_cell_volume 978.580838
_symmetry_space_group_name_H-M "P N N N"
_symmetry_group_IT_number 48
_space_group.IT_coordinate_system_code '2'
_symmetry_cell_setting 'orthorhombic'
loop_
_space_group_symop_operation_xyz
x,y,z
1/2-x,1/2-y,z
x,1/2-y,1/2-z
1/2-x,y,1/2-z
-x,-y,-z
1/2+x,1/2+y,-z
-x,1/2+y,1/2+z
1/2+x,-y,1/2+z
loop_
_atom_site_type_symbol
_atom_site_label
_atom_site_fract_x
_atom_site_fract_y
_atom_site_fract_z
Si Si1 0.708763 0.059557 0.869173
Si Si2 0.048237 0.935006 0.719374
Si Si3 0.787690 0.935558 0.098107
O O1 0.750000 0.250000 0.881652
O O2 0.750000 0.983309 0.750000
O O3 0.552248 0.031246 0.864299
O O4 0.787434 0.957932 0.964117
O O5 0.001555 0.750000 0.750000
O O6 0.073426 0.027598 0.840039
O O7 0.181932 0.933956 0.647643
O O8 0.750000 0.750000 0.131290
#
# Coordination Sequence:
#
# PCOD8202142 Si02
#       3
#     8   8   8
#     4  11  27  45  69 100 147 184 238 290 360 422
#     4  11  24  46  75 102 141 187 241 293 361 426
#     4  11  25  44  75 106 141 186 240 296 361 425
#
# _framework density 24.525312
#
# number of rings (size 3 to 8) (size 9 to 14) (size 15 to 20)
#    0.000    1.000    0.000    7.000   14.000    1.333 
#    0.000    0.000    0.000    0.000    0.000    0.000 
#    0.000    0.000    0.000    0.000    0.000    0.000 
#
# Total GULP energy -297457.323187 kJ/mol
# GULP energy per Si atom -12394.055133 kJ/mol
# Density = 2.446949 g / cm^3
# Si number density = 24.525312 Si / 1000 Ang^3
#
#
#
# Elastic Constant Matrix: (Units=GPa)
#
#
# Indices 1 2 3 4 5 6 
#
# 1 54.0996 39.8484 11.1773 0.0000 0.0000 0.0000
# 2 39.8484 148.2568 30.9601 0.0000 0.0000 0.0000
# 3 11.1773 30.9601 167.1513 0.0000 0.0000 0.0000
# 4 0.0000 0.0000 0.0000 29.3396 0.0000 0.0000
# 5 0.0000 0.0000 0.0000 0.0000 31.1760 0.0000
# 6 0.0000 0.0000 0.0000 0.0000 0.0000 32.5838
#
#
#
# Elastic Compliance Matrix: (Units=1/GPa)
#
#
# Indices 1 2 3 4 5 6 
#
# 1 0.023074 -0.006116 -0.000410 0.000000 0.000000 0.000000
# 2 -0.006116 0.008638 -0.001191 0.000000 0.000000 0.000000
# 3 -0.000410 -0.001191 0.006231 0.000000 0.000000 0.000000
# 4 0.000000 0.000000 0.000000 0.034084 0.000000 0.000000
# 5 0.000000 0.000000 0.000000 0.000000 0.032076 0.000000
# 6 0.000000 0.000000 0.000000 0.000000 0.000000 0.030690
#
#
# Mechanical properties :
#
#
# Convention : Reuss Voigt Hill
#
# Bulk Modulus (GPa) = 44.42858 59.27548 51.85203
# Shear Modulus (GPa) = 31.69986 37.78799 34.74393
#
# Velocity S-wave (km/s) = 3.59909 3.92953 3.76793
# Velocity P-wave (km/s) = 5.95197 6.69402 6.33387
#
# Compressibility (1/GPa) = 0.02250803
#
# Stress axis : x y z
#
# Youngs Moduli (GPa) = 43.33839 115.77201 160.49799
#
# Poissons Ratio (x) = 0.70809 0.06582
# Poissons Ratio (y) = 0.26507 0.19114
# Poissons Ratio (z) = 0.01777 0.13787
#
# Static dielectric constant tensor:
#      x y z
#    x 4.726440 0.000000 0.000000 
#    y 0.000000 4.076130 0.000000 
#    z 0.000000 0.000000 4.963360 
# 
# 
# High freq. dielectric constant tensor:
#      x y z
#    x 1.963160 0.000000 0.000000 
#    y 0.000000 1.969510 0.000000 
#    z 0.000000 0.000000 1.989780 
# 
# From -- ./inp_files/19201.got.cif
#   From: 2010.06.25/outbox.cif.g09.slc.cpg/sg48_10_cif.got.tgz:19201.got - 2010.06.26 18:06:46.
