data_PCOD8202796
_publ_section_title
;
Structure prediction by ZEFSAII (Michael W. Deem and Ramdas Pophale) SiO2 
 PCOD8202796
Probable space group: P C C M
;
_chemical_formula_sum "Si O2"
_cell_formula_units_Z 56
_cell_length_a 15.264297
_cell_length_b 20.120029
_cell_length_c 9.018712
_cell_angle_alpha 90.000000
_cell_angle_beta 90.000000
_cell_angle_gamma 90.000000
_cell_volume 2769.809679
_symmetry_space_group_name_H-M "P C C M"
_symmetry_group_IT_number 49
_symmetry_cell_setting 'orthorhombic'
loop_
_space_group_symop_operation_xyz
x,y,z
-x,-y,z
x,-y,1/2-z
-x,y,1/2-z
-x,-y,-z
x,y,-z
-x,y,1/2+z
x,-y,1/2+z
loop_
_atom_site_type_symbol
_atom_site_label
_atom_site_fract_x
_atom_site_fract_y
_atom_site_fract_z
Si Si1 0.584582 0.886541 0.672898
Si Si2 0.360765 0.253967 0.330423
Si Si3 0.233033 0.564498 0.325300
Si Si4 0.776801 0.067959 0.824106
Si Si5 0.909780 0.166013 0.672770
Si Si6 0.810253 0.292496 0.331160
Si Si7 0.586867 0.399804 0.827385
O O1 0.500000 0.920449 0.750000
O O2 0.567132 0.890243 0.500000
O O3 0.589555 0.810384 0.733387
O O4 0.674374 0.923563 0.715638
O O5 0.339502 0.239259 0.500000
O O6 0.266764 0.259430 0.258340
O O7 0.417346 0.320179 0.308043
O O8 0.187707 0.500000 0.250000
O O9 0.240045 0.553068 0.500000
O O10 0.175186 0.630077 0.284212
O O11 0.329968 0.571059 0.257578
O O12 0.831005 0.127847 0.752337
O O13 0.810281 0.000000 0.750000
O O14 0.792983 0.066782 0.000000
O O15 0.913203 0.146242 0.500000
O O16 0.895380 0.245995 0.691464
O O17 0.000000 0.145839 0.750000
O O18 0.778684 0.292563 0.500000
O O19 0.500000 0.429360 0.750000
O O20 0.590796 0.420311 0.000000
#
# Coordination Sequence:
#
# PCOD8202796 Si02
#       7
#     8   8   8   8   8   8   8
#     4  10  21  35  55  83 117 158 203 249 295 345
#     4   9  17  31  51  77 109 146 191 241 293 346
#     4  10  20  35  53  77 108 146 191 236 287 347
#     4  11  24  43  64  89 124 163 203 249 298 353
#     4  11  23  41  67  98 125 155 193 240 298 360
#     4   9  19  35  58  85 115 149 188 236 289 346
#     4  10  19  30  46  70 103 143 188 240 294 347
#
# _framework density 20.217994999999998
#
# number of rings (size 3 to 8) (size 9 to 14) (size 15 to 20)
#    0.000    2.000    1.429    2.143    0.000    4.286 
#    0.000    4.286    0.000    0.429    0.000    3.000 
#    0.000    0.000    0.000    0.000    0.000    0.000 
#
# Total GULP energy -694203.357755 kJ/mol
# GULP energy per Si atom -12396.488531 kJ/mol
# Density = 2.017198 g / cm^3
# Si number density = 20.217995 Si / 1000 Ang^3
#
#
#
# Elastic Constant Matrix: (Units=GPa)
#
#
# Indices 1 2 3 4 5 6 
#
# 1 72.4405 24.0779 43.4748 0.0000 0.0000 0.0000
# 2 24.0779 108.4792 44.0704 0.0000 0.0000 0.0000
# 3 43.4748 44.0704 96.5608 0.0000 0.0000 0.0000
# 4 0.0000 0.0000 0.0000 30.0711 0.0000 0.0000
# 5 0.0000 0.0000 0.0000 0.0000 26.7161 0.0000
# 6 0.0000 0.0000 0.0000 0.0000 0.0000 6.3256
#
#
#
# Elastic Compliance Matrix: (Units=1/GPa)
#
#
# Indices 1 2 3 4 5 6 
#
# 1 0.018988 -0.000910 -0.008134 0.000000 0.000000 0.000000
# 2 -0.000910 0.011360 -0.004775 0.000000 0.000000 0.000000
# 3 -0.008134 -0.004775 0.016198 0.000000 0.000000 0.000000
# 4 0.000000 0.000000 0.000000 0.033255 0.000000 0.000000
# 5 0.000000 0.000000 0.000000 0.000000 0.037431 0.000000
# 6 0.000000 0.000000 0.000000 0.000000 0.000000 0.158088
#
#
# Mechanical properties :
#
#
# Convention : Reuss Voigt Hill
#
# Bulk Modulus (GPa) = 52.88705 55.63628 54.26167
# Shear Modulus (GPa) = 16.16761 23.67971 19.92366
#
# Velocity S-wave (km/s) = 2.83090 3.42602 3.14258
# Velocity P-wave (km/s) = 6.07458 6.57481 6.32964
#
# Compressibility (1/GPa) = 0.01890822
#
# Stress axis : x y z
#
# Youngs Moduli (GPa) = 52.66370 88.02606 61.73766
#
# Poissons Ratio (x) = 0.08013 0.50216
# Poissons Ratio (y) = 0.04794 0.29480
# Poissons Ratio (z) = 0.42835 0.42033
#
# Static dielectric constant tensor:
#      x y z
#    x 3.325410 0.000000 0.000000 
#    y 0.000000 4.002780 0.000000 
#    z 0.000000 0.000000 3.841420 
# 
# 
# High freq. dielectric constant tensor:
#      x y z
#    x 1.756500 0.000000 0.000000 
#    y 0.000000 1.801780 0.000000 
#    z 0.000000 0.000000 1.794670 
# 
# From -- ./inp_files/4061.got.cif
#   From: 2010.03.12/outbox.cif.g09.slc.cpg/sg49_3_cif.got.tgz:4061.got - 2010.04.14 03:58:27.
