data_PCOD8202720
_publ_section_title
;
Structure prediction by ZEFSAII (Michael W. Deem and Ramdas Pophale) SiO2 
 PCOD8202720
Probable space group: P C C M
;
_chemical_formula_sum "Si O2"
_cell_formula_units_Z 48
_cell_length_a 23.872131
_cell_length_b 13.613507
_cell_length_c 9.220063
_cell_angle_alpha 90.000000
_cell_angle_beta 90.000000
_cell_angle_gamma 90.000000
_cell_volume 2996.367629
_symmetry_space_group_name_H-M "P C C M"
_symmetry_group_IT_number 49
_symmetry_cell_setting 'orthorhombic'
loop_
_space_group_symop_operation_xyz
x,y,z
-x,-y,z
x,-y,1/2-z
-x,y,1/2-z
-x,-y,-z
x,y,-z
-x,y,1/2+z
x,-y,1/2+z
loop_
_atom_site_type_symbol
_atom_site_label
_atom_site_fract_x
_atom_site_fract_y
_atom_site_fract_z
Si Si1 0.769890 0.706408 0.168545
Si Si2 0.325286 0.397113 0.331676
Si Si3 0.550468 0.396756 0.168512
Si Si4 0.882624 0.598790 0.169163
Si Si5 0.943574 0.793716 0.829242
Si Si6 0.832970 0.902147 0.830994
O O1 0.716513 0.682943 0.266541
O O2 0.819631 0.631276 0.208705
O O3 0.788621 0.816927 0.205548
O O4 0.754026 0.696466 0.000000
O O5 0.318074 0.500000 0.250000
O O6 0.311615 0.416040 0.500000
O O7 0.387688 0.350289 0.313646
O O8 0.553462 0.500000 0.250000
O O9 0.500000 0.336026 0.250000
O O10 0.535071 0.409608 0.000000
O O11 0.899568 0.500000 0.250000
O O12 0.925759 0.683733 0.216941
O O13 0.887635 0.578772 0.000000
O O14 0.894856 0.868629 0.780754
O O15 0.000000 0.825731 0.750000
O O16 0.953058 0.799199 0.000000
O O17 0.814032 0.000000 0.750000
O O18 0.833279 0.924493 0.000000
#
# Coordination Sequence:
#
# PCOD8202720 Si02
#       6
#     8   8   8   8   8   8
#     4   9  18  32  47  64  88 115 145 182 220 261
#     4  10  19  28  41  64  92 122 155 188 220 255
#     4   9  16  25  37  55  82 117 155 189 218 249
#     4   9  18  31  45  62  86 115 145 177 212 251
#     4   9  19  34  48  65  89 113 140 175 213 256
#     4   9  19  35  52  69  89 112 139 176 222 268
#
# _framework density 16.019394999999999
#
# number of rings (size 3 to 8) (size 9 to 14) (size 15 to 20)
#    0.000    2.833    0.000    4.000    0.000    6.667 
#    0.000    6.667    0.000    0.000    0.000    0.000 
#    0.000    0.667    0.000    7.333    0.000    5.333 
#
# Total GULP energy -594957.869419 kJ/mol
# GULP energy per Si atom -12394.955613 kJ/mol
# Density = 1.598293 g / cm^3
# Si number density = 16.019395 Si / 1000 Ang^3
#
#
#
# Elastic Constant Matrix: (Units=GPa)
#
#
# Indices 1 2 3 4 5 6 
#
# 1 110.1689 29.3779 54.4283 0.0000 0.0000 0.0000
# 2 29.3779 75.7880 35.0199 0.0000 0.0000 0.0000
# 3 54.4283 35.0199 78.7799 0.0000 0.0000 0.0000
# 4 0.0000 0.0000 0.0000 25.1081 0.0000 0.0000
# 5 0.0000 0.0000 0.0000 0.0000 -13.6515 0.0000
# 6 0.0000 0.0000 0.0000 0.0000 0.0000 10.4477
#
#
#
# Elastic Compliance Matrix: (Units=1/GPa)
#
#
# Indices 1 2 3 4 5 6 
#
# 1 0.013866 -0.001193 -0.009049 0.000000 0.000000 0.000000
# 2 -0.001193 0.016708 -0.006603 0.000000 0.000000 0.000000
# 3 -0.009049 -0.006603 0.021881 0.000000 0.000000 0.000000
# 4 0.000000 0.000000 0.000000 0.039828 0.000000 0.000000
# 5 0.000000 0.000000 0.000000 0.000000 -0.073252 0.000000
# 6 0.000000 0.000000 0.000000 0.000000 0.000000 0.095715
#
#
# Mechanical properties :
#
#
# Convention : Reuss Voigt Hill
#
# Bulk Modulus (GPa) = 53.29360 55.82100 54.55730
# Shear Modulus (GPa) = 32.32234 14.10824 23.21529
#
# Velocity S-wave (km/s) = 4.49676 2.97087 3.81096
# Velocity P-wave (km/s) = 7.76540 6.83298 7.31407
#
# Compressibility (1/GPa) = 0.01876398
#
# Stress axis : x y z
#
# Youngs Moduli (GPa) = 72.11877 59.85048 45.70199
#
# Poissons Ratio (x) = 0.07143 0.41358
# Poissons Ratio (y) = 0.08607 0.30176
# Poissons Ratio (z) = 0.65263 0.39518
#
# Static dielectric constant tensor:
#      x y z
#    x 3.492180 0.000000 0.000000 
#    y 0.000000 2.764870 0.000000 
#    z 0.000000 0.000000 3.004830 
# 
# 
# High freq. dielectric constant tensor:
#      x y z
#    x 1.618890 0.000000 0.000000 
#    y 0.000000 1.577210 0.000000 
#    z 0.000000 0.000000 1.621470 
# 
# From -- ./inp_files/6366.got.cif
#   From: 2010.03.12/outbox.cif.g09.slc.cpg/sg49_4_cif.got.tgz:6366.got - 2010.04.14 03:58:27.
