data_PCOD8202955
_publ_section_title
;
Structure prediction by ZEFSAII (Michael W. Deem and Ramdas Pophale) SiO2 
 PCOD8202955
Probable space group: P C C M
;
_chemical_formula_sum "Si O2"
_cell_formula_units_Z 64
_cell_length_a 17.248732
_cell_length_b 20.705243
_cell_length_c 9.116602
_cell_angle_alpha 90.000000
_cell_angle_beta 90.000000
_cell_angle_gamma 90.000000
_cell_volume 3255.895831
_symmetry_space_group_name_H-M "P C C M"
_symmetry_group_IT_number 49
_symmetry_cell_setting 'orthorhombic'
loop_
_space_group_symop_operation_xyz
x,y,z
-x,-y,z
x,-y,1/2-z
-x,y,1/2-z
-x,-y,-z
x,y,-z
-x,y,1/2+z
x,-y,1/2+z
loop_
_atom_site_type_symbol
_atom_site_label
_atom_site_fract_x
_atom_site_fract_y
_atom_site_fract_z
Si Si1 0.921757 0.793906 0.175091
Si Si2 0.124521 0.064044 0.167671
Si Si3 0.693326 0.062986 0.668633
Si Si4 0.577411 0.587543 0.671753
Si Si5 0.369648 0.274047 0.338301
Si Si6 0.573995 0.862060 0.665333
Si Si7 0.262434 0.438322 0.174482
Si Si8 0.218830 0.295881 0.827907
O O1 0.909038 0.868245 0.228598
O O2 0.854262 0.745391 0.232258
O O3 0.000000 0.768323 0.250000
O O4 0.928319 0.791413 0.000000
O O5 0.215771 0.070407 0.188833
O O6 0.092313 0.000000 0.250000
O O7 0.101043 0.054220 0.000000
O O8 0.668587 0.060640 0.500000
O O9 0.652901 0.122126 0.749496
O O10 0.661452 0.000000 0.750000
O O11 0.500000 0.560133 0.750000
O O12 0.578953 0.567824 0.500000
O O13 0.578026 0.664239 0.695774
O O14 0.651820 0.560322 0.756372
O O15 0.332018 0.280231 0.500000
O O16 0.429533 0.215134 0.331948
O O17 0.298100 0.264701 0.228617
O O18 0.500000 0.891127 0.750000
O O19 0.574885 0.889581 0.500000
O O20 0.218864 0.500000 0.250000
O O21 0.216160 0.372237 0.215821
O O22 0.267504 0.446922 0.000000
O O23 0.220802 0.287911 0.000000
#
# Coordination Sequence:
#
# PCOD8202955 Si02
#       8
#     8   8   8   8   8   8   8   8
#     4  10  21  37  56  83 114 144 175 211 255 307
#     4   9  19  35  56  80 109 142 177 213 254 305
#     4  10  20  36  55  73  94 126 167 214 263 313
#     4  10  19  32  49  73 106 142 178 219 265 315
#     4   9  19  33  51  75 102 132 172 217 261 310
#     4  11  22  34  48  70  98 130 169 216 266 316
#     4  10  20  35  55  79 105 138 178 224 272 321
#     4   9  19  36  58  80 106 139 177 218 264 315
#
# _framework density 19.656649000000002
#
# number of rings (size 3 to 8) (size 9 to 14) (size 15 to 20)
#    0.000    2.250    0.000    2.625    0.000    5.250 
#    0.000    3.750    0.000    0.375    0.000    2.625 
#    0.000    0.000    0.000    0.000    0.000    0.000 
#
# Total GULP energy -793341.545297 kJ/mol
# GULP energy per Si atom -12395.961645 kJ/mol
# Density = 1.961191 g / cm^3
# Si number density = 19.656649 Si / 1000 Ang^3
#
#
#
# Elastic Constant Matrix: (Units=GPa)
#
#
# Indices 1 2 3 4 5 6 
#
# 1 66.2278 37.7380 37.4144 0.0000 0.0000 0.0000
# 2 37.7380 96.7914 37.0779 0.0000 0.0000 0.0000
# 3 37.4144 37.0779 85.0468 0.0000 0.0000 0.0000
# 4 0.0000 0.0000 0.0000 30.0786 0.0000 0.0000
# 5 0.0000 0.0000 0.0000 0.0000 29.6559 0.0000
# 6 0.0000 0.0000 0.0000 0.0000 0.0000 7.0527
#
#
#
# Elastic Compliance Matrix: (Units=1/GPa)
#
#
# Indices 1 2 3 4 5 6 
#
# 1 0.022689 -0.006030 -0.007353 0.000000 0.000000 0.000000
# 2 -0.006030 0.014005 -0.003453 0.000000 0.000000 0.000000
# 3 -0.007353 -0.003453 0.016498 0.000000 0.000000 0.000000
# 4 0.000000 0.000000 0.000000 0.033246 0.000000 0.000000
# 5 0.000000 0.000000 0.000000 0.000000 0.033720 0.000000
# 6 0.000000 0.000000 0.000000 0.000000 0.000000 0.141790
#
#
# Mechanical properties :
#
#
# Convention : Reuss Voigt Hill
#
# Bulk Modulus (GPa) = 51.22592 52.50295 51.86443
# Shear Modulus (GPa) = 16.54928 22.41315 19.48121
#
# Velocity S-wave (km/s) = 2.90473 3.38040 3.15155
# Velocity P-wave (km/s) = 6.11284 6.48106 6.29964
#
# Compressibility (1/GPa) = 0.01952137
#
# Stress axis : x y z
#
# Youngs Moduli (GPa) = 44.07414 71.40190 60.61169
#
# Poissons Ratio (x) = 0.43052 0.44567
# Poissons Ratio (y) = 0.26575 0.20931
# Poissons Ratio (z) = 0.32407 0.24657
#
# Static dielectric constant tensor:
#      x y z
#    x 3.282950 0.000000 0.000000 
#    y 0.000000 3.967050 0.000000 
#    z 0.000000 0.000000 3.626090 
# 
# 
# High freq. dielectric constant tensor:
#      x y z
#    x 1.736790 0.000000 0.000000 
#    y 0.000000 1.778380 0.000000 
#    z 0.000000 0.000000 1.768610 
# 
# From -- ./inp_files/5280.got.cif
#   From: 2010.03.12/outbox.cif.g09.slc.cpg/sg49_3_cif.got.tgz:5280.got - 2010.04.14 03:58:27.
