data_PCOD8202033
_publ_section_title
;
Structure prediction by ZEFSAII (Michael W. Deem and Ramdas Pophale) SiO2 
 PCOD8202033
Probable space group: P N N N
;
_chemical_formula_sum "Si O2"
_cell_formula_units_Z 56
_cell_length_a 13.565152
_cell_length_b 21.027794
_cell_length_c 9.904162
_cell_angle_alpha 90.000000
_cell_angle_beta 90.000000
_cell_angle_gamma 90.000000
_cell_volume 2825.114887
_symmetry_space_group_name_H-M "P N N N"
_symmetry_group_IT_number 48
_space_group.IT_coordinate_system_code '2'
_symmetry_cell_setting 'orthorhombic'
loop_
_space_group_symop_operation_xyz
x,y,z
1/2-x,1/2-y,z
x,1/2-y,1/2-z
1/2-x,y,1/2-z
-x,-y,-z
1/2+x,1/2+y,-z
-x,1/2+y,1/2+z
1/2+x,-y,1/2+z
loop_
_atom_site_type_symbol
_atom_site_label
_atom_site_fract_x
_atom_site_fract_y
_atom_site_fract_z
Si Si1 0.840436 0.991950 0.154406
Si Si2 0.510008 0.394189 0.782781
Si Si3 0.516121 0.402545 0.227815
Si Si4 0.966896 0.691912 0.513971
Si Si5 0.156205 0.499038 0.341540
Si Si6 0.745138 0.824177 0.599826
Si Si7 0.453493 0.341866 0.496312
O O1 0.750000 0.973092 0.250000
O O2 0.921541 0.937645 0.166527
O O3 0.883646 0.058581 0.208079
O O4 0.809442 0.998987 0.997828
O O5 0.611576 0.432859 0.798230
O O6 0.495753 0.370572 0.632011
O O7 0.515202 0.331418 0.875042
O O8 0.524053 0.337900 0.141020
O O9 0.423682 0.444059 0.179220
O O10 0.507211 0.382776 0.382603
O O11 0.855544 0.663389 0.520066
O O12 0.976403 0.767499 0.520988
O O13 0.250000 0.484431 0.250000
O O14 0.750000 0.750000 0.622615
O O15 0.750000 0.855839 0.750000
O O16 0.835151 0.851435 0.510998
#
# Coordination Sequence:
#
# PCOD8202033 Si02
#       7
#     8   8   8   8   8   8   8
#     4  11  25  43  65  89 120 161 205 259 305 353
#     4  11  24  42  61  91 128 159 202 249 310 363
#     4  11  22  40  65  90 124 161 206 245 303 363
#     4  11  20  40  61  87 131 167 196 244 309 364
#     4  11  25  43  66  88 119 163 205 257 307 352
#     4   9  18  31  50  84 122 159 196 230 282 354
#     4  11  24  34  62  97 123 165 202 247 296 375
#
# _framework density 19.822202999999998
#
# number of rings (size 3 to 8) (size 9 to 14) (size 15 to 20)
#    0.000    1.286    4.286    1.714    8.000    1.143 
#    0.000    2.143    0.000    5.143    0.000    0.000 
#    0.000    0.000    0.000    0.000    0.000    0.000 
#
# Total GULP energy -694355.330235 kJ/mol
# GULP energy per Si atom -12399.202326 kJ/mol
# Density = 1.977709 g / cm^3
# Si number density = 19.822203 Si / 1000 Ang^3
#
#
#
# Elastic Constant Matrix: (Units=GPa)
#
#
# Indices 1 2 3 4 5 6 
#
# 1 41.5331 5.7684 14.1188 0.0000 0.0000 0.0000
# 2 5.7684 73.5282 22.3130 0.0000 0.0000 0.0000
# 3 14.1188 22.3130 144.1736 0.0000 0.0000 0.0000
# 4 0.0000 0.0000 0.0000 36.5016 0.0000 0.0000
# 5 0.0000 0.0000 0.0000 0.0000 26.0592 0.0000
# 6 0.0000 0.0000 0.0000 0.0000 0.0000 19.9808
#
#
#
# Elastic Compliance Matrix: (Units=1/GPa)
#
#
# Indices 1 2 3 4 5 6 
#
# 1 0.025020 -0.001279 -0.002252 0.000000 0.000000 0.000000
# 2 -0.001279 0.014336 -0.002093 0.000000 0.000000 0.000000
# 3 -0.002252 -0.002093 0.007481 0.000000 0.000000 0.000000
# 4 0.000000 0.000000 0.000000 0.027396 0.000000 0.000000
# 5 0.000000 0.000000 0.000000 0.000000 0.038374 0.000000
# 6 0.000000 0.000000 0.000000 0.000000 0.000000 0.050048
#
#
# Mechanical properties :
#
#
# Convention : Reuss Voigt Hill
#
# Bulk Modulus (GPa) = 28.10026 38.18171 33.14098
# Shear Modulus (GPa) = 26.91532 30.97728 28.94630
#
# Velocity S-wave (km/s) = 3.68888 3.95746 3.82553
# Velocity P-wave (km/s) = 5.68777 6.33923 6.02232
#
# Compressibility (1/GPa) = 0.03558686
#
# Stress axis : x y z
#
# Youngs Moduli (GPa) = 39.96724 69.75511 133.67865
#
# Poissons Ratio (x) = 0.08925 0.30107
# Poissons Ratio (y) = 0.05114 0.27984
# Poissons Ratio (z) = 0.09002 0.14602
#
# Static dielectric constant tensor:
#      x y z
#    x 3.623680 0.000000 0.000000 
#    y 0.000000 3.829200 0.000000 
#    z 0.000000 0.000000 3.656650 
# 
# 
# High freq. dielectric constant tensor:
#      x y z
#    x 1.742160 0.000000 0.000000 
#    y 0.000000 1.783510 0.000000 
#    z 0.000000 0.000000 1.784430 
# 
# From -- ./inp_files/13121.got.cif
#   From: 2010.06.25/outbox.cif.g09.slc.cpg/sg48_7_cif.got.tgz:13121.got - 2010.06.26 18:06:46.
