data_PCOD8202396
_publ_section_title
;
Structure prediction by ZEFSAII (Michael W. Deem and Ramdas Pophale) SiO2 
 PCOD8202396
Probable space group: P C C M
;
_chemical_formula_sum "Si O2"
_cell_formula_units_Z 32
_cell_length_a 20.636650
_cell_length_b 9.319615
_cell_length_c 8.438186
_cell_angle_alpha 90.000000
_cell_angle_beta 90.000000
_cell_angle_gamma 90.000000
_cell_volume 1622.879463
_symmetry_space_group_name_H-M "P C C M"
_symmetry_group_IT_number 49
_symmetry_cell_setting 'orthorhombic'
loop_
_space_group_symop_operation_xyz
x,y,z
-x,-y,z
x,-y,1/2-z
-x,y,1/2-z
-x,-y,-z
x,y,-z
-x,y,1/2+z
x,-y,1/2+z
loop_
_atom_site_type_symbol
_atom_site_label
_atom_site_fract_x
_atom_site_fract_y
_atom_site_fract_z
Si Si1 0.182916 0.342199 0.314097
Si Si2 0.699411 0.838701 0.812533
Si Si3 0.070472 0.846891 0.314166
Si Si4 0.565836 0.838660 0.688256
O O1 0.194766 0.500000 0.250000
O O2 0.171797 0.344967 0.500000
O O3 0.245204 0.249457 0.272856
O O4 0.119330 0.277525 0.233727
O O5 0.630234 0.767437 0.763854
O O6 0.703043 0.000000 0.750000
O O7 0.709246 0.834283 0.000000
O O8 0.066279 0.859491 0.500000
O O9 0.000000 0.806336 0.250000
O O10 0.095266 0.000000 0.250000
O O11 0.500000 0.759957 0.750000
O O12 0.569865 0.833579 0.500000
O O13 0.563435 0.000000 0.750000
#
# Coordination Sequence:
#
# PCOD8202396 Si02
#       4
#     8   8   8   8
#     4  12  25  42  60  84 115 152 192 236 284 338
#     4  11  21  36  57  84 114 150 191 237 285 338
#     4  11  22  40  64  92 120 152 189 233 281 334
#     4  10  17  28  47  76 110 145 183 232 285 338
#
# _framework density 19.718038
#
# number of rings (size 3 to 8) (size 9 to 14) (size 15 to 20)
#    0.000    1.000    0.000   12.750    0.000    0.500 
#    0.000    2.500    0.000    0.750    0.000    5.250 
#    0.000    0.000    0.000    0.000    0.000    0.000 
#
# Total GULP energy -396841.953895 kJ/mol
# GULP energy per Si atom -12401.311059 kJ/mol
# Density = 1.967316 g / cm^3
# Si number density = 19.718038 Si / 1000 Ang^3
#
#
#
# Elastic Constant Matrix: (Units=GPa)
#
#
# Indices 1 2 3 4 5 6 
#
# 1 131.6642 41.8610 20.4018 0.0000 0.0000 0.0000
# 2 41.8610 63.8377 10.1199 0.0000 0.0000 0.0000
# 3 20.4018 10.1199 138.8491 0.0000 0.0000 0.0000
# 4 0.0000 0.0000 0.0000 32.2873 0.0000 0.0000
# 5 0.0000 0.0000 0.0000 0.0000 43.3059 0.0000
# 6 0.0000 0.0000 0.0000 0.0000 0.0000 -2.9125
#
#
#
# Elastic Compliance Matrix: (Units=1/GPa)
#
#
# Indices 1 2 3 4 5 6 
#
# 1 0.009724 -0.006222 -0.000975 0.000000 0.000000 0.000000
# 2 -0.006222 0.019829 -0.000531 0.000000 0.000000 0.000000
# 3 -0.000975 -0.000531 0.007384 0.000000 0.000000 0.000000
# 4 0.000000 0.000000 0.000000 0.030972 0.000000 0.000000
# 5 0.000000 0.000000 0.000000 0.000000 0.023092 0.000000
# 6 0.000000 0.000000 0.000000 0.000000 0.000000 -0.343350
#
#
# Mechanical properties :
#
#
# Convention : Reuss Voigt Hill
#
# Bulk Modulus (GPa) = 46.55358 53.23515 49.89437
# Shear Modulus (GPa) = -21.76451 32.00070 5.11809
#
# Velocity S-wave (km/s) = -3.32593 4.03291 1.61285
# Velocity P-wave (km/s) = 2.98526 6.98159 5.36910
#
# Compressibility (1/GPa) = 0.02148062
#
# Stress axis : x y z
#
# Youngs Moduli (GPa) = 102.83354 50.43124 135.42654
#
# Poissons Ratio (x) = 0.31379 0.13209
# Poissons Ratio (y) = 0.63984 0.07191
# Poissons Ratio (z) = 0.10030 0.02678
#
# Static dielectric constant tensor:
#      x y z
#    x 6.969950 0.000000 0.000000 
#    y 0.000000 3.289500 0.000000 
#    z 0.000000 0.000000 3.826400 
# 
# 
# High freq. dielectric constant tensor:
#      x y z
#    x 1.798300 0.000000 0.000000 
#    y 0.000000 1.725290 0.000000 
#    z 0.000000 0.000000 1.796930 
# 
# From -- ./inp_files/1407.got.cif
#   From: 2010.03.12/outbox.cif.g09.slc.cpg/sg49_1_cif.got.tgz:1407.got - 2010.04.14 03:58:27.
