data_PCOD8202022
_publ_section_title
;
Structure prediction by ZEFSAII (Michael W. Deem and Ramdas Pophale) SiO2 
 PCOD8202022
Probable space group: P N N N
;
_chemical_formula_sum "Si O2"
_cell_formula_units_Z 56
_cell_length_a 5.009044
_cell_length_b 16.094334
_cell_length_c 32.868818
_cell_angle_alpha 90.000000
_cell_angle_beta 90.000000
_cell_angle_gamma 90.000000
_cell_volume 2649.792967
_symmetry_space_group_name_H-M "P N N N"
_symmetry_group_IT_number 48
_space_group.IT_coordinate_system_code '2'
_symmetry_cell_setting 'orthorhombic'
loop_
_space_group_symop_operation_xyz
x,y,z
1/2-x,1/2-y,z
x,1/2-y,1/2-z
1/2-x,y,1/2-z
-x,-y,-z
1/2+x,1/2+y,-z
-x,1/2+y,1/2+z
1/2+x,-y,1/2+z
loop_
_atom_site_type_symbol
_atom_site_label
_atom_site_fract_x
_atom_site_fract_y
_atom_site_fract_z
Si Si1 0.954793 0.979855 0.953434
Si Si2 0.432964 0.472215 0.594652
Si Si3 0.509282 0.193988 0.857396
Si Si4 0.513160 0.599960 0.276118
Si Si5 0.014578 0.303936 0.420653
Si Si6 0.879246 0.835278 0.828248
Si Si7 0.112490 0.937396 0.677677
O O1 0.039254 0.883833 0.948236
O O2 0.657224 0.995872 0.936824
O O3 0.155865 0.038682 0.928821
O O4 0.000000 0.000000 0.000000
O O5 0.505476 0.383212 0.612339
O O6 0.375168 0.539126 0.630092
O O7 0.250000 0.250000 0.859719
O O8 0.566466 0.162607 0.811801
O O9 0.750000 0.250000 0.872439
O O10 0.250000 0.580763 0.250000
O O11 0.654384 0.517020 0.293973
O O12 0.750000 0.642105 0.250000
O O13 0.750000 0.250000 0.416118
O O14 0.250000 0.250000 0.441417
O O15 0.118317 0.332380 0.376718
O O16 0.750000 0.750000 0.810539
O O17 0.684243 0.906986 0.812762
O O18 0.173630 0.863346 0.812666
#
# Coordination Sequence:
#
# PCOD8202022 Si02
#       7
#     8   8   8   8   8   8   8
#     4  12  24  41  63  90 126 172 209 254 314 383
#     4  11  22  42  62  88 122 162 213 258 308 377
#     4  11  24  42  67  96 126 167 213 265 318 375
#     4  11  24  40  63  94 129 169 211 258 321 373
#     4  11  21  36  59  89 123 149 195 263 314 347
#     4  11  20  33  60  93 119 150 203 259 315 348
#     4  11  20  38  61  87 124 159 204 260 299 373
#
# _framework density 21.133727
#
# number of rings (size 3 to 8) (size 9 to 14) (size 15 to 20)
#    0.000    0.857    2.857    6.000    0.000    6.286 
#    0.000    4.286    0.000    6.429    0.000    0.000 
#    0.000    0.000    0.000    0.000    0.000    0.000 
#
# Total GULP energy -694414.897788 kJ/mol
# GULP energy per Si atom -12400.266032 kJ/mol
# Density = 2.108563 g / cm^3
# Si number density = 21.133727 Si / 1000 Ang^3
#
#
#
# Elastic Constant Matrix: (Units=GPa)
#
#
# Indices 1 2 3 4 5 6 
#
# 1 134.7630 33.5185 21.4929 0.0000 0.0000 0.0000
# 2 33.5185 103.2794 13.7089 0.0000 0.0000 0.0000
# 3 21.4929 13.7089 55.7930 0.0000 0.0000 0.0000
# 4 0.0000 0.0000 0.0000 10.7163 0.0000 0.0000
# 5 0.0000 0.0000 0.0000 0.0000 19.8609 0.0000
# 6 0.0000 0.0000 0.0000 0.0000 0.0000 43.8956
#
#
#
# Elastic Compliance Matrix: (Units=1/GPa)
#
#
# Indices 1 2 3 4 5 6 
#
# 1 0.008439 -0.002385 -0.002665 0.000000 0.000000 0.000000
# 2 -0.002385 0.010683 -0.001706 0.000000 0.000000 0.000000
# 3 -0.002665 -0.001706 0.019369 0.000000 0.000000 0.000000
# 4 0.000000 0.000000 0.000000 0.093316 0.000000 0.000000
# 5 0.000000 0.000000 0.000000 0.000000 0.050350 0.000000
# 6 0.000000 0.000000 0.000000 0.000000 0.000000 0.022781
#
#
# Mechanical properties :
#
#
# Convention : Reuss Voigt Hill
#
# Bulk Modulus (GPa) = 40.03371 47.91954 43.97662
# Shear Modulus (GPa) = 22.04820 29.90224 25.97522
#
# Velocity S-wave (km/s) = 3.23347 3.76560 3.50964
# Velocity P-wave (km/s) = 5.73800 6.45213 6.10552
#
# Compressibility (1/GPa) = 0.02497895
#
# Stress axis : x y z
#
# Youngs Moduli (GPa) = 118.50275 93.60698 51.62850
#
# Poissons Ratio (x) = 0.22325 0.13758
# Poissons Ratio (y) = 0.28263 0.08809
# Poissons Ratio (z) = 0.31578 0.15971
#
# Static dielectric constant tensor:
#      x y z
#    x 3.938240 0.000000 0.000000 
#    y 0.000000 3.951400 0.000000 
#    z 0.000000 0.000000 3.593350 
# 
# 
# High freq. dielectric constant tensor:
#      x y z
#    x 1.848660 0.000000 0.000000 
#    y 0.000000 1.836500 0.000000 
#    z 0.000000 0.000000 1.800630 
# 
# From -- ./inp_files/38335.got.cif
#   From: 2010.06.25/outbox.cif.g09.slc.cpg/sg48_20_cif.got.tgz:38335.got - 2010.06.26 18:06:46.
