data_PCOD8202859
_publ_section_title
;
Structure prediction by ZEFSAII (Michael W. Deem and Ramdas Pophale) SiO2 
 PCOD8202859
Probable space group: P C C M
;
_chemical_formula_sum "Si O2"
_cell_formula_units_Z 64
_cell_length_a 16.280931
_cell_length_b 22.567682
_cell_length_c 8.896374
_cell_angle_alpha 90.000000
_cell_angle_beta 90.000000
_cell_angle_gamma 90.000000
_cell_volume 3268.731299
_symmetry_space_group_name_H-M "P C C M"
_symmetry_group_IT_number 49
_symmetry_cell_setting 'orthorhombic'
loop_
_space_group_symop_operation_xyz
x,y,z
-x,-y,z
x,-y,1/2-z
-x,y,1/2-z
-x,-y,-z
x,y,-z
-x,y,1/2+z
x,-y,1/2+z
loop_
_atom_site_type_symbol
_atom_site_label
_atom_site_fract_x
_atom_site_fract_y
_atom_site_fract_z
Si Si1 0.080570 0.730624 0.176600
Si Si2 0.214632 0.815084 0.175843
Si Si3 0.370486 0.226921 0.831750
Si Si4 0.255986 0.940742 0.177732
Si Si5 0.261556 0.439364 0.179644
Si Si6 0.416089 0.641852 0.324790
Si Si7 0.912945 0.405011 0.820902
Si Si8 0.420668 0.097816 0.829768
O O1 0.149012 0.772079 0.251975
O O2 0.095622 0.663346 0.223502
O O3 0.000000 0.756513 0.250000
O O4 0.075155 0.736900 0.000000
O O5 0.301346 0.786883 0.211912
O O6 0.203913 0.883115 0.231149
O O7 0.203378 0.813734 0.000000
O O8 0.413296 0.288252 0.783150
O O9 0.429283 0.169617 0.827801
O O10 0.333588 0.234528 0.000000
O O11 0.347093 0.929643 0.235612
O O12 0.217419 0.000000 0.250000
O O13 0.256947 0.947626 0.000000
O O14 0.296459 0.500000 0.250000
O O15 0.330281 0.389928 0.227497
O O16 0.169680 0.431980 0.248927
O O17 0.252895 0.442680 0.000000
O O18 0.500000 0.615991 0.250000
O O19 0.426805 0.630845 0.500000
O O20 0.000000 0.429349 0.750000
O O21 0.914455 0.416648 0.000000
O O22 0.500000 0.070962 0.750000
O O23 0.412976 0.074776 0.000000
#
# Coordination Sequence:
#
# PCOD8202859 Si02
#       8
#     8   8   8   8   8   8   8   8
#     4   9  18  32  52  81 112 138 165 200 248 306
#     4   9  18  32  51  75 103 135 169 209 256 306
#     4   9  18  32  51  77 105 132 166 209 259 314
#     4  10  20  34  50  68  93 127 169 212 252 295
#     4  11  24  41  59  81 110 145 188 232 272 318
#     4  10  22  38  57  81 109 143 183 229 277 324
#     4  10  20  36  60  89 119 148 177 214 265 325
#     4  10  19  31  48  71  99 128 160 200 249 304
#
# _framework density 19.579461999999999
#
# number of rings (size 3 to 8) (size 9 to 14) (size 15 to 20)
#    0.000    2.250    0.000    2.625    0.000    4.250 
#    0.000    3.750    0.000    0.375    0.000    2.625 
#    0.000    0.000    0.000    0.000    0.000    0.000 
#
# Total GULP energy -792956.941476 kJ/mol
# GULP energy per Si atom -12389.952211 kJ/mol
# Density = 1.953490 g / cm^3
# Si number density = 19.579462 Si / 1000 Ang^3
#
#
#
# Elastic Constant Matrix: (Units=GPa)
#
#
# Indices 1 2 3 4 5 6 
#
# 1 76.0802 25.9656 21.8786 0.0000 0.0000 0.0000
# 2 25.9656 77.5646 26.5720 0.0000 0.0000 0.0000
# 3 21.8786 26.5720 36.6061 0.0000 0.0000 0.0000
# 4 0.0000 0.0000 0.0000 27.3670 0.0000 0.0000
# 5 0.0000 0.0000 0.0000 0.0000 29.3337 0.0000
# 6 0.0000 0.0000 0.0000 0.0000 0.0000 21.0804
#
#
#
# Elastic Compliance Matrix: (Units=1/GPa)
#
#
# Indices 1 2 3 4 5 6 
#
# 1 0.016324 -0.002825 -0.007706 0.000000 0.000000 0.000000
# 2 -0.002825 0.017648 -0.011123 0.000000 0.000000 0.000000
# 3 -0.007706 -0.011123 0.039997 0.000000 0.000000 0.000000
# 4 0.000000 0.000000 0.000000 0.036540 0.000000 0.000000
# 5 0.000000 0.000000 0.000000 0.000000 0.034090 0.000000
# 6 0.000000 0.000000 0.000000 0.000000 0.000000 0.047437
#
#
# Mechanical properties :
#
#
# Convention : Reuss Voigt Hill
#
# Bulk Modulus (GPa) = 32.61241 37.67592 35.14417
# Shear Modulus (GPa) = 20.36112 23.27854 21.81983
#
# Velocity S-wave (km/s) = 3.22828 3.45182 3.34192
# Velocity P-wave (km/s) = 5.53067 5.93052 5.73408
#
# Compressibility (1/GPa) = 0.03066317
#
# Stress axis : x y z
#
# Youngs Moduli (GPa) = 61.25896 56.66228 25.00163
#
# Poissons Ratio (x) = 0.16005 0.19267
# Poissons Ratio (y) = 0.17304 0.27808
# Poissons Ratio (z) = 0.47207 0.63023
#
# Static dielectric constant tensor:
#      x y z
#    x 3.679450 0.000000 0.000000 
#    y 0.000000 3.944160 0.000000 
#    z 0.000000 0.000000 3.524760 
# 
# 
# High freq. dielectric constant tensor:
#      x y z
#    x 1.746750 0.000000 0.000000 
#    y 0.000000 1.769020 0.000000 
#    z 0.000000 0.000000 1.762740 
# 
# From -- ./inp_files/4300.got.cif
#   From: 2010.03.12/outbox.cif.g09.slc.cpg/sg49_3_cif.got.tgz:4300.got - 2010.04.14 03:58:27.
