data_PCOD8202261
_publ_section_title
;
Structure prediction by ZEFSAII (Michael W. Deem and Ramdas Pophale) SiO2 
 PCOD8202261
Probable space group: P C C M
;
_chemical_formula_sum "Si O2"
_cell_formula_units_Z 48
_cell_length_a 13.636181
_cell_length_b 23.969865
_cell_length_c 8.765987
_cell_angle_alpha 90.000000
_cell_angle_beta 90.000000
_cell_angle_gamma 90.000000
_cell_volume 2865.227874
_symmetry_space_group_name_H-M "P C C M"
_symmetry_group_IT_number 49
_symmetry_cell_setting 'orthorhombic'
loop_
_space_group_symop_operation_xyz
x,y,z
-x,-y,z
x,-y,1/2-z
-x,y,1/2-z
-x,-y,-z
x,y,-z
-x,y,1/2+z
x,-y,1/2+z
loop_
_atom_site_type_symbol
_atom_site_label
_atom_site_fract_x
_atom_site_fract_y
_atom_site_fract_z
Si Si1 0.789870 0.280569 0.822846
Si Si2 0.891306 0.055198 0.318554
Si Si3 0.101741 0.619401 0.319806
Si Si4 0.603824 0.330174 0.680794
Si Si5 0.894971 0.166150 0.177606
Si Si6 0.704928 0.558014 0.178103
O O1 0.870939 0.320392 0.747204
O O2 0.684409 0.287497 0.744285
O O3 0.822048 0.217307 0.796188
O O4 0.781995 0.295892 0.000000
O O5 0.891748 0.052194 0.500000
O O6 0.842836 0.112796 0.259381
O O7 0.000000 0.056701 0.250000
O O8 0.837375 0.000000 0.250000
O O9 0.092695 0.625631 0.500000
O O10 0.184452 0.574364 0.273542
O O11 0.000000 0.597926 0.250000
O O12 0.500000 0.313326 0.750000
O O13 0.601526 0.324920 0.500000
O O14 0.631818 0.393047 0.732732
O O15 0.000000 0.180640 0.250000
O O16 0.910985 0.152997 0.000000
O O17 0.671741 0.500000 0.250000
O O18 0.697625 0.550397 0.000000
#
# Coordination Sequence:
#
# PCOD8202261 Si02
#       6
#     8   8   8   8   8   8
#     4  10  20  33  50  71  95 123 155 194 236 279
#     4  10  17  26  40  58  86 124 164 201 235 269
#     4  10  20  33  48  68  94 125 159 192 230 274
#     4  10  21  37  55  74  95 119 149 186 233 285
#     4  10  19  29  43  66  95 127 163 197 231 272
#     4   9  20  35  50  70  94 120 151 189 228 273
#
# _framework density 16.752594999999999
#
# number of rings (size 3 to 8) (size 9 to 14) (size 15 to 20)
#    0.000    2.167    0.000    6.500    0.000    8.667 
#    0.000    3.333    0.000    0.000    0.000    0.000 
#    0.000    0.667    0.000    7.000    0.000    3.000 
#
# Total GULP energy -595155.009841 kJ/mol
# GULP energy per Si atom -12399.062705 kJ/mol
# Density = 1.671447 g / cm^3
# Si number density = 16.752595 Si / 1000 Ang^3
#
#
#
# Elastic Constant Matrix: (Units=GPa)
#
#
# Indices 1 2 3 4 5 6 
#
# 1 79.4142 25.3975 32.1263 0.0000 0.0000 0.0000
# 2 25.3975 102.5558 49.4680 0.0000 0.0000 0.0000
# 3 32.1263 49.4680 108.6670 0.0000 0.0000 0.0000
# 4 0.0000 0.0000 0.0000 30.1459 0.0000 0.0000
# 5 0.0000 0.0000 0.0000 0.0000 16.9238 0.0000
# 6 0.0000 0.0000 0.0000 0.0000 0.0000 11.6507
#
#
#
# Elastic Compliance Matrix: (Units=1/GPa)
#
#
# Indices 1 2 3 4 5 6 
#
# 1 0.014606 -0.001966 -0.003423 0.000000 0.000000 0.000000
# 2 -0.001966 0.012759 -0.005227 0.000000 0.000000 0.000000
# 3 -0.003423 -0.005227 0.012594 0.000000 0.000000 0.000000
# 4 0.000000 0.000000 0.000000 0.033172 0.000000 0.000000
# 5 0.000000 0.000000 0.000000 0.000000 0.059088 0.000000
# 6 0.000000 0.000000 0.000000 0.000000 0.000000 0.085832
#
#
# Mechanical properties :
#
#
# Convention : Reuss Voigt Hill
#
# Bulk Modulus (GPa) = 53.40021 56.06897 54.73459
# Shear Modulus (GPa) = 20.36454 23.98709 22.17581
#
# Velocity S-wave (km/s) = 3.49034 3.78808 3.64225
# Velocity P-wave (km/s) = 6.94177 7.25770 7.10149
#
# Compressibility (1/GPa) = 0.01872652
#
# Stress axis : x y z
#
# Youngs Moduli (GPa) = 68.46640 78.37681 79.40362
#
# Poissons Ratio (x) = 0.15408 0.27181
# Poissons Ratio (y) = 0.13460 0.41504
# Poissons Ratio (z) = 0.23437 0.40967
#
# Static dielectric constant tensor:
#      x y z
#    x 2.904820 0.000000 0.000000 
#    y 0.000000 3.623570 0.000000 
#    z 0.000000 0.000000 3.262650 
# 
# 
# High freq. dielectric constant tensor:
#      x y z
#    x 1.606650 0.000000 0.000000 
#    y 0.000000 1.647220 0.000000 
#    z 0.000000 0.000000 1.664940 
# 
# From -- ./inp_files/4147.got.cif
#   From: 2010.03.12/outbox.cif.g09.slc.cpg/sg49_3_cif.got.tgz:4147.got - 2010.04.14 03:58:27.
