data_PCOD8202110
_publ_section_title
;
Structure prediction by ZEFSAII (Michael W. Deem and Ramdas Pophale) SiO2 
 PCOD8202110
Probable space group: P N N N
;
_chemical_formula_sum "Si O2"
_cell_formula_units_Z 52
_cell_length_a 17.985471
_cell_length_b 14.178659
_cell_length_c 9.242811
_cell_angle_alpha 90.000000
_cell_angle_beta 90.000000
_cell_angle_gamma 90.000000
_cell_volume 2357.007942
_symmetry_space_group_name_H-M "P N N N"
_symmetry_group_IT_number 48
_space_group.IT_coordinate_system_code '2'
_symmetry_cell_setting 'orthorhombic'
loop_
_space_group_symop_operation_xyz
x,y,z
1/2-x,1/2-y,z
x,1/2-y,1/2-z
1/2-x,y,1/2-z
-x,-y,-z
1/2+x,1/2+y,-z
-x,1/2+y,1/2+z
1/2+x,-y,1/2+z
loop_
_atom_site_type_symbol
_atom_site_label
_atom_site_fract_x
_atom_site_fract_y
_atom_site_fract_z
Si Si1 0.076039 0.541197 0.838519
Si Si2 0.195233 0.934076 0.873645
Si Si3 0.750000 0.250000 0.527963
Si Si4 0.114366 0.863730 0.374734
Si Si5 0.828487 0.985013 0.824058
Si Si6 0.930107 0.656727 0.824206
Si Si7 0.446028 0.173034 0.861544
O O1 0.116368 0.587959 0.701661
O O2 0.073339 0.430581 0.805737
O O3 0.992342 0.577602 0.848031
O O4 0.120383 0.566187 0.986150
O O5 0.250000 0.977691 0.750000
O O6 0.225404 0.835066 0.927191
O O7 0.182580 0.008972 0.003240
O O8 0.819987 0.214595 0.623795
O O9 0.035154 0.811271 0.377143
O O10 0.121950 0.926642 0.230142
O O11 0.750000 0.996449 0.750000
O O12 0.864687 0.885774 0.775634
O O13 0.962843 0.750000 0.750000
O O14 0.904019 0.686850 0.984880
O O15 0.414037 0.250000 0.750000
#
# Coordination Sequence:
#
# PCOD8202110 Si02
#       7
#     8   8   4   8   8   8   8
#     4  11  23  46  69  96 147 183 224 291 357 420
#     4  12  27  40  68 104 142 180 229 291 367 428
#     4  12  25  41  68 110 144 174 236 286 366 444
#     4  11  23  43  66 103 143 187 219 284 363 433
#     4  12  24  45  69  93 136 184 227 287 350 427
#     4  11  26  44  68 101 134 183 236 289 344 415
#     4  11  25  44  74 101 140 181 240 293 350 424
#
# _framework density 22.061869999999999
#
# number of rings (size 3 to 8) (size 9 to 14) (size 15 to 20)
#    0.000    0.615    6.154    1.154    8.615    1.538 
#    0.000    0.000    0.000    0.462    0.000    0.000 
#    0.000    0.000    0.000    0.000    0.000    0.000 
#
# Total GULP energy -644869.188758 kJ/mol
# GULP energy per Si atom -12401.330553 kJ/mol
# Density = 2.201166 g / cm^3
# Si number density = 22.061870 Si / 1000 Ang^3
#
#
#
# Elastic Constant Matrix: (Units=GPa)
#
#
# Indices 1 2 3 4 5 6 
#
# 1 51.6545 11.1548 29.4134 0.0000 0.0000 0.0000
# 2 11.1548 114.1194 52.8349 0.0000 0.0000 0.0000
# 3 29.4134 52.8349 162.7233 0.0000 0.0000 0.0000
# 4 0.0000 0.0000 0.0000 28.3197 0.0000 0.0000
# 5 0.0000 0.0000 0.0000 0.0000 30.4580 0.0000
# 6 0.0000 0.0000 0.0000 0.0000 0.0000 22.2968
#
#
#
# Elastic Compliance Matrix: (Units=1/GPa)
#
#
# Indices 1 2 3 4 5 6 
#
# 1 0.021593 -0.000357 -0.003787 0.000000 0.000000 0.000000
# 2 -0.000357 0.010319 -0.003286 0.000000 0.000000 0.000000
# 3 -0.003787 -0.003286 0.007897 0.000000 0.000000 0.000000
# 4 0.000000 0.000000 0.000000 0.035311 0.000000 0.000000
# 5 0.000000 0.000000 0.000000 0.000000 0.032832 0.000000
# 6 0.000000 0.000000 0.000000 0.000000 0.000000 0.044850
#
#
# Mechanical properties :
#
#
# Convention : Reuss Voigt Hill
#
# Bulk Modulus (GPa) = 40.08295 57.25594 48.66945
# Shear Modulus (GPa) = 28.41260 31.88783 30.15022
#
# Velocity S-wave (km/s) = 3.59257 3.80594 3.70079
# Velocity P-wave (km/s) = 5.95119 6.73219 6.35370
#
# Compressibility (1/GPa) = 0.02494827
#
# Stress axis : x y z
#
# Youngs Moduli (GPa) = 46.31126 96.90879 126.63287
#
# Poissons Ratio (x) = 0.03463 0.47957
# Poissons Ratio (y) = 0.01655 0.41610
# Poissons Ratio (z) = 0.17538 0.31843
#
# Static dielectric constant tensor:
#      x y z
#    x 4.020950 0.000000 0.000000 
#    y 0.000000 3.843700 0.000000 
#    z 0.000000 0.000000 4.401200 
# 
# 
# High freq. dielectric constant tensor:
#      x y z
#    x 1.855810 0.000000 0.000000 
#    y 0.000000 1.856120 0.000000 
#    z 0.000000 0.000000 1.879910 
# 
# From -- ./inp_files/15221.got.cif
#   From: 2010.06.25/outbox.cif.g09.slc.cpg/sg48_8_cif.got.tgz:15221.got - 2010.06.26 18:06:46.
