data_PCOD8202953
_publ_section_title
;
Structure prediction by ZEFSAII (Michael W. Deem and Ramdas Pophale) SiO2 
 PCOD8202953
Probable space group: P C C M
;
_chemical_formula_sum "Si O2"
_cell_formula_units_Z 64
_cell_length_a 16.282956
_cell_length_b 22.584533
_cell_length_c 8.959229
_cell_angle_alpha 90.000000
_cell_angle_beta 90.000000
_cell_angle_gamma 90.000000
_cell_volume 3294.693366
_symmetry_space_group_name_H-M "P C C M"
_symmetry_group_IT_number 49
_symmetry_cell_setting 'orthorhombic'
loop_
_space_group_symop_operation_xyz
x,y,z
-x,-y,z
x,-y,1/2-z
-x,y,1/2-z
-x,-y,-z
x,y,-z
-x,y,1/2+z
x,-y,1/2+z
loop_
_atom_site_type_symbol
_atom_site_label
_atom_site_fract_x
_atom_site_fract_y
_atom_site_fract_z
Si Si1 0.724984 0.685668 0.835181
Si Si2 0.127605 0.730616 0.174422
Si Si3 0.080636 0.601520 0.177363
Si Si4 0.914313 0.139294 0.819868
Si Si5 0.231738 0.937913 0.320377
Si Si6 0.426310 0.232949 0.163619
Si Si7 0.414128 0.101910 0.176141
Si Si8 0.759448 0.442874 0.675072
O O1 0.778594 0.725216 0.725419
O O2 0.639076 0.716369 0.836987
O O3 0.710664 0.617534 0.785730
O O4 0.766167 0.686044 0.000000
O O5 0.083484 0.670638 0.230627
O O6 0.088484 0.791701 0.233340
O O7 0.127074 0.733371 0.000000
O O8 0.152494 0.563268 0.247975
O O9 0.000000 0.573644 0.250000
O O10 0.081916 0.595406 0.000000
O O11 0.833003 0.108841 0.749995
O O12 0.000000 0.113656 0.750000
O O13 0.914333 0.131511 0.000000
O O14 0.222744 0.936706 0.500000
O O15 0.327719 0.927940 0.272704
O O16 0.204568 0.000000 0.250000
O O17 0.500000 0.263012 0.250000
O O18 0.400295 0.169562 0.231806
O O19 0.457535 0.217465 0.000000
O O20 0.500000 0.076863 0.250000
O O21 0.424113 0.093677 0.000000
O O22 0.715185 0.500000 0.750000
O O23 0.767938 0.453851 0.500000
#
# Coordination Sequence:
#
# PCOD8202953 Si02
#       8
#     8   8   8   8   8   8   8   8
#     4   9  18  32  52  75 103 137 173 213 261 312
#     4   9  19  33  52  79 108 135 169 212 262 316
#     4  10  19  32  49  72 101 131 163 204 252 306
#     4  11  23  39  59  84 112 146 186 231 279 329
#     4  11  24  42  61  83 111 147 189 233 276 323
#     4   9  17  31  51  79 109 136 165 202 250 308
#     4   9  19  35  58  86 117 148 178 215 266 325
#     4  10  20  34  50  69  93 128 171 215 258 303
#
# _framework density 19.425176
#
# number of rings (size 3 to 8) (size 9 to 14) (size 15 to 20)
#    0.000    2.250    0.000    2.625    0.000    5.250 
#    0.000    6.250    0.000    0.375    0.000    2.625 
#    0.000    0.000    0.000    0.000    0.000    0.000 
#
# Total GULP energy -792857.440840 kJ/mol
# GULP energy per Si atom -12388.397513 kJ/mol
# Density = 1.938096 g / cm^3
# Si number density = 19.425176 Si / 1000 Ang^3
#
#
#
# Elastic Constant Matrix: (Units=GPa)
#
#
# Indices 1 2 3 4 5 6 
#
# 1 77.2029 23.3793 25.6419 0.0000 0.0000 0.0000
# 2 23.3793 80.4595 29.0971 0.0000 0.0000 0.0000
# 3 25.6419 29.0971 33.3499 0.0000 0.0000 0.0000
# 4 0.0000 0.0000 0.0000 28.5224 0.0000 0.0000
# 5 0.0000 0.0000 0.0000 0.0000 31.9530 0.0000
# 6 0.0000 0.0000 0.0000 0.0000 0.0000 13.0447
#
#
#
# Elastic Compliance Matrix: (Units=1/GPa)
#
#
# Indices 1 2 3 4 5 6 
#
# 1 0.017401 -0.000318 -0.013101 0.000000 0.000000 0.000000
# 2 -0.000318 0.018164 -0.015603 0.000000 0.000000 0.000000
# 3 -0.013101 -0.015603 0.053671 0.000000 0.000000 0.000000
# 4 0.000000 0.000000 0.000000 0.035060 0.000000 0.000000
# 5 0.000000 0.000000 0.000000 0.000000 0.031296 0.000000
# 6 0.000000 0.000000 0.000000 0.000000 0.000000 0.076660
#
#
# Mechanical properties :
#
#
# Convention : Reuss Voigt Hill
#
# Bulk Modulus (GPa) = 32.06026 38.58318 35.32172
# Shear Modulus (GPa) = 16.62827 22.23028 19.42928
#
# Velocity S-wave (km/s) = 2.92895 3.38658 3.16604
# Velocity P-wave (km/s) = 5.28948 5.93274 5.62032
#
# Compressibility (1/GPa) = 0.03119127
#
# Stress axis : x y z
#
# Youngs Moduli (GPa) = 57.46912 55.05521 18.63191
#
# Poissons Ratio (x) = 0.01752 0.24410
# Poissons Ratio (y) = 0.01829 0.29071
# Poissons Ratio (z) = 0.75292 0.85901
#
# Static dielectric constant tensor:
#      x y z
#    x 2.471990 0.000000 0.000000 
#    y 0.000000 3.895560 0.000000 
#    z 0.000000 0.000000 3.926300 
# 
# 
# High freq. dielectric constant tensor:
#      x y z
#    x 1.740240 0.000000 0.000000 
#    y 0.000000 1.760960 0.000000 
#    z 0.000000 0.000000 1.758470 
# 
# From -- ./inp_files/5269.got.cif
#   From: 2010.03.12/outbox.cif.g09.slc.cpg/sg49_3_cif.got.tgz:5269.got - 2010.04.14 03:58:27.
