data_PCOD8202812
_publ_section_title
;
Structure prediction by ZEFSAII (Michael W. Deem and Ramdas Pophale) SiO2 
 PCOD8202812
Probable space group: P C C M
;
_chemical_formula_sum "Si O2"
_cell_formula_units_Z 52
_cell_length_a 14.566308
_cell_length_b 19.464597
_cell_length_c 9.503573
_cell_angle_alpha 90.000000
_cell_angle_beta 90.000000
_cell_angle_gamma 90.000000
_cell_volume 2694.522536
_symmetry_space_group_name_H-M "P C C M"
_symmetry_group_IT_number 49
_symmetry_cell_setting 'orthorhombic'
loop_
_space_group_symop_operation_xyz
x,y,z
-x,-y,z
x,-y,1/2-z
-x,y,1/2-z
-x,-y,-z
x,y,-z
-x,y,1/2+z
x,-y,1/2+z
loop_
_atom_site_type_symbol
_atom_site_label
_atom_site_fract_x
_atom_site_fract_y
_atom_site_fract_z
Si Si1 0.000000 0.358627 0.250000
Si Si2 0.119772 0.244115 0.351507
Si Si3 0.084146 0.091761 0.337631
Si Si4 0.820047 0.567149 0.839182
Si Si5 0.729546 0.935523 0.168144
Si Si6 0.730065 0.703647 0.836232
Si Si7 0.409994 0.812457 0.661941
O O1 0.048880 0.307808 0.359960
O O2 0.075492 0.406730 0.175842
O O3 0.174467 0.246051 0.500000
O O4 0.065549 0.173156 0.339971
O O5 0.191227 0.248368 0.226034
O O6 0.090095 0.063876 0.500000
O O7 0.174547 0.074613 0.248531
O O8 0.000000 0.058206 0.250000
O O9 0.800659 0.500000 0.750000
O O10 0.745783 0.624778 0.787233
O O11 0.802626 0.547365 0.000000
O O12 0.665643 0.869890 0.194568
O O13 0.682409 0.000000 0.250000
O O14 0.742823 0.948640 0.000000
O O15 0.631483 0.736866 0.797593
O O16 0.747939 0.708590 0.000000
O O17 0.500000 0.827271 0.750000
O O18 0.439093 0.814072 0.500000
#
# Coordination Sequence:
#
# PCOD8202812 Si02
#       7
#     4   8   8   8   8   8   8
#     4  10  19  32  48  76 113 154 196 238 291 338
#     4  10  19  30  50  79 107 143 191 240 284 331
#     4  11  22  36  57  85 117 156 202 248 292 343
#     4  10  21  34  52  75 111 155 195 239 287 344
#     4  11  24  43  64  88 121 159 194 239 293 352
#     4   9  19  37  57  79 110 148 186 230 288 344
#     4  10  22  40  65  93 120 149 188 238 297 356
#
# _framework density 19.298410000000001
#
# number of rings (size 3 to 8) (size 9 to 14) (size 15 to 20)
#    0.000    1.846    2.308    1.615    0.000    7.385 
#    0.000    3.077    0.000    0.462    0.000    3.231 
#    0.000    0.000    0.000    0.000    0.000    0.000 
#
# Total GULP energy -644321.527454 kJ/mol
# GULP energy per Si atom -12390.798605 kJ/mol
# Density = 1.925449 g / cm^3
# Si number density = 19.298410 Si / 1000 Ang^3
#
#
#
# Elastic Constant Matrix: (Units=GPa)
#
#
# Indices 1 2 3 4 5 6 
#
# 1 104.4480 39.9805 53.4871 0.0000 0.0000 0.0000
# 2 39.9805 107.4150 53.0089 0.0000 0.0000 0.0000
# 3 53.4871 53.0089 101.8260 0.0000 0.0000 0.0000
# 4 0.0000 0.0000 0.0000 26.0432 0.0000 0.0000
# 5 0.0000 0.0000 0.0000 0.0000 29.7016 0.0000
# 6 0.0000 0.0000 0.0000 0.0000 0.0000 1.3567
#
#
#
# Elastic Compliance Matrix: (Units=1/GPa)
#
#
# Indices 1 2 3 4 5 6 
#
# 1 0.013422 -0.002041 -0.005988 0.000000 0.000000 0.000000
# 2 -0.002041 0.012839 -0.005612 0.000000 0.000000 0.000000
# 3 -0.005988 -0.005612 0.015887 0.000000 0.000000 0.000000
# 4 0.000000 0.000000 0.000000 0.038398 0.000000 0.000000
# 5 0.000000 0.000000 0.000000 0.000000 0.033668 0.000000
# 6 0.000000 0.000000 0.000000 0.000000 0.000000 0.737066
#
#
# Mechanical properties :
#
#
# Convention : Reuss Voigt Hill
#
# Bulk Modulus (GPa) = 67.26168 67.40464 67.33316
# Shear Modulus (GPa) = 5.65921 22.56782 14.11351
#
# Velocity S-wave (km/s) = 1.71431 3.42338 2.70725
# Velocity P-wave (km/s) = 6.23278 7.11543 6.68868
#
# Compressibility (1/GPa) = 0.01486731
#
# Stress axis : x y z
#
# Youngs Moduli (GPa) = 74.50708 77.89049 62.94370
#
# Poissons Ratio (x) = 0.15895 0.37689
# Poissons Ratio (y) = 0.15204 0.35322
# Poissons Ratio (z) = 0.44613 0.43709
#
# Static dielectric constant tensor:
#      x y z
#    x 3.307350 0.000000 0.000000 
#    y 0.000000 3.882580 0.000000 
#    z 0.000000 0.000000 3.667490 
# 
# 
# High freq. dielectric constant tensor:
#      x y z
#    x 1.715600 0.000000 0.000000 
#    y 0.000000 1.761290 0.000000 
#    z 0.000000 0.000000 1.761440 
# 
# From -- ./inp_files/3969.got.cif
#   From: 2010.03.12/outbox.cif.g09.slc.cpg/sg49_2_cif.got.tgz:3969.got - 2010.04.14 03:58:27.
