data_PCOD8202124
_publ_section_title
;
Structure prediction by ZEFSAII (Michael W. Deem and Ramdas Pophale) SiO2 
 PCOD8202124
Probable space group: P N N N
;
_chemical_formula_sum "Si O2"
_cell_formula_units_Z 48
_cell_length_a 8.989510
_cell_length_b 12.578292
_cell_length_c 21.793917
_cell_angle_alpha 90.000000
_cell_angle_beta 90.000000
_cell_angle_gamma 90.000000
_cell_volume 2464.296640
_symmetry_space_group_name_H-M "P N N N"
_symmetry_group_IT_number 48
_space_group.IT_coordinate_system_code '2'
_symmetry_cell_setting 'orthorhombic'
loop_
_space_group_symop_operation_xyz
x,y,z
1/2-x,1/2-y,z
x,1/2-y,1/2-z
1/2-x,y,1/2-z
-x,-y,-z
1/2+x,1/2+y,-z
-x,1/2+y,1/2+z
1/2+x,-y,1/2+z
loop_
_atom_site_type_symbol
_atom_site_label
_atom_site_fract_x
_atom_site_fract_y
_atom_site_fract_z
Si Si1 0.400879 0.620338 0.885230
Si Si2 0.084347 0.540668 0.175858
Si Si3 0.927571 0.060590 0.816545
Si Si4 0.932454 0.353709 0.115356
Si Si5 0.575167 0.756952 0.126358
Si Si6 0.083793 0.737967 0.497645
O O1 0.504556 0.527753 0.860856
O O2 0.228645 0.594160 0.870436
O O3 0.442081 0.735096 0.854611
O O4 0.422838 0.632375 0.959187
O O5 0.254640 0.573634 0.168110
O O6 0.041670 0.527595 0.246838
O O7 0.060359 0.427286 0.143226
O O8 0.980349 0.625968 0.142744
O O9 0.001482 0.174441 0.826937
O O10 0.952179 0.340135 0.041382
O O11 0.750000 0.750000 0.134211
O O12 0.534234 0.728075 0.056519
O O13 0.250000 0.750000 0.469758
#
# Coordination Sequence:
#
# PCOD8202124 Si02
#       6
#     8   8   8   8   8   8
#     4   8  18  38  62  89 117 149 190 234 285 339
#     4  11  24  40  59  84 117 156 194 236 287 342
#     4  11  24  40  59  84 117 156 194 236 287 342
#     4   8  18  38  62  89 117 149 190 234 285 339
#     4  12  25  39  60  86 113 152 197 241 289 340
#     4   8  18  39  62  87 118 150 187 234 287 342
#
# _framework density 19.478175
#
# number of rings (size 3 to 8) (size 9 to 14) (size 15 to 20)
#    1.000    1.333    0.000    3.000    0.000    8.667 
#    0.000    3.333    0.000    0.000    0.000    0.000 
#    0.000    0.000    0.000    0.000    0.000    0.000 
#
# Total GULP energy -594957.333825 kJ/mol
# GULP energy per Si atom -12394.944455 kJ/mol
# Density = 1.943384 g / cm^3
# Si number density = 19.478175 Si / 1000 Ang^3
#
#
#
# Elastic Constant Matrix: (Units=GPa)
#
#
# Indices 1 2 3 4 5 6 
#
# 1 87.4330 16.9029 24.5698 0.0000 0.0000 0.0000
# 2 16.9029 59.6254 6.4230 0.0000 0.0000 0.0000
# 3 24.5698 6.4230 57.3367 0.0000 0.0000 0.0000
# 4 0.0000 0.0000 0.0000 25.4813 0.0000 0.0000
# 5 0.0000 0.0000 0.0000 0.0000 27.5633 0.0000
# 6 0.0000 0.0000 0.0000 0.0000 0.0000 36.4956
#
#
#
# Elastic Compliance Matrix: (Units=1/GPa)
#
#
# Indices 1 2 3 4 5 6 
#
# 1 0.013604 -0.003268 -0.005464 0.000000 0.000000 0.000000
# 2 -0.003268 0.017761 -0.000589 0.000000 0.000000 0.000000
# 3 -0.005464 -0.000589 0.019848 0.000000 0.000000 0.000000
# 4 0.000000 0.000000 0.000000 0.039244 0.000000 0.000000
# 5 0.000000 0.000000 0.000000 0.000000 0.036280 0.000000
# 6 0.000000 0.000000 0.000000 0.000000 0.000000 0.027401
#
#
# Mechanical properties :
#
#
# Convention : Reuss Voigt Hill
#
# Bulk Modulus (GPa) = 30.70130 33.35407 32.02768
# Shear Modulus (GPa) = 27.22743 28.34134 27.78438
#
# Velocity S-wave (km/s) = 3.74283 3.81862 3.78092
# Velocity P-wave (km/s) = 5.87150 6.05008 5.96146
#
# Compressibility (1/GPa) = 0.03257191
#
# Stress axis : x y z
#
# Youngs Moduli (GPa) = 73.50515 56.30211 50.38260
#
# Poissons Ratio (x) = 0.18400 0.27527
# Poissons Ratio (y) = 0.24022 0.02969
# Poissons Ratio (z) = 0.40161 0.03317
#
# Static dielectric constant tensor:
#      x y z
#    x 3.423380 0.000000 0.000000 
#    y 0.000000 3.373270 0.000000 
#    z 0.000000 0.000000 3.419650 
# 
# 
# High freq. dielectric constant tensor:
#      x y z
#    x 1.758390 0.000000 0.000000 
#    y 0.000000 1.752020 0.000000 
#    z 0.000000 0.000000 1.751880 
# 
# From -- ./inp_files/35849.got.cif
#   From: 2010.06.25/outbox.cif.g09.slc.cpg/sg48_18_cif.got.tgz:35849.got - 2010.06.26 18:06:46.
