data_PCOD8202412
_publ_section_title
;
Structure prediction by ZEFSAII (Michael W. Deem and Ramdas Pophale) SiO2 
 PCOD8202412
Probable space group: P C C M
;
_chemical_formula_sum "Si O2"
_cell_formula_units_Z 64
_cell_length_a 14.478364
_cell_length_b 25.518068
_cell_length_c 8.775833
_cell_angle_alpha 90.000000
_cell_angle_beta 90.000000
_cell_angle_gamma 90.000000
_cell_volume 3242.318181
_symmetry_space_group_name_H-M "P C C M"
_symmetry_group_IT_number 49
_symmetry_cell_setting 'orthorhombic'
loop_
_space_group_symop_operation_xyz
x,y,z
-x,-y,z
x,-y,1/2-z
-x,y,1/2-z
-x,-y,-z
x,y,-z
-x,y,1/2+z
x,-y,1/2+z
loop_
_atom_site_type_symbol
_atom_site_label
_atom_site_fract_x
_atom_site_fract_y
_atom_site_fract_z
Si Si1 0.904860 0.406819 0.319570
Si Si2 0.290839 0.747785 0.680156
Si Si3 0.278860 0.553249 0.819579
Si Si4 0.906776 0.713374 0.822022
Si Si5 0.276534 0.056535 0.819839
Si Si6 0.399505 0.651923 0.820135
Si Si7 0.908949 0.058049 0.181646
Si Si8 0.401251 0.151527 0.822347
O O1 0.904803 0.413717 0.500000
O O2 0.823040 0.440114 0.247691
O O3 0.891968 0.346434 0.269151
O O4 0.000000 0.428738 0.250000
O O5 0.299724 0.738501 0.500000
O O6 0.183255 0.746014 0.730501
O O7 0.347699 0.703205 0.763685
O O8 0.330788 0.803635 0.733489
O O9 0.321554 0.500000 0.750000
O O10 0.343405 0.600917 0.765999
O O11 0.273401 0.549234 0.000000
O O12 0.000000 0.737540 0.750000
O O13 0.921074 0.716689 0.000000
O O14 0.185838 0.083394 0.743196
O O15 0.361217 0.094606 0.779285
O O16 0.300204 0.000000 0.750000
O O17 0.260149 0.051144 0.000000
O O18 0.500000 0.649075 0.750000
O O19 0.408373 0.654571 0.000000
O O20 0.000000 0.087220 0.250000
O O21 0.907617 0.000000 0.250000
O O22 0.912472 0.057615 0.000000
O O23 0.500000 0.160024 0.750000
O O24 0.415347 0.156734 0.000000
#
# Coordination Sequence:
#
# PCOD8202412 Si02
#       8
#     8   8   8   8   8   8   8   8
#     4  10  19  34  57  85 116 153 190 233 281 337
#     4  10  20  39  63  88 117 151 188 232 284 339
#     4  11  24  40  58  83 115 151 193 239 287 340
#     4   9  18  32  56  86 117 151 185 224 274 332
#     4  10  20  36  56  82 114 153 194 239 287 341
#     4  11  24  40  61  87 113 146 189 238 289 345
#     4  10  17  28  49  78 110 147 187 231 277 330
#     4  10  23  40  60  84 115 149 190 240 291 342
#
# _framework density 19.738962000000001
#
# number of rings (size 3 to 8) (size 9 to 14) (size 15 to 20)
#    0.000    1.875    1.250    4.125    0.000    5.750 
#    0.000    4.375    0.000    1.500    0.000    0.000 
#    0.000    0.000    0.000    0.000    0.000    0.000 
#
# Total GULP energy -793620.531477 kJ/mol
# GULP energy per Si atom -12400.320804 kJ/mol
# Density = 1.969404 g / cm^3
# Si number density = 19.738962 Si / 1000 Ang^3
#
#
#
# Elastic Constant Matrix: (Units=GPa)
#
#
# Indices 1 2 3 4 5 6 
#
# 1 144.7989 60.9769 43.7015 0.0000 0.0000 0.0000
# 2 60.9769 107.4446 40.0872 0.0000 0.0000 0.0000
# 3 43.7015 40.0872 81.5144 0.0000 0.0000 0.0000
# 4 0.0000 0.0000 0.0000 23.1971 0.0000 0.0000
# 5 0.0000 0.0000 0.0000 0.0000 34.1991 0.0000
# 6 0.0000 0.0000 0.0000 0.0000 0.0000 11.3318
#
#
#
# Elastic Compliance Matrix: (Units=1/GPa)
#
#
# Indices 1 2 3 4 5 6 
#
# 1 0.009653 -0.004344 -0.003038 0.000000 0.000000 0.000000
# 2 -0.004344 0.013354 -0.004238 0.000000 0.000000 0.000000
# 3 -0.003038 -0.004238 0.015981 0.000000 0.000000 0.000000
# 4 0.000000 0.000000 0.000000 0.043109 0.000000 0.000000
# 5 0.000000 0.000000 0.000000 0.000000 0.029241 0.000000
# 6 0.000000 0.000000 0.000000 0.000000 0.000000 0.088247
#
#
# Mechanical properties :
#
#
# Convention : Reuss Voigt Hill
#
# Bulk Modulus (GPa) = 63.50985 69.25433 66.38209
# Shear Modulus (GPa) = 21.92267 26.34509 24.13388
#
# Velocity S-wave (km/s) = 3.33623 3.65728 3.50044
# Velocity P-wave (km/s) = 6.86187 7.27980 7.07392
#
# Compressibility (1/GPa) = 0.01574559
#
# Stress axis : x y z
#
# Youngs Moduli (GPa) = 103.59820 74.88471 62.57448
#
# Poissons Ratio (x) = 0.32533 0.19013
# Poissons Ratio (y) = 0.45008 0.26519
# Poissons Ratio (z) = 0.31478 0.31736
#
# Static dielectric constant tensor:
#      x y z
#    x 3.652490 0.000000 0.000000 
#    y 0.000000 3.521050 0.000000 
#    z 0.000000 0.000000 3.576660 
# 
# 
# High freq. dielectric constant tensor:
#      x y z
#    x 1.784240 0.000000 0.000000 
#    y 0.000000 1.750920 0.000000 
#    z 0.000000 0.000000 1.773100 
# 
# From -- ./inp_files/4371.got.cif
#   From: 2010.03.12/outbox.cif.g09.slc.cpg/sg49_3_cif.got.tgz:4371.got - 2010.04.14 03:58:27.
