data_PCOD8202077
_publ_section_title
;
Structure prediction by ZEFSAII (Michael W. Deem and Ramdas Pophale) SiO2 
 PCOD8202077
Probable space group: P N N N
;
_chemical_formula_sum "Si O2"
_cell_formula_units_Z 28
_cell_length_a 22.007416
_cell_length_b 9.020450
_cell_length_c 7.113105
_cell_angle_alpha 90.000000
_cell_angle_beta 90.000000
_cell_angle_gamma 90.000000
_cell_volume 1412.070812
_symmetry_space_group_name_H-M "P N N N"
_symmetry_group_IT_number 48
_space_group.IT_coordinate_system_code '2'
_symmetry_cell_setting 'orthorhombic'
loop_
_space_group_symop_operation_xyz
x,y,z
1/2-x,1/2-y,z
x,1/2-y,1/2-z
1/2-x,y,1/2-z
-x,-y,-z
1/2+x,1/2+y,-z
-x,1/2+y,1/2+z
1/2+x,-y,1/2+z
loop_
_atom_site_type_symbol
_atom_site_label
_atom_site_fract_x
_atom_site_fract_y
_atom_site_fract_z
Si Si1 0.004873 0.177930 0.042312
Si Si2 0.407948 0.750000 0.250000
Si Si3 0.641355 0.737584 0.038218
Si Si4 0.681110 0.983185 0.750989
O O1 0.998602 0.250000 0.250000
O O2 0.068455 0.239176 0.965479
O O3 0.949367 0.249934 0.933411
O O4 0.000000 0.000000 0.000000
O O5 0.365608 0.611951 0.284513
O O6 0.664972 0.750000 0.250000
O O7 0.670985 0.868533 0.918936
O O8 0.666121 0.585123 0.952230
O O9 0.750000 0.041589 0.750000
#
# Coordination Sequence:
#
# PCOD8202077 Si02
#       4
#     8   4   8   8
#     4  12  24  41  66 101 137 168 220 280 350 408
#     4  12  25  40  70  98 135 170 216 284 344 394
#     4  11  22  41  68  95 127 171 221 270 331 393
#     4  11  25  44  63  94 134 178 223 265 325 407
#
# _framework density 19.829035000000001
#
# number of rings (size 3 to 8) (size 9 to 14) (size 15 to 20)
#    0.000    0.571    7.143    2.143    4.000    4.571 
#    0.000    0.000    0.000    5.143    0.000    0.000 
#    0.000    0.000    0.000    0.000    0.000    0.000 
#
# Total GULP energy -347023.585847 kJ/mol
# GULP energy per Si atom -12393.699495 kJ/mol
# Density = 1.978390 g / cm^3
# Si number density = 19.829035 Si / 1000 Ang^3
#
#
#
# Elastic Constant Matrix: (Units=GPa)
#
#
# Indices 1 2 3 4 5 6 
#
# 1 145.0896 21.4832 43.9774 0.0000 0.0000 0.0000
# 2 21.4832 81.2641 53.7956 0.0000 0.0000 0.0000
# 3 43.9774 53.7956 150.8448 0.0000 0.0000 0.0000
# 4 0.0000 0.0000 0.0000 20.3532 0.0000 0.0000
# 5 0.0000 0.0000 0.0000 0.0000 20.0841 0.0000
# 6 0.0000 0.0000 0.0000 0.0000 0.0000 47.7100
#
#
#
# Elastic Compliance Matrix: (Units=1/GPa)
#
#
# Indices 1 2 3 4 5 6 
#
# 1 0.007591 -0.000709 -0.001960 0.000000 0.000000 0.000000
# 2 -0.000709 0.016175 -0.005562 0.000000 0.000000 0.000000
# 3 -0.001960 -0.005562 0.009184 0.000000 0.000000 0.000000
# 4 0.000000 0.000000 0.000000 0.049132 0.000000 0.000000
# 5 0.000000 0.000000 0.000000 0.000000 0.049791 0.000000
# 6 0.000000 0.000000 0.000000 0.000000 0.000000 0.020960
#
#
# Mechanical properties :
#
#
# Convention : Reuss Voigt Hill
#
# Bulk Modulus (GPa) = 60.64931 68.41234 64.53082
# Shear Modulus (GPa) = 28.60544 34.82561 31.71552
#
# Velocity S-wave (km/s) = 3.80228 4.19536 4.00365
# Velocity P-wave (km/s) = 7.06604 7.61867 7.34755
#
# Compressibility (1/GPa) = 0.01648823
#
# Stress axis : x y z
#
# Youngs Moduli (GPa) = 131.72663 61.82479 108.88184
#
# Poissons Ratio (x) = 0.04385 0.21344
# Poissons Ratio (y) = 0.09342 0.60556
# Poissons Ratio (z) = 0.25822 0.34385
#
# Static dielectric constant tensor:
#      x y z
#    x 3.850510 0.000000 0.000000 
#    y 0.000000 3.242000 0.000000 
#    z 0.000000 0.000000 3.873000 
# 
# 
# High freq. dielectric constant tensor:
#      x y z
#    x 1.794650 0.000000 0.000000 
#    y 0.000000 1.771640 0.000000 
#    z 0.000000 0.000000 1.777670 
# 
# From -- ./inp_files/14697.got.cif
#   From: 2010.06.25/outbox.cif.g09.slc.cpg/sg48_8_cif.got.tgz:14697.got - 2010.06.26 18:06:46.
