data_PCOD8202685
_publ_section_title
;
Structure prediction by ZEFSAII (Michael W. Deem and Ramdas Pophale) SiO2 
 PCOD8202685
Probable space group: P C C M
;
_chemical_formula_sum "Si O2"
_cell_formula_units_Z 26
_cell_length_a 9.024196
_cell_length_b 7.627018
_cell_length_c 20.521377
_cell_angle_alpha 90.000000
_cell_angle_beta 90.000000
_cell_angle_gamma 90.000000
_cell_volume 1412.439289
_symmetry_space_group_name_H-M "P C C M"
_symmetry_group_IT_number 49
_symmetry_cell_setting 'orthorhombic'
loop_
_space_group_symop_operation_xyz
x,y,z
-x,-y,z
x,-y,1/2-z
-x,y,1/2-z
-x,-y,-z
x,y,-z
-x,y,1/2+z
x,-y,1/2+z
loop_
_atom_site_type_symbol
_atom_site_label
_atom_site_fract_x
_atom_site_fract_y
_atom_site_fract_z
Si Si1 0.000000 0.000000 0.750000
Si Si2 0.848877 0.206961 0.424756
Si Si3 0.669716 0.543693 0.423939
Si Si4 0.159730 0.152879 0.367201
O O1 0.102182 0.130511 0.706906
O O2 0.814765 0.183767 0.500000
O O3 0.768627 0.381361 0.399326
O O4 0.024295 0.218898 0.412383
O O5 0.780819 0.037567 0.388987
O O6 0.500000 0.500000 0.411614
O O7 0.699321 0.588807 0.500000
O O8 0.709597 0.707520 0.377135
#
# Coordination Sequence:
#
# PCOD8202685 Si02
#       4
#     2   8   8   8
#     4   8  20  36  56  74  92 134 192 228 254 292
#     4   9  17  30  52  79 102 132 170 210 262 312
#     4  10  20  32  51  83 115 138 163 205 269 332
#     4  10  18  34  54  74 102 135 175 224 257 297
#
# _framework density 18.407869000000002
#
# number of rings (size 3 to 8) (size 9 to 14) (size 15 to 20)
#    0.000    2.769    0.000    4.615    0.000    3.692 
#    0.000   16.923    0.000   22.154    0.000    0.000 
#    0.000    0.000    0.000    0.000    0.000    0.000 
#
# Total GULP energy -322328.142370 kJ/mol
# GULP energy per Si atom -12397.236245 kJ/mol
# Density = 1.836597 g / cm^3
# Si number density = 18.407869 Si / 1000 Ang^3
#
#
#
# Elastic Constant Matrix: (Units=GPa)
#
#
# Indices 1 2 3 4 5 6 
#
# 1 65.1358 52.6105 25.0316 0.0000 0.0000 0.0000
# 2 52.6105 120.6512 48.6861 0.0000 0.0000 0.0000
# 3 25.0316 48.6861 86.7877 0.0000 0.0000 0.0000
# 4 0.0000 0.0000 0.0000 14.9330 0.0000 0.0000
# 5 0.0000 0.0000 0.0000 0.0000 13.6305 0.0000
# 6 0.0000 0.0000 0.0000 0.0000 0.0000 24.2405
#
#
#
# Elastic Compliance Matrix: (Units=1/GPa)
#
#
# Indices 1 2 3 4 5 6 
#
# 1 0.023821 -0.009843 -0.001349 0.000000 0.000000 0.000000
# 2 -0.009843 0.014781 -0.005453 0.000000 0.000000 0.000000
# 3 -0.001349 -0.005453 0.014970 0.000000 0.000000 0.000000
# 4 0.000000 0.000000 0.000000 0.066966 0.000000 0.000000
# 5 0.000000 0.000000 0.000000 0.000000 0.073365 0.000000
# 6 0.000000 0.000000 0.000000 0.000000 0.000000 0.041253
#
#
# Mechanical properties :
#
#
# Convention : Reuss Voigt Hill
#
# Bulk Modulus (GPa) = 49.30237 58.35899 53.83068
# Shear Modulus (GPa) = 18.16819 20.31057 19.23938
#
# Velocity S-wave (km/s) = 3.14503 3.32529 3.23642
# Velocity P-wave (km/s) = 6.32691 6.82023 6.57820
#
# Compressibility (1/GPa) = 0.02028300
#
# Stress axis : x y z
#
# Youngs Moduli (GPa) = 41.97949 67.65533 66.79888
#
# Poissons Ratio (x) = 0.66593 0.09010
# Poissons Ratio (y) = 0.41321 0.36424
# Poissons Ratio (z) = 0.05662 0.36891
#
# Static dielectric constant tensor:
#      x y z
#    x 3.233110 0.000000 0.000000 
#    y 0.000000 3.541900 0.000000 
#    z 0.000000 0.000000 3.194170 
# 
# 
# High freq. dielectric constant tensor:
#      x y z
#    x 1.692530 0.000000 0.000000 
#    y 0.000000 1.724710 0.000000 
#    z 0.000000 0.000000 1.691600 
# 
# From -- ./inp_files/15646.got.cif
#   From: 2010.03.12/outbox.cif.g09.slc.cpg/sg49_8_cif.got.tgz:15646.got - 2010.04.14 03:58:27.
