data_PCOD8202264
_publ_section_title
;
Structure prediction by ZEFSAII (Michael W. Deem and Ramdas Pophale) SiO2 
 PCOD8202264
Probable space group: P C C M
;
_chemical_formula_sum "Si O2"
_cell_formula_units_Z 52
_cell_length_a 22.123048
_cell_length_b 16.104553
_cell_length_c 9.689377
_cell_angle_alpha 90.000000
_cell_angle_beta 90.000000
_cell_angle_gamma 90.000000
_cell_volume 3452.148669
_symmetry_space_group_name_H-M "P C C M"
_symmetry_group_IT_number 49
_symmetry_cell_setting 'orthorhombic'
loop_
_space_group_symop_operation_xyz
x,y,z
-x,-y,z
x,-y,1/2-z
-x,y,1/2-z
-x,-y,-z
x,y,-z
-x,y,1/2+z
x,-y,1/2+z
loop_
_atom_site_type_symbol
_atom_site_label
_atom_site_fract_x
_atom_site_fract_y
_atom_site_fract_z
Si Si1 0.229441 0.146096 0.345501
Si Si2 0.353227 0.901349 0.749472
Si Si3 0.567249 0.098173 0.000000
Si Si4 0.432324 0.900994 0.500000
Si Si5 0.117661 0.750291 0.158809
Si Si6 0.061013 0.422166 0.664994
Si Si7 0.849552 0.000000 0.750000
Si Si8 0.946098 0.119942 0.657339
O O1 0.254542 0.154701 0.500000
O O2 0.287653 0.142705 0.246070
O O3 0.186872 0.224198 0.305468
O O4 0.191374 0.060991 0.340371
O O5 0.394424 0.869970 0.872904
O O6 0.392802 0.868516 0.625025
O O7 0.342525 0.000000 0.750000
O O8 0.499814 0.137410 0.000000
O O9 0.561477 0.999492 0.000000
O O10 0.109052 0.652168 0.177871
O O11 0.072972 0.795744 0.264578
O O12 0.103244 0.777108 0.000000
O O13 0.089333 0.500000 0.750000
O O14 0.048701 0.440491 0.500000
O O15 0.000000 0.399328 0.750000
O O16 0.891386 0.945459 0.851257
O O17 0.966661 0.139680 0.500000
O O18 0.000000 0.081487 0.750000
#
# Coordination Sequence:
#
# PCOD8202264 Si02
#       8
#     8   8   4   4   8   8   4   8
#     4  10  18  31  45  59  83 114 152 181 218 259
#     4  10  17  26  42  59  79 112 146 186 222 256
#     4   9  16  28  40  58  76 112 141 184 229 261
#     4   9  18  26  38  58  86 100 143 190 227 257
#     4   9  20  35  49  67  90 117 142 178 216 266
#     4  10  19  32  52  74  93 113 139 173 217 267
#     4  10  21  32  44  60  79 106 148 194 224 256
#     4  11  22  34  48  64  82 108 142 184 231 270
#
# _framework density 15.063083000000001
#
# number of rings (size 3 to 8) (size 9 to 14) (size 15 to 20)
#    0.000    2.154    1.538    3.000    0.000    6.769 
#    5.538    0.000    0.000    0.000    0.000    0.000 
#    0.000    0.000    0.000    0.000    0.000    4.615 
#
# Total GULP energy -644299.980556 kJ/mol
# GULP energy per Si atom -12390.384241 kJ/mol
# Density = 1.502880 g / cm^3
# Si number density = 15.063083 Si / 1000 Ang^3
#
#
#
# Elastic Constant Matrix: (Units=GPa)
#
#
# Indices 1 2 3 4 5 6 
#
# 1 115.5365 38.5401 49.7742 0.0000 0.0000 0.0000
# 2 38.5401 68.3168 25.9996 0.0000 0.0000 0.0000
# 3 49.7742 25.9996 114.9644 0.0000 0.0000 0.0000
# 4 0.0000 0.0000 0.0000 15.4503 0.0000 0.0000
# 5 0.0000 0.0000 0.0000 0.0000 70.4838 0.0000
# 6 0.0000 0.0000 0.0000 0.0000 0.0000 14.6752
#
#
#
# Elastic Compliance Matrix: (Units=1/GPa)
#
#
# Indices 1 2 3 4 5 6 
#
# 1 0.012186 -0.005325 -0.004072 0.000000 0.000000 0.000000
# 2 -0.005325 0.018343 -0.001843 0.000000 0.000000 0.000000
# 3 -0.004072 -0.001843 0.010878 0.000000 0.000000 0.000000
# 4 0.000000 0.000000 0.000000 0.064724 0.000000 0.000000
# 5 0.000000 0.000000 0.000000 0.000000 0.014188 0.000000
# 6 0.000000 0.000000 0.000000 0.000000 0.000000 0.068142
#
#
# Mechanical properties :
#
#
# Convention : Reuss Voigt Hill
#
# Bulk Modulus (GPa) = 52.83216 58.60507 55.71861
# Shear Modulus (GPa) = 23.01519 32.42212 27.71865
#
# Velocity S-wave (km/s) = 3.91310 4.64445 4.29438
# Velocity P-wave (km/s) = 7.45430 8.23117 7.85235
#
# Compressibility (1/GPa) = 0.01892787
#
# Stress axis : x y z
#
# Youngs Moduli (GPa) = 82.06432 54.51676 91.92936
#
# Poissons Ratio (x) = 0.29029 0.37430
# Poissons Ratio (y) = 0.43698 0.16942
# Poissons Ratio (z) = 0.33413 0.10047
#
# Static dielectric constant tensor:
#      x y z
#    x 2.953880 0.000000 0.000000 
#    y 0.000000 2.591760 0.000000 
#    z 0.000000 0.000000 3.003710 
# 
# 
# High freq. dielectric constant tensor:
#      x y z
#    x 1.573180 0.000000 0.000000 
#    y 0.000000 1.522050 0.000000 
#    z 0.000000 0.000000 1.589260 
# 
# From -- ./inp_files/6412.got.cif
#   From: 2010.03.12/outbox.cif.g09.slc.cpg/sg49_4_cif.got.tgz:6412.got - 2010.04.14 03:58:27.
