data_PCOD8202545
_publ_section_title
;
Structure prediction by ZEFSAII (Michael W. Deem and Ramdas Pophale) SiO2 
 PCOD8202545
Probable space group: P C C M
;
_chemical_formula_sum "Si O2"
_cell_formula_units_Z 64
_cell_length_a 22.969719
_cell_length_b 18.013848
_cell_length_c 9.057814
_cell_angle_alpha 90.000000
_cell_angle_beta 90.000000
_cell_angle_gamma 90.000000
_cell_volume 3747.879114
_symmetry_space_group_name_H-M "P C C M"
_symmetry_group_IT_number 49
_symmetry_cell_setting 'orthorhombic'
loop_
_space_group_symop_operation_xyz
x,y,z
-x,-y,z
x,-y,1/2-z
-x,y,1/2-z
-x,-y,-z
x,y,-z
-x,y,1/2+z
x,-y,1/2+z
loop_
_atom_site_type_symbol
_atom_site_label
_atom_site_fract_x
_atom_site_fract_y
_atom_site_fract_z
Si Si1 0.560532 0.424525 0.673166
Si Si2 0.667146 0.323813 0.330158
Si Si3 0.255356 0.801916 0.662244
Si Si4 0.752604 0.573917 0.327403
Si Si5 0.815330 0.924102 0.675744
Si Si6 0.054925 0.891514 0.161879
Si Si7 0.946099 0.717606 0.336948
Si Si8 0.835281 0.330591 0.335251
O O1 0.585837 0.500000 0.750000
O O2 0.500000 0.403495 0.750000
O O3 0.551615 0.441217 0.500000
O O4 0.601198 0.351684 0.695503
O O5 0.685849 0.343628 0.500000
O O6 0.680131 0.234656 0.303994
O O7 0.704325 0.365287 0.206633
O O8 0.255309 0.839927 0.500000
O O9 0.231686 0.861214 0.779650
O O10 0.214391 0.730598 0.661364
O O11 0.730339 0.500000 0.250000
O O12 0.760277 0.561995 0.500000
O O13 0.814307 0.598017 0.256793
O O14 0.814386 0.929492 0.500000
O O15 0.881279 0.907047 0.734380
O O16 0.793963 0.000000 0.750000
O O17 0.044438 0.804715 0.147931
O O18 0.000000 0.926787 0.250000
O O19 0.054164 0.928281 0.000000
O O20 0.941357 0.681863 0.500000
O O21 0.889256 0.705160 0.244157
O O22 0.000000 0.680947 0.250000
O O23 0.852437 0.355843 0.500000
#
# Coordination Sequence:
#
# PCOD8202545 Si02
#       8
#     8   8   8   8   8   8   8   8
#     4  10  19  31  48  72 107 145 181 213 242 283
#     4   9  19  34  51  73 100 132 169 208 246 284
#     4   9  18  33  51  70  93 122 158 200 245 288
#     4  11  21  32  48  70  96 125 158 198 240 286
#     4  11  22  35  49  69  95 126 160 199 245 299
#     4   9  19  32  47  66  91 119 154 194 236 290
#     4  10  18  30  47  69  91 115 150 191 236 286
#     4  10  19  32  50  70  92 119 151 192 241 289
#
# _framework density 17.076325000000001
#
# number of rings (size 3 to 8) (size 9 to 14) (size 15 to 20)
#    0.000    2.125    1.250    4.125    0.000    5.750 
#    0.000    1.250    0.000    0.375    0.000    2.625 
#    0.000    0.500    0.000    5.750    0.000    1.750 
#
# Total GULP energy -793010.778064 kJ/mol
# GULP energy per Si atom -12390.793407 kJ/mol
# Density = 1.703746 g / cm^3
# Si number density = 17.076325 Si / 1000 Ang^3
#
#
#
# Elastic Constant Matrix: (Units=GPa)
#
#
# Indices 1 2 3 4 5 6 
#
# 1 74.0125 33.6156 35.1525 0.0000 0.0000 0.0000
# 2 33.6156 60.5355 35.6235 0.0000 0.0000 0.0000
# 3 35.1525 35.6235 124.9652 0.0000 0.0000 0.0000
# 4 0.0000 0.0000 0.0000 43.3337 0.0000 0.0000
# 5 0.0000 0.0000 0.0000 0.0000 18.8130 0.0000
# 6 0.0000 0.0000 0.0000 0.0000 0.0000 13.2778
#
#
#
# Elastic Compliance Matrix: (Units=1/GPa)
#
#
# Indices 1 2 3 4 5 6 
#
# 1 0.018842 -0.008824 -0.002785 0.000000 0.000000 0.000000
# 2 -0.008824 0.023982 -0.004354 0.000000 0.000000 0.000000
# 3 -0.002785 -0.004354 0.010027 0.000000 0.000000 0.000000
# 4 0.000000 0.000000 0.000000 0.023077 0.000000 0.000000
# 5 0.000000 0.000000 0.000000 0.000000 0.053155 0.000000
# 6 0.000000 0.000000 0.000000 0.000000 0.000000 0.075314
#
#
# Mechanical properties :
#
#
# Convention : Reuss Voigt Hill
#
# Bulk Modulus (GPa) = 47.79173 52.03294 49.91233
# Shear Modulus (GPa) = 20.55112 25.42635 22.98873
#
# Velocity S-wave (km/s) = 3.47289 3.86292 3.67309
# Velocity P-wave (km/s) = 6.64298 7.10163 6.87613
#
# Compressibility (1/GPa) = 0.02092412
#
# Stress axis : x y z
#
# Youngs Moduli (GPa) = 53.07396 41.69863 99.73301
#
# Poissons Ratio (x) = 0.36795 0.27772
# Poissons Ratio (y) = 0.46833 0.43425
# Poissons Ratio (z) = 0.14779 0.18156
#
# Static dielectric constant tensor:
#      x y z
#    x 4.538360 0.000000 0.000000 
#    y 0.000000 3.055270 0.000000 
#    z 0.000000 0.000000 3.421470 
# 
# 
# High freq. dielectric constant tensor:
#      x y z
#    x 1.635620 0.000000 0.000000 
#    y 0.000000 1.627810 0.000000 
#    z 0.000000 0.000000 1.673330 
# 
# From -- ./inp_files/5395.got.cif
#   From: 2010.03.12/outbox.cif.g09.slc.cpg/sg49_3_cif.got.tgz:5395.got - 2010.04.14 03:58:27.
