data_PCOD8202292
_publ_section_title
;
Structure prediction by ZEFSAII (Michael W. Deem and Ramdas Pophale) SiO2 
 PCOD8202292
Probable space group: P C C M
;
_chemical_formula_sum "Si O2"
_cell_formula_units_Z 64
_cell_length_a 30.486342
_cell_length_b 15.267304
_cell_length_c 8.877964
_cell_angle_alpha 90.000000
_cell_angle_beta 90.000000
_cell_angle_gamma 90.000000
_cell_volume 4132.197306
_symmetry_space_group_name_H-M "P C C M"
_symmetry_group_IT_number 49
_symmetry_cell_setting 'orthorhombic'
loop_
_space_group_symop_operation_xyz
x,y,z
-x,-y,z
x,-y,1/2-z
-x,y,1/2-z
-x,-y,-z
x,y,-z
-x,y,1/2+z
x,-y,1/2+z
loop_
_atom_site_type_symbol
_atom_site_label
_atom_site_fract_x
_atom_site_fract_y
_atom_site_fract_z
Si Si1 0.199751 0.735884 0.322283
Si Si2 0.137998 0.594671 0.824054
Si Si3 0.198881 0.913377 0.170349
Si Si4 0.299919 0.259936 0.825435
Si Si5 0.958824 0.405784 0.174454
Si Si6 0.696658 0.914246 0.331532
Si Si7 0.369490 0.405976 0.178065
Si Si8 0.543206 0.596779 0.319382
O O1 0.193532 0.735604 0.500000
O O2 0.172915 0.657536 0.250991
O O3 0.181952 0.828036 0.258674
O O4 0.250226 0.721263 0.273751
O O5 0.142419 0.500000 0.750000
O O6 0.089228 0.636481 0.798603
O O7 0.148269 0.584985 0.000000
O O8 0.251092 0.916724 0.174876
O O9 0.179483 0.000000 0.250000
O O10 0.181276 0.909609 0.000000
O O11 0.320263 0.175076 0.744134
O O12 0.328191 0.344977 0.785561
O O13 0.301220 0.237108 0.000000
O O14 0.957136 0.500000 0.250000
O O15 0.000000 0.352617 0.250000
O O16 0.969091 0.415680 0.000000
O O17 0.678618 0.915879 0.500000
O O18 0.677150 0.000000 0.250000
O O19 0.358949 0.500000 0.250000
O O20 0.411860 0.360144 0.257685
O O21 0.377966 0.416324 0.000000
O O22 0.544131 0.500000 0.250000
O O23 0.500000 0.644980 0.250000
O O24 0.541429 0.596038 0.500000
#
# Coordination Sequence:
#
# PCOD8202292 Si02
#       8
#     8   8   8   8   8   8   8   8
#     4  10  19  31  45  62  85 116 150 183 216 253
#     4  10  20  32  44  61  85 115 148 182 216 254
#     4   9  16  27  43  63  84 108 138 176 219 261
#     4   9  19  32  44  60  85 115 148 182 215 250
#     4   9  16  26  42  61  81 104 134 172 216 259
#     4   9  16  26  43  63  83 107 137 174 217 259
#     4  10  19  31  44  60  84 114 146 181 215 250
#     4  10  17  27  43  62  82 105 135 172 214 258
#
# _framework density 15.488127
#
# number of rings (size 3 to 8) (size 9 to 14) (size 15 to 20)
#    0.000    2.500    0.000    4.875    0.000    6.500 
#    0.000    1.250    0.000    0.000    0.000    0.000 
#    0.000    1.000    0.000   10.500    0.000    5.625 
#
# Total GULP energy -793208.511518 kJ/mol
# GULP energy per Si atom -12393.882992 kJ/mol
# Density = 1.545288 g / cm^3
# Si number density = 15.488127 Si / 1000 Ang^3
#
#
#
# Elastic Constant Matrix: (Units=GPa)
#
#
# Indices 1 2 3 4 5 6 
#
# 1 78.9141 48.5075 50.6823 0.0000 0.0000 0.0000
# 2 48.5075 92.4521 53.7179 0.0000 0.0000 0.0000
# 3 50.6823 53.7179 120.0509 0.0000 0.0000 0.0000
# 4 0.0000 0.0000 0.0000 26.7270 0.0000 0.0000
# 5 0.0000 0.0000 0.0000 0.0000 22.1254 0.0000
# 6 0.0000 0.0000 0.0000 0.0000 0.0000 0.0013
#
#
#
# Elastic Compliance Matrix: (Units=1/GPa)
#
#
# Indices 1 2 3 4 5 6 
#
# 1 0.020935 -0.007904 -0.005302 0.000000 0.000000 0.000000
# 2 -0.007904 0.017601 -0.004539 0.000000 0.000000 0.000000
# 3 -0.005302 -0.004539 0.012599 0.000000 0.000000 0.000000
# 4 0.000000 0.000000 0.000000 0.037415 0.000000 0.000000
# 5 0.000000 0.000000 0.000000 0.000000 0.045197 0.000000
# 6 0.000000 0.000000 0.000000 0.000000 0.000000771.453506
#
#
# Mechanical properties :
#
#
# Convention : Reuss Voigt Hill
#
# Bulk Modulus (GPa) = 63.91292 66.35919 65.13605
# Shear Modulus (GPa) = 0.00648 19.00471 9.50559
#
# Velocity S-wave (km/s) = 0.06475 3.50673 2.48005
# Velocity P-wave (km/s) = 6.43125 7.70288 7.09561
#
# Compressibility (1/GPa) = 0.01564629
#
# Stress axis : x y z
#
# Youngs Moduli (GPa) = 47.76595 56.81640 79.37178
#
# Poissons Ratio (x) = 0.44907 0.42081
# Poissons Ratio (y) = 0.37754 0.36025
# Poissons Ratio (z) = 0.25324 0.25787
#
# Static dielectric constant tensor:
#      x y z
#    x 3.433940 0.000000 0.000000 
#    y 0.000000 2.776050 0.000000 
#    z 0.000000 0.000000 3.153540 
# 
# 
# High freq. dielectric constant tensor:
#      x y z
#    x 1.571520 0.000000 0.000000 
#    y 0.000000 1.561290 0.000000 
#    z 0.000000 0.000000 1.616290 
# 
# From -- ./inp_files/7077.got.cif
#   From: 2010.03.12/outbox.cif.g09.slc.cpg/sg49_4_cif.got.tgz:7077.got - 2010.04.14 03:58:27.
