data_PCOD8202423
_publ_section_title
;
Structure prediction by ZEFSAII (Michael W. Deem and Ramdas Pophale) SiO2 
 PCOD8202423
Probable space group: P C C M
;
_chemical_formula_sum "Si O2"
_cell_formula_units_Z 40
_cell_length_a 14.945937
_cell_length_b 14.792541
_cell_length_c 8.585909
_cell_angle_alpha 90.000000
_cell_angle_beta 90.000000
_cell_angle_gamma 90.000000
_cell_volume 1898.244762
_symmetry_space_group_name_H-M "P C C M"
_symmetry_group_IT_number 49
_symmetry_cell_setting 'orthorhombic'
loop_
_space_group_symop_operation_xyz
x,y,z
-x,-y,z
x,-y,1/2-z
-x,y,1/2-z
-x,-y,-z
x,y,-z
-x,y,1/2+z
x,-y,1/2+z
loop_
_atom_site_type_symbol
_atom_site_label
_atom_site_fract_x
_atom_site_fract_y
_atom_site_fract_z
Si Si1 0.716486 0.899658 0.683506
Si Si2 0.913791 0.901141 0.679595
Si Si3 0.598556 0.254931 0.683790
Si Si4 0.728155 0.599787 0.315805
Si Si5 0.910427 0.600847 0.815526
O O1 0.694563 0.899796 0.500000
O O2 0.816305 0.858022 0.713615
O O3 0.647667 0.838115 0.776040
O O4 0.707488 0.000000 0.750000
O O5 0.931937 0.909592 0.500000
O O6 0.000000 0.846645 0.750000
O O7 0.911840 0.000000 0.750000
O O8 0.500000 0.247897 0.750000
O O9 0.597596 0.270587 0.500000
O O10 0.645124 0.339288 0.767082
O O11 0.711989 0.500000 0.250000
O O12 0.736593 0.594971 0.500000
O O13 0.818959 0.645951 0.247038
O O14 0.909657 0.500000 0.750000
O O15 0.000000 0.650479 0.750000
O O16 0.912046 0.601386 0.000000
#
# Coordination Sequence:
#
# PCOD8202423 Si02
#       5
#     8   8   8   8   8
#     4  10  21  39  62  91 123 160 201 247 298 355
#     4   9  16  27  49  80 117 155 195 236 283 339
#     4  12  26  45  66  90 118 153 197 251 308 364
#     4  11  22  40  64  92 124 160 201 247 298 358
#     4  10  17  29  51  83 120 160 201 243 291 348
#
# _framework density 21.072096999999999
#
# number of rings (size 3 to 8) (size 9 to 14) (size 15 to 20)
#    0.000    1.600    0.000    9.000    0.000    3.200 
#    0.000    5.000    0.000    2.400    0.000    0.000 
#    0.000    0.000    0.000    0.000    0.000    0.000 
#
# Total GULP energy -495805.246756 kJ/mol
# GULP energy per Si atom -12395.131169 kJ/mol
# Density = 2.102414 g / cm^3
# Si number density = 21.072097 Si / 1000 Ang^3
#
#
#
# Elastic Constant Matrix: (Units=GPa)
#
#
# Indices 1 2 3 4 5 6 
#
# 1 177.7552 45.2707 67.3666 0.0000 0.0000 0.0000
# 2 45.2707 70.9603 31.8324 0.0000 0.0000 0.0000
# 3 67.3666 31.8324 184.0254 0.0000 0.0000 0.0000
# 4 0.0000 0.0000 0.0000 27.6480 0.0000 0.0000
# 5 0.0000 0.0000 0.0000 0.0000 41.6968 0.0000
# 6 0.0000 0.0000 0.0000 0.0000 0.0000 48.1903
#
#
#
# Elastic Compliance Matrix: (Units=1/GPa)
#
#
# Indices 1 2 3 4 5 6 
#
# 1 0.007362 -0.003781 -0.002041 0.000000 0.000000 0.000000
# 2 -0.003781 0.017220 -0.001594 0.000000 0.000000 0.000000
# 3 -0.002041 -0.001594 0.006457 0.000000 0.000000 0.000000
# 4 0.000000 0.000000 0.000000 0.036169 0.000000 0.000000
# 5 0.000000 0.000000 0.000000 0.000000 0.023983 0.000000
# 6 0.000000 0.000000 0.000000 0.000000 0.000000 0.020751
#
#
# Mechanical properties :
#
#
# Convention : Reuss Voigt Hill
#
# Bulk Modulus (GPa) = 61.70676 80.18670 70.94673
# Shear Modulus (GPa) = 37.82794 42.72511 40.27653
#
# Velocity S-wave (km/s) = 4.24154 4.50774 4.37666
# Velocity P-wave (km/s) = 7.30306 8.07645 7.69947
#
# Compressibility (1/GPa) = 0.01620568
#
# Stress axis : x y z
#
# Youngs Moduli (GPa) = 135.82779 58.07192 154.87061
#
# Poissons Ratio (x) = 0.21959 0.31610
# Poissons Ratio (y) = 0.51361 0.24693
# Poissons Ratio (z) = 0.27723 0.09259
#
# Static dielectric constant tensor:
#      x y z
#    x 4.834090 0.000000 0.000000 
#    y 0.000000 3.463880 0.000000 
#    z 0.000000 0.000000 4.094950 
# 
# 
# High freq. dielectric constant tensor:
#      x y z
#    x 1.845890 0.000000 0.000000 
#    y 0.000000 1.797260 0.000000 
#    z 0.000000 0.000000 1.845890 
# 
# From -- ./inp_files/3454.got.cif
#   From: 2010.03.12/outbox.cif.g09.slc.cpg/sg49_2_cif.got.tgz:3454.got - 2010.04.14 03:58:27.
