data_PCOD8202314
_publ_section_title
;
Structure prediction by ZEFSAII (Michael W. Deem and Ramdas Pophale) SiO2 
 PCOD8202314
Probable space group: P C C M
;
_chemical_formula_sum "Si O2"
_cell_formula_units_Z 48
_cell_length_a 30.726330
_cell_length_b 9.982341
_cell_length_c 8.756618
_cell_angle_alpha 90.000000
_cell_angle_beta 90.000000
_cell_angle_gamma 90.000000
_cell_volume 2685.836035
_symmetry_space_group_name_H-M "P C C M"
_symmetry_group_IT_number 49
_symmetry_cell_setting 'orthorhombic'
loop_
_space_group_symop_operation_xyz
x,y,z
-x,-y,z
x,-y,1/2-z
-x,y,1/2-z
-x,-y,-z
x,y,-z
-x,y,1/2+z
x,-y,1/2+z
loop_
_atom_site_type_symbol
_atom_site_label
_atom_site_fract_x
_atom_site_fract_y
_atom_site_fract_z
Si Si1 0.958604 0.145250 0.823205
Si Si2 0.200363 0.639120 0.319699
Si Si3 0.630974 0.146046 0.681539
Si Si4 0.543179 0.851399 0.682327
Si Si5 0.862675 0.146275 0.178725
Si Si6 0.299223 0.362653 0.178992
O O1 0.911045 0.209788 0.792673
O O2 0.000000 0.226165 0.750000
O O3 0.957307 0.000000 0.750000
O O4 0.968020 0.131508 0.000000
O O5 0.183182 0.500000 0.250000
O O6 0.195954 0.631485 0.500000
O O7 0.172014 0.759777 0.257888
O O8 0.249959 0.665620 0.266467
O O9 0.625376 0.135210 0.500000
O O10 0.587657 0.214603 0.754912
O O11 0.671136 0.238833 0.731559
O O12 0.640153 0.000000 0.750000
O O13 0.500000 0.777439 0.750000
O O14 0.541925 0.851734 0.500000
O O15 0.543623 0.000000 0.750000
O O16 0.858393 0.000000 0.250000
O O17 0.852709 0.135488 0.000000
O O18 0.317265 0.500000 0.250000
O O19 0.301335 0.381156 0.000000
#
# Coordination Sequence:
#
# PCOD8202314 Si02
#       6
#     8   8   8   8   8   8
#     4   9  16  26  43  67  97 129 163 199 242 291
#     4  10  20  36  55  75  99 132 170 208 250 302
#     4  10  19  32  49  74 103 130 162 203 245 288
#     4  10  17  27  44  68  97 130 163 198 240 287
#     4  10  20  33  50  76 105 134 167 208 252 296
#     4   9  20  36  54  74  98 129 167 204 245 296
#
# _framework density 17.871531000000001
#
# number of rings (size 3 to 8) (size 9 to 14) (size 15 to 20)
#    0.000    2.333    0.000    5.500    0.000    4.667 
#    0.000    1.667    0.000    1.000    0.000    7.000 
#    0.000    0.000    0.000    0.000    0.000    0.000 
#
# Total GULP energy -594895.365365 kJ/mol
# GULP energy per Si atom -12393.653445 kJ/mol
# Density = 1.783085 g / cm^3
# Si number density = 17.871531 Si / 1000 Ang^3
#
#
#
# Elastic Constant Matrix: (Units=GPa)
#
#
# Indices 1 2 3 4 5 6 
#
# 1 134.4072 66.0516 58.8623 0.0000 0.0000 0.0000
# 2 66.0516 78.8413 38.7928 0.0000 0.0000 0.0000
# 3 58.8623 38.7928 108.7922 0.0000 0.0000 0.0000
# 4 0.0000 0.0000 0.0000 24.2201 0.0000 0.0000
# 5 0.0000 0.0000 0.0000 0.0000 30.2980 0.0000
# 6 0.0000 0.0000 0.0000 0.0000 0.0000 -0.5562
#
#
#
# Elastic Compliance Matrix: (Units=1/GPa)
#
#
# Indices 1 2 3 4 5 6 
#
# 1 0.014021 -0.009719 -0.004120 0.000000 0.000000 0.000000
# 2 -0.009719 0.022119 -0.002629 0.000000 0.000000 0.000000
# 3 -0.004120 -0.002629 0.012359 0.000000 0.000000 0.000000
# 4 0.000000 0.000000 0.000000 0.041288 0.000000 0.000000
# 5 0.000000 0.000000 0.000000 0.000000 0.033005 0.000000
# 6 0.000000 0.000000 0.000000 0.000000 0.000000 -1.797772
#
#
# Mechanical properties :
#
#
# Convention : Reuss Voigt Hill
#
# Bulk Modulus (GPa) = 64.25719 72.16158 68.20938
# Shear Modulus (GPa) = -3.05464 21.34797 9.14666
#
# Velocity S-wave (km/s) = -1.30879 3.45994 2.26476
# Velocity P-wave (km/s) = 5.80941 7.51180 6.71477
#
# Compressibility (1/GPa) = 0.01556246
#
# Stress axis : x y z
#
# Youngs Moduli (GPa) = 71.32305 45.20903 80.91532
#
# Poissons Ratio (x) = 0.43938 0.33341
# Poissons Ratio (y) = 0.69318 0.21272
# Poissons Ratio (z) = 0.29388 0.11885
#
# Static dielectric constant tensor:
#      x y z
#    x 4.449240 0.000000 0.000000 
#    y 0.000000 2.939570 0.000000 
#    z 0.000000 0.000000 3.425930 
# 
# 
# High freq. dielectric constant tensor:
#      x y z
#    x 1.714220 0.000000 0.000000 
#    y 0.000000 1.640220 0.000000 
#    z 0.000000 0.000000 1.709150 
# 
# From -- ./inp_files/6874.got.cif
#   From: 2010.03.12/outbox.cif.g09.slc.cpg/sg49_4_cif.got.tgz:6874.got - 2010.04.14 03:58:27.
