data_PCOD8202191
_publ_section_title
;
Structure prediction by ZEFSAII (Michael W. Deem and Ramdas Pophale) SiO2 
 PCOD8202191
Probable space group: P C C M
;
_chemical_formula_sum "Si O2"
_cell_formula_units_Z 40
_cell_length_a 26.028671
_cell_length_b 9.460065
_cell_length_c 8.630617
_cell_angle_alpha 90.000000
_cell_angle_beta 90.000000
_cell_angle_gamma 90.000000
_cell_volume 2125.142021
_symmetry_space_group_name_H-M "P C C M"
_symmetry_group_IT_number 49
_symmetry_cell_setting 'orthorhombic'
loop_
_space_group_symop_operation_xyz
x,y,z
-x,-y,z
x,-y,1/2-z
-x,y,1/2-z
-x,-y,-z
x,y,-z
-x,y,1/2+z
x,-y,1/2+z
loop_
_atom_site_type_symbol
_atom_site_label
_atom_site_fract_x
_atom_site_fract_y
_atom_site_fract_z
Si Si1 0.551230 0.157819 0.682631
Si Si2 0.943779 0.851348 0.184368
Si Si3 0.858080 0.655408 0.684565
Si Si4 0.764856 0.845944 0.681005
Si Si5 0.347643 0.844933 0.181381
O O1 0.500000 0.234572 0.750000
O O2 0.547882 0.155391 0.500000
O O3 0.604062 0.236348 0.737646
O O4 0.553027 0.000000 0.750000
O O5 0.908131 0.725257 0.241554
O O6 0.000000 0.820685 0.250000
O O7 0.922415 0.000000 0.250000
O O8 0.945495 0.858097 0.000000
O O9 0.852809 0.500000 0.750000
O O10 0.862886 0.653873 0.500000
O O11 0.807893 0.739648 0.743994
O O12 0.770793 0.866694 0.500000
O O13 0.708401 0.778074 0.719054
O O14 0.773450 0.000000 0.750000
O O15 0.344738 0.000000 0.250000
O O16 0.358828 0.851165 0.000000
#
# Coordination Sequence:
#
# PCOD8202191 Si02
#       5
#     8   8   8   8   8
#     4  10  16  22  32  50  78 115 153 193 239 294
#     4  11  22  39  62  88 114 144 178 217 258 306
#     4  11  23  39  56  80 110 143 179 219 264 313
#     4   9  19  33  52  74 100 132 171 213 258 307
#     4   9  15  25  39  59  85 117 155 199 244 294
#
# _framework density 18.822272000000002
#
# number of rings (size 3 to 8) (size 9 to 14) (size 15 to 20)
#    0.000    2.000    0.000    7.800    0.000    4.400 
#    0.000    2.000    0.000    0.000    0.000    0.000 
#    0.000    0.800    0.000    9.200    0.000    5.800 
#
# Total GULP energy -495733.533205 kJ/mol
# GULP energy per Si atom -12393.338330 kJ/mol
# Density = 1.877943 g / cm^3
# Si number density = 18.822272 Si / 1000 Ang^3
#
#
#
# Elastic Constant Matrix: (Units=GPa)
#
#
# Indices 1 2 3 4 5 6 
#
# 1 155.6686 65.7985 63.6069 0.0000 0.0000 0.0000
# 2 65.7985 82.5553 35.2496 0.0000 0.0000 0.0000
# 3 63.6069 35.2496 133.8772 0.0000 0.0000 0.0000
# 4 0.0000 0.0000 0.0000 20.3738 0.0000 0.0000
# 5 0.0000 0.0000 0.0000 0.0000 37.9085 0.0000
# 6 0.0000 0.0000 0.0000 0.0000 0.0000 3.6044
#
#
#
# Elastic Compliance Matrix: (Units=1/GPa)
#
#
# Indices 1 2 3 4 5 6 
#
# 1 0.010798 -0.007228 -0.003227 0.000000 0.000000 0.000000
# 2 -0.007228 0.018486 -0.001433 0.000000 0.000000 0.000000
# 3 -0.003227 -0.001433 0.009380 0.000000 0.000000 0.000000
# 4 0.000000 0.000000 0.000000 0.049083 0.000000 0.000000
# 5 0.000000 0.000000 0.000000 0.000000 0.026379 0.000000
# 6 0.000000 0.000000 0.000000 0.000000 0.000000 0.277437
#
#
# Mechanical properties :
#
#
# Convention : Reuss Voigt Hill
#
# Bulk Modulus (GPa) = 67.17162 77.93455 72.55308
# Shear Modulus (GPa) = 11.89622 26.20709 19.05166
#
# Velocity S-wave (km/s) = 2.51675 3.73546 3.18494
# Velocity P-wave (km/s) = 6.64907 7.75244 7.22186
#
# Compressibility (1/GPa) = 0.01488724
#
# Stress axis : x y z
#
# Youngs Moduli (GPa) = 92.61265 54.09504 106.60920
#
# Poissons Ratio (x) = 0.39101 0.34402
# Poissons Ratio (y) = 0.66942 0.15279
# Poissons Ratio (z) = 0.29886 0.07753
#
# Static dielectric constant tensor:
#      x y z
#    x 4.978450 0.000000 0.000000 
#    y 0.000000 3.000360 0.000000 
#    z 0.000000 0.000000 3.579440 
# 
# 
# High freq. dielectric constant tensor:
#      x y z
#    x 1.766880 0.000000 0.000000 
#    y 0.000000 1.662400 0.000000 
#    z 0.000000 0.000000 1.747140 
# 
# From -- ./inp_files/1891.got.cif
#   From: 2010.03.12/outbox.cif.g09.slc.cpg/sg49_1_cif.got.tgz:1891.got - 2010.04.14 03:58:27.
