data_PCOD8202613
_publ_section_title
;
Structure prediction by ZEFSAII (Michael W. Deem and Ramdas Pophale) SiO2 
 PCOD8202613
Probable space group: P C C M
;
_chemical_formula_sum "Si O2"
_cell_formula_units_Z 48
_cell_length_a 9.454948
_cell_length_b 31.114925
_cell_length_c 8.529648
_cell_angle_alpha 90.000000
_cell_angle_beta 90.000000
_cell_angle_gamma 90.000000
_cell_volume 2509.337127
_symmetry_space_group_name_H-M "P C C M"
_symmetry_group_IT_number 49
_symmetry_cell_setting 'orthorhombic'
loop_
_space_group_symop_operation_xyz
x,y,z
-x,-y,z
x,-y,1/2-z
-x,y,1/2-z
-x,-y,-z
x,y,-z
-x,y,1/2+z
x,-y,1/2+z
loop_
_atom_site_type_symbol
_atom_site_label
_atom_site_fract_x
_atom_site_fract_y
_atom_site_fract_z
Si Si1 0.342203 0.208139 0.814088
Si Si2 0.657801 0.879322 0.685515
Si Si3 0.152876 0.954244 0.684947
Si Si4 0.343023 0.703984 0.813920
Si Si5 0.653808 0.545804 0.685824
Si Si6 0.156547 0.624072 0.814953
O O1 0.500000 0.210679 0.750000
O O2 0.269082 0.165798 0.738484
O O3 0.271021 0.252612 0.757079
O O4 0.338958 0.203998 0.000000
O O5 0.500000 0.880321 0.750000
O O6 0.660098 0.883735 0.500000
O O7 0.737841 0.918584 0.762756
O O8 0.144757 0.957015 0.500000
O O9 0.000000 0.941757 0.750000
O O10 0.204918 0.000000 0.750000
O O11 0.500000 0.695635 0.750000
O O12 0.244171 0.665252 0.755944
O O13 0.350520 0.707923 0.000000
O O14 0.705898 0.500000 0.750000
O O15 0.500000 0.558111 0.750000
O O16 0.645003 0.543977 0.500000
O O17 0.764930 0.581256 0.745965
O O18 0.000000 0.625776 0.750000
O O19 0.149449 0.623882 0.000000
#
# Coordination Sequence:
#
# PCOD8202613 Si02
#       6
#     8   8   8   8   8   8
#     4  10  18  31  52  80 109 141 177 220 270 323
#     4  11  21  36  57  84 114 146 182 228 277 327
#     4  11  22  39  59  82 110 146 186 227 273 327
#     4  10  19  34  55  80 105 137 178 221 264 316
#     4  10  20  36  57  83 108 138 177 221 265 315
#     4  10  23  38  54  77 109 143 179 218 266 318
#
# _framework density 19.128558999999999
#
# number of rings (size 3 to 8) (size 9 to 14) (size 15 to 20)
#    0.000    1.667    0.000    9.000    0.000    3.333 
#    0.000    4.167    0.000    2.000    0.000    0.000 
#    0.000    0.000    0.000    0.000    0.000    0.000 
#
# Total GULP energy -595193.895681 kJ/mol
# GULP energy per Si atom -12399.872827 kJ/mol
# Density = 1.908502 g / cm^3
# Si number density = 19.128559 Si / 1000 Ang^3
#
#
#
# Elastic Constant Matrix: (Units=GPa)
#
#
# Indices 1 2 3 4 5 6 
#
# 1 88.3058 80.1353 27.9321 0.0000 0.0000 0.0000
# 2 80.1353 176.5958 47.8310 0.0000 0.0000 0.0000
# 3 27.9321 47.8310 126.2544 0.0000 0.0000 0.0000
# 4 0.0000 0.0000 0.0000 30.0497 0.0000 0.0000
# 5 0.0000 0.0000 0.0000 0.0000 30.2187 0.0000
# 6 0.0000 0.0000 0.0000 0.0000 0.0000 10.7254
#
#
#
# Elastic Compliance Matrix: (Units=1/GPa)
#
#
# Indices 1 2 3 4 5 6 
#
# 1 0.019380 -0.008506 -0.001065 0.000000 0.000000 0.000000
# 2 -0.008506 0.010043 -0.001923 0.000000 0.000000 0.000000
# 3 -0.001065 -0.001923 0.008885 0.000000 0.000000 0.000000
# 4 0.000000 0.000000 0.000000 0.033278 0.000000 0.000000
# 5 0.000000 0.000000 0.000000 0.000000 0.033092 0.000000
# 6 0.000000 0.000000 0.000000 0.000000 0.000000 0.093236
#
#
# Mechanical properties :
#
#
# Convention : Reuss Voigt Hill
#
# Bulk Modulus (GPa) = 65.27437 78.10586 71.69012
# Shear Modulus (GPa) = 22.12304 29.88262 26.00283
#
# Velocity S-wave (km/s) = 3.40449 3.95675 3.69097
# Velocity P-wave (km/s) = 7.04643 7.86100 7.46483
#
# Compressibility (1/GPa) = 0.01531995
#
# Stress axis : x y z
#
# Youngs Moduli (GPa) = 51.59993 99.56999 112.55270
#
# Poissons Ratio (x) = 0.84691 0.11989
# Poissons Ratio (y) = 0.43889 0.21645
# Poissons Ratio (z) = 0.05496 0.19148
#
# Static dielectric constant tensor:
#      x y z
#    x 3.205510 0.000000 0.000000 
#    y 0.000000 4.340350 0.000000 
#    z 0.000000 0.000000 3.632950 
# 
# 
# High freq. dielectric constant tensor:
#      x y z
#    x 1.712620 0.000000 0.000000 
#    y 0.000000 1.770600 0.000000 
#    z 0.000000 0.000000 1.760880 
# 
# From -- ./inp_files/2100.got.cif
#   From: 2010.03.12/outbox.cif.g09.slc.cpg/sg49_2_cif.got.tgz:2100.got - 2010.04.14 03:58:27.
