data_PCOD8202118
_publ_section_title
;
Structure prediction by ZEFSAII (Michael W. Deem and Ramdas Pophale) SiO2 
 PCOD8202118
Probable space group: P N N N
;
_chemical_formula_sum "Si O2"
_cell_formula_units_Z 56
_cell_length_a 12.246100
_cell_length_b 14.588861
_cell_length_c 14.198232
_cell_angle_alpha 90.000000
_cell_angle_beta 90.000000
_cell_angle_gamma 90.000000
_cell_volume 2536.608575
_symmetry_space_group_name_H-M "P N N N"
_symmetry_group_IT_number 48
_space_group.IT_coordinate_system_code '2'
_symmetry_cell_setting 'orthorhombic'
loop_
_space_group_symop_operation_xyz
x,y,z
1/2-x,1/2-y,z
x,1/2-y,1/2-z
1/2-x,y,1/2-z
-x,-y,-z
1/2+x,1/2+y,-z
-x,1/2+y,1/2+z
1/2+x,-y,1/2+z
loop_
_atom_site_type_symbol
_atom_site_label
_atom_site_fract_x
_atom_site_fract_y
_atom_site_fract_z
Si Si1 0.025387 0.638078 0.521513
Si Si2 0.325154 0.025593 0.504794
Si Si3 0.325424 0.114977 0.840214
Si Si4 0.029654 0.773791 0.356314
Si Si5 0.368820 0.724178 0.642204
Si Si6 0.479735 0.531984 0.608959
Si Si7 0.817536 0.054698 0.655332
O O1 0.101047 0.552708 0.552954
O O2 0.036294 0.715113 0.599261
O O3 0.900952 0.607389 0.530887
O O4 0.053388 0.684188 0.419827
O O5 0.242147 0.075262 0.573481
O O6 0.269551 0.970242 0.422243
O O7 0.250000 0.135216 0.750000
O O8 0.398934 0.203819 0.867794
O O9 0.415626 0.037736 0.821971
O O10 0.056848 0.750000 0.250000
O O11 0.111691 0.857490 0.381405
O O12 0.250000 0.750000 0.597362
O O13 0.363507 0.750000 0.750000
O O14 0.406554 0.622339 0.616076
O O15 0.500000 0.500000 0.500000
O O16 0.598718 0.532837 0.659959
O O17 0.750000 0.073317 0.750000
#
# Coordination Sequence:
#
# PCOD8202118 Si02
#       7
#     8   8   8   8   8   8   8
#     4  11  26  42  69  97 142 174 229 295 337 419
#     4  11  25  44  65 102 137 186 228 276 361 412
#     4  11  24  41  74  99 138 182 230 289 352 423
#     4  11  25  46  68 105 135 176 237 293 352 412
#     4  11  26  43  69 103 135 179 235 294 345 414
#     4  11  23  45  70 101 141 187 239 281 355 432
#     4  11  25  43  73  98 139 185 233 285 353 427
#
# _framework density 22.076720000000002
#
# number of rings (size 3 to 8) (size 9 to 14) (size 15 to 20)
#    0.000    1.000    1.429    4.286    8.000    5.714 
#    0.000    0.000    0.000    0.000    0.000    0.000 
#    0.000    0.000    0.000    0.000    0.000    0.000 
#
# Total GULP energy -693770.937889 kJ/mol
# GULP energy per Si atom -12388.766748 kJ/mol
# Density = 2.202647 g / cm^3
# Si number density = 22.076720 Si / 1000 Ang^3
#
#
#
# Elastic Constant Matrix: (Units=GPa)
#
#
# Indices 1 2 3 4 5 6 
#
# 1 89.4415 27.0711 40.4020 0.0000 0.0000 0.0000
# 2 27.0711 93.0360 18.7928 0.0000 0.0000 0.0000
# 3 40.4020 18.7928 73.6905 0.0000 0.0000 0.0000
# 4 0.0000 0.0000 0.0000 36.6354 0.0000 0.0000
# 5 0.0000 0.0000 0.0000 0.0000 43.5103 0.0000
# 6 0.0000 0.0000 0.0000 0.0000 0.0000 43.2056
#
#
#
# Elastic Compliance Matrix: (Units=1/GPa)
#
#
# Indices 1 2 3 4 5 6 
#
# 1 0.015600 -0.002964 -0.007797 0.000000 0.000000 0.000000
# 2 -0.002964 0.011896 -0.001408 0.000000 0.000000 0.000000
# 3 -0.007797 -0.001408 0.018204 0.000000 0.000000 0.000000
# 4 0.000000 0.000000 0.000000 0.027296 0.000000 0.000000
# 5 0.000000 0.000000 0.000000 0.000000 0.022983 0.000000
# 6 0.000000 0.000000 0.000000 0.000000 0.000000 0.023145
#
#
# Mechanical properties :
#
#
# Convention : Reuss Voigt Hill
#
# Bulk Modulus (GPa) = 46.81558 47.63331 47.22444
# Shear Modulus (GPa) = 33.20436 35.99704 34.60070
#
# Velocity S-wave (km/s) = 3.88241 4.04238 3.96320
# Velocity P-wave (km/s) = 6.43035 6.58869 6.51000
#
# Compressibility (1/GPa) = 0.02136041
#
# Stress axis : x y z
#
# Youngs Moduli (GPa) = 64.10429 84.06517 54.93239
#
# Poissons Ratio (x) = 0.24918 0.42830
# Poissons Ratio (y) = 0.19002 0.07737
# Poissons Ratio (z) = 0.49981 0.11840
#
# Static dielectric constant tensor:
#      x y z
#    x 4.491440 0.000000 0.000000 
#    y 0.000000 4.187380 0.000000 
#    z 0.000000 0.000000 3.652440 
# 
# 
# High freq. dielectric constant tensor:
#      x y z
#    x 1.893080 0.000000 0.000000 
#    y 0.000000 1.871250 0.000000 
#    z 0.000000 0.000000 1.855250 
# 
# From -- ./inp_files/26536.got.cif
#   From: 2010.06.25/outbox.cif.g09.slc.cpg/sg48_14_cif.got.tgz:26536.got - 2010.06.26 18:06:46.
