data_PCOD8202236
_publ_section_title
;
Structure prediction by ZEFSAII (Michael W. Deem and Ramdas Pophale) SiO2 
 PCOD8202236
Probable space group: P C C M
;
_chemical_formula_sum "Si O2"
_cell_formula_units_Z 64
_cell_length_a 5.425056
_cell_length_b 30.369129
_cell_length_c 18.753228
_cell_angle_alpha 90.000000
_cell_angle_beta 90.000000
_cell_angle_gamma 90.000000
_cell_volume 3089.673555
_symmetry_space_group_name_H-M "P C C M"
_symmetry_group_IT_number 49
_symmetry_cell_setting 'orthorhombic'
loop_
_space_group_symop_operation_xyz
x,y,z
-x,-y,z
x,-y,1/2-z
-x,y,1/2-z
-x,-y,-z
x,y,-z
-x,y,1/2+z
x,-y,1/2+z
loop_
_atom_site_type_symbol
_atom_site_label
_atom_site_fract_x
_atom_site_fract_y
_atom_site_fract_z
Si Si1 0.758350 0.634453 0.419640
Si Si2 0.369229 0.398750 0.819116
Si Si3 0.095587 0.314277 0.177355
Si Si4 0.749533 0.018140 0.170388
Si Si5 0.788021 0.189695 0.081731
Si Si6 0.288449 0.756299 0.418591
Si Si7 0.750574 0.118795 0.204491
Si Si8 0.090720 0.548883 0.421593
O O1 0.702652 0.648679 0.500000
O O2 0.507930 0.629873 0.377796
O O3 0.898120 0.675427 0.384293
O O4 0.885621 0.586574 0.415567
O O5 0.500000 0.417898 0.750000
O O6 0.179347 0.362023 0.792399
O O7 0.278002 0.442733 0.857735
O O8 0.296434 0.283529 0.138667
O O9 0.000000 0.290283 0.250000
O O10 0.744742 0.070462 0.171216
O O11 0.500000 0.000000 0.131611
O O12 0.750059 0.000000 0.250000
O O13 0.000000 0.000000 0.131930
O O14 0.544803 0.218907 0.093997
O O15 0.763206 0.149771 0.136030
O O16 0.043109 0.215180 0.098331
O O17 0.793211 0.172297 0.000000
O O18 0.275443 0.738844 0.500000
O O19 0.500000 0.127758 0.250000
O O20 0.000000 0.125709 0.250000
O O21 0.216537 0.551889 0.500000
O O22 0.000000 0.500000 0.408601
#
# Coordination Sequence:
#
# PCOD8202236 Si02
#       8
#     8   8   8   8   8   8   8   8
#     4  10  21  38  61  88 116 154 199 239 294 368
#     4  11  22  38  60  88 121 156 195 249 313 364
#     4  11  23  39  62  89 121 154 188 258 316 360
#     4  10  16  30  50  84 119 155 198 261 312 366
#     4  10  24  44  61  87 128 170 206 257 321 381
#     4  10  23  43  65  89 122 167 216 255 309 390
#     4  12  21  34  61  93 119 161 214 264 311 373
#     4   9  20  39  61  85 118 157 200 249 293 355
#
# _framework density 20.714161000000001
#
# number of rings (size 3 to 8) (size 9 to 14) (size 15 to 20)
#    0.000    1.625    3.750    1.500    1.750    3.500 
#    0.000    3.750    0.000    0.750    0.000    0.000 
#    0.000    0.000    0.000    0.000    0.000    0.000 
#
# Total GULP energy -792970.102855 kJ/mol
# GULP energy per Si atom -12390.157857 kJ/mol
# Density = 2.066702 g / cm^3
# Si number density = 20.714161 Si / 1000 Ang^3
#
#
#
# Elastic Constant Matrix: (Units=GPa)
#
#
# Indices 1 2 3 4 5 6 
#
# 1 125.0174 25.5659 40.8384 0.0000 0.0000 0.0000
# 2 25.5659 101.4109 55.0122 0.0000 0.0000 0.0000
# 3 40.8384 55.0122 130.3181 0.0000 0.0000 0.0000
# 4 0.0000 0.0000 0.0000 24.7320 0.0000 0.0000
# 5 0.0000 0.0000 0.0000 0.0000 18.3452 0.0000
# 6 0.0000 0.0000 0.0000 0.0000 0.0000 18.5767
#
#
#
# Elastic Compliance Matrix: (Units=1/GPa)
#
#
# Indices 1 2 3 4 5 6 
#
# 1 0.008982 -0.000957 -0.002411 0.000000 0.000000 0.000000
# 2 -0.000957 0.012892 -0.005142 0.000000 0.000000 0.000000
# 3 -0.002411 -0.005142 0.010600 0.000000 0.000000 0.000000
# 4 0.000000 0.000000 0.000000 0.040433 0.000000 0.000000
# 5 0.000000 0.000000 0.000000 0.000000 0.054510 0.000000
# 6 0.000000 0.000000 0.000000 0.000000 0.000000 0.053831
#
#
# Mechanical properties :
#
#
# Convention : Reuss Voigt Hill
#
# Bulk Modulus (GPa) = 64.70852 66.61992 65.66422
# Shear Modulus (GPa) = 24.57985 28.01945 26.29965
#
# Velocity S-wave (km/s) = 3.44847 3.68186 3.56707
# Velocity P-wave (km/s) = 6.86750 7.09268 6.98100
#
# Compressibility (1/GPa) = 0.01545392
#
# Stress axis : x y z
#
# Youngs Moduli (GPa) = 111.33299 77.57031 94.34136
#
# Poissons Ratio (x) = 0.07420 0.22745
# Poissons Ratio (y) = 0.10649 0.48513
# Poissons Ratio (z) = 0.26842 0.39889
#
# Static dielectric constant tensor:
#      x y z
#    x 5.152380 0.000000 0.000000 
#    y 0.000000 3.673490 0.000000 
#    z 0.000000 0.000000 3.719940 
# 
# 
# High freq. dielectric constant tensor:
#      x y z
#    x 1.822070 0.000000 0.000000 
#    y 0.000000 1.802110 0.000000 
#    z 0.000000 0.000000 1.803970 
# 
# From -- ./inp_files/15417.got.cif
#   From: 2010.03.12/outbox.cif.g09.slc.cpg/sg49_8_cif.got.tgz:15417.got - 2010.04.14 03:58:27.
