data_PCOD8202726
_publ_section_title
;
Structure prediction by ZEFSAII (Michael W. Deem and Ramdas Pophale) SiO2 
 PCOD8202726
Probable space group: P C C M
;
_chemical_formula_sum "Si O2"
_cell_formula_units_Z 56
_cell_length_a 18.279920
_cell_length_b 21.249215
_cell_length_c 8.712217
_cell_angle_alpha 90.000000
_cell_angle_beta 90.000000
_cell_angle_gamma 90.000000
_cell_volume 3384.120865
_symmetry_space_group_name_H-M "P C C M"
_symmetry_group_IT_number 49
_symmetry_cell_setting 'orthorhombic'
loop_
_space_group_symop_operation_xyz
x,y,z
-x,-y,z
x,-y,1/2-z
-x,y,1/2-z
-x,-y,-z
x,y,-z
-x,y,1/2+z
x,-y,1/2+z
loop_
_atom_site_type_symbol
_atom_site_label
_atom_site_fract_x
_atom_site_fract_y
_atom_site_fract_z
Si Si1 0.921408 0.313775 0.817675
Si Si2 0.298097 0.631460 0.669274
Si Si3 0.156318 0.566558 0.317187
Si Si4 0.577353 0.067420 0.682131
Si Si5 0.334735 0.178100 0.681620
Si Si6 0.794655 0.757538 0.827852
Si Si7 0.421554 0.301469 0.678501
O O1 0.895908 0.381219 0.755202
O O2 0.868989 0.257071 0.763065
O O3 0.000000 0.297756 0.750000
O O4 0.923321 0.316064 0.000000
O O5 0.327491 0.614197 0.500000
O O6 0.241631 0.578311 0.729848
O O7 0.251925 0.694704 0.662416
O O8 0.368138 0.640329 0.778535
O O9 0.131202 0.500000 0.250000
O O10 0.147256 0.568768 0.500000
O O11 0.500000 0.090453 0.750000
O O12 0.571202 0.063051 0.500000
O O13 0.639381 0.116069 0.731125
O O14 0.599172 0.000000 0.750000
O O15 0.337507 0.168122 0.500000
O O16 0.251518 0.190475 0.734379
O O17 0.386881 0.235655 0.734918
O O18 0.812161 0.781950 0.000000
O O19 0.500000 0.312574 0.750000
O O20 0.432270 0.300743 0.500000
#
# Coordination Sequence:
#
# PCOD8202726 Si02
#       7
#     8   8   8   8   8   8   8
#     4  11  21  34  51  72  99 128 155 188 229 276
#     4   8  16  30  46  63  87 114 144 182 226 273
#     4  10  20  34  51  71  92 119 153 188 225 273
#     4  11  21  33  47  65  93 131 170 209 248 288
#     4  10  19  31  47  69  94 124 161 198 235 281
#     4   9  17  31  49  70  94 122 154 190 232 278
#     4  10  19  28  43  65  89 115 147 187 233 278
#
# _framework density 16.547872000000002
#
# number of rings (size 3 to 8) (size 9 to 14) (size 15 to 20)
#    0.000    2.143    0.000    6.000    0.000    7.143 
#    0.000    1.429    0.000    0.429    0.000    3.000 
#    0.000    0.571    0.000    5.714    0.000    3.429 
#
# Total GULP energy -694340.426709 kJ/mol
# GULP energy per Si atom -12398.936191 kJ/mol
# Density = 1.651021 g / cm^3
# Si number density = 16.547872 Si / 1000 Ang^3
#
#
#
# Elastic Constant Matrix: (Units=GPa)
#
#
# Indices 1 2 3 4 5 6 
#
# 1 120.6205 41.7333 49.3146 0.0000 0.0000 0.0000
# 2 41.7333 54.9352 28.2860 0.0000 0.0000 0.0000
# 3 49.3146 28.2860 108.3346 0.0000 0.0000 0.0000
# 4 0.0000 0.0000 0.0000 21.1142 0.0000 0.0000
# 5 0.0000 0.0000 0.0000 0.0000 30.4567 0.0000
# 6 0.0000 0.0000 0.0000 0.0000 0.0000 7.7489
#
#
#
# Elastic Compliance Matrix: (Units=1/GPa)
#
#
# Indices 1 2 3 4 5 6 
#
# 1 0.012398 -0.007524 -0.003679 0.000000 0.000000 0.000000
# 2 -0.007524 0.025597 -0.003258 0.000000 0.000000 0.000000
# 3 -0.003679 -0.003258 0.011756 0.000000 0.000000 0.000000
# 4 0.000000 0.000000 0.000000 0.047361 0.000000 0.000000
# 5 0.000000 0.000000 0.000000 0.000000 0.032833 0.000000
# 6 0.000000 0.000000 0.000000 0.000000 0.000000 0.129051
#
#
# Mechanical properties :
#
#
# Convention : Reuss Voigt Hill
#
# Bulk Modulus (GPa) = 48.01231 58.06200 53.03716
# Shear Modulus (GPa) = 16.95708 22.83440 19.89574
#
# Velocity S-wave (km/s) = 3.20461 3.71873 3.47120
# Velocity P-wave (km/s) = 6.53987 7.32134 6.94161
#
# Compressibility (1/GPa) = 0.02082799
#
# Stress axis : x y z
#
# Youngs Moduli (GPa) = 80.65907 39.06725 85.06208
#
# Poissons Ratio (x) = 0.29395 0.31295
# Poissons Ratio (y) = 0.60689 0.27716
# Poissons Ratio (z) = 0.29675 0.12729
#
# Static dielectric constant tensor:
#      x y z
#    x 1.472580 0.000000 0.000000 
#    y 0.000000 2.979270 0.000000 
#    z 0.000000 0.000000 3.274830 
# 
# 
# High freq. dielectric constant tensor:
#      x y z
#    x 1.628600 0.000000 0.000000 
#    y 0.000000 1.601210 0.000000 
#    z 0.000000 0.000000 1.656060 
# 
# From -- ./inp_files/5160.got.cif
#   From: 2010.03.12/outbox.cif.g09.slc.cpg/sg49_3_cif.got.tgz:5160.got - 2010.04.14 03:58:27.
