data_PCOD8202494
_publ_section_title
;
Structure prediction by ZEFSAII (Michael W. Deem and Ramdas Pophale) SiO2 
 PCOD8202494
Probable space group: P C C M
;
_chemical_formula_sum "Si O2"
_cell_formula_units_Z 56
_cell_length_a 13.813838
_cell_length_b 29.556124
_cell_length_c 8.914672
_cell_angle_alpha 90.000000
_cell_angle_beta 90.000000
_cell_angle_gamma 90.000000
_cell_volume 3639.713564
_symmetry_space_group_name_H-M "P C C M"
_symmetry_group_IT_number 49
_symmetry_cell_setting 'orthorhombic'
loop_
_space_group_symop_operation_xyz
x,y,z
-x,-y,z
x,-y,1/2-z
-x,y,1/2-z
-x,-y,-z
x,y,-z
-x,y,1/2+z
x,-y,1/2+z
loop_
_atom_site_type_symbol
_atom_site_label
_atom_site_fract_x
_atom_site_fract_y
_atom_site_fract_z
Si Si1 0.291866 0.135779 0.677336
Si Si2 0.100924 0.182376 0.677356
Si Si3 0.399298 0.223718 0.322350
Si Si4 0.104561 0.542669 0.824750
Si Si5 0.604227 0.953893 0.320540
Si Si6 0.103742 0.641725 0.175762
Si Si7 0.208916 0.729203 0.822178
O O1 0.293522 0.138739 0.500000
O O2 0.182666 0.146456 0.732025
O O3 0.366652 0.174009 0.736080
O O4 0.324623 0.086315 0.731797
O O5 0.088715 0.181128 0.500000
O O6 0.133936 0.232217 0.732997
O O7 0.000000 0.168292 0.750000
O O8 0.500000 0.238169 0.250000
O O9 0.411000 0.224397 0.500000
O O10 0.317729 0.259618 0.267581
O O11 0.162725 0.500000 0.750000
O O12 0.151592 0.592097 0.792400
O O13 0.000000 0.544089 0.750000
O O14 0.095209 0.533394 0.000000
O O15 0.500000 0.943877 0.250000
O O16 0.595664 0.957896 0.500000
O O17 0.646985 0.000000 0.250000
O O18 0.175655 0.680255 0.240289
O O19 0.000000 0.647307 0.250000
O O20 0.087153 0.648350 0.000000
O O21 0.209098 0.729661 0.000000
#
# Coordination Sequence:
#
# PCOD8202494 Si02
#       7
#     8   8   8   8   8   8   8
#     4   8  16  29  44  60  82 110 133 154 190 235
#     4   9  16  28  44  61  80 105 134 163 193 226
#     4   9  16  28  44  60  79 105 131 157 189 229
#     4   9  15  22  33  48  69  96 128 159 189 223
#     4  10  18  29  44  63  85 107 130 159 195 235
#     4   9  16  25  37  54  75 103 133 160 189 226
#     4   8  15  27  41  56  79 107 131 154 191 237
#
# _framework density 15.385825000000001
#
# number of rings (size 3 to 8) (size 9 to 14) (size 15 to 20)
#    0.000    3.143    0.000    4.286    0.000    0.571 
#    0.000    5.714    0.000    0.429    0.000    3.000 
#    0.000    0.571    0.000    7.143    0.000    0.000 
#
# Total GULP energy -693813.777841 kJ/mol
# GULP energy per Si atom -12389.531747 kJ/mol
# Density = 1.535081 g / cm^3
# Si number density = 15.385825 Si / 1000 Ang^3
#
#
#
# Elastic Constant Matrix: (Units=GPa)
#
#
# Indices 1 2 3 4 5 6 
#
# 1 100.8241 67.5585 24.5503 0.0000 0.0000 0.0000
# 2 67.5585 156.1420 35.5268 0.0000 0.0000 0.0000
# 3 24.5503 35.5268 40.8118 0.0000 0.0000 0.0000
# 4 0.0000 0.0000 0.0000 63.8411 0.0000 0.0000
# 5 0.0000 0.0000 0.0000 0.0000 20.3232 0.0000
# 6 0.0000 0.0000 0.0000 0.0000 0.0000 20.5329
#
#
#
# Elastic Compliance Matrix: (Units=1/GPa)
#
#
# Indices 1 2 3 4 5 6 
#
# 1 0.014489 -0.005344 -0.004063 0.000000 0.000000 0.000000
# 2 -0.005344 0.009958 -0.005453 0.000000 0.000000 0.000000
# 3 -0.004063 -0.005453 0.031694 0.000000 0.000000 0.000000
# 4 0.000000 0.000000 0.000000 0.015664 0.000000 0.000000
# 5 0.000000 0.000000 0.000000 0.000000 0.049205 0.000000
# 6 0.000000 0.000000 0.000000 0.000000 0.000000 0.048702
#
#
# Mechanical properties :
#
#
# Convention : Reuss Voigt Hill
#
# Bulk Modulus (GPa) = 37.85229 61.44988 49.65109
# Shear Modulus (GPa) = 24.01082 32.28226 28.14654
#
# Velocity S-wave (km/s) = 3.95470 4.58556 4.28177
# Velocity P-wave (km/s) = 6.74599 8.25000 7.53561
#
# Compressibility (1/GPa) = 0.02641848
#
# Stress axis : x y z
#
# Youngs Moduli (GPa) = 69.01917 100.42644 31.55164
#
# Poissons Ratio (x) = 0.53671 0.12821
# Poissons Ratio (y) = 0.36886 0.17206
# Poissons Ratio (z) = 0.28045 0.54764
#
# Static dielectric constant tensor:
#      x y z
#    x 2.860240 0.000000 0.000000 
#    y 0.000000 3.712510 0.000000 
#    z 0.000000 0.000000 2.760750 
# 
# 
# High freq. dielectric constant tensor:
#      x y z
#    x 1.556690 0.000000 0.000000 
#    y 0.000000 1.596280 0.000000 
#    z 0.000000 0.000000 1.573570 
# 
# From -- ./inp_files/4500.got.cif
#   From: 2010.03.12/outbox.cif.g09.slc.cpg/sg49_3_cif.got.tgz:4500.got - 2010.04.14 03:58:27.
