data_PCOD8202247
_publ_section_title
;
Structure prediction by ZEFSAII (Michael W. Deem and Ramdas Pophale) SiO2 
 PCOD8202247
Probable space group: P C C M
;
_chemical_formula_sum "Si O2"
_cell_formula_units_Z 64
_cell_length_a 14.784988
_cell_length_b 24.006209
_cell_length_c 8.960438
_cell_angle_alpha 90.000000
_cell_angle_beta 90.000000
_cell_angle_gamma 90.000000
_cell_volume 3180.341807
_symmetry_space_group_name_H-M "P C C M"
_symmetry_group_IT_number 49
_symmetry_cell_setting 'orthorhombic'
loop_
_space_group_symop_operation_xyz
x,y,z
-x,-y,z
x,-y,1/2-z
-x,y,1/2-z
-x,-y,-z
x,y,-z
-x,y,1/2+z
x,-y,1/2+z
loop_
_atom_site_type_symbol
_atom_site_label
_atom_site_fract_x
_atom_site_fract_y
_atom_site_fract_z
Si Si1 0.408965 0.789247 0.174934
Si Si2 0.650404 0.444218 0.677441
Si Si3 0.906414 0.941264 0.323217
Si Si4 0.135630 0.670273 0.834378
Si Si5 0.156543 0.550306 0.828122
Si Si6 0.349860 0.332427 0.671708
Si Si7 0.774690 0.157378 0.172564
Si Si8 0.085454 0.771881 0.328861
O O1 0.500000 0.811877 0.250000
O O2 0.386974 0.726775 0.234551
O O3 0.331305 0.835593 0.212411
O O4 0.423698 0.786242 0.000000
O O5 0.603754 0.500000 0.750000
O O6 0.639808 0.446543 0.500000
O O7 0.754204 0.444135 0.727495
O O8 0.608611 0.385268 0.737279
O O9 0.921117 0.947699 0.500000
O O10 0.820389 0.901780 0.286053
O O11 0.000000 0.918445 0.250000
O O12 0.881290 0.000000 0.250000
O O13 0.099352 0.607151 0.818642
O O14 0.242565 0.670116 0.810598
O O15 0.085356 0.706196 0.708528
O O16 0.112502 0.694146 0.000000
O O17 0.099926 0.500000 0.750000
O O18 0.182806 0.537462 0.000000
O O19 0.377228 0.341021 0.500000
O O20 0.821446 0.205179 0.267192
O O21 0.791216 0.170986 0.000000
O O22 0.076207 0.784415 0.500000
O O23 0.000000 0.801509 0.250000
#
# Coordination Sequence:
#
# PCOD8202247 Si02
#       8
#     8   8   8   8   8   8   8   8
#     4  10  21  38  59  83 114 150 192 241 294 345
#     4  10  17  25  41  67  98 129 171 222 275 344
#     4  10  20  35  60  91 128 166 202 238 281 331
#     4   9  17  32  50  69 100 138 175 219 278 337
#     4   9  16  26  42  64  92 127 167 215 270 328
#     4   9  17  32  52  71 101 141 176 224 287 344
#     4  10  21  40  61  84 118 159 195 236 286 334
#     4  12  24  35  53  80 111 147 186 230 278 336
#
# _framework density 20.123622999999998
#
# number of rings (size 3 to 8) (size 9 to 14) (size 15 to 20)
#    0.000    2.125    1.250    5.250    0.000    5.500 
#    0.000    0.000    0.000    1.125    0.000    7.875 
#    0.000    0.000    0.000    0.000    0.000    0.000 
#
# Total GULP energy -793076.559220 kJ/mol
# GULP energy per Si atom -12391.821238 kJ/mol
# Density = 2.007782 g / cm^3
# Si number density = 20.123623 Si / 1000 Ang^3
#
#
#
# Elastic Constant Matrix: (Units=GPa)
#
#
# Indices 1 2 3 4 5 6 
#
# 1 89.8768 51.7983 43.5957 0.0000 0.0000 0.0000
# 2 51.7983 119.3638 50.6558 0.0000 0.0000 0.0000
# 3 43.5957 50.6558 104.9260 0.0000 0.0000 0.0000
# 4 0.0000 0.0000 0.0000 16.8216 0.0000 0.0000
# 5 0.0000 0.0000 0.0000 0.0000 24.1739 0.0000
# 6 0.0000 0.0000 0.0000 0.0000 0.0000 7.9775
#
#
#
# Elastic Compliance Matrix: (Units=1/GPa)
#
#
# Indices 1 2 3 4 5 6 
#
# 1 0.016181 -0.005243 -0.004192 0.000000 0.000000 0.000000
# 2 -0.005243 0.012235 -0.003728 0.000000 0.000000 0.000000
# 3 -0.004192 -0.003728 0.013072 0.000000 0.000000 0.000000
# 4 0.000000 0.000000 0.000000 0.059448 0.000000 0.000000
# 5 0.000000 0.000000 0.000000 0.000000 0.041367 0.000000
# 6 0.000000 0.000000 0.000000 0.000000 0.000000 0.125353
#
#
# Mechanical properties :
#
#
# Convention : Reuss Voigt Hill
#
# Bulk Modulus (GPa) = 65.95441 67.36289 66.65865
# Shear Modulus (GPa) = 16.72034 21.00237 18.86136
#
# Velocity S-wave (km/s) = 2.88563 3.23409 3.06482
# Velocity P-wave (km/s) = 6.62935 6.89152 6.76170
#
# Compressibility (1/GPa) = 0.01516199
#
# Stress axis : x y z
#
# Youngs Moduli (GPa) = 61.79944 81.73108 76.49768
#
# Poissons Ratio (x) = 0.42851 0.32068
# Poissons Ratio (y) = 0.32401 0.28522
# Poissons Ratio (z) = 0.25906 0.30473
#
# Static dielectric constant tensor:
#      x y z
#    x 3.402030 0.000000 0.000000 
#    y 0.000000 4.076680 0.000000 
#    z 0.000000 0.000000 3.625540 
# 
# 
# High freq. dielectric constant tensor:
#      x y z
#    x 1.755720 0.000000 0.000000 
#    y 0.000000 1.781210 0.000000 
#    z 0.000000 0.000000 1.782710 
# 
# From -- ./inp_files/4305.got.cif
#   From: 2010.03.12/outbox.cif.g09.slc.cpg/sg49_3_cif.got.tgz:4305.got - 2010.04.14 03:58:27.
