data_PCOD8202620
_publ_section_title
;
Structure prediction by ZEFSAII (Michael W. Deem and Ramdas Pophale) SiO2 
 PCOD8202620
Probable space group: P C C M
;
_chemical_formula_sum "Si O2"
_cell_formula_units_Z 56
_cell_length_a 12.905702
_cell_length_b 12.326663
_cell_length_c 16.227275
_cell_angle_alpha 90.000000
_cell_angle_beta 90.000000
_cell_angle_gamma 90.000000
_cell_volume 2581.503700
_symmetry_space_group_name_H-M "P C C M"
_symmetry_group_IT_number 49
_symmetry_cell_setting 'orthorhombic'
loop_
_space_group_symop_operation_xyz
x,y,z
-x,-y,z
x,-y,1/2-z
-x,y,1/2-z
-x,-y,-z
x,y,-z
-x,y,1/2+z
x,-y,1/2+z
loop_
_atom_site_type_symbol
_atom_site_label
_atom_site_fract_x
_atom_site_fract_y
_atom_site_fract_z
Si Si1 0.322814 0.984073 0.846429
Si Si2 0.034012 0.729473 0.095683
Si Si3 0.807963 0.655224 0.901492
Si Si4 0.098582 0.049670 0.658642
Si Si5 0.774008 0.416974 0.094903
Si Si6 0.393054 0.247331 0.402406
Si Si7 0.381661 0.790480 0.595695
O O1 0.388847 0.081699 0.884890
O O2 0.317599 0.000000 0.750000
O O3 0.206303 0.983862 0.884563
O O4 0.373102 0.869239 0.863451
O O5 0.920573 0.695431 0.129090
O O6 0.082695 0.821126 0.154864
O O7 0.110606 0.628469 0.105512
O O8 0.030586 0.767769 0.000000
O O9 0.778042 0.536738 0.865045
O O10 0.720481 0.736002 0.864041
O O11 0.810981 0.650039 0.000000
O O12 0.098003 0.000000 0.750000
O O13 0.000000 0.000000 0.609300
O O14 0.684545 0.339044 0.134530
O O15 0.743034 0.428055 0.000000
O O16 0.378103 0.236733 0.500000
O O17 0.512706 0.271837 0.377486
O O18 0.368239 0.774447 0.500000
#
# Coordination Sequence:
#
# PCOD8202620 Si02
#       7
#     8   8   8   8   8   8   8
#     4  11  22  36  55  79 107 145 187 228 275 330
#     4  10  18  31  54  83 113 143 181 227 274 325
#     4   9  18  32  52  82 113 142 180 225 273 325
#     4  10  21  35  51  77 109 148 179 218 273 329
#     4   9  17  31  53  81 111 142 179 223 273 326
#     4  10  20  35  55  80 111 147 183 224 274 329
#     4  10  21  35  53  79 112 146 182 227 274 325
#
# _framework density 21.692784
#
# number of rings (size 3 to 8) (size 9 to 14) (size 15 to 20)
#    0.000    2.143    1.429    2.143    0.000    5.429 
#    0.000    2.857    0.000    0.857    0.000    6.000 
#    0.000    0.000    0.000    0.000    0.000    0.571 
#
# Total GULP energy -693963.698493 kJ/mol
# GULP energy per Si atom -12392.208902 kJ/mol
# Density = 2.164341 g / cm^3
# Si number density = 21.692784 Si / 1000 Ang^3
#
#
#
# Elastic Constant Matrix: (Units=GPa)
#
#
# Indices 1 2 3 4 5 6 
#
# 1 158.8951 40.9967 24.2495 0.0000 0.0000 0.0000
# 2 40.9967 125.2484 18.6377 0.0000 0.0000 0.0000
# 3 24.2495 18.6377 11.7918 0.0000 0.0000 0.0000
# 4 0.0000 0.0000 0.0000 8.0372 0.0000 0.0000
# 5 0.0000 0.0000 0.0000 0.0000 15.2101 0.0000
# 6 0.0000 0.0000 0.0000 0.0000 0.0000 36.2891
#
#
#
# Elastic Compliance Matrix: (Units=1/GPa)
#
#
# Indices 1 2 3 4 5 6 
#
# 1 0.009178 -0.000256 -0.018471 0.000000 0.000000 0.000000
# 2 -0.000256 0.010447 -0.015986 0.000000 0.000000 0.000000
# 3 -0.018471 -0.015986 0.148055 0.000000 0.000000 0.000000
# 4 0.000000 0.000000 0.000000 0.124422 0.000000 0.000000
# 5 0.000000 0.000000 0.000000 0.000000 0.065746 0.000000
# 6 0.000000 0.000000 0.000000 0.000000 0.000000 0.027556
#
#
# Mechanical properties :
#
#
# Convention : Reuss Voigt Hill
#
# Bulk Modulus (GPa) = 10.17747 51.52256 30.85001
# Shear Modulus (GPa) = 10.25472 26.04405 18.14939
#
# Velocity S-wave (km/s) = 2.17658 3.46871 2.89564
# Velocity P-wave (km/s) = 3.31941 6.31230 5.04300
#
# Compressibility (1/GPa) = 0.09825624
#
# Stress axis : x y z
#
# Youngs Moduli (GPa) = 108.95253 95.72501 6.75423
#
# Poissons Ratio (x) = 0.02448 0.12476
# Poissons Ratio (y) = 0.02786 0.10797
# Poissons Ratio (z) = 2.01243 1.53022
#
# Static dielectric constant tensor:
#      x y z
#    x 4.693600 0.000000 0.000000 
#    y 0.000000 3.989530 0.000000 
#    z 0.000000 0.000000 3.342420 
# 
# 
# High freq. dielectric constant tensor:
#      x y z
#    x 1.877350 0.000000 0.000000 
#    y 0.000000 1.852600 0.000000 
#    z 0.000000 0.000000 1.796480 
# 
# From -- ./inp_files/20527.got.cif
#   From: 2010.03.12/outbox.cif.g09.slc.cpg/sg49_11_cif.got.tgz:20527.got - 2010.04.14 03:58:27.
