data_PCOD8202297
_publ_section_title
;
Structure prediction by ZEFSAII (Michael W. Deem and Ramdas Pophale) SiO2 
 PCOD8202297
Probable space group: P C C M
;
_chemical_formula_sum "Si O2"
_cell_formula_units_Z 64
_cell_length_a 31.136617
_cell_length_b 14.371512
_cell_length_c 8.686158
_cell_angle_alpha 90.000000
_cell_angle_beta 90.000000
_cell_angle_gamma 90.000000
_cell_volume 3886.884282
_symmetry_space_group_name_H-M "P C C M"
_symmetry_group_IT_number 49
_symmetry_cell_setting 'orthorhombic'
loop_
_space_group_symop_operation_xyz
x,y,z
-x,-y,z
x,-y,1/2-z
-x,y,1/2-z
-x,-y,-z
x,y,-z
-x,y,1/2+z
x,-y,1/2+z
loop_
_atom_site_type_symbol
_atom_site_label
_atom_site_fract_x
_atom_site_fract_y
_atom_site_fract_z
Si Si1 0.872780 0.788708 0.682557
Si Si2 0.044868 0.899077 0.816872
Si Si3 0.208802 0.100652 0.319562
Si Si4 0.370735 0.898623 0.318763
Si Si5 0.285513 0.208755 0.176893
Si Si6 0.457304 0.103366 0.682690
Si Si7 0.254337 0.407131 0.821665
Si Si8 0.161320 0.595471 0.818019
O O1 0.870248 0.792754 0.500000
O O2 0.918174 0.828765 0.740428
O O3 0.833859 0.850895 0.750435
O O4 0.867875 0.682026 0.738739
O O5 0.000000 0.861263 0.750000
O O6 0.055738 0.000000 0.750000
O O7 0.042058 0.905754 0.000000
O O8 0.204330 0.089729 0.500000
O O9 0.249965 0.162879 0.283794
O O10 0.215298 0.000000 0.250000
O O11 0.377969 0.909213 0.500000
O O12 0.331913 0.830108 0.277024
O O13 0.413043 0.850781 0.242690
O O14 0.360562 0.000000 0.250000
O O15 0.285959 0.319959 0.204212
O O16 0.274557 0.184764 0.000000
O O17 0.500000 0.154663 0.750000
O O18 0.459144 0.103002 0.500000
O O19 0.456520 0.000000 0.750000
O O20 0.275975 0.500000 0.750000
O O21 0.209447 0.386851 0.738733
O O22 0.244741 0.424701 0.000000
O O23 0.141862 0.500000 0.750000
O O24 0.161791 0.588179 0.000000
#
# Coordination Sequence:
#
# PCOD8202297 Si02
#       8
#     8   8   8   8   8   8   8   8
#     4   9  19  33  50  70  96 124 154 191 234 277
#     4  10  19  34  52  73  97 124 154 190 231 277
#     4  11  21  33  47  66  93 127 160 193 230 272
#     4  10  19  31  44  62  90 125 161 196 233 275
#     4  10  21  34  47  66  94 127 161 196 233 278
#     4  10  17  27  43  63  86 116 155 198 239 278
#     4  10  19  32  49  70  93 121 157 198 239 280
#     4  10  18  32  50  72  95 121 153 191 236 280
#
# _framework density 16.465630999999998
#
# number of rings (size 3 to 8) (size 9 to 14) (size 15 to 20)
#    0.000    2.000    1.250    6.000    0.000    2.500 
#    0.000    4.375    0.000    0.375    0.000    2.625 
#    0.000    0.500    0.000    5.750    0.000    1.750 
#
# Total GULP energy -793468.659083 kJ/mol
# GULP energy per Si atom -12397.947798 kJ/mol
# Density = 1.642815 g / cm^3
# Si number density = 16.465631 Si / 1000 Ang^3
#
#
#
# Elastic Constant Matrix: (Units=GPa)
#
#
# Indices 1 2 3 4 5 6 
#
# 1 126.7096 63.3846 40.8318 0.0000 0.0000 0.0000
# 2 63.3846 108.3726 33.8268 0.0000 0.0000 0.0000
# 3 40.8318 33.8268 84.7257 0.0000 0.0000 0.0000
# 4 0.0000 0.0000 0.0000 17.8790 0.0000 0.0000
# 5 0.0000 0.0000 0.0000 0.0000 17.5939 0.0000
# 6 0.0000 0.0000 0.0000 0.0000 0.0000 11.3014
#
#
#
# Elastic Compliance Matrix: (Units=1/GPa)
#
#
# Indices 1 2 3 4 5 6 
#
# 1 0.011952 -0.005932 -0.003392 0.000000 0.000000 0.000000
# 2 -0.005932 0.013485 -0.002525 0.000000 0.000000 0.000000
# 3 -0.003392 -0.002525 0.014446 0.000000 0.000000 0.000000
# 4 0.000000 0.000000 0.000000 0.055931 0.000000 0.000000
# 5 0.000000 0.000000 0.000000 0.000000 0.056838 0.000000
# 6 0.000000 0.000000 0.000000 0.000000 0.000000 0.088485
#
#
# Mechanical properties :
#
#
# Convention : Reuss Voigt Hill
#
# Bulk Modulus (GPa) = 61.78510 66.21047 63.99778
# Shear Modulus (GPa) = 18.50273 21.47252 19.98762
#
# Velocity S-wave (km/s) = 3.35583 3.61512 3.48789
# Velocity P-wave (km/s) = 7.25400 7.59764 7.42781
#
# Compressibility (1/GPa) = 0.01618513
#
# Stress axis : x y z
#
# Youngs Moduli (GPa) = 83.66465 74.15595 69.22524
#
# Poissons Ratio (x) = 0.43989 0.23480
# Poissons Ratio (y) = 0.49630 0.17480
# Poissons Ratio (z) = 0.28378 0.18725
#
# Static dielectric constant tensor:
#      x y z
#    x 3.447850 0.000000 0.000000 
#    y 0.000000 3.107490 0.000000 
#    z 0.000000 0.000000 3.134780 
# 
# 
# High freq. dielectric constant tensor:
#      x y z
#    x 1.624940 0.000000 0.000000 
#    y 0.000000 1.613700 0.000000 
#    z 0.000000 0.000000 1.642320 
# 
# From -- ./inp_files/7057.got.cif
#   From: 2010.03.12/outbox.cif.g09.slc.cpg/sg49_4_cif.got.tgz:7057.got - 2010.04.14 03:58:27.
