data_PCOD8202136
_publ_section_title
;
Structure prediction by ZEFSAII (Michael W. Deem and Ramdas Pophale) SiO2 
 PCOD8202136
Probable space group: P N N N
;
_chemical_formula_sum "Si O2"
_cell_formula_units_Z 34
_cell_length_a 9.940664
_cell_length_b 17.293070
_cell_length_c 8.683382
_cell_angle_alpha 90.000000
_cell_angle_beta 90.000000
_cell_angle_gamma 90.000000
_cell_volume 1492.713295
_symmetry_space_group_name_H-M "P N N N"
_symmetry_group_IT_number 48
_space_group.IT_coordinate_system_code '2'
_symmetry_cell_setting 'orthorhombic'
loop_
_space_group_symop_operation_xyz
x,y,z
1/2-x,1/2-y,z
x,1/2-y,1/2-z
1/2-x,y,1/2-z
-x,-y,-z
1/2+x,1/2+y,-z
-x,1/2+y,1/2+z
1/2+x,-y,1/2+z
loop_
_atom_site_type_symbol
_atom_site_label
_atom_site_fract_x
_atom_site_fract_y
_atom_site_fract_z
Si Si1 0.783512 0.527697 0.573746
Si Si2 0.250000 0.250000 0.750000
Si Si3 0.033200 0.606168 0.428892
Si Si4 0.070064 0.376152 0.900704
Si Si5 0.907734 0.239015 0.421032
O O1 0.750000 0.541048 0.750000
O O2 0.826395 0.438764 0.535816
O O3 0.655052 0.553154 0.472924
O O4 0.913934 0.578523 0.538151
O O5 0.165402 0.304087 0.863027
O O6 0.043121 0.697028 0.457325
O O7 0.999790 0.589498 0.250512
O O8 0.955107 0.344828 0.017079
O O9 0.750000 0.250000 0.412071
O O10 0.969324 0.250000 0.250000
#
# Coordination Sequence:
#
# PCOD8202136 Si02
#       5
#     8   2   8   8   8
#     4  11  25  43  68 102 140 182 229 287 354 409
#     4  12  20  40  72 100 124 176 248 278 336 408
#     4  11  24  45  66 105 137 178 236 285 345 421
#     4  12  22  44  74  98 136 188 233 290 346 420
#     4  11  25  45  70 103 138 177 232 290 348 414
#
# _framework density 22.777315000000002
#
# number of rings (size 3 to 8) (size 9 to 14) (size 15 to 20)
#    0.000    0.706    4.706    1.412    3.294    1.882 
#   16.941    2.353    0.000    0.000    0.000    0.000 
#    0.000    0.000    0.000    0.000    0.000    0.000 
#
# Total GULP energy -421605.743698 kJ/mol
# GULP energy per Si atom -12400.168932 kJ/mol
# Density = 2.272547 g / cm^3
# Si number density = 22.777315 Si / 1000 Ang^3
#
#
#
# Elastic Constant Matrix: (Units=GPa)
#
#
# Indices 1 2 3 4 5 6 
#
# 1 105.7055 49.4454 53.8653 0.0000 0.0000 0.0000
# 2 49.4454 92.4703 33.3400 0.0000 0.0000 0.0000
# 3 53.8653 33.3400 140.3318 0.0000 0.0000 0.0000
# 4 0.0000 0.0000 0.0000 31.0325 0.0000 0.0000
# 5 0.0000 0.0000 0.0000 0.0000 20.7560 0.0000
# 6 0.0000 0.0000 0.0000 0.0000 0.0000 53.2759
#
#
#
# Elastic Compliance Matrix: (Units=1/GPa)
#
#
# Indices 1 2 3 4 5 6 
#
# 1 0.014462 -0.006269 -0.004062 0.000000 0.000000 0.000000
# 2 -0.006269 0.014545 -0.001049 0.000000 0.000000 0.000000
# 3 -0.004062 -0.001049 0.008934 0.000000 0.000000 0.000000
# 4 0.000000 0.000000 0.000000 0.032224 0.000000 0.000000
# 5 0.000000 0.000000 0.000000 0.000000 0.048179 0.000000
# 6 0.000000 0.000000 0.000000 0.000000 0.000000 0.018770
#
#
# Mechanical properties :
#
#
# Convention : Reuss Voigt Hill
#
# Bulk Modulus (GPa) = 65.86998 67.97879 66.92438
# Shear Modulus (GPa) = 30.31490 34.47001 32.39245
#
# Velocity S-wave (km/s) = 3.65214 3.89440 3.77521
# Velocity P-wave (km/s) = 6.83857 7.08036 6.96052
#
# Compressibility (1/GPa) = 0.01518142
#
# Stress axis : x y z
#
# Youngs Moduli (GPa) = 69.14445 68.75389 111.92673
#
# Poissons Ratio (x) = 0.43100 0.45464
# Poissons Ratio (y) = 0.43345 0.11744
# Poissons Ratio (z) = 0.28086 0.07214
#
# Static dielectric constant tensor:
#      x y z
#    x 4.250920 0.000000 0.000000 
#    y 0.000000 4.179040 0.000000 
#    z 0.000000 0.000000 4.182500 
# 
# 
# High freq. dielectric constant tensor:
#      x y z
#    x 1.907050 0.000000 0.000000 
#    y 0.000000 1.897470 0.000000 
#    z 0.000000 0.000000 1.903770 
# 
# From -- ./inp_files/8746.got.cif
#   From: 2010.06.25/outbox.cif.g09.slc.cpg/sg48_5_cif.got.tgz:8746.got - 2010.06.26 18:06:46.
