data_PCOD8202260
_publ_section_title
;
Structure prediction by ZEFSAII (Michael W. Deem and Ramdas Pophale) SiO2 
 PCOD8202260
Probable space group: P C C M
;
_chemical_formula_sum "Si O2"
_cell_formula_units_Z 56
_cell_length_a 25.814521
_cell_length_b 5.056004
_cell_length_c 25.969066
_cell_angle_alpha 90.000000
_cell_angle_beta 90.000000
_cell_angle_gamma 90.000000
_cell_volume 3389.438904
_symmetry_space_group_name_H-M "P C C M"
_symmetry_group_IT_number 49
_symmetry_cell_setting 'orthorhombic'
loop_
_space_group_symop_operation_xyz
x,y,z
-x,-y,z
x,-y,1/2-z
-x,y,1/2-z
-x,-y,-z
x,y,-z
-x,y,1/2+z
x,-y,1/2+z
loop_
_atom_site_type_symbol
_atom_site_label
_atom_site_fract_x
_atom_site_fract_y
_atom_site_fract_z
Si Si1 0.645923 0.699543 0.058613
Si Si2 0.532096 0.755995 0.939396
Si Si3 0.940339 0.568903 0.845113
Si Si4 0.126102 0.543062 0.558067
Si Si5 0.181273 0.039395 0.404006
Si Si6 0.288837 0.215674 0.441033
Si Si7 0.885136 0.061802 0.807168
O O1 0.589336 0.717149 0.085388
O O2 0.684806 0.480401 0.083076
O O3 0.668568 0.990012 0.062007
O O4 0.638652 0.602394 0.000000
O O5 0.500000 0.500000 0.925847
O O6 0.500000 0.000000 0.914986
O O7 0.538977 0.806018 0.000000
O O8 0.922952 0.581495 0.904674
O O9 0.907447 0.356801 0.812516
O O10 0.000000 0.500000 0.841897
O O11 0.930961 0.856733 0.820912
O O12 0.106482 0.583782 0.500000
O O13 0.147230 0.247870 0.564289
O O14 0.172144 0.751104 0.570855
O O15 0.240851 0.125479 0.406078
O O16 0.164237 0.027581 0.344408
O O17 0.269550 0.259026 0.500000
O O18 0.865026 0.000000 0.750000
#
# Coordination Sequence:
#
# PCOD8202260 Si02
#       7
#     8   8   8   8   8   8   8
#     4   9  17  25  35  55  78 105 142 179 214 247
#     4   9  15  23  34  47  69 103 142 180 210 238
#     4  10  21  34  50  73  93 113 144 177 216 264
#     4  10  19  32  48  66  91 118 145 176 211 260
#     4  10  20  32  47  67  87 114 150 180 218 266
#     4  10  17  26  40  57  81 107 136 177 216 251
#     4  10  21  36  52  69  90 114 144 183 219 263
#
# _framework density 16.521909999999998
#
# number of rings (size 3 to 8) (size 9 to 14) (size 15 to 20)
#    0.000    2.286    0.000    3.857    0.000    6.571 
#    0.000    0.000    0.000    5.143    0.000    0.000 
#    0.000    0.000    0.000    0.000    0.000   10.714 
#
# Total GULP energy -694343.420438 kJ/mol
# GULP energy per Si atom -12398.989651 kJ/mol
# Density = 1.648431 g / cm^3
# Si number density = 16.521910 Si / 1000 Ang^3
#
#
#
# Elastic Constant Matrix: (Units=GPa)
#
#
# Indices 1 2 3 4 5 6 
#
# 1 89.0135 13.6412 25.1107 0.0000 0.0000 0.0000
# 2 13.6412 77.8816 16.2814 0.0000 0.0000 0.0000
# 3 25.1107 16.2814 78.6960 0.0000 0.0000 0.0000
# 4 0.0000 0.0000 0.0000 12.2216 0.0000 0.0000
# 5 0.0000 0.0000 0.0000 0.0000 6.8586 0.0000
# 6 0.0000 0.0000 0.0000 0.0000 0.0000 26.2239
#
#
#
# Elastic Compliance Matrix: (Units=1/GPa)
#
#
# Indices 1 2 3 4 5 6 
#
# 1 0.012493 -0.001416 -0.003693 0.000000 0.000000 0.000000
# 2 -0.001416 0.013581 -0.002358 0.000000 0.000000 0.000000
# 3 -0.003693 -0.002358 0.014373 0.000000 0.000000 0.000000
# 4 0.000000 0.000000 0.000000 0.081822 0.000000 0.000000
# 5 0.000000 0.000000 0.000000 0.000000 0.145802 0.000000
# 6 0.000000 0.000000 0.000000 0.000000 0.000000 0.038133
#
#
# Mechanical properties :
#
#
# Convention : Reuss Voigt Hill
#
# Bulk Modulus (GPa) = 39.19603 39.51751 39.35677
# Shear Modulus (GPa) = 15.16789 21.76468 18.46629
#
# Velocity S-wave (km/s) = 3.03322 3.63343 3.34681
# Velocity P-wave (km/s) = 6.00353 6.44768 6.22957
#
# Compressibility (1/GPa) = 0.02551279
#
# Stress axis : x y z
#
# Youngs Moduli (GPa) = 80.04371 73.63242 69.57266
#
# Poissons Ratio (x) = 0.10427 0.25696
# Poissons Ratio (y) = 0.11335 0.16405
# Poissons Ratio (z) = 0.29563 0.17362
#
# Static dielectric constant tensor:
#      x y z
#    x 3.063520 0.000000 0.000000 
#    y 0.000000 3.353080 0.000000 
#    z 0.000000 0.000000 2.779210 
# 
# 
# High freq. dielectric constant tensor:
#      x y z
#    x 1.631260 0.000000 0.000000 
#    y 0.000000 1.663510 0.000000 
#    z 0.000000 0.000000 1.574180 
# 
# From -- ./inp_files/21225.got.cif
#   From: 2010.03.12/outbox.cif.g09.slc.cpg/sg49_11_cif.got.tgz:21225.got - 2010.04.14 03:58:27.
