data_PCOD8202697
_publ_section_title
;
Structure prediction by ZEFSAII (Michael W. Deem and Ramdas Pophale) SiO2 
 PCOD8202697
Probable space group: P C C M
;
_chemical_formula_sum "Si O2"
_cell_formula_units_Z 56
_cell_length_a 5.298203
_cell_length_b 28.373622
_cell_length_c 18.740797
_cell_angle_alpha 90.000000
_cell_angle_beta 90.000000
_cell_angle_gamma 90.000000
_cell_volume 2817.289193
_symmetry_space_group_name_H-M "P C C M"
_symmetry_group_IT_number 49
_symmetry_cell_setting 'orthorhombic'
loop_
_space_group_symop_operation_xyz
x,y,z
-x,-y,z
x,-y,1/2-z
-x,y,1/2-z
-x,-y,-z
x,y,-z
-x,y,1/2+z
x,-y,1/2+z
loop_
_atom_site_type_symbol
_atom_site_label
_atom_site_fract_x
_atom_site_fract_y
_atom_site_fract_z
Si Si1 0.236010 0.659761 0.580771
Si Si2 0.736209 0.400314 0.080193
Si Si3 0.749898 0.447169 0.220197
Si Si4 0.750035 0.726632 0.790830
Si Si5 0.749949 0.836118 0.819867
Si Si6 0.750039 0.125305 0.164299
Si Si7 0.250011 0.969997 0.081563
O O1 0.241920 0.678623 0.500000
O O2 0.476552 0.626789 0.595042
O O3 0.250222 0.705431 0.630182
O O4 0.975697 0.632575 0.595511
O O5 0.748853 0.444778 0.134188
O O6 0.744363 0.420665 0.000000
O O7 0.750144 0.500000 0.250000
O O8 0.500000 0.420871 0.250000
O O9 0.000000 0.420924 0.250000
O O10 0.500000 0.708928 0.750000
O O11 0.749769 0.782679 0.794853
O O12 0.000000 0.708956 0.750000
O O13 0.500100 0.848161 0.865887
O O14 0.750002 0.870202 0.750320
O O15 0.999877 0.848131 0.865871
O O16 0.750108 0.071959 0.138234
O O17 0.500000 0.000000 0.096339
O O18 0.250122 0.951014 0.000000
O O19 0.000000 0.000000 0.096286
#
# Coordination Sequence:
#
# PCOD8202697 Si02
#       7
#     8   8   8   8   8   8   8
#     4  10  23  39  58  87 120 156 200 243 289 350
#     4  10  21  40  60  82 119 161 195 238 296 353
#     4  10  21  37  58  87 121 151 192 254 291 338
#     4  12  21  37  60  86 117 156 193 242 295 346
#     4  10  19  35  54  76 109 138 178 225 275 325
#     4  10  18  35  56  76 105 146 175 225 267 329
#     4  10  21  37  55  78 109 142 181 229 277 332
#
# _framework density 19.877264
#
# number of rings (size 3 to 8) (size 9 to 14) (size 15 to 20)
#    0.000    1.714    2.857    2.571    0.000    3.429 
#    0.000   12.857    0.000    0.000    0.000    0.000 
#    0.000    0.000    0.000    0.000    0.000    0.000 
#
# Total GULP energy -694059.329650 kJ/mol
# GULP energy per Si atom -12393.916601 kJ/mol
# Density = 1.983202 g / cm^3
# Si number density = 19.877264 Si / 1000 Ang^3
#
#
#
# Elastic Constant Matrix: (Units=GPa)
#
#
# Indices 1 2 3 4 5 6 
#
# 1 186.3497 17.8047 31.4195 0.0000 0.0000 0.0000
# 2 17.8047 65.2098 66.7142 0.0000 0.0000 0.0000
# 3 31.4195 66.7142 126.2668 0.0000 0.0000 0.0000
# 4 0.0000 0.0000 0.0000 15.4678 0.0000 0.0000
# 5 0.0000 0.0000 0.0000 0.0000 -914.3950 0.0000
# 6 0.0000 0.0000 0.0000 0.0000 0.0000 321.4077
#
#
#
# Elastic Compliance Matrix: (Units=1/GPa)
#
#
# Indices 1 2 3 4 5 6 
#
# 1 0.005603 -0.000225 -0.001275 0.000000 0.000000 0.000000
# 2 -0.000225 0.033386 -0.017584 0.000000 0.000000 0.000000
# 3 -0.001275 -0.017584 0.017528 0.000000 0.000000 0.000000
# 4 0.000000 0.000000 0.000000 0.064651 0.000000 0.000000
# 5 0.000000 0.000000 0.000000 0.000000 -0.001094 0.000000
# 6 0.000000 0.000000 0.000000 0.000000 0.000000 0.003111
#
#
# Mechanical properties :
#
#
# Convention : Reuss Voigt Hill
#
# Bulk Modulus (GPa) = 54.50145 67.74480 61.12312
# Shear Modulus (GPa) = 29.85628 -98.04471 -34.09422
#
# Velocity S-wave (km/s) = 3.87981 -7.03080 -4.14603
# Velocity P-wave (km/s) = 6.89558 5.63507 2.81026
#
# Compressibility (1/GPa) = 0.01834814
#
# Stress axis : x y z
#
# Youngs Moduli (GPa) = 178.48303 29.95265 57.05285
#
# Poissons Ratio (x) = 0.00674 0.07275
# Poissons Ratio (y) = 0.04018 1.00321
# Poissons Ratio (z) = 0.22760 0.52668
#
# Static dielectric constant tensor:
#      x y z
#    x 4.960390 0.000000 0.000000 
#    y 0.000000 3.325940 0.000000 
#    z 0.000000 0.000000 3.678540 
# 
# 
# High freq. dielectric constant tensor:
#      x y z
#    x 1.821850 0.000000 0.000000 
#    y 0.000000 1.747510 0.000000 
#    z 0.000000 0.000000 1.752860 
# 
# From -- ./inp_files/10764.got.cif
#   From: 2010.03.12/outbox.cif.g09.slc.cpg/sg49_6_cif.got.tgz:10764.got - 2010.04.14 03:58:27.
