data_PCOD8202873
_publ_section_title
;
Structure prediction by ZEFSAII (Michael W. Deem and Ramdas Pophale) SiO2 
 PCOD8202873
Probable space group: P C C M
;
_chemical_formula_sum "Si O2"
_cell_formula_units_Z 48
_cell_length_a 13.674536
_cell_length_b 23.737448
_cell_length_c 8.681607
_cell_angle_alpha 90.000000
_cell_angle_beta 90.000000
_cell_angle_gamma 90.000000
_cell_volume 2818.037367
_symmetry_space_group_name_H-M "P C C M"
_symmetry_group_IT_number 49
_symmetry_cell_setting 'orthorhombic'
loop_
_space_group_symop_operation_xyz
x,y,z
-x,-y,z
x,-y,1/2-z
-x,y,1/2-z
-x,-y,-z
x,y,-z
-x,y,1/2+z
x,-y,1/2+z
loop_
_atom_site_type_symbol
_atom_site_label
_atom_site_fract_x
_atom_site_fract_y
_atom_site_fract_z
Si Si1 0.101863 0.725613 0.322240
Si Si2 0.603702 0.771559 0.682265
Si Si3 0.295999 0.336455 0.180463
Si Si4 0.604664 0.440364 0.182217
Si Si5 0.220268 0.168519 0.181712
Si Si6 0.104608 0.058618 0.819000
O O1 0.081355 0.731556 0.500000
O O2 0.183014 0.678329 0.286362
O O3 0.140032 0.786013 0.260160
O O4 0.000000 0.707006 0.250000
O O5 0.500000 0.790151 0.750000
O O6 0.598378 0.764768 0.500000
O O7 0.634103 0.712377 0.756805
O O8 0.679213 0.820904 0.727976
O O9 0.316073 0.394172 0.269549
O O10 0.316961 0.343740 0.000000
O O11 0.639126 0.500000 0.250000
O O12 0.500000 0.422430 0.250000
O O13 0.596612 0.444970 0.000000
O O14 0.182724 0.106481 0.223819
O O15 0.239517 0.176550 0.000000
O O16 0.000000 0.075216 0.750000
O O17 0.143824 0.000000 0.750000
O O18 0.091736 0.052216 0.000000
#
# Coordination Sequence:
#
# PCOD8202873 Si02
#       6
#     8   8   8   8   8   8
#     4   9  18  31  49  71  98 128 160 198 241 286
#     4  11  21  33  51  74  99 129 162 200 243 292
#     4  10  20  35  51  72 102 133 164 201 242 287
#     4  11  21  34  52  75 101 131 164 201 244 291
#     4   9  19  34  49  70  99 131 163 201 244 289
#     4  10  19  31  49  72 101 132 165 203 245 291
#
# _framework density 17.033131999999998
#
# number of rings (size 3 to 8) (size 9 to 14) (size 15 to 20)
#    0.000    2.000    0.000    7.000    0.000    4.667 
#    0.000    0.000    0.000    1.000    0.000    7.000 
#    0.000    0.000    0.000    0.000    0.000    0.000 
#
# Total GULP energy -595296.762144 kJ/mol
# GULP energy per Si atom -12402.015878 kJ/mol
# Density = 1.699436 g / cm^3
# Si number density = 17.033132 Si / 1000 Ang^3
#
#
#
# Elastic Constant Matrix: (Units=GPa)
#
#
# Indices 1 2 3 4 5 6 
#
# 1 118.1795 60.0927 52.4981 0.0000 0.0000 0.0000
# 2 60.0927 114.0788 51.9164 0.0000 0.0000 0.0000
# 3 52.4981 51.9164 107.8922 0.0000 0.0000 0.0000
# 4 0.0000 0.0000 0.0000 25.1615 0.0000 0.0000
# 5 0.0000 0.0000 0.0000 0.0000 29.0683 0.0000
# 6 0.0000 0.0000 0.0000 0.0000 0.0000 24.5147
#
#
#
# Elastic Compliance Matrix: (Units=1/GPa)
#
#
# Indices 1 2 3 4 5 6 
#
# 1 0.012655 -0.004947 -0.003777 0.000000 0.000000 0.000000
# 2 -0.004947 0.013158 -0.003924 0.000000 0.000000 0.000000
# 3 -0.003777 -0.003924 0.012995 0.000000 0.000000 0.000000
# 4 0.000000 0.000000 0.000000 0.039743 0.000000 0.000000
# 5 0.000000 0.000000 0.000000 0.000000 0.034402 0.000000
# 6 0.000000 0.000000 0.000000 0.000000 0.000000 0.040792
#
#
# Mechanical properties :
#
#
# Convention : Reuss Voigt Hill
#
# Bulk Modulus (GPa) = 74.01691 74.35166 74.18428
# Shear Modulus (GPa) = 27.24124 27.45846 27.34985
#
# Velocity S-wave (km/s) = 4.00347 4.01940 4.01145
# Velocity P-wave (km/s) = 8.05726 8.08002 8.06865
#
# Compressibility (1/GPa) = 0.01351043
#
# Stress axis : x y z
#
# Youngs Moduli (GPa) = 79.01821 76.00049 76.95491
#
# Poissons Ratio (x) = 0.37601 0.29067
# Poissons Ratio (y) = 0.39094 0.30198
# Poissons Ratio (z) = 0.29847 0.29823
#
# Static dielectric constant tensor:
#      x y z
#    x 3.167410 0.000000 0.000000 
#    y 0.000000 3.182050 0.000000 
#    z 0.000000 0.000000 3.260790 
# 
# 
# High freq. dielectric constant tensor:
#      x y z
#    x 1.646550 0.000000 0.000000 
#    y 0.000000 1.649160 0.000000 
#    z 0.000000 0.000000 1.670590 
# 
# From -- ./inp_files/2900.got.cif
#   From: 2010.03.12/outbox.cif.g09.slc.cpg/sg49_2_cif.got.tgz:2900.got - 2010.04.14 03:58:27.
