data_PCOD8202930
_publ_section_title
;
Structure prediction by ZEFSAII (Michael W. Deem and Ramdas Pophale) SiO2 
 PCOD8202930
Probable space group: P C C M
;
_chemical_formula_sum "Si O2"
_cell_formula_units_Z 58
_cell_length_a 16.466232
_cell_length_b 19.805370
_cell_length_c 9.861069
_cell_angle_alpha 90.000000
_cell_angle_beta 90.000000
_cell_angle_gamma 90.000000
_cell_volume 3215.890020
_symmetry_space_group_name_H-M "P C C M"
_symmetry_group_IT_number 49
_symmetry_cell_setting 'orthorhombic'
loop_
_space_group_symop_operation_xyz
x,y,z
-x,-y,z
x,-y,1/2-z
-x,y,1/2-z
-x,-y,-z
x,y,-z
-x,y,1/2+z
x,-y,1/2+z
loop_
_atom_site_type_symbol
_atom_site_label
_atom_site_fract_x
_atom_site_fract_y
_atom_site_fract_z
Si Si1 0.695060 0.795087 0.839798
Si Si2 0.695678 0.440704 0.657072
Si Si3 0.864845 0.253102 0.661307
Si Si4 0.000000 0.500000 0.750000
Si Si5 0.130091 0.399424 0.845866
Si Si6 0.575735 0.316478 0.656336
Si Si7 0.930092 0.113892 0.656621
Si Si8 0.249839 0.938499 0.656691
O O1 0.774522 0.758512 0.778543
O O2 0.614496 0.754870 0.793118
O O3 0.695340 0.874055 0.798308
O O4 0.702171 0.789628 0.000000
O O5 0.657817 0.500000 0.750000
O O6 0.697258 0.464127 0.500000
O O7 0.786270 0.426972 0.718029
O O8 0.642652 0.374088 0.675007
O O9 0.862407 0.249747 0.500000
O O10 0.895416 0.326324 0.717117
O O11 0.922262 0.191721 0.707838
O O12 0.056812 0.452496 0.840278
O O13 0.152582 0.384908 0.000000
O O14 0.500000 0.333935 0.750000
O O15 0.547291 0.312336 0.500000
O O16 0.956708 0.108457 0.500000
O O17 0.845079 0.076419 0.680381
O O18 0.000000 0.080224 0.750000
O O19 0.265634 0.956922 0.500000
O O20 0.278397 0.000000 0.750000
#
# Coordination Sequence:
#
# PCOD8202930 Si02
#       8
#     8   8   8   2   8   8   8   8
#     4   8  14  30  54  75  95 129 172 206 243 301
#     4  10  20  36  56  76 103 143 177 210 261 318
#     4   8  14  28  49  66  85 123 171 208 242 297
#     4  12  22  28  44  74  98 128 176 220 270 304
#     4  10  19  32  47  67  97 132 173 214 259 310
#     4  10  20  35  58  83 107 135 172 215 260 311
#     4   9  18  30  46  69  97 128 167 212 256 300
#     4   9  18  32  51  75 100 133 173 210 249 303
#
# _framework density 18.035443000000001
#
# number of rings (size 3 to 8) (size 9 to 14) (size 15 to 20)
#    0.000    2.759    2.069    1.862    0.966    1.655 
#    0.000    3.448    0.000    2.069    0.000    2.897 
#    0.000    0.000    0.000    0.000    0.000    0.000 
#
# Total GULP energy -718683.246010 kJ/mol
# GULP energy per Si atom -12391.090448 kJ/mol
# Density = 1.799439 g / cm^3
# Si number density = 18.035443 Si / 1000 Ang^3
#
#
#
# Elastic Constant Matrix: (Units=GPa)
#
#
# Indices 1 2 3 4 5 6 
#
# 1 78.2796 27.0313 29.5736 0.0000 0.0000 0.0000
# 2 27.0313 112.1781 36.0373 0.0000 0.0000 0.0000
# 3 29.5736 36.0373 49.4528 0.0000 0.0000 0.0000
# 4 0.0000 0.0000 0.0000 25.6142 0.0000 0.0000
# 5 0.0000 0.0000 0.0000 0.0000 19.0417 0.0000
# 6 0.0000 0.0000 0.0000 0.0000 0.0000 15.9180
#
#
#
# Elastic Compliance Matrix: (Units=1/GPa)
#
#
# Indices 1 2 3 4 5 6 
#
# 1 0.016599 -0.001059 -0.009155 0.000000 0.000000 0.000000
# 2 -0.001059 0.011707 -0.007898 0.000000 0.000000 0.000000
# 3 -0.009155 -0.007898 0.031451 0.000000 0.000000 0.000000
# 4 0.000000 0.000000 0.000000 0.039041 0.000000 0.000000
# 5 0.000000 0.000000 0.000000 0.000000 0.052516 0.000000
# 6 0.000000 0.000000 0.000000 0.000000 0.000000 0.062822
#
#
# Mechanical properties :
#
#
# Convention : Reuss Voigt Hill
#
# Bulk Modulus (GPa) = 42.49146 47.24388 44.86767
# Shear Modulus (GPa) = 19.36454 21.93266 20.64860
#
# Velocity S-wave (km/s) = 3.28028 3.49103 3.38729
# Velocity P-wave (km/s) = 6.16102 6.51932 6.34270
#
# Compressibility (1/GPa) = 0.02353414
#
# Stress axis : x y z
#
# Youngs Moduli (GPa) = 60.24452 85.42131 31.79516
#
# Poissons Ratio (x) = 0.09044 0.29108
# Poissons Ratio (y) = 0.06379 0.25111
# Poissons Ratio (z) = 0.55153 0.67463
#
# Static dielectric constant tensor:
#      x y z
#    x 3.190180 0.000000 0.000000 
#    y 0.000000 3.612270 0.000000 
#    z 0.000000 0.000000 2.912900 
# 
# 
# High freq. dielectric constant tensor:
#      x y z
#    x 1.678340 0.000000 0.000000 
#    y 0.000000 1.711350 0.000000 
#    z 0.000000 0.000000 1.656230 
# 
# From -- ./inp_files/9440.got.cif
#   From: 2010.03.12/outbox.cif.g09.slc.cpg/sg49_5_cif.got.tgz:9440.got - 2010.04.14 03:58:27.
