data_PCOD8202785
_publ_section_title
;
Structure prediction by ZEFSAII (Michael W. Deem and Ramdas Pophale) SiO2 
 PCOD8202785
Probable space group: P C C M
;
_chemical_formula_sum "Si O2"
_cell_formula_units_Z 48
_cell_length_a 18.554416
_cell_length_b 17.700208
_cell_length_c 9.894885
_cell_angle_alpha 90.000000
_cell_angle_beta 90.000000
_cell_angle_gamma 90.000000
_cell_volume 3249.648670
_symmetry_space_group_name_H-M "P C C M"
_symmetry_group_IT_number 49
_symmetry_cell_setting 'orthorhombic'
loop_
_space_group_symop_operation_xyz
x,y,z
-x,-y,z
x,-y,1/2-z
-x,y,1/2-z
-x,-y,-z
x,y,-z
-x,y,1/2+z
x,-y,1/2+z
loop_
_atom_site_type_symbol
_atom_site_label
_atom_site_fract_x
_atom_site_fract_y
_atom_site_fract_z
Si Si1 0.100829 0.569270 0.000000
Si Si2 0.932931 0.402984 0.500000
Si Si3 0.720117 0.427730 0.654504
Si Si4 0.560232 0.576685 0.838563
Si Si5 0.085420 0.181799 0.743192
Si Si6 0.853810 0.341555 0.256181
Si Si7 0.917241 0.922393 0.500000
Si Si8 0.912948 0.910343 0.000000
O O1 0.137086 0.603244 0.130948
O O2 0.114170 0.479573 0.000000
O O3 0.016768 0.583901 0.000000
O O4 0.915036 0.355961 0.367274
O O5 0.733703 0.500000 0.750000
O O6 0.729661 0.455866 0.500000
O O7 0.640803 0.389979 0.672386
O O8 0.774810 0.359026 0.685079
O O9 0.564140 0.500000 0.750000
O O10 0.500000 0.624654 0.750000
O O11 0.539340 0.567146 0.000000
O O12 0.134367 0.255088 0.714061
O O13 0.107609 0.122929 0.629751
O O14 0.000000 0.201651 0.750000
O O15 0.112498 0.140116 0.876124
O O16 0.002841 0.926379 0.500000
O O17 0.879435 0.005149 0.500000
#
# Coordination Sequence:
#
# PCOD8202785 Si02
#       8
#     4   4   8   8   8   8   4   4
#     4  11  23  33  45  59  74 111 154 200 235 255
#     4  11  21  35  47  55  76 109 156 198 231 261
#     4  10  21  34  48  64  87 118 151 186 224 265
#     4   9  16  28  46  68  87 107 138 178 220 262
#     4  10  19  30  45  63  83 108 138 178 223 263
#     4  12  22  33  45  62  86 112 148 188 229 268
#     4   9  17  31  45  65  85  98 132 173 218 269
#     4   9  17  29  49  65  79 104 130 171 218 271
#
# _framework density 14.770828
#
# number of rings (size 3 to 8) (size 9 to 14) (size 15 to 20)
#    0.000    1.833    0.833    5.500    1.167    5.333 
#    0.000    0.000    0.000    0.000    0.000    0.000 
#    0.000    0.000    0.000    0.000    0.000    5.000 
#
# Total GULP energy -594702.558831 kJ/mol
# GULP energy per Si atom -12389.636642 kJ/mol
# Density = 1.473721 g / cm^3
# Si number density = 14.770828 Si / 1000 Ang^3
#
#
#
# Elastic Constant Matrix: (Units=GPa)
#
#
# Indices 1 2 3 4 5 6 
#
# 1 64.7565 21.3010 21.0976 0.0000 0.0000 0.0000
# 2 21.3010 67.2545 17.4908 0.0000 0.0000 0.0000
# 3 21.0976 17.4908 107.8226 0.0000 0.0000 0.0000
# 4 0.0000 0.0000 0.0000 39.3920 0.0000 0.0000
# 5 0.0000 0.0000 0.0000 0.0000 20.0568 0.0000
# 6 0.0000 0.0000 0.0000 0.0000 0.0000 8.2688
#
#
#
# Elastic Compliance Matrix: (Units=1/GPa)
#
#
# Indices 1 2 3 4 5 6 
#
# 1 0.017964 -0.004986 -0.002706 0.000000 0.000000 0.000000
# 2 -0.004986 0.016908 -0.001767 0.000000 0.000000 0.000000
# 3 -0.002706 -0.001767 0.010091 0.000000 0.000000 0.000000
# 4 0.000000 0.000000 0.000000 0.025386 0.000000 0.000000
# 5 0.000000 0.000000 0.000000 0.000000 0.049858 0.000000
# 6 0.000000 0.000000 0.000000 0.000000 0.000000 0.120937
#
#
# Mechanical properties :
#
#
# Convention : Reuss Voigt Hill
#
# Bulk Modulus (GPa) = 38.39655 39.95692 39.17674
# Shear Modulus (GPa) = 18.60508 25.53980 22.07244
#
# Velocity S-wave (km/s) = 3.55291 4.16272 3.86985
# Velocity P-wave (km/s) = 6.54845 7.08620 6.82263
#
# Compressibility (1/GPa) = 0.02604401
#
# Stress axis : x y z
#
# Youngs Moduli (GPa) = 55.66623 59.14502 99.10129
#
# Poissons Ratio (x) = 0.29489 0.26819
# Poissons Ratio (y) = 0.27754 0.17513
# Poissons Ratio (z) = 0.15065 0.10452
#
# Static dielectric constant tensor:
#      x y z
#    x 3.226010 0.000000 0.000000 
#    y 0.000000 2.737680 0.000000 
#    z 0.000000 0.000000 3.192420 
# 
# 
# High freq. dielectric constant tensor:
#      x y z
#    x 1.534670 0.000000 0.000000 
#    y 0.000000 1.531370 0.000000 
#    z 0.000000 0.000000 1.592620 
# 
# From -- ./inp_files/5877.got.cif
#   From: 2010.03.12/outbox.cif.g09.slc.cpg/sg49_3_cif.got.tgz:5877.got - 2010.04.14 03:58:27.
