data_PCOD8202002
_publ_section_title
;
Structure prediction by ZEFSAII (Michael W. Deem and Ramdas Pophale) SiO2 
 PCOD8202002
Probable space group: P N N N
;
_chemical_formula_sum "Si O2"
_cell_formula_units_Z 58
_cell_length_a 28.844299
_cell_length_b 9.458353
_cell_length_c 11.983469
_cell_angle_alpha 90.000000
_cell_angle_beta 90.000000
_cell_angle_gamma 90.000000
_cell_volume 3269.324764
_symmetry_space_group_name_H-M "P N N N"
_symmetry_group_IT_number 48
_space_group.IT_coordinate_system_code '2'
_symmetry_cell_setting 'orthorhombic'
loop_
_space_group_symop_operation_xyz
x,y,z
1/2-x,1/2-y,z
x,1/2-y,1/2-z
1/2-x,y,1/2-z
-x,-y,-z
1/2+x,1/2+y,-z
-x,1/2+y,1/2+z
1/2+x,-y,1/2+z
loop_
_atom_site_type_symbol
_atom_site_label
_atom_site_fract_x
_atom_site_fract_y
_atom_site_fract_z
Si Si1 0.948858 0.606488 0.707592
Si Si2 0.591389 0.695696 0.366797
Si Si3 0.832579 0.138187 0.122059
Si Si4 0.383502 0.601879 0.652528
Si Si5 0.103322 0.029090 0.004076
Si Si6 0.750000 0.250000 0.250000
Si Si7 0.515718 0.353880 0.655359
Si Si8 0.461248 0.786146 0.577867
O O1 0.924847 0.750000 0.750000
O O2 0.909929 0.525052 0.634668
O O3 0.965824 0.510746 0.811844
O O4 0.991125 0.658780 0.629408
O O5 0.612760 0.750000 0.250000
O O6 0.617905 0.552609 0.404026
O O7 0.597060 0.810772 0.462733
O O8 0.539341 0.646426 0.344442
O O9 0.866850 0.088499 0.220464
O O10 0.848014 0.296620 0.084058
O O11 0.780171 0.146795 0.169189
O O12 0.843643 0.028223 0.020558
O O13 0.434790 0.673008 0.656191
O O14 0.068282 0.927570 0.939050
O O15 0.535269 0.250000 0.750000
O O16 0.533305 0.301209 0.536679
#
# Coordination Sequence:
#
# PCOD8202002 Si02
#       8
#     8   8   8   8   8   2   8   8
#     4  12  25  33  46  70 106 148 203 242 265 304
#     4  11  19  29  46  68 100 140 186 214 262 303
#     4   9  19  35  57  80 107 135 163 216 269 338
#     4   9  19  29  49  74  98 137 180 211 259 316
#     4  11  21  35  49  71 105 145 178 231 275 311
#     4   8  16  36  64  90 104 130 164 202 276 344
#     4  11  22  33  47  64  96 151 197 246 256 296
#     4  11  21  36  48  66 100 149 204 236 267 294
#
# _framework density 17.740666999999998
#
# number of rings (size 3 to 8) (size 9 to 14) (size 15 to 20)
#    0.000    1.655    4.138    2.897    9.655    1.103 
#    0.000    0.000    0.000    6.621    0.000    0.000 
#    0.000   19.862    6.621    0.000    0.000    0.000 
#
# Total GULP energy -718571.989983 kJ/mol
# GULP energy per Si atom -12389.172241 kJ/mol
# Density = 1.770029 g / cm^3
# Si number density = 17.740667 Si / 1000 Ang^3
#
#
#
# Elastic Constant Matrix: (Units=GPa)
#
#
# Indices 1 2 3 4 5 6 
#
# 1 72.4660 30.0848 35.6450 0.0000 0.0000 0.0000
# 2 30.0848 130.1363 22.0974 0.0000 0.0000 0.0000
# 3 35.6450 22.0974 52.4620 0.0000 0.0000 0.0000
# 4 0.0000 0.0000 0.0000 33.6492 0.0000 0.0000
# 5 0.0000 0.0000 0.0000 0.0000 17.9555 0.0000
# 6 0.0000 0.0000 0.0000 0.0000 0.0000 6.6561
#
#
#
# Elastic Compliance Matrix: (Units=1/GPa)
#
#
# Indices 1 2 3 4 5 6 
#
# 1 0.021567 -0.002690 -0.013520 0.000000 0.000000 0.000000
# 2 -0.002690 0.008612 -0.001800 0.000000 0.000000 0.000000
# 3 -0.013520 -0.001800 0.029006 0.000000 0.000000 0.000000
# 4 0.000000 0.000000 0.000000 0.029718 0.000000 0.000000
# 5 0.000000 0.000000 0.000000 0.000000 0.055693 0.000000
# 6 0.000000 0.000000 0.000000 0.000000 0.000000 0.150238
#
#
# Mechanical properties :
#
#
# Convention : Reuss Voigt Hill
#
# Bulk Modulus (GPa) = 43.16989 47.85762 45.51376
# Shear Modulus (GPa) = 14.76776 22.80131 18.78453
#
# Velocity S-wave (km/s) = 2.88831 3.58894 3.25751
# Velocity P-wave (km/s) = 5.95901 6.64897 6.31342
#
# Compressibility (1/GPa) = 0.02316429
#
# Stress axis : x y z
#
# Youngs Moduli (GPa) = 46.36749 116.12114 34.47587
#
# Poissons Ratio (x) = 0.31237 0.46613
# Poissons Ratio (y) = 0.12473 0.06204
# Poissons Ratio (z) = 0.62691 0.20897
#
# Static dielectric constant tensor:
#      x y z
#    x 2.949210 0.000000 0.000000 
#    y 0.000000 3.644480 0.000000 
#    z 0.000000 0.000000 3.290050 
# 
# 
# High freq. dielectric constant tensor:
#      x y z
#    x 1.620910 0.000000 0.000000 
#    y 0.000000 1.707680 0.000000 
#    z 0.000000 0.000000 1.667790 
# 
# From -- ./inp_files/16917.got.cif
#   From: 2010.06.25/outbox.cif.g09.slc.cpg/sg48_9_cif.got.tgz:16917.got - 2010.06.26 18:06:46.
