data_PCOD8202759
_publ_section_title
;
Structure prediction by ZEFSAII (Michael W. Deem and Ramdas Pophale) SiO2 
 PCOD8202759
Probable space group: P C C M
;
_chemical_formula_sum "Si O2"
_cell_formula_units_Z 64
_cell_length_a 20.453058
_cell_length_b 19.622848
_cell_length_c 8.934705
_cell_angle_alpha 90.000000
_cell_angle_beta 90.000000
_cell_angle_gamma 90.000000
_cell_volume 3585.919266
_symmetry_space_group_name_H-M "P C C M"
_symmetry_group_IT_number 49
_symmetry_cell_setting 'orthorhombic'
loop_
_space_group_symop_operation_xyz
x,y,z
-x,-y,z
x,-y,1/2-z
-x,y,1/2-z
-x,-y,-z
x,y,-z
-x,y,1/2+z
x,-y,1/2+z
loop_
_atom_site_type_symbol
_atom_site_label
_atom_site_fract_x
_atom_site_fract_y
_atom_site_fract_z
Si Si1 0.565841 0.661897 0.322729
Si Si2 0.384831 0.932813 0.830662
Si Si3 0.189749 0.336769 0.674481
Si Si4 0.617162 0.795154 0.824016
Si Si5 0.067275 0.429251 0.675889
Si Si6 0.689363 0.426956 0.823795
Si Si7 0.230959 0.796567 0.674911
Si Si8 0.229134 0.066742 0.331868
O O1 0.500000 0.631503 0.250000
O O2 0.558925 0.666181 0.500000
O O3 0.576881 0.737014 0.258655
O O4 0.624323 0.612448 0.273371
O O5 0.408807 0.867105 0.738505
O O6 0.306988 0.935774 0.830108
O O7 0.413445 0.000000 0.750000
O O8 0.411581 0.929208 0.000000
O O9 0.199621 0.321156 0.500000
O O10 0.121386 0.372755 0.709005
O O11 0.248324 0.384459 0.733802
O O12 0.189222 0.266033 0.762545
O O13 0.693248 0.784970 0.784719
O O14 0.603939 0.791872 0.000000
O O15 0.090075 0.500000 0.750000
O O16 0.057234 0.441084 0.500000
O O17 0.000000 0.403685 0.750000
O O18 0.690202 0.500000 0.750000
O O19 0.692524 0.437071 0.000000
O O20 0.219879 0.803188 0.500000
O O21 0.204061 0.865707 0.748621
O O22 0.201887 0.067702 0.500000
O O23 0.200568 0.000000 0.250000
#
# Coordination Sequence:
#
# PCOD8202759 Si02
#       8
#     8   8   8   8   8   8   8   8
#     4  11  23  39  57  75  98 129 166 212 261 314
#     4   9  16  26  43  68  97 130 165 205 251 300
#     4  10  20  35  53  77 107 140 175 213 258 307
#     4  10  19  32  50  73  99 129 167 209 256 310
#     4  10  20  34  54  77 107 143 180 218 257 307
#     4  10  22  38  57  78 102 130 165 208 258 310
#     4  10  19  29  47  74 102 134 171 214 259 307
#     4   9  16  26  41  63  97 136 172 211 254 305
#
# _framework density 17.847584999999999
#
# number of rings (size 3 to 8) (size 9 to 14) (size 15 to 20)
#    0.000    2.125    1.250    3.000    0.000    6.750 
#    0.000    1.250    0.000    0.375    0.000    2.625 
#    0.000    0.500    0.000    5.250    0.000    3.125 
#
# Total GULP energy -793793.770271 kJ/mol
# GULP energy per Si atom -12403.027660 kJ/mol
# Density = 1.780696 g / cm^3
# Si number density = 17.847585 Si / 1000 Ang^3
#
#
#
# Elastic Constant Matrix: (Units=GPa)
#
#
# Indices 1 2 3 4 5 6 
#
# 1 70.3354 48.4981 40.5886 0.0000 0.0000 0.0000
# 2 48.4981 143.4938 57.4721 0.0000 0.0000 0.0000
# 3 40.5886 57.4721 99.4120 0.0000 0.0000 0.0000
# 4 0.0000 0.0000 0.0000 39.1595 0.0000 0.0000
# 5 0.0000 0.0000 0.0000 0.0000 19.3904 0.0000
# 6 0.0000 0.0000 0.0000 0.0000 0.0000 12.7411
#
#
#
# Elastic Compliance Matrix: (Units=1/GPa)
#
#
# Indices 1 2 3 4 5 6 
#
# 1 0.020798 -0.004722 -0.005762 0.000000 0.000000 0.000000
# 2 -0.004722 0.010141 -0.003935 0.000000 0.000000 0.000000
# 3 -0.005762 -0.003935 0.014686 0.000000 0.000000 0.000000
# 4 0.000000 0.000000 0.000000 0.025537 0.000000 0.000000
# 5 0.000000 0.000000 0.000000 0.000000 0.051572 0.000000
# 6 0.000000 0.000000 0.000000 0.000000 0.000000 0.078486
#
#
# Mechanical properties :
#
#
# Convention : Reuss Voigt Hill
#
# Bulk Modulus (GPa) = 59.56384 67.37320 63.46852
# Shear Modulus (GPa) = 21.21761 25.37037 23.29399
#
# Velocity S-wave (km/s) = 3.45167 3.77437 3.61662
# Velocity P-wave (km/s) = 7.02363 7.53828 7.28550
#
# Compressibility (1/GPa) = 0.01678871
#
# Stress axis : x y z
#
# Youngs Moduli (GPa) = 48.08057 98.61231 68.08984
#
# Poissons Ratio (x) = 0.46561 0.39234
# Poissons Ratio (y) = 0.22702 0.26792
# Poissons Ratio (z) = 0.27704 0.38802
#
# Static dielectric constant tensor:
#      x y z
#    x 3.034670 0.000000 0.000000 
#    y 0.000000 3.372150 0.000000 
#    z 0.000000 0.000000 3.395970 
# 
# 
# High freq. dielectric constant tensor:
#      x y z
#    x 1.646050 0.000000 0.000000 
#    y 0.000000 1.699500 0.000000 
#    z 0.000000 0.000000 1.703910 
# 
# From -- ./inp_files/6005.got.cif
#   From: 2010.03.12/outbox.cif.g09.slc.cpg/sg49_4_cif.got.tgz:6005.got - 2010.04.14 03:58:27.
