data_PCOD8202952
_publ_section_title
;
Structure prediction by ZEFSAII (Michael W. Deem and Ramdas Pophale) SiO2 
 PCOD8202952
Probable space group: P C C M
;
_chemical_formula_sum "Si O2"
_cell_formula_units_Z 64
_cell_length_a 19.379815
_cell_length_b 19.430005
_cell_length_c 8.900475
_cell_angle_alpha 90.000000
_cell_angle_beta 90.000000
_cell_angle_gamma 90.000000
_cell_volume 3351.472992
_symmetry_space_group_name_H-M "P C C M"
_symmetry_group_IT_number 49
_symmetry_cell_setting 'orthorhombic'
loop_
_space_group_symop_operation_xyz
x,y,z
-x,-y,z
x,-y,1/2-z
-x,y,1/2-z
-x,-y,-z
x,y,-z
-x,y,1/2+z
x,-y,1/2+z
loop_
_atom_site_type_symbol
_atom_site_label
_atom_site_fract_x
_atom_site_fract_y
_atom_site_fract_z
Si Si1 0.429348 0.685366 0.324943
Si Si2 0.854761 0.065076 0.166043
Si Si3 0.067040 0.174059 0.177829
Si Si4 0.305090 0.788014 0.325818
Si Si5 0.658643 0.574055 0.677290
Si Si6 0.066750 0.677775 0.823861
Si Si7 0.693891 0.933046 0.666398
Si Si8 0.779945 0.325381 0.174542
O O1 0.500000 0.710642 0.250000
O O2 0.440166 0.670848 0.500000
O O3 0.373975 0.744741 0.295466
O O4 0.406021 0.614641 0.245967
O O5 0.866269 0.131727 0.269994
O O6 0.774287 0.053409 0.149370
O O7 0.888965 0.000000 0.250000
O O8 0.887887 0.073724 0.000000
O O9 0.070956 0.248029 0.251309
O O10 0.000000 0.136219 0.250000
O O11 0.062844 0.179445 0.000000
O O12 0.289522 0.799002 0.500000
O O13 0.318756 0.862027 0.253302
O O14 0.239759 0.745638 0.259283
O O15 0.663000 0.500000 0.750000
O O16 0.648907 0.567632 0.500000
O O17 0.729021 0.613409 0.721520
O O18 0.142531 0.646201 0.788608
O O19 0.000000 0.638132 0.750000
O O20 0.052723 0.682490 0.000000
O O21 0.660535 0.927479 0.500000
O O22 0.660981 0.000000 0.750000
O O23 0.773480 0.306919 0.000000
#
# Coordination Sequence:
#
# PCOD8202952 Si02
#       8
#     8   8   8   8   8   8   8   8
#     4  10  21  37  57  84 115 148 182 217 255 303
#     4  10  20  33  46  63  86 115 153 198 247 304
#     4  11  21  32  45  62  85 116 153 197 249 306
#     4  10  20  33  53  80 108 137 176 220 264 314
#     4  10  20  36  57  83 114 147 181 218 258 305
#     4  10  19  32  49  71  97 127 165 211 261 311
#     4  10  20  33  51  73 100 132 168 212 264 314
#     4   9  19  34  53  76 105 140 177 217 265 317
#
# _framework density 19.096081000000002
#
# number of rings (size 3 to 8) (size 9 to 14) (size 15 to 20)
#    0.000    2.000    0.000    4.875    0.000    8.000 
#    0.000    2.500    0.000    0.750    0.000    5.250 
#    0.000    0.000    0.000    0.000    0.000    0.000 
#
# Total GULP energy -793351.075499 kJ/mol
# GULP energy per Si atom -12396.110555 kJ/mol
# Density = 1.905262 g / cm^3
# Si number density = 19.096081 Si / 1000 Ang^3
#
#
#
# Elastic Constant Matrix: (Units=GPa)
#
#
# Indices 1 2 3 4 5 6 
#
# 1 74.6148 11.5282 41.3297 0.0000 0.0000 0.0000
# 2 11.5282 88.5897 42.1830 0.0000 0.0000 0.0000
# 3 41.3297 42.1830 115.1896 0.0000 0.0000 0.0000
# 4 0.0000 0.0000 0.0000 26.0558 0.0000 0.0000
# 5 0.0000 0.0000 0.0000 0.0000 28.5813 0.0000
# 6 0.0000 0.0000 0.0000 0.0000 0.0000 16.2643
#
#
#
# Elastic Compliance Matrix: (Units=1/GPa)
#
#
# Indices 1 2 3 4 5 6 
#
# 1 0.016776 0.000827 -0.006322 0.000000 0.000000 0.000000
# 2 0.000827 0.013713 -0.005319 0.000000 0.000000 0.000000
# 3 -0.006322 -0.005319 0.012897 0.000000 0.000000 0.000000
# 4 0.000000 0.000000 0.000000 0.038379 0.000000 0.000000
# 5 0.000000 0.000000 0.000000 0.000000 0.034988 0.000000
# 6 0.000000 0.000000 0.000000 0.000000 0.000000 0.061484
#
#
# Mechanical properties :
#
#
# Convention : Reuss Voigt Hill
#
# Bulk Modulus (GPa) = 45.95676 52.05286 49.00481
# Shear Modulus (GPa) = 24.14081 26.40383 25.27232
#
# Velocity S-wave (km/s) = 3.55938 3.72248 3.64184
# Velocity P-wave (km/s) = 6.40395 6.76708 6.58802
#
# Compressibility (1/GPa) = 0.02175958
#
# Stress axis : x y z
#
# Youngs Moduli (GPa) = 59.60795 72.92440 77.53492
#
# Poissons Ratio (x) = -0.06033 0.49019
# Poissons Ratio (y) = -0.04931 0.41237
# Poissons Ratio (z) = 0.37686 0.38785
#
# Static dielectric constant tensor:
#      x y z
#    x 3.899380 0.000000 0.000000 
#    y 0.000000 3.277220 0.000000 
#    z 0.000000 0.000000 3.787810 
# 
# 
# High freq. dielectric constant tensor:
#      x y z
#    x 1.729520 0.000000 0.000000 
#    y 0.000000 1.720710 0.000000 
#    z 0.000000 0.000000 1.761360 
# 
# From -- ./inp_files/6015.got.cif
#   From: 2010.03.12/outbox.cif.g09.slc.cpg/sg49_4_cif.got.tgz:6015.got - 2010.04.14 03:58:27.
