data_PCOD8202803
_publ_section_title
;
Structure prediction by ZEFSAII (Michael W. Deem and Ramdas Pophale) SiO2 
 PCOD8202803
Probable space group: P C C M
;
_chemical_formula_sum "Si O2"
_cell_formula_units_Z 56
_cell_length_a 24.294123
_cell_length_b 14.036749
_cell_length_c 9.448795
_cell_angle_alpha 90.000000
_cell_angle_beta 90.000000
_cell_angle_gamma 90.000000
_cell_volume 3222.138371
_symmetry_space_group_name_H-M "P C C M"
_symmetry_group_IT_number 49
_symmetry_cell_setting 'orthorhombic'
loop_
_space_group_symop_operation_xyz
x,y,z
-x,-y,z
x,-y,1/2-z
-x,y,1/2-z
-x,-y,-z
x,y,-z
-x,y,1/2+z
x,-y,1/2+z
loop_
_atom_site_type_symbol
_atom_site_label
_atom_site_fract_x
_atom_site_fract_y
_atom_site_fract_z
Si Si1 0.250112 0.296489 0.164275
Si Si2 0.050480 0.723947 0.166045
Si Si3 0.568376 0.381758 0.000000
Si Si4 0.842520 0.404354 0.835298
Si Si5 0.552749 0.606462 0.000000
Si Si6 0.911523 0.093897 0.667446
Si Si7 0.782875 0.911114 0.839280
Si Si8 0.634912 0.611855 0.763032
O O1 0.209278 0.351742 0.267347
O O2 0.249476 0.184707 0.202473
O O3 0.310787 0.333796 0.191611
O O4 0.232953 0.312528 0.000000
O O5 0.103853 0.659533 0.180615
O O6 0.058282 0.821047 0.252814
O O7 0.000000 0.672538 0.250000
O O8 0.036995 0.742618 0.000000
O O9 0.552693 0.492421 0.000000
O O10 0.506497 0.339197 0.000000
O O11 0.608289 0.347527 0.877321
O O12 0.854017 0.500000 0.750000
O O13 0.829513 0.426163 0.000000
O O14 0.586064 0.639906 0.865887
O O15 0.926755 0.089795 0.500000
O O16 0.846784 0.108464 0.689553
O O17 0.931483 0.000000 0.750000
O O18 0.760263 0.000000 0.750000
O O19 0.772273 0.939783 0.000000
O O20 0.648843 0.500000 0.750000
#
# Coordination Sequence:
#
# PCOD8202803 Si02
#       8
#     8   8   4   8   4   8   8   8
#     4  11  21  36  56  80 114 146 180 223 277 328
#     4  11  24  41  60  84 109 141 183 228 272 327
#     4   9  18  28  48  70 105 145 196 222 272 311
#     4  11  25  41  60  82 108 144 184 225 274 323
#     4   9  16  32  46  68 103 153 186 232 264 315
#     4  10  19  35  58  84 112 142 176 220 274 335
#     4   9  19  34  55  80 107 142 175 216 271 328
#     4  10  19  30  47  75 109 148 187 227 267 314
#
# _framework density 17.379761999999999
#
# number of rings (size 3 to 8) (size 9 to 14) (size 15 to 20)
#    0.000    1.857    2.143    2.143    1.000    5.143 
#    0.000    2.857    0.000    0.000    0.000    0.000 
#    0.000    3.429    0.000    0.000    0.000    0.000 
#
# Total GULP energy -694063.768591 kJ/mol
# GULP energy per Si atom -12393.995868 kJ/mol
# Density = 1.734021 g / cm^3
# Si number density = 17.379762 Si / 1000 Ang^3
#
#
#
# Elastic Constant Matrix: (Units=GPa)
#
#
# Indices 1 2 3 4 5 6 
#
# 1 68.2352 26.6713 34.0502 0.0000 0.0000 0.0000
# 2 26.6713 68.7365 43.5266 0.0000 0.0000 0.0000
# 3 34.0502 43.5266 133.3585 0.0000 0.0000 0.0000
# 4 0.0000 0.0000 0.0000 28.4053 0.0000 0.0000
# 5 0.0000 0.0000 0.0000 0.0000 34.0631 0.0000
# 6 0.0000 0.0000 0.0000 0.0000 0.0000 19.5455
#
#
#
# Elastic Compliance Matrix: (Units=1/GPa)
#
#
# Indices 1 2 3 4 5 6 
#
# 1 0.018148 -0.005178 -0.002944 0.000000 0.000000 0.000000
# 2 -0.005178 0.019816 -0.005146 0.000000 0.000000 0.000000
# 3 -0.002944 -0.005146 0.009930 0.000000 0.000000 0.000000
# 4 0.000000 0.000000 0.000000 0.035205 0.000000 0.000000
# 5 0.000000 0.000000 0.000000 0.000000 0.029357 0.000000
# 6 0.000000 0.000000 0.000000 0.000000 0.000000 0.051163
#
#
# Mechanical properties :
#
#
# Convention : Reuss Voigt Hill
#
# Bulk Modulus (GPa) = 46.81807 53.20293 50.01050
# Shear Modulus (GPa) = 25.34571 27.47491 26.41031
#
# Velocity S-wave (km/s) = 3.82297 3.98031 3.90244
# Velocity P-wave (km/s) = 6.81789 7.19738 7.01020
#
# Compressibility (1/GPa) = 0.02135928
#
# Stress axis : x y z
#
# Youngs Moduli (GPa) = 55.10252 50.46484 100.70829
#
# Poissons Ratio (x) = 0.26129 0.29646
# Poissons Ratio (y) = 0.28531 0.51821
# Poissons Ratio (z) = 0.16221 0.25967
#
# Static dielectric constant tensor:
#      x y z
#    x 3.274600 0.000000 0.000000 
#    y 0.000000 3.105560 0.000000 
#    z 0.000000 0.000000 3.497850 
# 
# 
# High freq. dielectric constant tensor:
#      x y z
#    x 1.670450 0.000000 0.000000 
#    y 0.000000 1.642240 0.000000 
#    z 0.000000 0.000000 1.693340 
# 
# From -- ./inp_files/5844.got.cif
#   From: 2010.03.12/outbox.cif.g09.slc.cpg/sg49_3_cif.got.tgz:5844.got - 2010.04.14 03:58:27.
