data_PCOD8202975
_publ_section_title
;
Structure prediction by ZEFSAII (Michael W. Deem and Ramdas Pophale) SiO2 
 PCOD8202975
Probable space group: P C C M
;
_chemical_formula_sum "Si O2"
_cell_formula_units_Z 64
_cell_length_a 14.795498
_cell_length_b 23.974861
_cell_length_c 8.712997
_cell_angle_alpha 90.000000
_cell_angle_beta 90.000000
_cell_angle_gamma 90.000000
_cell_volume 3090.674365
_symmetry_space_group_name_H-M "P C C M"
_symmetry_group_IT_number 49
_symmetry_cell_setting 'orthorhombic'
loop_
_space_group_symop_operation_xyz
x,y,z
-x,-y,z
x,-y,1/2-z
-x,y,1/2-z
-x,-y,-z
x,y,-z
-x,y,1/2+z
x,-y,1/2+z
loop_
_atom_site_type_symbol
_atom_site_label
_atom_site_fract_x
_atom_site_fract_y
_atom_site_fract_z
Si Si1 0.666207 0.669561 0.818209
Si Si2 0.236047 0.845469 0.179667
Si Si3 0.096251 0.939984 0.817389
Si Si4 0.147872 0.447927 0.325657
Si Si5 0.137854 0.327328 0.322368
Si Si6 0.405067 0.791339 0.320440
Si Si7 0.912055 0.222669 0.323160
Si Si8 0.646616 0.557043 0.682518
O O1 0.757119 0.672816 0.719941
O O2 0.614010 0.726875 0.777251
O O3 0.608973 0.614783 0.760651
O O4 0.685996 0.665945 0.000000
O O5 0.178529 0.899605 0.234586
O O6 0.332299 0.836766 0.259413
O O7 0.176582 0.792675 0.228404
O O8 0.251939 0.846955 0.000000
O O9 0.000000 0.919019 0.750000
O O10 0.121077 0.000000 0.750000
O O11 0.087403 0.942737 0.000000
O O12 0.095070 0.500000 0.250000
O O13 0.155604 0.463656 0.500000
O O14 0.097360 0.389443 0.297886
O O15 0.249649 0.443638 0.260979
O O16 0.126566 0.308214 0.500000
O O17 0.080806 0.288903 0.205683
O O18 0.500000 0.809421 0.250000
O O19 0.408541 0.799487 0.500000
O O20 0.903438 0.206512 0.500000
O O21 0.000000 0.192728 0.250000
O O22 0.600360 0.500000 0.750000
O O23 0.632311 0.559859 0.500000
#
# Coordination Sequence:
#
# PCOD8202975 Si02
#       8
#     8   8   8   8   8   8   8   8
#     4  10  19  32  51  77 107 143 189 238 297 365
#     4  11  23  40  63  91 125 163 205 251 299 352
#     4  10  21  37  62  97 135 177 214 252 296 345
#     4   8  15  25  40  64  92 126 170 218 274 336
#     4  10  19  32  50  73 104 142 181 230 289 348
#     4  11  24  40  61  88 119 159 205 255 310 364
#     4  12  24  37  55  82 115 154 195 238 293 353
#     4   9  16  26  43  69 100 136 177 229 292 359
#
# _framework density 20.707455
#
# number of rings (size 3 to 8) (size 9 to 14) (size 15 to 20)
#    0.000    1.875    1.250    4.875    0.000    8.000 
#    0.000    0.000    0.000    1.125    0.000    7.875 
#    0.000    0.000    0.000    0.000    0.000    0.000 
#
# Total GULP energy -793126.295230 kJ/mol
# GULP energy per Si atom -12392.598363 kJ/mol
# Density = 2.066032 g / cm^3
# Si number density = 20.707455 Si / 1000 Ang^3
#
#
#
# Elastic Constant Matrix: (Units=GPa)
#
#
# Indices 1 2 3 4 5 6 
#
# 1 100.6074 45.9339 30.9864 0.0000 0.0000 0.0000
# 2 45.9339 121.5492 49.1735 0.0000 0.0000 0.0000
# 3 30.9864 49.1735 78.2403 0.0000 0.0000 0.0000
# 4 0.0000 0.0000 0.0000 26.9008 0.0000 0.0000
# 5 0.0000 0.0000 0.0000 0.0000 25.7465 0.0000
# 6 0.0000 0.0000 0.0000 0.0000 0.0000 3.7149
#
#
#
# Elastic Compliance Matrix: (Units=1/GPa)
#
#
# Indices 1 2 3 4 5 6 
#
# 1 0.012405 -0.003621 -0.002637 0.000000 0.000000 0.000000
# 2 -0.003621 0.012089 -0.006164 0.000000 0.000000 0.000000
# 3 -0.002637 -0.006164 0.017699 0.000000 0.000000 0.000000
# 4 0.000000 0.000000 0.000000 0.037174 0.000000 0.000000
# 5 0.000000 0.000000 0.000000 0.000000 0.038840 0.000000
# 6 0.000000 0.000000 0.000000 0.000000 0.000000 0.269183
#
#
# Mechanical properties :
#
#
# Convention : Reuss Voigt Hill
#
# Bulk Modulus (GPa) = 57.63804 61.39828 59.51816
# Shear Modulus (GPa) = 11.96121 22.89267 17.42694
#
# Velocity S-wave (km/s) = 2.40600 3.32856 2.90414
# Velocity P-wave (km/s) = 5.96769 6.66986 6.32852
#
# Compressibility (1/GPa) = 0.01734965
#
# Stress axis : x y z
#
# Youngs Moduli (GPa) = 80.61207 82.71879 56.49885
#
# Poissons Ratio (x) = 0.29953 0.14899
# Poissons Ratio (y) = 0.29190 0.34825
# Poissons Ratio (z) = 0.21258 0.50987
#
# Static dielectric constant tensor:
#      x y z
#    x 3.496360 0.000000 0.000000 
#    y 0.000000 4.076460 0.000000 
#    z 0.000000 0.000000 3.666170 
# 
# 
# High freq. dielectric constant tensor:
#      x y z
#    x 1.780010 0.000000 0.000000 
#    y 0.000000 1.809440 0.000000 
#    z 0.000000 0.000000 1.816260 
# 
# From -- ./inp_files/4402.got.cif
#   From: 2010.03.12/outbox.cif.g09.slc.cpg/sg49_3_cif.got.tgz:4402.got - 2010.04.14 03:58:27.
