data_PCOD8202863
_publ_section_title
;
Structure prediction by ZEFSAII (Michael W. Deem and Ramdas Pophale) SiO2 
 PCOD8202863
Probable space group: P C C M
;
_chemical_formula_sum "Si O2"
_cell_formula_units_Z 64
_cell_length_a 17.529142
_cell_length_b 20.766091
_cell_length_c 8.844875
_cell_angle_alpha 90.000000
_cell_angle_beta 90.000000
_cell_angle_gamma 90.000000
_cell_volume 3219.638497
_symmetry_space_group_name_H-M "P C C M"
_symmetry_group_IT_number 49
_symmetry_cell_setting 'orthorhombic'
loop_
_space_group_symop_operation_xyz
x,y,z
-x,-y,z
x,-y,1/2-z
-x,y,1/2-z
-x,-y,-z
x,y,-z
-x,y,1/2+z
x,-y,1/2+z
loop_
_atom_site_type_symbol
_atom_site_label
_atom_site_fract_x
_atom_site_fract_y
_atom_site_fract_z
Si Si1 0.426789 0.641323 0.670875
Si Si2 0.739194 0.936442 0.320358
Si Si3 0.421261 0.912545 0.675870
Si Si4 0.116808 0.431836 0.819088
Si Si5 0.785541 0.796092 0.322587
Si Si6 0.632617 0.774247 0.169700
Si Si7 0.288550 0.436255 0.822233
Si Si8 0.077096 0.296166 0.681224
O O1 0.500000 0.610137 0.750000
O O2 0.432741 0.618358 0.500000
O O3 0.427801 0.717586 0.693430
O O4 0.345509 0.618710 0.736844
O O5 0.739423 0.940340 0.500000
O O6 0.652007 0.940195 0.262305
O O7 0.783372 0.871197 0.264417
O O8 0.780671 0.000000 0.250000
O O9 0.500000 0.938421 0.750000
O O10 0.418570 0.932433 0.500000
O O11 0.418083 0.836331 0.700621
O O12 0.085298 0.500000 0.750000
O O13 0.203731 0.422916 0.763991
O O14 0.078152 0.368956 0.747385
O O15 0.105591 0.432645 0.000000
O O16 0.793533 0.797145 0.500000
O O17 0.704836 0.765077 0.278931
O O18 0.854447 0.751080 0.259595
O O19 0.666632 0.774073 0.000000
O O20 0.322712 0.500000 0.750000
O O21 0.286182 0.443243 0.000000
O O22 0.074902 0.299449 0.500000
O O23 0.000000 0.264920 0.750000
#
# Coordination Sequence:
#
# PCOD8202863 Si02
#       8
#     8   8   8   8   8   8   8   8
#     4  10  20  32  45  66  94 127 167 216 267 315
#     4  10  20  36  56  80 108 141 182 229 276 325
#     4  10  19  31  48  73 105 142 179 221 271 324
#     4  10  20  37  60  85 113 147 183 223 266 316
#     4   9  20  37  58  82 110 141 177 221 268 318
#     4   9  18  32  51  73  99 131 173 218 264 318
#     4   9  19  34  51  69  93 126 168 213 260 310
#     4  11  23  39  59  87 118 148 179 215 261 316
#
# _framework density 19.878008999999999
#
# number of rings (size 3 to 8) (size 9 to 14) (size 15 to 20)
#    0.000    2.250    0.000    2.625    0.000    5.250 
#    0.000    3.750    0.000    0.375    0.000    2.625 
#    0.000    0.000    0.000    0.000    0.000    0.000 
#
# Total GULP energy -793039.789529 kJ/mol
# GULP energy per Si atom -12391.246711 kJ/mol
# Density = 1.983277 g / cm^3
# Si number density = 19.878009 Si / 1000 Ang^3
#
#
#
# Elastic Constant Matrix: (Units=GPa)
#
#
# Indices 1 2 3 4 5 6 
#
# 1 83.7314 34.9725 26.8648 0.0000 0.0000 0.0000
# 2 34.9725 92.8312 31.9291 0.0000 0.0000 0.0000
# 3 26.8648 31.9291 54.3327 0.0000 0.0000 0.0000
# 4 0.0000 0.0000 0.0000 28.2756 0.0000 0.0000
# 5 0.0000 0.0000 0.0000 0.0000 28.8224 0.0000
# 6 0.0000 0.0000 0.0000 0.0000 0.0000 5.3224
#
#
#
# Elastic Compliance Matrix: (Units=1/GPa)
#
#
# Indices 1 2 3 4 5 6 
#
# 1 0.015272 -0.003956 -0.005227 0.000000 0.000000 0.000000
# 2 -0.003956 0.014526 -0.006580 0.000000 0.000000 0.000000
# 3 -0.005227 -0.006580 0.024856 0.000000 0.000000 0.000000
# 4 0.000000 0.000000 0.000000 0.035366 0.000000 0.000000
# 5 0.000000 0.000000 0.000000 0.000000 0.034695 0.000000
# 6 0.000000 0.000000 0.000000 0.000000 0.000000 0.187885
#
#
# Mechanical properties :
#
#
# Convention : Reuss Voigt Hill
#
# Bulk Modulus (GPa) = 43.23597 46.49201 44.86399
# Shear Modulus (GPa) = 14.21116 21.62601 17.91858
#
# Velocity S-wave (km/s) = 2.67670 3.30197 3.00564
# Velocity P-wave (km/s) = 5.59918 6.16253 5.88760
#
# Compressibility (1/GPa) = 0.02312889
#
# Stress axis : x y z
#
# Youngs Moduli (GPa) = 65.47871 68.84314 40.23105
#
# Poissons Ratio (x) = 0.27233 0.21027
# Poissons Ratio (y) = 0.25902 0.26473
# Poissons Ratio (z) = 0.34224 0.45301
#
# Static dielectric constant tensor:
#      x y z
#    x 3.612790 0.000000 0.000000 
#    y 0.000000 4.035140 0.000000 
#    z 0.000000 0.000000 3.595610 
# 
# 
# High freq. dielectric constant tensor:
#      x y z
#    x 1.758020 0.000000 0.000000 
#    y 0.000000 1.784430 0.000000 
#    z 0.000000 0.000000 1.770180 
# 
# From -- ./inp_files/4380.got.cif
#   From: 2010.03.12/outbox.cif.g09.slc.cpg/sg49_3_cif.got.tgz:4380.got - 2010.04.14 03:58:27.
