data_PCOD8202903
_publ_section_title
;
Structure prediction by ZEFSAII (Michael W. Deem and Ramdas Pophale) SiO2 
 PCOD8202903
Probable space group: P C C M
;
_chemical_formula_sum "Si O2"
_cell_formula_units_Z 64
_cell_length_a 24.704078
_cell_length_b 15.291665
_cell_length_c 8.705476
_cell_angle_alpha 90.000000
_cell_angle_beta 90.000000
_cell_angle_gamma 90.000000
_cell_volume 3288.637068
_symmetry_space_group_name_H-M "P C C M"
_symmetry_group_IT_number 49
_symmetry_cell_setting 'orthorhombic'
loop_
_space_group_symop_operation_xyz
x,y,z
-x,-y,z
x,-y,1/2-z
-x,y,1/2-z
-x,-y,-z
x,y,-z
-x,y,1/2+z
x,-y,1/2+z
loop_
_atom_site_type_symbol
_atom_site_label
_atom_site_fract_x
_atom_site_fract_y
_atom_site_fract_z
Si Si1 0.714602 0.631031 0.321255
Si Si2 0.140155 0.227296 0.179803
Si Si3 0.637775 0.908291 0.823690
Si Si4 0.401494 0.412791 0.318028
Si Si5 0.443442 0.227312 0.318300
Si Si6 0.058796 0.091250 0.317776
Si Si7 0.261185 0.196124 0.826180
Si Si8 0.832496 0.410318 0.183680
O O1 0.713344 0.615539 0.500000
O O2 0.660124 0.589651 0.250326
O O3 0.713711 0.733942 0.289200
O O4 0.770145 0.590268 0.255277
O O5 0.096780 0.171060 0.271185
O O6 0.198061 0.180661 0.211695
O O7 0.137716 0.326136 0.244961
O O8 0.126009 0.229246 0.000000
O O9 0.604854 0.832438 0.740886
O O10 0.702519 0.890944 0.805698
O O11 0.622751 0.000000 0.750000
O O12 0.620156 0.910485 0.000000
O O13 0.429627 0.500000 0.250000
O O14 0.401837 0.416884 0.500000
O O15 0.433272 0.326854 0.261723
O O16 0.500000 0.193934 0.250000
O O17 0.445247 0.221023 0.500000
O O18 0.055405 0.083532 0.500000
O O19 0.000000 0.110875 0.250000
O O20 0.081677 0.000000 0.250000
O O21 0.266274 0.232404 0.000000
O O22 0.858745 0.500000 0.250000
O O23 0.837357 0.406809 0.000000
#
# Coordination Sequence:
#
# PCOD8202903 Si02
#       8
#     8   8   8   8   8   8   8   8
#     4   9  17  31  51  77 110 147 187 229 277 332
#     4  10  20  36  57  86 122 159 199 243 289 343
#     4  11  23  40  62  88 114 146 184 228 282 342
#     4  10  21  35  55  82 111 144 182 225 277 334
#     4  11  24  43  63  83 109 142 183 233 284 338
#     4  11  22  39  62  89 119 156 200 248 298 347
#     4   9  19  34  55  83 116 151 187 227 279 336
#     4  10  19  31  50  79 116 158 200 242 289 340
#
# _framework density 19.460948999999999
#
# number of rings (size 3 to 8) (size 9 to 14) (size 15 to 20)
#    0.000    1.875    1.250    3.375    0.000    4.000 
#    0.000    3.750    0.000    0.375    0.000    2.625 
#    0.000    0.000    0.000    0.000    0.000    0.000 
#
# Total GULP energy -793462.064525 kJ/mol
# GULP energy per Si atom -12397.844758 kJ/mol
# Density = 1.941665 g / cm^3
# Si number density = 19.460949 Si / 1000 Ang^3
#
#
#
# Elastic Constant Matrix: (Units=GPa)
#
#
# Indices 1 2 3 4 5 6 
#
# 1 79.0721 51.4572 37.5700 0.0000 0.0000 0.0000
# 2 51.4572 126.9573 49.5710 0.0000 0.0000 0.0000
# 3 37.5700 49.5710 89.8136 0.0000 0.0000 0.0000
# 4 0.0000 0.0000 0.0000 35.6778 0.0000 0.0000
# 5 0.0000 0.0000 0.0000 0.0000 21.2793 0.0000
# 6 0.0000 0.0000 0.0000 0.0000 0.0000 15.3478
#
#
#
# Elastic Compliance Matrix: (Units=1/GPa)
#
#
# Indices 1 2 3 4 5 6 
#
# 1 0.018560 -0.005725 -0.004604 0.000000 0.000000 0.000000
# 2 -0.005725 0.011806 -0.004121 0.000000 0.000000 0.000000
# 3 -0.004604 -0.004121 0.015335 0.000000 0.000000 0.000000
# 4 0.000000 0.000000 0.000000 0.028029 0.000000 0.000000
# 5 0.000000 0.000000 0.000000 0.000000 0.046994 0.000000
# 6 0.000000 0.000000 0.000000 0.000000 0.000000 0.065156
#
#
# Mechanical properties :
#
#
# Convention : Reuss Voigt Hill
#
# Bulk Modulus (GPa) = 59.52319 63.67105 61.59712
# Shear Modulus (GPa) = 22.68806 24.94395 23.81601
#
# Velocity S-wave (km/s) = 3.41812 3.58403 3.50206
# Velocity P-wave (km/s) = 6.79930 7.06508 6.93346
#
# Compressibility (1/GPa) = 0.01680018
#
# Stress axis : x y z
#
# Youngs Moduli (GPa) = 53.88012 84.70097 65.21078
#
# Poissons Ratio (x) = 0.48490 0.30023
# Poissons Ratio (y) = 0.30845 0.26877
# Poissons Ratio (z) = 0.24807 0.34909
#
# Static dielectric constant tensor:
#      x y z
#    x 3.530650 0.000000 0.000000 
#    y 0.000000 3.559660 0.000000 
#    z 0.000000 0.000000 3.512660 
# 
# 
# High freq. dielectric constant tensor:
#      x y z
#    x 1.740910 0.000000 0.000000 
#    y 0.000000 1.757760 0.000000 
#    z 0.000000 0.000000 1.762850 
# 
# From -- ./inp_files/6552.got.cif
#   From: 2010.03.12/outbox.cif.g09.slc.cpg/sg49_4_cif.got.tgz:6552.got - 2010.04.14 03:58:27.
