data_PCOD8202517
_publ_section_title
;
Structure prediction by ZEFSAII (Michael W. Deem and Ramdas Pophale) SiO2 
 PCOD8202517
Probable space group: P C C M
;
_chemical_formula_sum "Si O2"
_cell_formula_units_Z 56
_cell_length_a 18.559988
_cell_length_b 18.954614
_cell_length_c 8.848735
_cell_angle_alpha 90.000000
_cell_angle_beta 90.000000
_cell_angle_gamma 90.000000
_cell_volume 3112.962040
_symmetry_space_group_name_H-M "P C C M"
_symmetry_group_IT_number 49
_symmetry_cell_setting 'orthorhombic'
loop_
_space_group_symop_operation_xyz
x,y,z
-x,-y,z
x,-y,1/2-z
-x,y,1/2-z
-x,-y,-z
x,y,-z
-x,y,1/2+z
x,-y,1/2+z
loop_
_atom_site_type_symbol
_atom_site_label
_atom_site_fract_x
_atom_site_fract_y
_atom_site_fract_z
Si Si1 0.353284 0.570908 0.678209
Si Si2 0.198236 0.569912 0.822721
Si Si3 0.576248 0.283275 0.678365
Si Si4 0.704323 0.199747 0.822869
Si Si5 0.784863 0.923852 0.820774
Si Si6 0.849106 0.279802 0.173232
Si Si7 0.073721 0.159254 0.823636
O O1 0.387751 0.500000 0.750000
O O2 0.346003 0.561400 0.500000
O O3 0.274801 0.584112 0.746561
O O4 0.403407 0.636596 0.721903
O O5 0.162023 0.500000 0.750000
O O6 0.146519 0.636750 0.791324
O O7 0.210555 0.558808 0.000000
O O8 0.500000 0.264803 0.750000
O O9 0.573633 0.272662 0.500000
O O10 0.632728 0.228738 0.746808
O O11 0.722206 0.124699 0.747685
O O12 0.768535 0.254342 0.788408
O O13 0.691554 0.189368 0.000000
O O14 0.862615 0.892984 0.771954
O O15 0.776026 0.000000 0.750000
O O16 0.776844 0.926965 0.000000
O O17 0.907600 0.239144 0.273767
O O18 0.867864 0.263375 0.000000
O O19 0.000000 0.132292 0.750000
O O20 0.062493 0.158528 0.000000
#
# Coordination Sequence:
#
# PCOD8202517 Si02
#       7
#     8   8   8   8   8   8   8
#     4  10  20  32  48  70 100 137 177 223 272 323
#     4  10  18  29  47  73 101 133 173 221 271 318
#     4  11  23  36  52  75 104 141 182 226 273 323
#     4  10  19  35  57  79 106 138 175 221 265 313
#     4  10  21  37  58  86 114 144 178 212 254 305
#     4   9  18  32  52  75 102 137 177 218 264 314
#     4  10  21  35  54  80 112 145 178 213 254 307
#
# _framework density 17.989297000000001
#
# number of rings (size 3 to 8) (size 9 to 14) (size 15 to 20)
#    0.000    2.000    1.429    3.429    0.000    5.714 
#    0.000    2.857    0.000    0.857    0.000    6.000 
#    0.000    0.000    0.000    0.000    0.000    0.000 
#
# Total GULP energy -694506.156135 kJ/mol
# GULP energy per Si atom -12401.895645 kJ/mol
# Density = 1.794835 g / cm^3
# Si number density = 17.989297 Si / 1000 Ang^3
#
#
#
# Elastic Constant Matrix: (Units=GPa)
#
#
# Indices 1 2 3 4 5 6 
#
# 1 80.1922 52.2545 40.9171 0.0000 0.0000 0.0000
# 2 52.2545 138.8360 58.5376 0.0000 0.0000 0.0000
# 3 40.9171 58.5376 92.2446 0.0000 0.0000 0.0000
# 4 0.0000 0.0000 0.0000 30.7042 0.0000 0.0000
# 5 0.0000 0.0000 0.0000 0.0000 28.1077 0.0000
# 6 0.0000 0.0000 0.0000 0.0000 0.0000 18.0857
#
#
#
# Elastic Compliance Matrix: (Units=1/GPa)
#
#
# Indices 1 2 3 4 5 6 
#
# 1 0.018101 -0.004679 -0.005059 0.000000 0.000000 0.000000
# 2 -0.004679 0.011044 -0.004933 0.000000 0.000000 0.000000
# 3 -0.005059 -0.004933 0.016215 0.000000 0.000000 0.000000
# 4 0.000000 0.000000 0.000000 0.032569 0.000000 0.000000
# 5 0.000000 0.000000 0.000000 0.000000 0.035577 0.000000
# 6 0.000000 0.000000 0.000000 0.000000 0.000000 0.055292
#
#
# Mechanical properties :
#
#
# Convention : Reuss Voigt Hill
#
# Bulk Modulus (GPa) = 62.43496 68.29903 65.36700
# Shear Modulus (GPa) = 24.57242 26.01707 25.29475
#
# Velocity S-wave (km/s) = 3.69988 3.80709 3.75387
# Velocity P-wave (km/s) = 7.28246 7.57457 7.42995
#
# Compressibility (1/GPa) = 0.01601667
#
# Stress axis : x y z
#
# Youngs Moduli (GPa) = 55.24620 90.54929 61.67079
#
# Poissons Ratio (x) = 0.42372 0.31202
# Poissons Ratio (y) = 0.25852 0.30419
# Poissons Ratio (z) = 0.27951 0.44664
#
# Static dielectric constant tensor:
#      x y z
#    x 3.095840 0.000000 0.000000 
#    y 0.000000 3.424870 0.000000 
#    z 0.000000 0.000000 3.431640 
# 
# 
# High freq. dielectric constant tensor:
#      x y z
#    x 1.668200 0.000000 0.000000 
#    y 0.000000 1.697390 0.000000 
#    z 0.000000 0.000000 1.712810 
# 
# From -- ./inp_files/5196.got.cif
#   From: 2010.03.12/outbox.cif.g09.slc.cpg/sg49_3_cif.got.tgz:5196.got - 2010.04.14 03:58:27.
