data_PCOD8202951
_publ_section_title
;
Structure prediction by ZEFSAII (Michael W. Deem and Ramdas Pophale) SiO2 
 PCOD8202951
Probable space group: P C C M
;
_chemical_formula_sum "Si O2"
_cell_formula_units_Z 48
_cell_length_a 9.795746
_cell_length_b 31.397350
_cell_length_c 8.828944
_cell_angle_alpha 90.000000
_cell_angle_beta 90.000000
_cell_angle_gamma 90.000000
_cell_volume 2715.434128
_symmetry_space_group_name_H-M "P C C M"
_symmetry_group_IT_number 49
_symmetry_cell_setting 'orthorhombic'
loop_
_space_group_symop_operation_xyz
x,y,z
-x,-y,z
x,-y,1/2-z
-x,y,1/2-z
-x,-y,-z
x,y,-z
-x,y,1/2+z
x,-y,1/2+z
loop_
_atom_site_type_symbol
_atom_site_label
_atom_site_fract_x
_atom_site_fract_y
_atom_site_fract_z
Si Si1 0.352996 0.865881 0.822986
Si Si2 0.647908 0.959587 0.676697
Si Si3 0.852585 0.290406 0.322563
Si Si4 0.354001 0.455640 0.819072
Si Si5 0.149779 0.793278 0.179840
Si Si6 0.146421 0.616061 0.323655
O O1 0.500000 0.858362 0.750000
O O2 0.289055 0.912933 0.787872
O O3 0.244523 0.831722 0.761476
O O4 0.376146 0.860076 0.000000
O O5 0.500000 0.959010 0.750000
O O6 0.636714 0.967925 0.500000
O O7 0.730516 0.000000 0.750000
O O8 0.861846 0.280427 0.500000
O O9 0.778531 0.250688 0.239446
O O10 0.787171 0.337022 0.291006
O O11 0.000000 0.292752 0.250000
O O12 0.300324 0.500000 0.750000
O O13 0.500000 0.444004 0.750000
O O14 0.251138 0.419106 0.762986
O O15 0.364461 0.458905 0.000000
O O16 0.000000 0.799268 0.250000
O O17 0.137938 0.792329 0.000000
O O18 0.121601 0.610252 0.500000
O O19 0.000000 0.609202 0.250000
#
# Coordination Sequence:
#
# PCOD8202951 Si02
#       6
#     8   8   8   8   8   8
#     4   9  19  32  47  68  96 123 153 192 235 277
#     4   9  15  25  41  63  88 116 148 186 227 273
#     4   9  16  29  48  70  94 123 156 193 232 276
#     4  10  20  35  52  72  97 129 163 195 231 279
#     4  10  19  32  49  71  95 124 159 194 230 278
#     4   9  19  33  51  74  99 123 155 196 238 278
#
# _framework density 17.676731
#
# number of rings (size 3 to 8) (size 9 to 14) (size 15 to 20)
#    0.000    2.667    0.000    4.000    0.000    4.333 
#    0.000    2.500    0.000    4.500    0.000    3.500 
#    0.000    0.000    0.000    0.000    0.000    0.000 
#
# Total GULP energy -594676.784446 kJ/mol
# GULP energy per Si atom -12389.099676 kJ/mol
# Density = 1.763650 g / cm^3
# Si number density = 17.676731 Si / 1000 Ang^3
#
#
#
# Elastic Constant Matrix: (Units=GPa)
#
#
# Indices 1 2 3 4 5 6 
#
# 1 62.1315 75.8362 29.3149 0.0000 0.0000 0.0000
# 2 75.8362 200.5212 58.7985 0.0000 0.0000 0.0000
# 3 29.3149 58.7985 74.8832 0.0000 0.0000 0.0000
# 4 0.0000 0.0000 0.0000 39.1087 0.0000 0.0000
# 5 0.0000 0.0000 0.0000 0.0000 14.3897 0.0000
# 6 0.0000 0.0000 0.0000 0.0000 0.0000 30.0731
#
#
#
# Elastic Compliance Matrix: (Units=1/GPa)
#
#
# Indices 1 2 3 4 5 6 
#
# 1 0.030692 -0.010503 -0.003769 0.000000 0.000000 0.000000
# 2 -0.010503 0.010073 -0.003798 0.000000 0.000000 0.000000
# 3 -0.003769 -0.003798 0.017811 0.000000 0.000000 0.000000
# 4 0.000000 0.000000 0.000000 0.025570 0.000000 0.000000
# 5 0.000000 0.000000 0.000000 0.000000 0.069494 0.000000
# 6 0.000000 0.000000 0.000000 0.000000 0.000000 0.033252
#
#
# Mechanical properties :
#
#
# Convention : Reuss Voigt Hill
#
# Bulk Modulus (GPa) = 44.56589 73.93722 59.25156
# Shear Modulus (GPa) = 21.69113 28.28673 24.98893
#
# Velocity S-wave (km/s) = 3.50680 4.00462 3.76395
# Velocity P-wave (km/s) = 6.45470 7.95618 7.24445
#
# Compressibility (1/GPa) = 0.02243869
#
# Stress axis : x y z
#
# Youngs Moduli (GPa) = 32.58161 99.27948 56.14427
#
# Poissons Ratio (x) = 1.04269 0.21158
# Poissons Ratio (y) = 0.34219 0.21321
# Poissons Ratio (z) = 0.12279 0.37702
#
# Static dielectric constant tensor:
#      x y z
#    x 2.903170 0.000000 0.000000 
#    y 0.000000 4.730740 0.000000 
#    z 0.000000 0.000000 3.470290 
# 
# 
# High freq. dielectric constant tensor:
#      x y z
#    x 1.629290 0.000000 0.000000 
#    y 0.000000 1.713540 0.000000 
#    z 0.000000 0.000000 1.694350 
# 
# From -- ./inp_files/3037.got.cif
#   From: 2010.03.12/outbox.cif.g09.slc.cpg/sg49_2_cif.got.tgz:3037.got - 2010.04.14 03:58:27.
