data_PCOD8202747
_publ_section_title
;
Structure prediction by ZEFSAII (Michael W. Deem and Ramdas Pophale) SiO2 
 PCOD8202747
Probable space group: P C C M
;
_chemical_formula_sum "Si O2"
_cell_formula_units_Z 56
_cell_length_a 18.306020
_cell_length_b 21.053528
_cell_length_c 8.924649
_cell_angle_alpha 90.000000
_cell_angle_beta 90.000000
_cell_angle_gamma 90.000000
_cell_volume 3439.615991
_symmetry_space_group_name_H-M "P C C M"
_symmetry_group_IT_number 49
_symmetry_cell_setting 'orthorhombic'
loop_
_space_group_symop_operation_xyz
x,y,z
-x,-y,z
x,-y,1/2-z
-x,y,1/2-z
-x,-y,-z
x,y,-z
-x,y,1/2+z
x,-y,1/2+z
loop_
_atom_site_type_symbol
_atom_site_label
_atom_site_fract_x
_atom_site_fract_y
_atom_site_fract_z
Si Si1 0.704297 0.756955 0.668180
Si Si2 0.923294 0.698744 0.322443
Si Si3 0.924359 0.064672 0.674540
Si Si4 0.786792 0.375639 0.165293
Si Si5 0.338521 0.436098 0.825562
Si Si6 0.578284 0.309210 0.322603
Si Si7 0.836319 0.810726 0.174407
O O1 0.687193 0.781291 0.500000
O O2 0.747291 0.691579 0.662175
O O3 0.629133 0.746983 0.758581
O O4 0.755496 0.807347 0.753872
O O5 0.930322 0.708781 0.500000
O O6 0.869924 0.639024 0.284982
O O7 0.893430 0.763681 0.252570
O O8 0.000000 0.680790 0.250000
O O9 0.938945 0.052847 0.500000
O O10 0.863521 0.117967 0.700415
O O11 0.000000 0.086602 0.750000
O O12 0.895328 0.000000 0.750000
O O13 0.745564 0.422922 0.278001
O O14 0.784253 0.406758 0.000000
O O15 0.368830 0.500000 0.750000
O O16 0.389976 0.377977 0.775329
O O17 0.340649 0.446861 0.000000
O O18 0.500000 0.301117 0.250000
O O19 0.573429 0.302359 0.500000
O O20 0.831738 0.792525 0.000000
#
# Coordination Sequence:
#
# PCOD8202747 Si02
#       7
#     8   8   8   8   8   8   8
#     4   9  17  30  48  68  90 118 149 184 225 269
#     4  10  19  29  44  66  89 115 145 184 231 275
#     4  10  20  31  44  62  89 126 164 200 236 272
#     4   8  16  30  45  62  85 111 142 179 221 267
#     4  10  20  32  48  67  87 115 149 182 217 260
#     4  10  20  33  49  70  96 124 150 180 220 266
#     4  10  19  30  45  66  91 120 155 193 229 270
#
# _framework density 16.280888000000001
#
# number of rings (size 3 to 8) (size 9 to 14) (size 15 to 20)
#    0.000    2.429    0.000    4.286    0.000    9.429 
#    0.000    1.429    0.000    0.429    0.000    3.000 
#    0.000    0.571    0.000    6.000    0.000    3.286 
#
# Total GULP energy -694321.158514 kJ/mol
# GULP energy per Si atom -12398.592116 kJ/mol
# Density = 1.624383 g / cm^3
# Si number density = 16.280888 Si / 1000 Ang^3
#
#
#
# Elastic Constant Matrix: (Units=GPa)
#
#
# Indices 1 2 3 4 5 6 
#
# 1 126.4562 38.7781 54.3579 0.0000 0.0000 0.0000
# 2 38.7781 49.8983 33.5671 0.0000 0.0000 0.0000
# 3 54.3579 33.5671 101.0495 0.0000 0.0000 0.0000
# 4 0.0000 0.0000 0.0000 22.5483 0.0000 0.0000
# 5 0.0000 0.0000 0.0000 0.0000 30.8818 0.0000
# 6 0.0000 0.0000 0.0000 0.0000 0.0000 18.2035
#
#
#
# Elastic Compliance Matrix: (Units=1/GPa)
#
#
# Indices 1 2 3 4 5 6 
#
# 1 0.011610 -0.006209 -0.004183 0.000000 0.000000 0.000000
# 2 -0.006209 0.029128 -0.006336 0.000000 0.000000 0.000000
# 3 -0.004183 -0.006336 0.014251 0.000000 0.000000 0.000000
# 4 0.000000 0.000000 0.000000 0.044349 0.000000 0.000000
# 5 0.000000 0.000000 0.000000 0.000000 0.032382 0.000000
# 6 0.000000 0.000000 0.000000 0.000000 0.000000 0.054934
#
#
# Mechanical properties :
#
#
# Convention : Reuss Voigt Hill
#
# Bulk Modulus (GPa) = 46.43877 58.97891 52.70884
# Shear Modulus (GPa) = 21.99861 24.37346 23.18603
#
# Velocity S-wave (km/s) = 3.67984 3.87338 3.77785
# Velocity P-wave (km/s) = 6.82938 7.50391 7.17457
#
# Compressibility (1/GPa) = 0.02153373
#
# Stress axis : x y z
#
# Youngs Moduli (GPa) = 86.13414 34.33115 70.17048
#
# Poissons Ratio (x) = 0.21315 0.29352
# Poissons Ratio (y) = 0.53477 0.44461
# Poissons Ratio (z) = 0.36029 0.21752
#
# Static dielectric constant tensor:
#      x y z
#    x 3.163500 0.000000 0.000000 
#    y 0.000000 2.865630 0.000000 
#    z 0.000000 0.000000 3.280840 
# 
# 
# High freq. dielectric constant tensor:
#      x y z
#    x 1.617250 0.000000 0.000000 
#    y 0.000000 1.589360 0.000000 
#    z 0.000000 0.000000 1.646180 
# 
# From -- ./inp_files/5195.got.cif
#   From: 2010.03.12/outbox.cif.g09.slc.cpg/sg49_3_cif.got.tgz:5195.got - 2010.04.14 03:58:27.
