data_PCOD8202273
_publ_section_title
;
Structure prediction by ZEFSAII (Michael W. Deem and Ramdas Pophale) SiO2 
 PCOD8202273
Probable space group: P C C M
;
_chemical_formula_sum "Si O2"
_cell_formula_units_Z 64
_cell_length_a 18.339509
_cell_length_b 26.451033
_cell_length_c 8.823206
_cell_angle_alpha 90.000000
_cell_angle_beta 90.000000
_cell_angle_gamma 90.000000
_cell_volume 4280.128035
_symmetry_space_group_name_H-M "P C C M"
_symmetry_group_IT_number 49
_symmetry_cell_setting 'orthorhombic'
loop_
_space_group_symop_operation_xyz
x,y,z
-x,-y,z
x,-y,1/2-z
-x,y,1/2-z
-x,-y,-z
x,y,-z
-x,y,1/2+z
x,-y,1/2+z
loop_
_atom_site_type_symbol
_atom_site_label
_atom_site_fract_x
_atom_site_fract_y
_atom_site_fract_z
Si Si1 0.579426 0.651545 0.180130
Si Si2 0.844523 0.948559 0.822498
Si Si3 0.202195 0.202255 0.666658
Si Si4 0.577238 0.847188 0.679298
Si Si5 0.076908 0.152358 0.177346
Si Si6 0.284979 0.902903 0.167877
Si Si7 0.580715 0.449985 0.818365
Si Si8 0.345296 0.745094 0.820831
O O1 0.500000 0.662159 0.250000
O O2 0.616719 0.601568 0.255266
O O3 0.631874 0.697570 0.221011
O O4 0.572617 0.644987 0.000000
O O5 0.893718 0.901924 0.762552
O O6 0.759849 0.940117 0.777324
O O7 0.875179 0.000000 0.750000
O O8 0.850109 0.953716 0.000000
O O9 0.170907 0.215212 0.500000
O O10 0.134094 0.196716 0.780381
O O11 0.246871 0.150928 0.658001
O O12 0.259876 0.245068 0.718195
O O13 0.500000 0.860303 0.750000
O O14 0.571322 0.847219 0.500000
O O15 0.633463 0.891742 0.730215
O O16 0.605210 0.792281 0.733362
O O17 0.000000 0.165122 0.250000
O O18 0.067156 0.151138 0.000000
O O19 0.286907 0.927560 0.000000
O O20 0.620887 0.500000 0.750000
O O21 0.500000 0.449406 0.750000
O O22 0.580407 0.451361 0.000000
O O23 0.355668 0.734988 0.000000
#
# Coordination Sequence:
#
# PCOD8202273 Si02
#       8
#     8   8   8   8   8   8   8   8
#     4  11  20  28  38  55  79 108 142 181 221 256
#     4  10  20  32  47  66  84 105 130 158 191 231
#     4   8  15  29  47  62  81 108 135 162 195 235
#     4   9  17  27  41  60  81 104 130 161 200 241
#     4  10  20  32  47  67  89 110 135 161 189 225
#     4   8  15  29  45  60  79 104 131 159 191 233
#     4  10  17  27  40  53  71  98 135 178 221 263
#     4   9  17  29  42  59  82 108 136 167 206 248
#
# _framework density 14.952823
#
# number of rings (size 3 to 8) (size 9 to 14) (size 15 to 20)
#    0.000    2.625    0.000    6.000    0.000    4.250 
#    0.000    3.750    0.000    0.375    0.000    2.625 
#    0.000    0.000    0.000    0.000    0.000    0.625 
#
# Total GULP energy -793199.218718 kJ/mol
# GULP energy per Si atom -12393.737792 kJ/mol
# Density = 1.491879 g / cm^3
# Si number density = 14.952823 Si / 1000 Ang^3
#
#
#
# Elastic Constant Matrix: (Units=GPa)
#
#
# Indices 1 2 3 4 5 6 
#
# 1 82.6024 22.8726 27.3023 0.0000 0.0000 0.0000
# 2 22.8726 50.7984 24.8314 0.0000 0.0000 0.0000
# 3 27.3023 24.8314 73.7229 0.0000 0.0000 0.0000
# 4 0.0000 0.0000 0.0000 21.6895 0.0000 0.0000
# 5 0.0000 0.0000 0.0000 0.0000 21.3668 0.0000
# 6 0.0000 0.0000 0.0000 0.0000 0.0000 9.2911
#
#
#
# Elastic Compliance Matrix: (Units=1/GPa)
#
#
# Indices 1 2 3 4 5 6 
#
# 1 0.014688 -0.004734 -0.003845 0.000000 0.000000 0.000000
# 2 -0.004734 0.025091 -0.006698 0.000000 0.000000 0.000000
# 3 -0.003845 -0.006698 0.017244 0.000000 0.000000 0.000000
# 4 0.000000 0.000000 0.000000 0.046105 0.000000 0.000000
# 5 0.000000 0.000000 0.000000 0.000000 0.046801 0.000000
# 6 0.000000 0.000000 0.000000 0.000000 0.000000 0.107630
#
#
# Mechanical properties :
#
#
# Convention : Reuss Voigt Hill
#
# Bulk Modulus (GPa) = 37.77932 39.68180 38.73056
# Shear Modulus (GPa) = 16.83858 19.27732 18.05795
#
# Velocity S-wave (km/s) = 3.35940 3.59445 3.47891
# Velocity P-wave (km/s) = 6.35358 6.61985 6.48808
#
# Compressibility (1/GPa) = 0.02646951
#
# Stress axis : x y z
#
# Youngs Moduli (GPa) = 68.08344 39.85432 57.99010
#
# Poissons Ratio (x) = 0.18867 0.22297
# Poissons Ratio (y) = 0.32230 0.38843
# Poissons Ratio (z) = 0.26178 0.26695
#
# Static dielectric constant tensor:
#      x y z
#    x 3.013040 0.000000 0.000000 
#    y 0.000000 3.147520 0.000000 
#    z 0.000000 0.000000 2.911210 
# 
# 
# High freq. dielectric constant tensor:
#      x y z
#    x 1.541210 0.000000 0.000000 
#    y 0.000000 1.549400 0.000000 
#    z 0.000000 0.000000 1.580040 
# 
# From -- ./inp_files/5440.got.cif
#   From: 2010.03.12/outbox.cif.g09.slc.cpg/sg49_3_cif.got.tgz:5440.got - 2010.04.14 03:58:27.
