data_PCOD8202327
_publ_section_title
;
Structure prediction by ZEFSAII (Michael W. Deem and Ramdas Pophale) SiO2 
 PCOD8202327
Probable space group: P C C M
;
_chemical_formula_sum "Si O2"
_cell_formula_units_Z 40
_cell_length_a 9.335123
_cell_length_b 26.348100
_cell_length_c 8.752333
_cell_angle_alpha 90.000000
_cell_angle_beta 90.000000
_cell_angle_gamma 90.000000
_cell_volume 2152.747931
_symmetry_space_group_name_H-M "P C C M"
_symmetry_group_IT_number 49
_symmetry_cell_setting 'orthorhombic'
loop_
_space_group_symop_operation_xyz
x,y,z
-x,-y,z
x,-y,1/2-z
-x,y,1/2-z
-x,-y,-z
x,y,-z
-x,y,1/2+z
x,-y,1/2+z
loop_
_atom_site_type_symbol
_atom_site_label
_atom_site_fract_x
_atom_site_fract_y
_atom_site_fract_z
Si Si1 0.158970 0.949636 0.817809
Si Si2 0.655086 0.751603 0.820308
Si Si3 0.844451 0.340070 0.320763
Si Si4 0.156084 0.451410 0.178194
Si Si5 0.156029 0.847667 0.319058
O O1 0.230504 0.897722 0.756118
O O2 0.000000 0.948824 0.750000
O O3 0.237804 0.000000 0.750000
O O4 0.158439 0.951432 0.000000
O O5 0.500000 0.755607 0.750000
O O6 0.735872 0.701880 0.754430
O O7 0.744498 0.800920 0.772832
O O8 0.638610 0.747339 0.000000
O O9 0.865256 0.332663 0.500000
O O10 0.776630 0.396008 0.284492
O O11 0.000000 0.332268 0.250000
O O12 0.242112 0.500000 0.250000
O O13 0.000000 0.450739 0.250000
O O14 0.144839 0.460671 0.000000
O O15 0.142359 0.855123 0.500000
O O16 0.000000 0.837177 0.250000
#
# Coordination Sequence:
#
# PCOD8202327 Si02
#       5
#     8   8   8   8   8
#     4  10  17  27  45  71 102 132 161 197 241 287
#     4  10  22  37  52  71  98 130 166 205 247 293
#     4   9  18  32  50  74 100 128 162 203 244 289
#     4   9  15  24  41  66  97 125 154 192 238 286
#     4  10  19  32  51  76 102 129 163 203 243 289
#
# _framework density 18.580902999999999
#
# number of rings (size 3 to 8) (size 9 to 14) (size 15 to 20)
#    0.000    2.400    0.000    6.000    0.000    3.200 
#    0.000    0.000    0.000    1.200    0.000    8.400 
#    0.000    0.000    0.000    0.000    0.000    0.000 
#
# Total GULP energy -495655.195973 kJ/mol
# GULP energy per Si atom -12391.379899 kJ/mol
# Density = 1.853861 g / cm^3
# Si number density = 18.580903 Si / 1000 Ang^3
#
#
#
# Elastic Constant Matrix: (Units=GPa)
#
#
# Indices 1 2 3 4 5 6 
#
# 1 72.8585 68.8353 30.6773 0.0000 0.0000 0.0000
# 2 68.8353 223.3158 74.9379 0.0000 0.0000 0.0000
# 3 30.6773 74.9379 95.0800 0.0000 0.0000 0.0000
# 4 0.0000 0.0000 0.0000 29.5511 0.0000 0.0000
# 5 0.0000 0.0000 0.0000 0.0000 20.8673 0.0000
# 6 0.0000 0.0000 0.0000 0.0000 0.0000 3.2021
#
#
#
# Elastic Compliance Matrix: (Units=1/GPa)
#
#
# Indices 1 2 3 4 5 6 
#
# 1 0.019678 -0.005350 -0.002132 0.000000 0.000000 0.000000
# 2 -0.005350 0.007543 -0.004219 0.000000 0.000000 0.000000
# 3 -0.002132 -0.004219 0.014530 0.000000 0.000000 0.000000
# 4 0.000000 0.000000 0.000000 0.033840 0.000000 0.000000
# 5 0.000000 0.000000 0.000000 0.000000 0.047922 0.000000
# 6 0.000000 0.000000 0.000000 0.000000 0.000000 0.312292
#
#
# Mechanical properties :
#
#
# Convention : Reuss Voigt Hill
#
# Bulk Modulus (GPa) = 54.49949 82.23949 68.36949
# Shear Modulus (GPa) = 10.74523 25.17769 17.96146
#
# Velocity S-wave (km/s) = 2.40738 3.68507 3.11249
# Velocity P-wave (km/s) = 6.09278 7.90333 7.05636
#
# Compressibility (1/GPa) = 0.01834879
#
# Stress axis : x y z
#
# Youngs Moduli (GPa) = 50.81941 132.57880 68.82104
#
# Poissons Ratio (x) = 0.70928 0.14675
# Poissons Ratio (y) = 0.27188 0.29033
# Poissons Ratio (z) = 0.10836 0.55931
#
# Static dielectric constant tensor:
#      x y z
#    x 2.794300 0.000000 0.000000 
#    y 0.000000 5.021360 0.000000 
#    z 0.000000 0.000000 3.448840 
# 
# 
# High freq. dielectric constant tensor:
#      x y z
#    x 1.652000 0.000000 0.000000 
#    y 0.000000 1.760000 0.000000 
#    z 0.000000 0.000000 1.728590 
# 
# From -- ./inp_files/1909.got.cif
#   From: 2010.03.12/outbox.cif.g09.slc.cpg/sg49_1_cif.got.tgz:1909.got - 2010.04.14 03:58:27.
