data_PCOD8202941
_publ_section_title
;
Structure prediction by ZEFSAII (Michael W. Deem and Ramdas Pophale) SiO2 
 PCOD8202941
Probable space group: P C C M
;
_chemical_formula_sum "Si O2"
_cell_formula_units_Z 56
_cell_length_a 14.868617
_cell_length_b 20.328584
_cell_length_c 9.191329
_cell_angle_alpha 90.000000
_cell_angle_beta 90.000000
_cell_angle_gamma 90.000000
_cell_volume 2778.152074
_symmetry_space_group_name_H-M "P C C M"
_symmetry_group_IT_number 49
_symmetry_cell_setting 'orthorhombic'
loop_
_space_group_symop_operation_xyz
x,y,z
-x,-y,z
x,-y,1/2-z
-x,y,1/2-z
-x,-y,-z
x,y,-z
-x,y,1/2+z
x,-y,1/2+z
loop_
_atom_site_type_symbol
_atom_site_label
_atom_site_fract_x
_atom_site_fract_y
_atom_site_fract_z
Si Si1 0.386044 0.059564 0.657944
Si Si2 0.729010 0.316900 0.167839
Si Si3 0.178512 0.940781 0.840800
Si Si4 0.591139 0.566052 0.329176
Si Si5 0.085297 0.844284 0.336726
Si Si6 0.911534 0.688843 0.834691
Si Si7 0.589327 0.207211 0.826482
O O1 0.433147 0.059676 0.500000
O O2 0.282195 0.043946 0.637994
O O3 0.398809 0.131865 0.729529
O O4 0.430329 0.000000 0.750000
O O5 0.665603 0.378910 0.192745
O O6 0.819102 0.332113 0.258122
O O7 0.675535 0.251346 0.220699
O O8 0.757285 0.308693 0.000000
O O9 0.170347 0.872803 0.750847
O O10 0.132341 0.000000 0.750000
O O11 0.132993 0.934362 0.000000
O O12 0.625970 0.500000 0.250000
O O13 0.500000 0.589675 0.250000
O O14 0.572722 0.553137 0.500000
O O15 0.085020 0.871757 0.500000
O O16 0.086804 0.766777 0.334393
O O17 0.000000 0.872579 0.250000
O O18 0.000000 0.661671 0.750000
O O19 0.913666 0.661621 0.000000
O O20 0.500000 0.236252 0.750000
O O21 0.578432 0.211636 0.000000
#
# Coordination Sequence:
#
# PCOD8202941 Si02
#       7
#     8   8   8   8   8   8   8
#     4   9  19  34  51  69  93 129 172 218 269 322
#     4  10  21  37  58  84 116 151 189 233 282 332
#     4  10  19  32  49  67  89 120 160 211 268 327
#     4  10  20  35  58  88 123 162 198 236 278 330
#     4  10  20  33  48  69  95 125 163 208 263 326
#     4  10  21  36  57  83 111 144 183 228 277 330
#     4  10  21  36  53  77 108 142 181 228 279 331
#
# _framework density 20.157284000000001
#
# number of rings (size 3 to 8) (size 9 to 14) (size 15 to 20)
#    0.000    2.143    0.000    3.429    0.000    6.286 
#    0.000    2.857    0.000    0.429    0.000    3.000 
#    0.000    0.000    0.000    0.000    0.000    0.000 
#
# Total GULP energy -694114.393202 kJ/mol
# GULP energy per Si atom -12394.899879 kJ/mol
# Density = 2.011140 g / cm^3
# Si number density = 20.157284 Si / 1000 Ang^3
#
#
#
# Elastic Constant Matrix: (Units=GPa)
#
#
# Indices 1 2 3 4 5 6 
#
# 1 103.3131 41.1210 59.5699 0.0000 0.0000 0.0000
# 2 41.1210 74.3215 43.6980 0.0000 0.0000 0.0000
# 3 59.5699 43.6980 143.7046 0.0000 0.0000 0.0000
# 4 0.0000 0.0000 0.0000 23.3426 0.0000 0.0000
# 5 0.0000 0.0000 0.0000 0.0000 32.7561 0.0000
# 6 0.0000 0.0000 0.0000 0.0000 0.0000 23.7655
#
#
#
# Elastic Compliance Matrix: (Units=1/GPa)
#
#
# Indices 1 2 3 4 5 6 
#
# 1 0.014297 -0.005389 -0.004288 0.000000 0.000000 0.000000
# 2 -0.005389 0.018416 -0.003366 0.000000 0.000000 0.000000
# 3 -0.004288 -0.003366 0.009760 0.000000 0.000000 0.000000
# 4 0.000000 0.000000 0.000000 0.042840 0.000000 0.000000
# 5 0.000000 0.000000 0.000000 0.000000 0.030529 0.000000
# 6 0.000000 0.000000 0.000000 0.000000 0.000000 0.042078
#
#
# Mechanical properties :
#
#
# Convention : Reuss Voigt Hill
#
# Bulk Modulus (GPa) = 61.02565 67.79076 64.40820
# Shear Modulus (GPa) = 26.38993 27.76952 27.07972
#
# Velocity S-wave (km/s) = 3.62221 3.71569 3.66925
# Velocity P-wave (km/s) = 6.91624 7.21889 7.06918
#
# Compressibility (1/GPa) = 0.01638655
#
# Stress axis : x y z
#
# Youngs Moduli (GPa) = 69.94704 54.30112 102.46333
#
# Poissons Ratio (x) = 0.29264 0.43932
# Poissons Ratio (y) = 0.37695 0.34489
# Poissons Ratio (z) = 0.29991 0.18278
#
# Static dielectric constant tensor:
#      x y z
#    x 3.603290 0.000000 0.000000 
#    y 0.000000 3.448390 0.000000 
#    z 0.000000 0.000000 4.068440 
# 
# 
# High freq. dielectric constant tensor:
#      x y z
#    x 1.784400 0.000000 0.000000 
#    y 0.000000 1.763500 0.000000 
#    z 0.000000 0.000000 1.795870 
# 
# From -- ./inp_files/4030.got.cif
#   From: 2010.03.12/outbox.cif.g09.slc.cpg/sg49_3_cif.got.tgz:4030.got - 2010.04.14 03:58:27.
