data_PCOD8202829
_publ_section_title
;
Structure prediction by ZEFSAII (Michael W. Deem and Ramdas Pophale) SiO2 
 PCOD8202829
Probable space group: P C C M
;
_chemical_formula_sum "Si O2"
_cell_formula_units_Z 64
_cell_length_a 23.455306
_cell_length_b 18.974505
_cell_length_c 9.164112
_cell_angle_alpha 90.000000
_cell_angle_beta 90.000000
_cell_angle_gamma 90.000000
_cell_volume 4078.513897
_symmetry_space_group_name_H-M "P C C M"
_symmetry_group_IT_number 49
_symmetry_cell_setting 'orthorhombic'
loop_
_space_group_symop_operation_xyz
x,y,z
-x,-y,z
x,-y,1/2-z
-x,y,1/2-z
-x,-y,-z
x,y,-z
-x,y,1/2+z
x,-y,1/2+z
loop_
_atom_site_type_symbol
_atom_site_label
_atom_site_fract_x
_atom_site_fract_y
_atom_site_fract_z
Si Si1 0.557653 0.714175 0.328321
Si Si2 0.257310 0.431366 0.671196
Si Si3 0.723005 0.073940 0.672410
Si Si4 0.664806 0.806294 0.668918
Si Si5 0.388549 0.568969 0.828453
Si Si6 0.832585 0.838854 0.830824
Si Si7 0.057589 0.073171 0.173935
Si Si8 0.223110 0.280452 0.331417
O O1 0.500000 0.737397 0.250000
O O2 0.547771 0.713079 0.500000
O O3 0.605307 0.771257 0.285972
O O4 0.576777 0.636948 0.273514
O O5 0.231119 0.500000 0.750000
O O6 0.251952 0.443065 0.500000
O O7 0.322888 0.420477 0.717156
O O8 0.222397 0.361870 0.720585
O O9 0.717327 0.064208 0.500000
O O10 0.673366 0.125333 0.730289
O O11 0.784202 0.105854 0.719079
O O12 0.715559 0.000000 0.750000
O O13 0.665303 0.829396 0.500000
O O14 0.714110 0.749598 0.699937
O O15 0.414242 0.500000 0.750000
O O16 0.394701 0.558669 0.000000
O O17 0.893975 0.870049 0.790790
O O18 0.825086 0.763869 0.752155
O O19 0.826306 0.823560 0.000000
O O20 0.000000 0.101418 0.250000
O O21 0.075248 0.000000 0.250000
O O22 0.049521 0.062135 0.000000
O O23 0.207726 0.275148 0.500000
#
# Coordination Sequence:
#
# PCOD8202829 Si02
#       8
#     8   8   8   8   8   8   8   8
#     4  10  20  33  48  64  86 114 146 183 222 266
#     4   9  16  27  43  64  88 117 150 182 220 267
#     4  10  19  31  48  71  94 116 143 178 220 267
#     4   9  17  32  49  64  86 115 143 178 223 268
#     4   9  17  30  45  62  86 115 147 182 218 260
#     4   9  19  31  44  67  97 123 152 190 225 258
#     4  10  19  31  46  65  93 129 165 196 223 257
#     4   9  16  28  47  66  87 117 152 186 224 269
#
# _framework density 15.691991
#
# number of rings (size 3 to 8) (size 9 to 14) (size 15 to 20)
#    0.000    2.625    1.250    1.500    0.000    3.250 
#    0.000    1.250    0.000    0.375    0.000    2.625 
#    0.000    0.500    0.000    5.500    0.000    4.000 
#
# Total GULP energy -793561.665811 kJ/mol
# GULP energy per Si atom -12399.401028 kJ/mol
# Density = 1.565628 g / cm^3
# Si number density = 15.691991 Si / 1000 Ang^3
#
#
#
# Elastic Constant Matrix: (Units=GPa)
#
#
# Indices 1 2 3 4 5 6 
#
# 1 86.5528 60.3857 39.3935 0.0000 0.0000 0.0000
# 2 60.3857 131.1994 54.1262 0.0000 0.0000 0.0000
# 3 39.3935 54.1262 55.4963 0.0000 0.0000 0.0000
# 4 0.0000 0.0000 0.0000 30.8834 0.0000 0.0000
# 5 0.0000 0.0000 0.0000 0.0000 23.1122 0.0000
# 6 0.0000 0.0000 0.0000 0.0000 0.0000 24.6845
#
#
#
# Elastic Compliance Matrix: (Units=1/GPa)
#
#
# Indices 1 2 3 4 5 6 
#
# 1 0.019071 -0.005342 -0.008327 0.000000 0.000000 0.000000
# 2 -0.005342 0.014250 -0.010106 0.000000 0.000000 0.000000
# 3 -0.008327 -0.010106 0.033787 0.000000 0.000000 0.000000
# 4 0.000000 0.000000 0.000000 0.032380 0.000000 0.000000
# 5 0.000000 0.000000 0.000000 0.000000 0.043267 0.000000
# 6 0.000000 0.000000 0.000000 0.000000 0.000000 0.040511
#
#
# Mechanical properties :
#
#
# Convention : Reuss Voigt Hill
#
# Bulk Modulus (GPa) = 51.13269 64.56216 57.84742
# Shear Modulus (GPa) = 21.06731 23.69224 22.37977
#
# Velocity S-wave (km/s) = 3.66806 3.88987 3.78059
# Velocity P-wave (km/s) = 7.11305 7.83629 7.48341
#
# Compressibility (1/GPa) = 0.01955696
#
# Stress axis : x y z
#
# Youngs Moduli (GPa) = 52.43671 70.17515 29.59761
#
# Poissons Ratio (x) = 0.37489 0.24645
# Poissons Ratio (y) = 0.28013 0.29912
# Poissons Ratio (z) = 0.43663 0.70920
#
# Static dielectric constant tensor:
#      x y z
#    x 2.821700 0.000000 0.000000 
#    y 0.000000 3.093730 0.000000 
#    z 0.000000 0.000000 2.981030 
# 
# 
# High freq. dielectric constant tensor:
#      x y z
#    x 1.570920 0.000000 0.000000 
#    y 0.000000 1.600570 0.000000 
#    z 0.000000 0.000000 1.604450 
# 
# From -- ./inp_files/5398.got.cif
#   From: 2010.03.12/outbox.cif.g09.slc.cpg/sg49_3_cif.got.tgz:5398.got - 2010.04.14 03:58:27.
