data_PCOD8202263
_publ_section_title
;
Structure prediction by ZEFSAII (Michael W. Deem and Ramdas Pophale) SiO2 
 PCOD8202263
Probable space group: P C C M
;
_chemical_formula_sum "Si O2"
_cell_formula_units_Z 64
_cell_length_a 19.707122
_cell_length_b 20.568575
_cell_length_c 8.839907
_cell_angle_alpha 90.000000
_cell_angle_beta 90.000000
_cell_angle_gamma 90.000000
_cell_volume 3583.233468
_symmetry_space_group_name_H-M "P C C M"
_symmetry_group_IT_number 49
_symmetry_cell_setting 'orthorhombic'
loop_
_space_group_symop_operation_xyz
x,y,z
-x,-y,z
x,-y,1/2-z
-x,y,1/2-z
-x,-y,-z
x,y,-z
-x,y,1/2+z
x,-y,1/2+z
loop_
_atom_site_type_symbol
_atom_site_label
_atom_site_fract_x
_atom_site_fract_y
_atom_site_fract_z
Si Si1 0.213060 0.619176 0.826698
Si Si2 0.428836 0.067216 0.177689
Si Si3 0.573445 0.310470 0.321147
Si Si4 0.063836 0.374123 0.323750
Si Si5 0.067128 0.233453 0.178806
Si Si6 0.796376 0.769782 0.322650
Si Si7 0.658678 0.566364 0.177634
Si Si8 0.337351 0.189134 0.176762
O O1 0.136586 0.590536 0.803858
O O2 0.215603 0.694579 0.778069
O O3 0.263189 0.578128 0.722418
O O4 0.236247 0.611166 0.000000
O O5 0.500000 0.088849 0.250000
O O6 0.373712 0.121694 0.214555
O O7 0.402838 0.000000 0.250000
O O8 0.439637 0.057981 0.000000
O O9 0.500000 0.307833 0.250000
O O10 0.565751 0.310540 0.500000
O O11 0.612114 0.374770 0.262812
O O12 0.615542 0.248056 0.265568
O O13 0.050541 0.359130 0.500000
O O14 0.067409 0.307941 0.230137
O O15 0.000000 0.414298 0.250000
O O16 0.136493 0.201522 0.241423
O O17 0.000000 0.199001 0.250000
O O18 0.064789 0.226805 0.000000
O O19 0.807053 0.777427 0.500000
O O20 0.732662 0.811605 0.267736
O O21 0.631009 0.500000 0.250000
O O22 0.654212 0.559492 0.000000
O O23 0.321633 0.197293 0.000000
#
# Coordination Sequence:
#
# PCOD8202263 Si02
#       8
#     8   8   8   8   8   8   8   8
#     4   9  18  32  49  71  98 127 164 205 250 305
#     4  10  20  34  54  77 108 144 181 220 256 306
#     4  10  22  38  56  78 101 128 164 205 256 309
#     4   9  16  26  42  68  97 126 163 202 247 301
#     4  10  17  26  41  63  97 136 172 211 253 303
#     4  10  19  30  48  74 102 134 170 212 259 308
#     4  11  23  38  56  74  96 126 164 209 258 314
#     4  10  20  35  53  78 108 138 175 214 255 305
#
# _framework density 17.860962000000001
#
# number of rings (size 3 to 8) (size 9 to 14) (size 15 to 20)
#    0.000    2.125    1.250    4.875    0.000    5.250 
#    0.000    1.250    0.000    0.375    0.000    2.625 
#    0.000    0.500    0.000    5.250    0.000    3.000 
#
# Total GULP energy -793489.509687 kJ/mol
# GULP energy per Si atom -12398.273589 kJ/mol
# Density = 1.782031 g / cm^3
# Si number density = 17.860962 Si / 1000 Ang^3
#
#
#
# Elastic Constant Matrix: (Units=GPa)
#
#
# Indices 1 2 3 4 5 6 
#
# 1 143.1026 47.5483 54.3296 0.0000 0.0000 0.0000
# 2 47.5483 73.9117 36.3996 0.0000 0.0000 0.0000
# 3 54.3296 36.3996 92.1982 0.0000 0.0000 0.0000
# 4 0.0000 0.0000 0.0000 19.8900 0.0000 0.0000
# 5 0.0000 0.0000 0.0000 0.0000 36.0527 0.0000
# 6 0.0000 0.0000 0.0000 0.0000 0.0000 13.0444
#
#
#
# Elastic Compliance Matrix: (Units=1/GPa)
#
#
# Indices 1 2 3 4 5 6 
#
# 1 0.010035 -0.004399 -0.004177 0.000000 0.000000 0.000000
# 2 -0.004399 0.018723 -0.004800 0.000000 0.000000 0.000000
# 3 -0.004177 -0.004800 0.015202 0.000000 0.000000 0.000000
# 4 0.000000 0.000000 0.000000 0.050277 0.000000 0.000000
# 5 0.000000 0.000000 0.000000 0.000000 0.027737 0.000000
# 6 0.000000 0.000000 0.000000 0.000000 0.000000 0.076661
#
#
# Mechanical properties :
#
#
# Convention : Reuss Voigt Hill
#
# Bulk Modulus (GPa) = 58.10561 65.08526 61.59543
# Shear Modulus (GPa) = 21.63343 25.19308 23.41325
#
# Velocity S-wave (km/s) = 3.48402 3.75975 3.62451
# Velocity P-wave (km/s) = 6.98480 7.44088 7.21644
#
# Compressibility (1/GPa) = 0.01721004
#
# Stress axis : x y z
#
# Youngs Moduli (GPa) = 99.64761 53.40954 65.77892
#
# Poissons Ratio (x) = 0.23494 0.27475
# Poissons Ratio (y) = 0.43834 0.31572
# Poissons Ratio (z) = 0.41622 0.25635
#
# Static dielectric constant tensor:
#      x y z
#    x 3.794480 0.000000 0.000000 
#    y 0.000000 3.002050 0.000000 
#    z 0.000000 0.000000 3.326900 
# 
# 
# High freq. dielectric constant tensor:
#      x y z
#    x 1.707470 0.000000 0.000000 
#    y 0.000000 1.638920 0.000000 
#    z 0.000000 0.000000 1.700420 
# 
# From -- ./inp_files/6102.got.cif
#   From: 2010.03.12/outbox.cif.g09.slc.cpg/sg49_4_cif.got.tgz:6102.got - 2010.04.14 03:58:27.
