data_PCOD8202161
_publ_section_title
;
Structure prediction by ZEFSAII (Michael W. Deem and Ramdas Pophale) SiO2 
 PCOD8202161
Probable space group: P N N N
;
_chemical_formula_sum "Si O2"
_cell_formula_units_Z 30
_cell_length_a 14.537138
_cell_length_b 4.932846
_cell_length_c 16.592862
_cell_angle_alpha 90.000000
_cell_angle_beta 90.000000
_cell_angle_gamma 90.000000
_cell_volume 1189.865224
_symmetry_space_group_name_H-M "P N N N"
_symmetry_group_IT_number 48
_space_group.IT_coordinate_system_code '2'
_symmetry_cell_setting 'orthorhombic'
loop_
_space_group_symop_operation_xyz
x,y,z
1/2-x,1/2-y,z
x,1/2-y,1/2-z
1/2-x,y,1/2-z
-x,-y,-z
1/2+x,1/2+y,-z
-x,1/2+y,1/2+z
1/2+x,-y,1/2+z
loop_
_atom_site_type_symbol
_atom_site_label
_atom_site_fract_x
_atom_site_fract_y
_atom_site_fract_z
Si Si1 0.899174 0.049450 0.633862
Si Si2 0.349123 0.617356 0.542030
Si Si3 0.932998 0.606203 0.379625
Si Si4 0.028607 0.750000 0.750000
Si Si5 0.750000 0.250000 0.750000
O O1 0.860820 0.977155 0.545346
O O2 0.812808 0.067456 0.693008
O O3 0.958061 0.324138 0.622915
O O4 0.967243 0.831743 0.672744
O O5 0.250000 0.750000 0.556631
O O6 0.370097 0.372355 0.604282
O O7 0.419267 0.867082 0.554557
O O8 0.909300 0.489650 0.289039
#
# Coordination Sequence:
#
# PCOD8202161 Si02
#       5
#     8   8   8   4   2
#     4  12  26  49  77 115 160 200 254 324 409 476
#     4  12  28  49  80 115 155 202 270 322 383 467
#     4  12  26  50  79 111 153 214 255 318 399 468
#     4  12  26  47  81 108 156 212 260 318 397 485
#     4  12  24  46  76 124 152 202 246 344 398 476
#
# _framework density 25.212941000000001
#
# number of rings (size 3 to 8) (size 9 to 14) (size 15 to 20)
#    0.000    0.000    6.667    2.400    3.733    0.533 
#    4.800    0.667    5.867    0.000    0.000    0.000 
#    0.000    0.000    0.000    0.000    0.000    0.000 
#
# Total GULP energy -371690.997534 kJ/mol
# GULP energy per Si atom -12389.699918 kJ/mol
# Density = 2.515555 g / cm^3
# Si number density = 25.212941 Si / 1000 Ang^3
#
#
#
# Elastic Constant Matrix: (Units=GPa)
#
#
# Indices 1 2 3 4 5 6 
#
# 1 102.5031 45.6049 99.2731 0.0000 0.0000 0.0000
# 2 45.6049 156.7100 80.7691 0.0000 0.0000 0.0000
# 3 99.2731 80.7691 141.8556 0.0000 0.0000 0.0000
# 4 0.0000 0.0000 0.0000 52.6239 0.0000 0.0000
# 5 0.0000 0.0000 0.0000 0.0000 55.4021 0.0000
# 6 0.0000 0.0000 0.0000 0.0000 0.0000 22.9589
#
#
#
# Elastic Compliance Matrix: (Units=1/GPa)
#
#
# Indices 1 2 3 4 5 6 
#
# 1 0.031296 0.003086 -0.023659 0.000000 0.000000 0.000000
# 2 0.003086 0.009336 -0.007475 0.000000 0.000000 0.000000
# 3 -0.023659 -0.007475 0.027862 0.000000 0.000000 0.000000
# 4 0.000000 0.000000 0.000000 0.019003 0.000000 0.000000
# 5 0.000000 0.000000 0.000000 0.000000 0.018050 0.000000
# 6 0.000000 0.000000 0.000000 0.000000 0.000000 0.043556
#
#
# Mechanical properties :
#
#
# Convention : Reuss Voigt Hill
#
# Bulk Modulus (GPa) = 80.65445 94.70701 87.68073
# Shear Modulus (GPa) = 23.88557 37.89177 30.88867
#
# Velocity S-wave (km/s) = 3.08125 3.88089 3.50396
# Velocity P-wave (km/s) = 6.68712 7.59777 7.15695
#
# Compressibility (1/GPa) = 0.01239857
#
# Stress axis : x y z
#
# Youngs Moduli (GPa) = 31.95319 107.11257 35.89055
#
# Poissons Ratio (x) = -0.33057 0.84912
# Poissons Ratio (y) = -0.09861 0.26830
# Poissons Ratio (z) = 0.75597 0.80072
#
# Static dielectric constant tensor:
#      x y z
#    x 4.627410 0.000000 0.000000 
#    y 0.000000 4.579410 0.000000 
#    z 0.000000 0.000000 4.883270 
# 
# 
# High freq. dielectric constant tensor:
#      x y z
#    x 1.981290 0.000000 0.000000 
#    y 0.000000 2.015770 0.000000 
#    z 0.000000 0.000000 2.022410 
# 
# From -- ./inp_files/29171.got.cif
#   From: 2010.06.25/outbox.cif.g09.slc.cpg/sg48_15_cif.got.tgz:29171.got - 2010.06.26 18:06:46.
