data_PCOD8202843
_publ_section_title
;
Structure prediction by ZEFSAII (Michael W. Deem and Ramdas Pophale) SiO2 
 PCOD8202843
Probable space group: P C C M
;
_chemical_formula_sum "Si O2"
_cell_formula_units_Z 64
_cell_length_a 14.809868
_cell_length_b 28.039753
_cell_length_c 8.839069
_cell_angle_alpha 90.000000
_cell_angle_beta 90.000000
_cell_angle_gamma 90.000000
_cell_volume 3670.556348
_symmetry_space_group_name_H-M "P C C M"
_symmetry_group_IT_number 49
_symmetry_cell_setting 'orthorhombic'
loop_
_space_group_symop_operation_xyz
x,y,z
-x,-y,z
x,-y,1/2-z
-x,y,1/2-z
-x,-y,-z
x,y,-z
-x,y,1/2+z
x,-y,1/2+z
loop_
_atom_site_type_symbol
_atom_site_label
_atom_site_fract_x
_atom_site_fract_y
_atom_site_fract_z
Si Si1 0.902679 0.044942 0.675631
Si Si2 0.274385 0.548184 0.680480
Si Si3 0.905623 0.579520 0.319615
Si Si4 0.591547 0.732627 0.677374
Si Si5 0.097757 0.849396 0.676167
Si Si6 0.090509 0.311791 0.324031
Si Si7 0.220374 0.771116 0.177836
Si Si8 0.593708 0.623107 0.679763
O O1 0.911007 0.034574 0.500000
O O2 0.861882 0.097424 0.707347
O O3 0.000000 0.045680 0.750000
O O4 0.847493 0.000000 0.750000
O O5 0.318283 0.500000 0.750000
O O6 0.279519 0.547455 0.500000
O O7 0.171609 0.549354 0.738357
O O8 0.325765 0.593716 0.746199
O O9 0.903408 0.571883 0.500000
O O10 0.889137 0.634495 0.272039
O O11 0.000000 0.561603 0.250000
O O12 0.500000 0.753065 0.750000
O O13 0.579187 0.734939 0.500000
O O14 0.675379 0.765682 0.728999
O O15 0.609102 0.678049 0.726658
O O16 0.083293 0.840370 0.500000
O O17 0.174453 0.814730 0.737473
O O18 0.000000 0.840430 0.750000
O O19 0.073058 0.310304 0.500000
O O20 0.173139 0.278435 0.275629
O O21 0.000000 0.291121 0.250000
O O22 0.212042 0.780347 0.000000
O O23 0.500000 0.604431 0.750000
O O24 0.593976 0.615787 0.500000
#
# Coordination Sequence:
#
# PCOD8202843 Si02
#       8
#     8   8   8   8   8   8   8   8
#     4   9  16  26  41  60  85 120 165 209 249 288
#     4  12  25  40  57  79 103 130 162 197 240 289
#     4  10  20  37  57  77 101 130 164 204 243 283
#     4   9  19  35  55  77 101 128 161 199 240 285
#     4  10  20  31  43  65  97 133 170 209 248 290
#     4   9  18  31  48  70  97 127 160 195 233 277
#     4  10  19  31  47  69  98 132 164 198 240 286
#     4  10  20  38  61  84 107 130 157 194 238 288
#
# _framework density 17.436048
#
# number of rings (size 3 to 8) (size 9 to 14) (size 15 to 20)
#    0.000    2.125    0.000    4.125    0.000    7.000 
#    0.000    3.750    0.000    0.000    0.000    0.000 
#    0.000    0.500    0.000    5.500    0.000    4.000 
#
# Total GULP energy -793449.991240 kJ/mol
# GULP energy per Si atom -12397.656113 kJ/mol
# Density = 1.739636 g / cm^3
# Si number density = 17.436048 Si / 1000 Ang^3
#
#
#
# Elastic Constant Matrix: (Units=GPa)
#
#
# Indices 1 2 3 4 5 6 
#
# 1 104.3226 45.8215 40.9990 0.0000 0.0000 0.0000
# 2 45.8215 84.0308 41.7658 0.0000 0.0000 0.0000
# 3 40.9990 41.7658 86.0473 0.0000 0.0000 0.0000
# 4 0.0000 0.0000 0.0000 26.3771 0.0000 0.0000
# 5 0.0000 0.0000 0.0000 0.0000 29.8394 0.0000
# 6 0.0000 0.0000 0.0000 0.0000 0.0000 17.2405
#
#
#
# Elastic Compliance Matrix: (Units=1/GPa)
#
#
# Indices 1 2 3 4 5 6 
#
# 1 0.013468 -0.005476 -0.003759 0.000000 0.000000 0.000000
# 2 -0.005476 0.017910 -0.006084 0.000000 0.000000 0.000000
# 3 -0.003759 -0.006084 0.016366 0.000000 0.000000 0.000000
# 4 0.000000 0.000000 0.000000 0.037912 0.000000 0.000000
# 5 0.000000 0.000000 0.000000 0.000000 0.033513 0.000000
# 6 0.000000 0.000000 0.000000 0.000000 0.000000 0.058003
#
#
# Mechanical properties :
#
#
# Convention : Reuss Voigt Hill
#
# Bulk Modulus (GPa) = 58.46002 59.06369 58.76186
# Shear Modulus (GPa) = 23.41785 24.41237 23.91511
#
# Velocity S-wave (km/s) = 3.66877 3.74586 3.70752
# Velocity P-wave (km/s) = 7.17966 7.25649 7.21818
#
# Compressibility (1/GPa) = 0.01710571
#
# Stress axis : x y z
#
# Youngs Moduli (GPa) = 74.24941 55.83379 61.10212
#
# Poissons Ratio (x) = 0.30572 0.22971
# Poissons Ratio (y) = 0.40655 0.37177
# Poissons Ratio (z) = 0.27914 0.33972
#
# Static dielectric constant tensor:
#      x y z
#    x 3.163900 0.000000 0.000000 
#    y 0.000000 3.926090 0.000000 
#    z 0.000000 0.000000 3.305560 
# 
# 
# High freq. dielectric constant tensor:
#      x y z
#    x 1.650700 0.000000 0.000000 
#    y 0.000000 1.667250 0.000000 
#    z 0.000000 0.000000 1.682960 
# 
# From -- ./inp_files/4527.got.cif
#   From: 2010.03.12/outbox.cif.g09.slc.cpg/sg49_3_cif.got.tgz:4527.got - 2010.04.14 03:58:27.
