data_PCOD8202933
_publ_section_title
;
Structure prediction by ZEFSAII (Michael W. Deem and Ramdas Pophale) SiO2 
 PCOD8202933
Probable space group: P C C M
;
_chemical_formula_sum "Si O2"
_cell_formula_units_Z 48
_cell_length_a 14.315766
_cell_length_b 11.976971
_cell_length_c 16.729439
_cell_angle_alpha 90.000000
_cell_angle_beta 90.000000
_cell_angle_gamma 90.000000
_cell_volume 2868.421484
_symmetry_space_group_name_H-M "P C C M"
_symmetry_group_IT_number 49
_symmetry_cell_setting 'orthorhombic'
loop_
_space_group_symop_operation_xyz
x,y,z
-x,-y,z
x,-y,1/2-z
-x,y,1/2-z
-x,-y,-z
x,y,-z
-x,y,1/2+z
x,-y,1/2+z
loop_
_atom_site_type_symbol
_atom_site_label
_atom_site_fract_x
_atom_site_fract_y
_atom_site_fract_z
Si Si1 0.883504 0.220535 0.907029
Si Si2 0.905735 0.243948 0.595170
Si Si3 0.600412 0.369151 0.764857
Si Si4 0.889498 0.009427 0.339859
Si Si5 0.280001 0.377147 0.591762
Si Si6 0.227468 0.415367 0.177413
O O1 0.847972 0.095782 0.887658
O O2 0.808735 0.308429 0.873306
O O3 0.987216 0.245576 0.873526
O O4 0.890044 0.236874 0.000000
O O5 0.895791 0.264624 0.500000
O O6 0.857077 0.339684 0.647296
O O7 0.859100 0.124609 0.617479
O O8 0.588438 0.500000 0.750000
O O9 0.500000 0.308974 0.750000
O O10 0.629425 0.342885 0.856227
O O11 0.685725 0.334977 0.705171
O O12 0.850639 0.000000 0.250000
O O13 0.000000 0.000000 0.341880
O O14 0.301938 0.349038 0.500000
O O15 0.258506 0.508322 0.602386
O O16 0.199002 0.500000 0.250000
#
# Coordination Sequence:
#
# PCOD8202933 Si02
#       6
#     8   8   8   8   8   8
#     4   9  18  31  47  68  97 130 161 195 231 271
#     4  10  19  32  48  68 100 134 163 195 236 277
#     4   8  16  32  48  65  91 119 150 197 245 279
#     4   9  18  29  46  68  93 123 166 205 233 269
#     4   9  17  30  48  69  94 124 159 189 227 287
#     4   9  19  31  46  69  98 126 157 197 233 283
#
# _framework density 16.733943
#
# number of rings (size 3 to 8) (size 9 to 14) (size 15 to 20)
#    0.000    3.333    0.000    1.000    4.667    2.667 
#    0.000   13.333    0.000    0.000    0.000    2.333 
#    0.000    4.000    0.000    0.000    0.000    0.000 
#
# Total GULP energy -594638.423402 kJ/mol
# GULP energy per Si atom -12388.300488 kJ/mol
# Density = 1.669586 g / cm^3
# Si number density = 16.733943 Si / 1000 Ang^3
#
#
#
# Elastic Constant Matrix: (Units=GPa)
#
#
# Indices 1 2 3 4 5 6 
#
# 1 95.5736 43.7091 50.3582 0.0000 0.0000 0.0000
# 2 43.7091 65.0683 32.9425 0.0000 0.0000 0.0000
# 3 50.3582 32.9425 69.9734 0.0000 0.0000 0.0000
# 4 0.0000 0.0000 0.0000 26.8192 0.0000 0.0000
# 5 0.0000 0.0000 0.0000 0.0000 20.4828 0.0000
# 6 0.0000 0.0000 0.0000 0.0000 0.0000 4.7815
#
#
#
# Elastic Compliance Matrix: (Units=1/GPa)
#
#
# Indices 1 2 3 4 5 6 
#
# 1 0.019508 -0.007873 -0.010333 0.000000 0.000000 0.000000
# 2 -0.007873 0.023355 -0.005329 0.000000 0.000000 0.000000
# 3 -0.010333 -0.005329 0.024237 0.000000 0.000000 0.000000
# 4 0.000000 0.000000 0.000000 0.037287 0.000000 0.000000
# 5 0.000000 0.000000 0.000000 0.000000 0.048821 0.000000
# 6 0.000000 0.000000 0.000000 0.000000 0.000000 0.209141
#
#
# Mechanical properties :
#
#
# Convention : Reuss Voigt Hill
#
# Bulk Modulus (GPa) = 49.92713 53.84833 51.88773
# Shear Modulus (GPa) = 12.01645 17.32374 14.67009
#
# Velocity S-wave (km/s) = 2.68262 3.22101 2.96407
# Velocity P-wave (km/s) = 6.28458 6.78839 6.54133
#
# Compressibility (1/GPa) = 0.02002919
#
# Stress axis : x y z
#
# Youngs Moduli (GPa) = 51.25995 42.81687 41.25998
#
# Poissons Ratio (x) = 0.33711 0.42634
# Poissons Ratio (y) = 0.40358 0.21988
# Poissons Ratio (z) = 0.52968 0.22818
#
# Static dielectric constant tensor:
#      x y z
#    x 3.531900 0.000000 0.000000 
#    y 0.000000 3.042220 0.000000 
#    z 0.000000 0.000000 3.141480 
# 
# 
# High freq. dielectric constant tensor:
#      x y z
#    x 1.614250 0.000000 0.000000 
#    y 0.000000 1.621810 0.000000 
#    z 0.000000 0.000000 1.651770 
# 
# From -- ./inp_files/17820.got.cif
#   From: 2010.03.12/outbox.cif.g09.slc.cpg/sg49_9_cif.got.tgz:17820.got - 2010.04.14 03:58:27.
