data_PCOD8202702
_publ_section_title
;
Structure prediction by ZEFSAII (Michael W. Deem and Ramdas Pophale) SiO2 
 PCOD8202702
Probable space group: P C C M
;
_chemical_formula_sum "Si O2"
_cell_formula_units_Z 64
_cell_length_a 23.745827
_cell_length_b 15.454008
_cell_length_c 8.795586
_cell_angle_alpha 90.000000
_cell_angle_beta 90.000000
_cell_angle_gamma 90.000000
_cell_volume 3227.700366
_symmetry_space_group_name_H-M "P C C M"
_symmetry_group_IT_number 49
_symmetry_cell_setting 'orthorhombic'
loop_
_space_group_symop_operation_xyz
x,y,z
-x,-y,z
x,-y,1/2-z
-x,y,1/2-z
-x,-y,-z
x,y,-z
-x,y,1/2+z
x,-y,1/2+z
loop_
_atom_site_type_symbol
_atom_site_label
_atom_site_fract_x
_atom_site_fract_y
_atom_site_fract_z
Si Si1 0.939067 0.245666 0.819812
Si Si2 0.129794 0.410492 0.679543
Si Si3 0.742661 0.842564 0.680123
Si Si4 0.560052 0.251716 0.680667
Si Si5 0.746975 0.352989 0.180369
Si Si6 0.635538 0.586440 0.821164
Si Si7 0.622658 0.090979 0.181083
Si Si8 0.139385 0.910774 0.180232
O O1 0.910557 0.334068 0.760622
O O2 0.901238 0.165630 0.763398
O O3 0.000000 0.235283 0.750000
O O4 0.943404 0.246038 0.000000
O O5 0.108081 0.500000 0.750000
O O6 0.126510 0.416706 0.500000
O O7 0.193370 0.391530 0.732416
O O8 0.745407 0.839260 0.500000
O O9 0.742856 0.744935 0.742049
O O10 0.686426 0.890489 0.736906
O O11 0.797511 0.892381 0.742800
O O12 0.500000 0.274807 0.750000
O O13 0.556486 0.241762 0.500000
O O14 0.601119 0.329295 0.731081
O O15 0.581424 0.163104 0.753527
O O16 0.699111 0.408410 0.261074
O O17 0.738835 0.357424 0.000000
O O18 0.607580 0.500000 0.750000
O O19 0.635467 0.576714 0.000000
O O20 0.603001 0.000000 0.250000
O O21 0.617852 0.089542 0.000000
O O22 0.116955 0.000000 0.250000
O O23 0.138996 0.917442 0.000000
#
# Coordination Sequence:
#
# PCOD8202702 Si02
#       8
#     8   8   8   8   8   8   8   8
#     4  10  22  40  59  79 110 151 194 240 288 341
#     4  10  21  37  59  85 115 150 189 236 287 345
#     4   9  17  33  60  88 117 155 190 229 288 350
#     4  11  25  44  64  88 118 155 202 249 292 343
#     4  10  18  35  62  88 118 155 192 232 289 352
#     4  11  24  40  61  91 124 156 194 241 292 349
#     4  11  22  38  63  92 123 158 194 238 293 351
#     4  10  20  37  59  85 116 151 191 234 286 344
#
# _framework density 19.828358000000001
#
# number of rings (size 3 to 8) (size 9 to 14) (size 15 to 20)
#    0.000    1.750    2.500    1.875    0.000    5.000 
#    0.000    6.250    0.000    0.000    0.000    0.000 
#    0.000    0.000    0.000    0.000    0.000    0.000 
#
# Total GULP energy -793831.259961 kJ/mol
# GULP energy per Si atom -12403.613437 kJ/mol
# Density = 1.978323 g / cm^3
# Si number density = 19.828358 Si / 1000 Ang^3
#
#
#
# Elastic Constant Matrix: (Units=GPa)
#
#
# Indices 1 2 3 4 5 6 
#
# 1 102.4717 32.8445 24.8060 0.0000 0.0000 0.0000
# 2 32.8445 147.6909 30.1590 0.0000 0.0000 0.0000
# 3 24.8060 30.1590 42.3077 0.0000 0.0000 0.0000
# 4 0.0000 0.0000 0.0000 32.3637 0.0000 0.0000
# 5 0.0000 0.0000 0.0000 0.0000 29.0443 0.0000
# 6 0.0000 0.0000 0.0000 0.0000 0.0000 14.0012
#
#
#
# Elastic Compliance Matrix: (Units=1/GPa)
#
#
# Indices 1 2 3 4 5 6 
#
# 1 0.011614 -0.001395 -0.005815 0.000000 0.000000 0.000000
# 2 -0.001395 0.008092 -0.004950 0.000000 0.000000 0.000000
# 3 -0.005815 -0.004950 0.030574 0.000000 0.000000 0.000000
# 4 0.000000 0.000000 0.000000 0.030899 0.000000 0.000000
# 5 0.000000 0.000000 0.000000 0.000000 0.034430 0.000000
# 6 0.000000 0.000000 0.000000 0.000000 0.000000 0.071423
#
#
# Mechanical properties :
#
#
# Convention : Reuss Voigt Hill
#
# Bulk Modulus (GPa) = 38.52154 52.00994 45.26574
# Shear Modulus (GPa) = 22.72671 28.72590 25.72630
#
# Velocity S-wave (km/s) = 3.38919 3.81035 3.60592
# Velocity P-wave (km/s) = 5.89789 6.75613 6.34155
#
# Compressibility (1/GPa) = 0.02595950
#
# Stress axis : x y z
#
# Youngs Moduli (GPa) = 86.10582 123.57770 32.70708
#
# Poissons Ratio (x) = 0.17243 0.19018
# Poissons Ratio (y) = 0.12015 0.16191
# Poissons Ratio (z) = 0.50068 0.61175
#
# Static dielectric constant tensor:
#      x y z
#    x 3.717870 0.000000 0.000000 
#    y 0.000000 3.842640 0.000000 
#    z 0.000000 0.000000 3.325080 
# 
# 
# High freq. dielectric constant tensor:
#      x y z
#    x 1.772500 0.000000 0.000000 
#    y 0.000000 1.791710 0.000000 
#    z 0.000000 0.000000 1.754300 
# 
# From -- ./inp_files/4327.got.cif
#   From: 2010.03.12/outbox.cif.g09.slc.cpg/sg49_3_cif.got.tgz:4327.got - 2010.04.14 03:58:27.
