data_PCOD8202044
_publ_section_title
;
Structure prediction by ZEFSAII (Michael W. Deem and Ramdas Pophale) SiO2 
 PCOD8202044
Probable space group: P N N N
;
_chemical_formula_sum "Si O2"
_cell_formula_units_Z 42
_cell_length_a 18.637820
_cell_length_b 12.002299
_cell_length_c 9.007411
_cell_angle_alpha 90.000000
_cell_angle_beta 90.000000
_cell_angle_gamma 90.000000
_cell_volume 2014.928011
_symmetry_space_group_name_H-M "P N N N"
_symmetry_group_IT_number 48
_space_group.IT_coordinate_system_code '2'
_symmetry_cell_setting 'orthorhombic'
loop_
_space_group_symop_operation_xyz
x,y,z
1/2-x,1/2-y,z
x,1/2-y,1/2-z
1/2-x,y,1/2-z
-x,-y,-z
1/2+x,1/2+y,-z
-x,1/2+y,1/2+z
1/2+x,-y,1/2+z
loop_
_atom_site_type_symbol
_atom_site_label
_atom_site_fract_x
_atom_site_fract_y
_atom_site_fract_z
Si Si1 0.750000 0.250000 0.750000
Si Si2 0.020322 0.157646 0.638074
Si Si3 0.531726 0.044611 0.346877
Si Si4 0.328750 0.880708 0.765087
Si Si5 0.636000 0.404592 0.594747
Si Si6 0.589331 0.856330 0.821975
O O1 0.702729 0.331062 0.648362
O O2 0.049473 0.250000 0.750000
O O3 0.065060 0.169555 0.488503
O O4 0.935122 0.169833 0.614858
O O5 0.033460 0.039870 0.710996
O O6 0.614596 0.083879 0.364800
O O7 0.479282 0.141222 0.289228
O O8 0.500000 0.000000 0.500000
O O9 0.320952 0.750000 0.750000
O O10 0.250000 0.936215 0.750000
O O11 0.357885 0.925256 0.920621
O O12 0.632336 0.525265 0.679577
O O13 0.633381 0.750000 0.750000
#
# Coordination Sequence:
#
# PCOD8202044 Si02
#       6
#     2   8   8   8   8   8
#     4  12  24  40  72  96 136 172 226 280 344 440
#     4  11  21  38  65  94 131 166 221 284 334 388
#     4  11  22  36  62  96 130 173 226 279 334 401
#     4  11  23  38  61  91 136 175 215 274 351 418
#     4  11  23  42  61  98 133 175 221 278 340 401
#     4  11  22  41  66  93 133 174 222 283 332 394
#
# _framework density 20.844418000000001
#
# number of rings (size 3 to 8) (size 9 to 14) (size 15 to 20)
#    0.000    0.952    4.762    4.000    2.667    3.048 
#    0.000    0.476    0.000    0.571    0.000    0.000 
#    0.000    0.000    0.000    0.000    0.000    0.000 
#
# Total GULP energy -520468.597758 kJ/mol
# GULP energy per Si atom -12392.109470 kJ/mol
# Density = 2.079698 g / cm^3
# Si number density = 20.844418 Si / 1000 Ang^3
#
#
#
# Elastic Constant Matrix: (Units=GPa)
#
#
# Indices 1 2 3 4 5 6 
#
# 1 119.1678 38.1203 36.3216 0.0000 0.0000 0.0000
# 2 38.1203 91.1328 39.6579 0.0000 0.0000 0.0000
# 3 36.3216 39.6579 124.7919 0.0000 0.0000 0.0000
# 4 0.0000 0.0000 0.0000 44.7841 0.0000 0.0000
# 5 0.0000 0.0000 0.0000 0.0000 11.2216 0.0000
# 6 0.0000 0.0000 0.0000 0.0000 0.0000 -236.9363
#
#
#
# Elastic Compliance Matrix: (Units=1/GPa)
#
#
# Indices 1 2 3 4 5 6 
#
# 1 0.010040 -0.003398 -0.001842 0.000000 0.000000 0.000000
# 2 -0.003398 0.013884 -0.003423 0.000000 0.000000 0.000000
# 3 -0.001842 -0.003423 0.009637 0.000000 0.000000 0.000000
# 4 0.000000 0.000000 0.000000 0.022329 0.000000 0.000000
# 5 0.000000 0.000000 0.000000 0.000000 0.089114 0.000000
# 6 0.000000 0.000000 0.000000 0.000000 0.000000 -0.004221
#
#
# Mechanical properties :
#
#
# Convention : Reuss Voigt Hill
#
# Bulk Modulus (GPa) = 61.59769 62.58802 62.09285
# Shear Modulus (GPa) = 30.57679 -21.45328 4.56176
#
# Velocity S-wave (km/s) = 3.83418 -3.21161 1.48096
# Velocity P-wave (km/s) = 7.01545 4.04214 5.72518
#
# Compressibility (1/GPa) = 0.01623438
#
# Stress axis : x y z
#
# Youngs Moduli (GPa) = 99.60119 72.02531 103.76183
#
# Poissons Ratio (x) = 0.24474 0.19117
# Poissons Ratio (y) = 0.33844 0.35520
# Poissons Ratio (z) = 0.18350 0.24656
#
# Static dielectric constant tensor:
#      x y z
#    x 4.097690 0.000000 0.000000 
#    y 0.000000 3.864600 0.000000 
#    z 0.000000 0.000000 3.751480 
# 
# 
# High freq. dielectric constant tensor:
#      x y z
#    x 1.793170 0.000000 0.000000 
#    y 0.000000 1.820410 0.000000 
#    z 0.000000 0.000000 1.825590 
# 
# From -- ./inp_files/15060.got.cif
#   From: 2010.06.25/outbox.cif.g09.slc.cpg/sg48_8_cif.got.tgz:15060.got - 2010.06.26 18:06:46.
