data_PCOD8202835
_publ_section_title
;
Structure prediction by ZEFSAII (Michael W. Deem and Ramdas Pophale) SiO2 
 PCOD8202835
Probable space group: P C C M
;
_chemical_formula_sum "Si O2"
_cell_formula_units_Z 64
_cell_length_a 14.720439
_cell_length_b 28.208557
_cell_length_c 8.960597
_cell_angle_alpha 90.000000
_cell_angle_beta 90.000000
_cell_angle_gamma 90.000000
_cell_volume 3720.819289
_symmetry_space_group_name_H-M "P C C M"
_symmetry_group_IT_number 49
_symmetry_cell_setting 'orthorhombic'
loop_
_space_group_symop_operation_xyz
x,y,z
-x,-y,z
x,-y,1/2-z
-x,y,1/2-z
-x,-y,-z
x,y,-z
-x,y,1/2+z
x,-y,1/2+z
loop_
_atom_site_type_symbol
_atom_site_label
_atom_site_fract_x
_atom_site_fract_y
_atom_site_fract_z
Si Si1 0.229343 0.953084 0.677299
Si Si2 0.402599 0.544233 0.826213
Si Si3 0.408956 0.190172 0.673626
Si Si4 0.593503 0.918301 0.323081
Si Si5 0.905790 0.235747 0.323658
Si Si6 0.907963 0.872297 0.825456
Si Si7 0.269779 0.730954 0.176120
Si Si8 0.402993 0.351069 0.326329
O O1 0.235213 0.958200 0.500000
O O2 0.328641 0.949223 0.748285
O O3 0.172112 0.907091 0.726457
O O4 0.183882 0.000000 0.750000
O O5 0.347199 0.500000 0.750000
O O6 0.500000 0.545556 0.750000
O O7 0.360383 0.596361 0.796979
O O8 0.411734 0.533525 0.000000
O O9 0.500000 0.209633 0.750000
O O10 0.426953 0.195072 0.500000
O O11 0.388609 0.136374 0.720720
O O12 0.323905 0.221769 0.723615
O O13 0.500000 0.935797 0.250000
O O14 0.591284 0.926282 0.500000
O O15 0.913302 0.241885 0.500000
O O16 0.884406 0.181377 0.276668
O O17 0.825989 0.269040 0.261166
O O18 0.000000 0.252411 0.250000
O O19 0.000000 0.890124 0.750000
O O20 0.923926 0.875396 0.000000
O O21 0.328050 0.685911 0.232236
O O22 0.251342 0.728902 0.000000
O O23 0.500000 0.342877 0.250000
O O24 0.421332 0.342787 0.500000
#
# Coordination Sequence:
#
# PCOD8202835 Si02
#       8
#     8   8   8   8   8   8   8   8
#     4  11  23  38  54  75  99 123 151 186 226 272
#     4   9  15  24  38  57  82 119 164 207 244 279
#     4   9  18  30  47  70  96 125 157 189 225 268
#     4  10  20  35  53  73  95 123 157 193 228 267
#     4  10  20  35  54  75  95 121 155 191 229 274
#     4   9  20  37  57  78 100 123 150 184 225 272
#     4  10  19  31  46  68  98 129 157 192 235 279
#     4   9  18  29  42  63  95 131 167 203 241 281
#
# _framework density 17.200513000000001
#
# number of rings (size 3 to 8) (size 9 to 14) (size 15 to 20)
#    0.000    2.375    0.000    3.000    0.000    4.000 
#    0.000    2.500    0.000    0.000    0.000    0.000 
#    0.000    0.500    0.000    5.750    0.000    1.750 
#
# Total GULP energy -793487.401980 kJ/mol
# GULP energy per Si atom -12398.240656 kJ/mol
# Density = 1.716136 g / cm^3
# Si number density = 17.200513 Si / 1000 Ang^3
#
#
#
# Elastic Constant Matrix: (Units=GPa)
#
#
# Indices 1 2 3 4 5 6 
#
# 1 104.1734 47.8126 40.5276 0.0000 0.0000 0.0000
# 2 47.8126 85.8598 34.7646 0.0000 0.0000 0.0000
# 3 40.5276 34.7646 64.2366 0.0000 0.0000 0.0000
# 4 0.0000 0.0000 0.0000 6.6952 0.0000 0.0000
# 5 0.0000 0.0000 0.0000 0.0000 29.4207 0.0000
# 6 0.0000 0.0000 0.0000 0.0000 0.0000 14.3751
#
#
#
# Elastic Compliance Matrix: (Units=1/GPa)
#
#
# Indices 1 2 3 4 5 6 
#
# 1 0.014574 -0.005626 -0.006150 0.000000 0.000000 0.000000
# 2 -0.005626 0.017087 -0.005698 0.000000 0.000000 0.000000
# 3 -0.006150 -0.005698 0.022532 0.000000 0.000000 0.000000
# 4 0.000000 0.000000 0.000000 0.149360 0.000000 0.000000
# 5 0.000000 0.000000 0.000000 0.000000 0.033990 0.000000
# 6 0.000000 0.000000 0.000000 0.000000 0.000000 0.069565
#
#
# Mechanical properties :
#
#
# Convention : Reuss Voigt Hill
#
# Bulk Modulus (GPa) = 51.96332 55.60883 53.78608
# Shear Modulus (GPa) = 14.34844 18.84253 16.59548
#
# Velocity S-wave (km/s) = 2.89136 3.31337 3.10953
# Velocity P-wave (km/s) = 6.43604 6.85841 6.65058
#
# Compressibility (1/GPa) = 0.01924434
#
# Stress axis : x y z
#
# Youngs Moduli (GPa) = 68.61474 58.52493 44.38210
#
# Poissons Ratio (x) = 0.32924 0.27297
# Poissons Ratio (y) = 0.38600 0.25289
# Poissons Ratio (z) = 0.42201 0.33348
#
# Static dielectric constant tensor:
#      x y z
#    x 3.039530 0.000000 0.000000 
#    y 0.000000 3.880280 0.000000 
#    z 0.000000 0.000000 3.195120 
# 
# 
# High freq. dielectric constant tensor:
#      x y z
#    x 1.637620 0.000000 0.000000 
#    y 0.000000 1.659790 0.000000 
#    z 0.000000 0.000000 1.670380 
# 
# From -- ./inp_files/4544.got.cif
#   From: 2010.03.12/outbox.cif.g09.slc.cpg/sg49_3_cif.got.tgz:4544.got - 2010.04.14 03:58:27.
