data_PCOD8202646
_publ_section_title
;
Structure prediction by ZEFSAII (Michael W. Deem and Ramdas Pophale) SiO2 
 PCOD8202646
Probable space group: P C C M
;
_chemical_formula_sum "Si O2"
_cell_formula_units_Z 64
_cell_length_a 20.005748
_cell_length_b 20.020758
_cell_length_c 8.831216
_cell_angle_alpha 90.000000
_cell_angle_beta 90.000000
_cell_angle_gamma 90.000000
_cell_volume 3537.169058
_symmetry_space_group_name_H-M "P C C M"
_symmetry_group_IT_number 49
_symmetry_cell_setting 'orthorhombic'
loop_
_space_group_symop_operation_xyz
x,y,z
-x,-y,z
x,-y,1/2-z
-x,y,1/2-z
-x,-y,-z
x,y,-z
-x,y,1/2+z
x,-y,1/2+z
loop_
_atom_site_type_symbol
_atom_site_label
_atom_site_fract_x
_atom_site_fract_y
_atom_site_fract_z
Si Si1 0.431500 0.887512 0.676592
Si Si2 0.298436 0.066662 0.679561
Si Si3 0.287172 0.432319 0.179669
Si Si4 0.566030 0.398380 0.329242
Si Si5 0.812014 0.166910 0.178933
Si Si6 0.928633 0.070815 0.181517
Si Si7 0.251526 0.700834 0.177031
Si Si8 0.616972 0.257179 0.671150
O O1 0.500000 0.912700 0.750000
O O2 0.430938 0.904519 0.500000
O O3 0.372799 0.926970 0.757771
O O4 0.423982 0.808885 0.709081
O O5 0.299427 0.061631 0.500000
O O6 0.253177 0.127745 0.739595
O O7 0.266218 0.000000 0.750000
O O8 0.256602 0.500000 0.250000
O O9 0.363777 0.425119 0.239960
O O10 0.243121 0.368981 0.233944
O O11 0.284038 0.434722 0.000000
O O12 0.500000 0.428199 0.250000
O O13 0.561540 0.422936 0.500000
O O14 0.565450 0.318348 0.313526
O O15 0.879057 0.130141 0.236599
O O16 0.805678 0.245131 0.227994
O O17 0.811023 0.162675 0.000000
O O18 0.000000 0.090293 0.250000
O O19 0.904278 0.000000 0.250000
O O20 0.932340 0.064744 0.000000
O O21 0.322738 0.734675 0.211245
O O22 0.246640 0.685257 0.000000
O O23 0.646738 0.255995 0.500000
#
# Coordination Sequence:
#
# PCOD8202646 Si02
#       8
#     8   8   8   8   8   8   8   8
#     4  11  22  35  51  70  92 123 161 211 268 322
#     4  11  22  38  54  73  97 127 167 213 263 316
#     4  10  21  36  50  70  98 130 165 209 258 314
#     4   9  18  30  44  64  90 118 154 197 246 304
#     4   9  19  34  55  80 108 138 175 216 257 305
#     4  10  19  34  53  80 116 153 188 220 254 303
#     4  10  18  32  54  77  99 130 166 208 258 304
#     4   9  18  32  47  68  95 121 156 204 255 310
#
# _framework density 18.093564000000001
#
# number of rings (size 3 to 8) (size 9 to 14) (size 15 to 20)
#    0.000    2.125    1.250    3.750    0.000    3.500 
#    0.000    6.875    0.000    0.000    0.000    0.000 
#    0.000    0.500    0.000    5.750    0.000    1.750 
#
# Total GULP energy -793366.933129 kJ/mol
# GULP energy per Si atom -12396.358330 kJ/mol
# Density = 1.805238 g / cm^3
# Si number density = 18.093564 Si / 1000 Ang^3
#
#
#
# Elastic Constant Matrix: (Units=GPa)
#
#
# Indices 1 2 3 4 5 6 
#
# 1 80.9573 47.8531 26.1849 0.0000 0.0000 0.0000
# 2 47.8531 124.6486 42.1822 0.0000 0.0000 0.0000
# 3 26.1849 42.1822 75.1673 0.0000 0.0000 0.0000
# 4 0.0000 0.0000 0.0000 24.6889 0.0000 0.0000
# 5 0.0000 0.0000 0.0000 0.0000 18.1799 0.0000
# 6 0.0000 0.0000 0.0000 0.0000 0.0000 17.3935
#
#
#
# Elastic Compliance Matrix: (Units=1/GPa)
#
#
# Indices 1 2 3 4 5 6 
#
# 1 0.016408 -0.005388 -0.002692 0.000000 0.000000 0.000000
# 2 -0.005388 0.011673 -0.004673 0.000000 0.000000 0.000000
# 3 -0.002692 -0.004673 0.016864 0.000000 0.000000 0.000000
# 4 0.000000 0.000000 0.000000 0.040504 0.000000 0.000000
# 5 0.000000 0.000000 0.000000 0.000000 0.055006 0.000000
# 6 0.000000 0.000000 0.000000 0.000000 0.000000 0.057493
#
#
# Mechanical properties :
#
#
# Convention : Reuss Voigt Hill
#
# Bulk Modulus (GPa) = 51.44741 57.02373 54.23557
# Shear Modulus (GPa) = 21.74547 23.02267 22.38407
#
# Velocity S-wave (km/s) = 3.47051 3.57097 3.52110
# Velocity P-wave (km/s) = 6.67496 6.97043 6.82429
#
# Compressibility (1/GPa) = 0.01943732
#
# Stress axis : x y z
#
# Youngs Moduli (GPa) = 60.94706 85.67119 59.29756
#
# Poissons Ratio (x) = 0.46159 0.15964
# Poissons Ratio (y) = 0.32838 0.27712
# Poissons Ratio (z) = 0.16408 0.40038
#
# Static dielectric constant tensor:
#      x y z
#    x 3.119900 0.000000 0.000000 
#    y 0.000000 3.644770 0.000000 
#    z 0.000000 0.000000 3.262070 
# 
# 
# High freq. dielectric constant tensor:
#      x y z
#    x 1.655100 0.000000 0.000000 
#    y 0.000000 1.707980 0.000000 
#    z 0.000000 0.000000 1.699550 
# 
# From -- ./inp_files/6068.got.cif
#   From: 2010.03.12/outbox.cif.g09.slc.cpg/sg49_4_cif.got.tgz:6068.got - 2010.04.14 03:58:27.
