data_PCOD8202556
_publ_section_title
;
Structure prediction by ZEFSAII (Michael W. Deem and Ramdas Pophale) SiO2 
 PCOD8202556
Probable space group: P C C M
;
_chemical_formula_sum "Si O2"
_cell_formula_units_Z 56
_cell_length_a 21.425703
_cell_length_b 18.479499
_cell_length_c 8.443455
_cell_angle_alpha 90.000000
_cell_angle_beta 90.000000
_cell_angle_gamma 90.000000
_cell_volume 3343.069970
_symmetry_space_group_name_H-M "P C C M"
_symmetry_group_IT_number 49
_symmetry_cell_setting 'orthorhombic'
loop_
_space_group_symop_operation_xyz
x,y,z
-x,-y,z
x,-y,1/2-z
-x,y,1/2-z
-x,-y,-z
x,y,-z
-x,y,1/2+z
x,-y,1/2+z
loop_
_atom_site_type_symbol
_atom_site_label
_atom_site_fract_x
_atom_site_fract_y
_atom_site_fract_z
Si Si1 0.312073 0.580127 0.812125
Si Si2 0.746525 0.288192 0.314826
Si Si3 0.635346 0.799589 0.682362
Si Si4 0.179222 0.831497 0.813757
Si Si5 0.068401 0.922292 0.312587
Si Si6 0.293652 0.921422 0.315959
Si Si7 0.566198 0.336065 0.186589
O O1 0.303819 0.500000 0.750000
O O2 0.255720 0.627354 0.734182
O O3 0.378813 0.611415 0.750389
O O4 0.306634 0.582491 0.000000
O O5 0.731509 0.277764 0.500000
O O6 0.696141 0.249847 0.202299
O O7 0.810756 0.246947 0.270690
O O8 0.628079 0.822473 0.500000
O O9 0.644241 0.872337 0.785888
O O10 0.578044 0.748025 0.739071
O O11 0.114110 0.860764 0.749704
O O12 0.234427 0.887651 0.772843
O O13 0.175397 0.820909 0.000000
O O14 0.068047 0.924388 0.500000
O O15 0.000000 0.903513 0.250000
O O16 0.091490 0.000000 0.250000
O O17 0.277986 0.924924 0.500000
O O18 0.308603 0.000000 0.250000
O O19 0.500000 0.363660 0.250000
O O20 0.565743 0.340465 0.000000
#
# Coordination Sequence:
#
# PCOD8202556 Si02
#       7
#     8   8   8   8   8   8   8
#     4  10  20  34  49  70  97 126 153 186 228 275
#     4  10  18  30  48  70  92 120 153 189 230 277
#     4   9  17  31  46  64  88 115 146 186 229 274
#     4  11  20  32  48  68  94 125 159 198 234 274
#     4  11  21  34  48  67  95 131 170 206 243 283
#     4  11  20  30  45  67  90 116 148 189 236 282
#     4   9  19  32  48  67  90 118 152 186 222 268
#
# _framework density 16.751069999999999
#
# number of rings (size 3 to 8) (size 9 to 14) (size 15 to 20)
#    0.000    1.857    0.000    9.429    0.000    3.714 
#    0.000    1.429    0.000    0.429    0.000    3.000 
#    0.000    0.571    0.000    5.714    0.000    3.429 
#
# Total GULP energy -694164.303217 kJ/mol
# GULP energy per Si atom -12395.791129 kJ/mol
# Density = 1.671294 g / cm^3
# Si number density = 16.751070 Si / 1000 Ang^3
#
#
#
# Elastic Constant Matrix: (Units=GPa)
#
#
# Indices 1 2 3 4 5 6 
#
# 1 62.0832 51.4515 24.1350 0.0000 0.0000 0.0000
# 2 51.4515 135.6882 38.1100 0.0000 0.0000 0.0000
# 3 24.1350 38.1100 94.6208 0.0000 0.0000 0.0000
# 4 0.0000 0.0000 0.0000 27.4307 0.0000 0.0000
# 5 0.0000 0.0000 0.0000 0.0000 23.3080 0.0000
# 6 0.0000 0.0000 0.0000 0.0000 0.0000 23.4318
#
#
#
# Elastic Compliance Matrix: (Units=1/GPa)
#
#
# Indices 1 2 3 4 5 6 
#
# 1 0.024122 -0.008365 -0.002784 0.000000 0.000000 0.000000
# 2 -0.008365 0.011211 -0.002382 0.000000 0.000000 0.000000
# 3 -0.002784 -0.002382 0.012238 0.000000 0.000000 0.000000
# 4 0.000000 0.000000 0.000000 0.036456 0.000000 0.000000
# 5 0.000000 0.000000 0.000000 0.000000 0.042904 0.000000
# 6 0.000000 0.000000 0.000000 0.000000 0.000000 0.042677
#
#
# Mechanical properties :
#
#
# Convention : Reuss Voigt Hill
#
# Bulk Modulus (GPa) = 48.75690 57.75391 53.25541
# Shear Modulus (GPa) = 24.56954 26.74715 25.65834
#
# Velocity S-wave (km/s) = 3.83396 4.00026 3.91800
# Velocity P-wave (km/s) = 6.98348 7.47588 7.23387
#
# Compressibility (1/GPa) = 0.02050992
#
# Stress axis : x y z
#
# Youngs Moduli (GPa) = 41.45577 89.20080 81.71417
#
# Poissons Ratio (x) = 0.74616 0.22747
# Poissons Ratio (y) = 0.34678 0.19461
# Poissons Ratio (z) = 0.11540 0.21244
#
# Static dielectric constant tensor:
#      x y z
#    x 3.247600 0.000000 0.000000 
#    y 0.000000 3.453730 0.000000 
#    z 0.000000 0.000000 3.214060 
# 
# 
# High freq. dielectric constant tensor:
#      x y z
#    x 1.606600 0.000000 0.000000 
#    y 0.000000 1.639660 0.000000 
#    z 0.000000 0.000000 1.663910 
# 
# From -- ./inp_files/6037.got.cif
#   From: 2010.03.12/outbox.cif.g09.slc.cpg/sg49_4_cif.got.tgz:6037.got - 2010.04.14 03:58:27.
