data_PCOD8202347
_publ_section_title
;
Structure prediction by ZEFSAII (Michael W. Deem and Ramdas Pophale) SiO2 
 PCOD8202347
Probable space group: P C C M
;
_chemical_formula_sum "Si O2"
_cell_formula_units_Z 48
_cell_length_a 9.063530
_cell_length_b 29.287642
_cell_length_c 9.238044
_cell_angle_alpha 90.000000
_cell_angle_beta 90.000000
_cell_angle_gamma 90.000000
_cell_volume 2452.233439
_symmetry_space_group_name_H-M "P C C M"
_symmetry_group_IT_number 49
_symmetry_cell_setting 'orthorhombic'
loop_
_space_group_symop_operation_xyz
x,y,z
-x,-y,z
x,-y,1/2-z
-x,y,1/2-z
-x,-y,-z
x,y,-z
-x,y,1/2+z
x,-y,1/2+z
loop_
_atom_site_type_symbol
_atom_site_label
_atom_site_fract_x
_atom_site_fract_y
_atom_site_fract_z
Si Si1 0.652692 0.868399 0.170127
Si Si2 0.851620 0.219800 0.334369
Si Si3 0.650237 0.300172 0.664196
Si Si4 0.150993 0.435027 0.500000
Si Si5 0.325132 0.599122 0.733871
Si Si6 0.816469 0.542636 0.000000
Si Si7 0.338291 0.044217 0.677048
O O1 0.500000 0.856968 0.250000
O O2 0.751848 0.824303 0.185764
O O3 0.735377 0.909538 0.259308
O O4 0.627061 0.881226 0.000000
O O5 0.893207 0.228325 0.500000
O O6 0.767727 0.264327 0.271314
O O7 0.000000 0.211396 0.250000
O O8 0.500000 0.296219 0.750000
O O9 0.614019 0.286712 0.500000
O O10 0.715743 0.351242 0.671187
O O11 0.226436 0.407400 0.626912
O O12 0.181754 0.488528 0.500000
O O13 0.974069 0.431469 0.500000
O O14 0.500000 0.595043 0.750000
O O15 0.276875 0.557336 0.636329
O O16 0.500000 0.045802 0.750000
O O17 0.339810 0.042131 0.500000
O O18 0.257927 0.000000 0.750000
#
# Coordination Sequence:
#
# PCOD8202347 Si02
#       7
#     8   8   8   4   8   4   8
#     4  10  19  33  54  81 113 149 192 238 290 344
#     4  10  23  40  58  85 116 150 192 237 285 344
#     4  10  22  41  63  88 117 149 188 236 289 344
#     4  11  25  39  63  87 121 163 199 233 306 341
#     4  11  23  40  63  90 120 152 199 247 296 350
#     4  11  23  43  59  89 123 159 197 247 282 367
#     4  10  17  27  46  75 111 148 190 238 291 343
#
# _framework density 19.573993999999999
#
# number of rings (size 3 to 8) (size 9 to 14) (size 15 to 20)
#    0.000    1.667    0.833    5.500    3.500    6.667 
#    0.000    0.000    0.000    0.500    0.000    3.500 
#    0.000    0.000    0.000    0.000    0.000    0.000 
#
# Total GULP energy -594806.882013 kJ/mol
# GULP energy per Si atom -12391.810042 kJ/mol
# Density = 1.952944 g / cm^3
# Si number density = 19.573994 Si / 1000 Ang^3
#
#
#
# Elastic Constant Matrix: (Units=GPa)
#
#
# Indices 1 2 3 4 5 6 
#
# 1 76.2884 46.9198 35.2185 0.0000 0.0000 0.0000
# 2 46.9198 103.4539 38.3934 0.0000 0.0000 0.0000
# 3 35.2185 38.3934 129.2851 0.0000 0.0000 0.0000
# 4 0.0000 0.0000 0.0000 33.7887 0.0000 0.0000
# 5 0.0000 0.0000 0.0000 0.0000 28.8319 0.0000
# 6 0.0000 0.0000 0.0000 0.0000 0.0000 -0.2587
#
#
#
# Elastic Compliance Matrix: (Units=1/GPa)
#
#
# Indices 1 2 3 4 5 6 
#
# 1 0.019138 -0.007580 -0.002962 0.000000 0.000000 0.000000
# 2 -0.007580 0.013866 -0.002053 0.000000 0.000000 0.000000
# 3 -0.002962 -0.002053 0.009151 0.000000 0.000000 0.000000
# 4 0.000000 0.000000 0.000000 0.029596 0.000000 0.000000
# 5 0.000000 0.000000 0.000000 0.000000 0.034684 0.000000
# 6 0.000000 0.000000 0.000000 0.000000 0.000000 -3.865125
#
#
# Mechanical properties :
#
#
# Convention : Reuss Voigt Hill
#
# Bulk Modulus (GPa) = 58.94667 61.12120 60.03393
# Shear Modulus (GPa) = -1.34126 25.03874 11.84874
#
# Velocity S-wave (km/s) = -0.82868 3.58045 2.46302
# Velocity P-wave (km/s) = 5.40967 6.95603 6.23101
#
# Compressibility (1/GPa) = 0.01696449
#
# Stress axis : x y z
#
# Youngs Moduli (GPa) = 52.25258 72.11946 109.27309
#
# Poissons Ratio (x) = 0.54669 0.32369
# Poissons Ratio (y) = 0.39609 0.22431
# Poissons Ratio (z) = 0.15478 0.14804
#
# Static dielectric constant tensor:
#      x y z
#    x 3.345330 0.000000 0.000000 
#    y 0.000000 4.267960 0.000000 
#    z 0.000000 0.000000 3.663730 
# 
# 
# High freq. dielectric constant tensor:
#      x y z
#    x 1.734510 0.000000 0.000000 
#    y 0.000000 1.787320 0.000000 
#    z 0.000000 0.000000 1.775140 
# 
# From -- ./inp_files/2171.got.cif
#   From: 2010.03.12/outbox.cif.g09.slc.cpg/sg49_2_cif.got.tgz:2171.got - 2010.04.14 03:58:27.
