data_PCOD8202356
_publ_section_title
;
Structure prediction by ZEFSAII (Michael W. Deem and Ramdas Pophale) SiO2 
 PCOD8202356
Probable space group: P C C M
;
_chemical_formula_sum "Si O2"
_cell_formula_units_Z 64
_cell_length_a 31.041963
_cell_length_b 14.212019
_cell_length_c 8.512544
_cell_angle_alpha 90.000000
_cell_angle_beta 90.000000
_cell_angle_gamma 90.000000
_cell_volume 3755.470251
_symmetry_space_group_name_H-M "P C C M"
_symmetry_group_IT_number 49
_symmetry_cell_setting 'orthorhombic'
loop_
_space_group_symop_operation_xyz
x,y,z
-x,-y,z
x,-y,1/2-z
-x,y,1/2-z
-x,-y,-z
x,y,-z
-x,y,1/2+z
x,-y,1/2+z
loop_
_atom_site_type_symbol
_atom_site_label
_atom_site_fract_x
_atom_site_fract_y
_atom_site_fract_z
Si Si1 0.710213 0.104140 0.816038
Si Si2 0.242197 0.399118 0.685557
Si Si3 0.664057 0.402425 0.316020
Si Si4 0.869201 0.896741 0.683355
Si Si5 0.043205 0.894882 0.315186
Si Si6 0.209527 0.786820 0.683264
Si Si7 0.454393 0.102254 0.314705
Si Si8 0.373868 0.223535 0.317234
O O1 0.746347 0.161301 0.724385
O O2 0.664707 0.152196 0.780554
O O3 0.708182 0.000000 0.750000
O O4 0.721345 0.103324 0.000000
O O5 0.227410 0.500000 0.750000
O O6 0.235798 0.393135 0.500000
O O7 0.291887 0.378984 0.725528
O O8 0.212542 0.322265 0.769950
O O9 0.644526 0.500000 0.250000
O O10 0.673800 0.412003 0.500000
O O11 0.630585 0.319031 0.282475
O O12 0.876454 0.906778 0.500000
O O13 0.912178 0.848206 0.757062
O O14 0.829195 0.830532 0.718645
O O15 0.859527 0.000000 0.750000
O O16 0.041284 0.894545 0.500000
O O17 0.000000 0.843039 0.250000
O O18 0.043960 0.000000 0.250000
O O19 0.199804 0.797570 0.500000
O O20 0.500000 0.138776 0.250000
O O21 0.456764 0.094453 0.500000
O O22 0.417943 0.175258 0.260458
O O23 0.442519 0.000000 0.250000
O O24 0.375234 0.250010 0.500000
#
# Coordination Sequence:
#
# PCOD8202356 Si02
#       8
#     8   8   8   8   8   8   8   8
#     4  11  22  35  50  70 100 136 171 210 248 295
#     4  11  21  36  55  76 101 131 168 211 256 301
#     4  11  21  34  55  79 104 133 166 207 253 300
#     4  11  21  34  49  69  98 137 177 216 259 308
#     4  10  17  28  45  67  93 126 168 216 261 306
#     4  12  23  36  51  72 100 135 174 211 254 304
#     4  10  20  35  55  79 106 138 170 209 251 298
#     4  10  21  36  54  76 104 134 170 210 253 299
#
# _framework density 17.041806999999999
#
# number of rings (size 3 to 8) (size 9 to 14) (size 15 to 20)
#    0.000    1.250    1.250    9.375    0.000    1.500 
#    0.000    0.000    0.000    0.375    0.000    2.625 
#    0.000    0.500    0.000    5.000    0.000    3.000 
#
# Total GULP energy -793777.267916 kJ/mol
# GULP energy per Si atom -12402.769811 kJ/mol
# Density = 1.700302 g / cm^3
# Si number density = 17.041807 Si / 1000 Ang^3
#
#
#
# Elastic Constant Matrix: (Units=GPa)
#
#
# Indices 1 2 3 4 5 6 
#
# 1 96.8523 40.4164 24.2069 0.0000 0.0000 0.0000
# 2 40.4164 95.9812 22.4020 0.0000 0.0000 0.0000
# 3 24.2069 22.4020 104.3796 0.0000 0.0000 0.0000
# 4 0.0000 0.0000 0.0000 27.3336 0.0000 0.0000
# 5 0.0000 0.0000 0.0000 0.0000 27.9796 0.0000
# 6 0.0000 0.0000 0.0000 0.0000 0.0000 -13.7349
#
#
#
# Elastic Compliance Matrix: (Units=1/GPa)
#
#
# Indices 1 2 3 4 5 6 
#
# 1 0.012881 -0.004976 -0.001919 0.000000 0.000000 0.000000
# 2 -0.004976 0.012890 -0.001613 0.000000 0.000000 0.000000
# 3 -0.001919 -0.001613 0.010372 0.000000 0.000000 0.000000
# 4 0.000000 0.000000 0.000000 0.036585 0.000000 0.000000
# 5 0.000000 0.000000 0.000000 0.000000 0.035740 0.000000
# 6 0.000000 0.000000 0.000000 0.000000 0.000000 -0.072807
#
#
# Mechanical properties :
#
#
# Convention : Reuss Voigt Hill
#
# Bulk Modulus (GPa) = 52.28130 52.36265 52.32198
# Shear Modulus (GPa) = 84.66951 22.32819 53.49885
#
# Velocity S-wave (km/s) = 7.05629 3.62360 5.60900
# Velocity P-wave (km/s) = 9.85562 6.94982 8.52740
#
# Compressibility (1/GPa) = 0.01912730
#
# Stress axis : x y z
#
# Youngs Moduli (GPa) = 77.63220 77.57674 96.41701
#
# Poissons Ratio (x) = 0.38603 0.18506
# Poissons Ratio (y) = 0.38631 0.15548
# Poissons Ratio (z) = 0.14900 0.12509
#
# Static dielectric constant tensor:
#      x y z
#    x 3.579170 0.000000 0.000000 
#    y 0.000000 3.150120 0.000000 
#    z 0.000000 0.000000 3.340700 
# 
# 
# High freq. dielectric constant tensor:
#      x y z
#    x 1.649560 0.000000 0.000000 
#    y 0.000000 1.636270 0.000000 
#    z 0.000000 0.000000 1.679700 
# 
# From -- ./inp_files/7037.got.cif
#   From: 2010.03.12/outbox.cif.g09.slc.cpg/sg49_4_cif.got.tgz:7037.got - 2010.04.14 03:58:27.
