data_PCOD8202523
_publ_section_title
;
Structure prediction by ZEFSAII (Michael W. Deem and Ramdas Pophale) SiO2 
 PCOD8202523
Probable space group: P C C M
;
_chemical_formula_sum "Si O2"
_cell_formula_units_Z 40
_cell_length_a 19.371849
_cell_length_b 5.211536
_cell_length_c 20.678971
_cell_angle_alpha 90.000000
_cell_angle_beta 90.000000
_cell_angle_gamma 90.000000
_cell_volume 2087.688704
_symmetry_space_group_name_H-M "P C C M"
_symmetry_group_IT_number 49
_symmetry_cell_setting 'orthorhombic'
loop_
_space_group_symop_operation_xyz
x,y,z
-x,-y,z
x,-y,1/2-z
-x,y,1/2-z
-x,-y,-z
x,y,-z
-x,y,1/2+z
x,-y,1/2+z
loop_
_atom_site_type_symbol
_atom_site_label
_atom_site_fract_x
_atom_site_fract_y
_atom_site_fract_z
Si Si1 0.063885 0.825542 0.927298
Si Si2 0.868770 0.450599 0.820361
Si Si3 0.342731 0.990295 0.423198
Si Si4 0.577721 0.490831 0.077004
Si Si5 0.190756 0.036360 0.131633
O O1 0.071920 0.589796 0.875744
O O2 0.133566 0.997997 0.925129
O O3 0.053438 0.717126 0.000000
O O4 0.000000 0.000000 0.905275
O O5 0.903056 0.500000 0.750000
O O6 0.822138 0.191711 0.816130
O O7 0.818473 0.684738 0.837534
O O8 0.339535 0.992071 0.500000
O O9 0.381897 0.739318 0.397197
O O10 0.383786 0.237775 0.396974
O O11 0.266052 0.991833 0.396829
O O12 0.500000 0.500000 0.104586
O O13 0.575972 0.488748 0.000000
#
# Coordination Sequence:
#
# PCOD8202523 Si02
#       5
#     8   8   8   8   8
#     4   9  21  39  61  88 120 157 195 243 297 351
#     4  10  22  40  61  82 116 154 197 248 294 351
#     4  10  18  29  48  77 112 149 191 235 289 345
#     4   9  17  28  44  70 111 156 189 225 283 355
#     4  10  21  36  58  82 114 151 199 241 289 346
#
# _framework density 19.159946000000001
#
# number of rings (size 3 to 8) (size 9 to 14) (size 15 to 20)
#    1.200    1.200    0.000    3.000    0.000    4.800 
#    0.000    5.000    0.000    0.000    0.000    0.000 
#    0.000   56.000    0.000    0.000    0.000    0.000 
#
# Total GULP energy -495645.346826 kJ/mol
# GULP energy per Si atom -12391.133671 kJ/mol
# Density = 1.911634 g / cm^3
# Si number density = 19.159946 Si / 1000 Ang^3
#
#
#
# Elastic Constant Matrix: (Units=GPa)
#
#
# Indices 1 2 3 4 5 6 
#
# 1 149.5653 62.1463 38.0498 0.0000 0.0000 0.0000
# 2 62.1463 165.4538 41.8954 0.0000 0.0000 0.0000
# 3 38.0498 41.8954 75.7799 0.0000 0.0000 0.0000
# 4 0.0000 0.0000 0.0000 0.1459 0.0000 0.0000
# 5 0.0000 0.0000 0.0000 0.0000 -5.0349 0.0000
# 6 0.0000 0.0000 0.0000 0.0000 0.0000 28.4297
#
#
#
# Elastic Compliance Matrix: (Units=1/GPa)
#
#
# Indices 1 2 3 4 5 6 
#
# 1 0.008433 -0.002436 -0.002887 0.000000 0.000000 0.000000
# 2 -0.002436 0.007732 -0.003051 0.000000 0.000000 0.000000
# 3 -0.002887 -0.003051 0.016333 0.000000 0.000000 0.000000
# 4 0.000000 0.000000 0.000000 6.854467 0.000000 0.000000
# 5 0.000000 0.000000 0.000000 0.000000 -0.198615 0.000000
# 6 0.000000 0.000000 0.000000 0.000000 0.000000 0.035174
#
#
# Mechanical properties :
#
#
# Convention : Reuss Voigt Hill
#
# Bulk Modulus (GPa) = 63.50163 74.99802 69.24982
# Shear Modulus (GPa) = 0.74123 21.28864 11.01494
#
# Velocity S-wave (km/s) = 0.62266 3.33693 2.40030
# Velocity P-wave (km/s) = 5.80791 7.35357 6.62596
#
# Compressibility (1/GPa) = 0.01574763
#
# Stress axis : x y z
#
# Youngs Moduli (GPa) = 118.58271 129.33708 61.22681
#
# Poissons Ratio (x) = 0.31512 0.17678
# Poissons Ratio (y) = 0.28892 0.18682
# Poissons Ratio (z) = 0.34238 0.39463
#
# Static dielectric constant tensor:
#      x y z
#    x 3.415700 0.000000 0.000000 
#    y 0.000000 3.703120 0.000000 
#    z 0.000000 0.000000 3.061160 
# 
# 
# High freq. dielectric constant tensor:
#      x y z
#    x 1.743860 0.000000 0.000000 
#    y 0.000000 1.760760 0.000000 
#    z 0.000000 0.000000 1.695860 
# 
# From -- ./inp_files/20971.got.cif
#   From: 2010.03.12/outbox.cif.g09.slc.cpg/sg49_11_cif.got.tgz:20971.got - 2010.04.14 03:58:27.
