data_PCOD8202320
_publ_section_title
;
Structure prediction by ZEFSAII (Michael W. Deem and Ramdas Pophale) SiO2 
 PCOD8202320
Probable space group: P C C M
;
_chemical_formula_sum "Si O2"
_cell_formula_units_Z 64
_cell_length_a 19.151275
_cell_length_b 23.549110
_cell_length_c 8.788580
_cell_angle_alpha 90.000000
_cell_angle_beta 90.000000
_cell_angle_gamma 90.000000
_cell_volume 3963.609870
_symmetry_space_group_name_H-M "P C C M"
_symmetry_group_IT_number 49
_symmetry_cell_setting 'orthorhombic'
loop_
_space_group_symop_operation_xyz
x,y,z
-x,-y,z
x,-y,1/2-z
-x,y,1/2-z
-x,-y,-z
x,y,-z
-x,y,1/2+z
x,-y,1/2+z
loop_
_atom_site_type_symbol
_atom_site_label
_atom_site_fract_x
_atom_site_fract_y
_atom_site_fract_z
Si Si1 0.926887 0.273830 0.176676
Si Si2 0.791786 0.659849 0.678637
Si Si3 0.429384 0.620634 0.680512
Si Si4 0.288103 0.439410 0.821021
Si Si5 0.151958 0.161095 0.680160
Si Si6 0.073788 0.939881 0.319545
Si Si7 0.281184 0.771489 0.178377
Si Si8 0.569236 0.255701 0.179206
O O1 0.871914 0.323689 0.214824
O O2 0.898040 0.212781 0.231795
O O3 0.000000 0.289706 0.250000
O O4 0.939678 0.269551 0.000000
O O5 0.779741 0.649982 0.500000
O O6 0.772700 0.602755 0.766802
O O7 0.743105 0.710662 0.744586
O O8 0.500000 0.593060 0.750000
O O9 0.435864 0.624864 0.500000
O O10 0.364102 0.582609 0.732572
O O11 0.419338 0.683019 0.748278
O O12 0.272918 0.500000 0.750000
O O13 0.284800 0.444776 0.000000
O O14 0.146643 0.149111 0.500000
O O15 0.132213 0.105485 0.774275
O O16 0.231311 0.177102 0.732607
O O17 0.066994 0.945037 0.500000
O O18 0.000000 0.920097 0.250000
O O19 0.096616 0.000000 0.250000
O O20 0.362576 0.782645 0.218651
O O21 0.268550 0.765763 0.000000
O O22 0.500000 0.226306 0.250000
O O23 0.559427 0.262659 0.000000
#
# Coordination Sequence:
#
# PCOD8202320 Si02
#       8
#     8   8   8   8   8   8   8   8
#     4   9  18  30  49  73  97 123 150 183 229 275
#     4   9  17  33  51  67  89 119 150 182 223 277
#     4  10  20  32  46  66  89 116 150 186 225 268
#     4  11  23  35  49  68  88 114 148 188 229 274
#     4   9  17  31  48  70  98 127 162 198 229 271
#     4  11  21  33  48  68  95 133 171 203 236 270
#     4   8  15  28  48  68  91 125 156 186 232 278
#     4  10  17  27  45  67  92 125 156 186 226 273
#
# _framework density 16.146896999999999
#
# number of rings (size 3 to 8) (size 9 to 14) (size 15 to 20)
#    0.000    2.375    1.250    5.250    0.000    3.750 
#    0.000    4.375    0.000    0.375    0.000    2.625 
#    0.000    0.500    0.000    5.750    0.000    1.750 
#
# Total GULP energy -793360.887431 kJ/mol
# GULP energy per Si atom -12396.263866 kJ/mol
# Density = 1.611015 g / cm^3
# Si number density = 16.146897 Si / 1000 Ang^3
#
#
#
# Elastic Constant Matrix: (Units=GPa)
#
#
# Indices 1 2 3 4 5 6 
#
# 1 124.8898 58.4953 42.4490 0.0000 0.0000 0.0000
# 2 58.4953 89.8774 34.4391 0.0000 0.0000 0.0000
# 3 42.4490 34.4391 67.1519 0.0000 0.0000 0.0000
# 4 0.0000 0.0000 0.0000 18.3949 0.0000 0.0000
# 5 0.0000 0.0000 0.0000 0.0000 20.1242 0.0000
# 6 0.0000 0.0000 0.0000 0.0000 0.0000 29.0179
#
#
#
# Elastic Compliance Matrix: (Units=1/GPa)
#
#
# Indices 1 2 3 4 5 6 
#
# 1 0.012598 -0.006407 -0.004678 0.000000 0.000000 0.000000
# 2 -0.006407 0.017106 -0.004723 0.000000 0.000000 0.000000
# 3 -0.004678 -0.004723 0.020271 0.000000 0.000000 0.000000
# 4 0.000000 0.000000 0.000000 0.054363 0.000000 0.000000
# 5 0.000000 0.000000 0.000000 0.000000 0.049691 0.000000
# 6 0.000000 0.000000 0.000000 0.000000 0.000000 0.034462
#
#
# Mechanical properties :
#
#
# Convention : Reuss Voigt Hill
#
# Bulk Modulus (GPa) = 54.46749 61.40954 57.93851
# Shear Modulus (GPa) = 22.10199 23.27645 22.68922
#
# Velocity S-wave (km/s) = 3.70375 3.80088 3.75263
# Velocity P-wave (km/s) = 7.21776 7.57474 7.39840
#
# Compressibility (1/GPa) = 0.01835958
#
# Stress axis : x y z
#
# Youngs Moduli (GPa) = 79.37975 58.46047 49.33222
#
# Poissons Ratio (x) = 0.37453 0.23077
# Poissons Ratio (y) = 0.50855 0.23299
# Poissons Ratio (z) = 0.37132 0.27610
#
# Static dielectric constant tensor:
#      x y z
#    x 2.212610 0.000000 0.000000 
#    y 0.000000 2.837970 0.000000 
#    z 0.000000 0.000000 2.970470 
# 
# 
# High freq. dielectric constant tensor:
#      x y z
#    x 1.623770 0.000000 0.000000 
#    y 0.000000 1.586410 0.000000 
#    z 0.000000 0.000000 1.619100 
# 
# From -- ./inp_files/6073.got.cif
#   From: 2010.03.12/outbox.cif.g09.slc.cpg/sg49_4_cif.got.tgz:6073.got - 2010.04.14 03:58:27.
