data_PCOD8202219
_publ_section_title
;
Structure prediction by ZEFSAII (Michael W. Deem and Ramdas Pophale) SiO2 
 PCOD8202219
Probable space group: P C C M
;
_chemical_formula_sum "Si O2"
_cell_formula_units_Z 32
_cell_length_a 20.923056
_cell_length_b 9.764523
_cell_length_c 8.495851
_cell_angle_alpha 90.000000
_cell_angle_beta 90.000000
_cell_angle_gamma 90.000000
_cell_volume 1735.733467
_symmetry_space_group_name_H-M "P C C M"
_symmetry_group_IT_number 49
_symmetry_cell_setting 'orthorhombic'
loop_
_space_group_symop_operation_xyz
x,y,z
-x,-y,z
x,-y,1/2-z
-x,y,1/2-z
-x,-y,-z
x,y,-z
-x,y,1/2+z
x,-y,1/2+z
loop_
_atom_site_type_symbol
_atom_site_label
_atom_site_fract_x
_atom_site_fract_y
_atom_site_fract_z
Si Si1 0.930438 0.853493 0.686091
Si Si2 0.693747 0.346575 0.186537
Si Si3 0.564612 0.653838 0.813714
Si Si4 0.175121 0.346822 0.186369
O O1 0.932817 0.859284 0.500000
O O2 0.882464 0.738236 0.742808
O O3 0.000000 0.814890 0.750000
O O4 0.907333 0.000000 0.750000
O O5 0.691881 0.500000 0.250000
O O6 0.628823 0.271561 0.247580
O O7 0.757866 0.277815 0.256998
O O8 0.696594 0.343793 0.000000
O O9 0.564186 0.500000 0.750000
O O10 0.500000 0.728207 0.750000
O O11 0.565376 0.655139 0.000000
O O12 0.169203 0.500000 0.250000
O O13 0.171618 0.346815 0.000000
#
# Coordination Sequence:
#
# PCOD8202219 Si02
#       4
#     8   8   8   8
#     4  11  22  39  59  81 105 135 169 208 253 303
#     4  10  17  27  41  61  89 124 161 202 248 298
#     4  10  16  23  34  52  79 116 158 200 242 292
#     4  11  21  35  53  77 105 137 172 212 256 305
#
# _framework density 18.436011000000001
#
# number of rings (size 3 to 8) (size 9 to 14) (size 15 to 20)
#    0.000    1.500    0.000   13.500    0.000    0.500 
#    0.000    2.500    0.000    0.000    0.000    0.000 
#    0.000    1.000    0.000   10.000    0.000    9.750 
#
# Total GULP energy -396659.616464 kJ/mol
# GULP energy per Si atom -12395.613015 kJ/mol
# Density = 1.839405 g / cm^3
# Si number density = 18.436011 Si / 1000 Ang^3
#
#
#
# Elastic Constant Matrix: (Units=GPa)
#
#
# Indices 1 2 3 4 5 6 
#
# 1 169.4582 54.3261 69.7194 0.0000 0.0000 0.0000
# 2 54.3261 39.5107 26.0019 0.0000 0.0000 0.0000
# 3 69.7194 26.0019 201.3449 0.0000 0.0000 0.0000
# 4 0.0000 0.0000 0.0000 15.9763 0.0000 0.0000
# 5 0.0000 0.0000 0.0000 0.0000 40.5182 0.0000
# 6 0.0000 0.0000 0.0000 0.0000 0.0000 -2.5436
#
#
#
# Elastic Compliance Matrix: (Units=1/GPa)
#
#
# Indices 1 2 3 4 5 6 
#
# 1 0.011300 -0.014166 -0.002083 0.000000 0.000000 0.000000
# 2 -0.014166 0.045419 -0.000960 0.000000 0.000000 0.000000
# 3 -0.002083 -0.000960 0.005812 0.000000 0.000000 0.000000
# 4 0.000000 0.000000 0.000000 0.062593 0.000000 0.000000
# 5 0.000000 0.000000 0.000000 0.000000 0.024680 0.000000
# 6 0.000000 0.000000 0.000000 0.000000 0.000000 -0.393147
#
#
# Mechanical properties :
#
#
# Convention : Reuss Voigt Hill
#
# Bulk Modulus (GPa) = 35.57203 78.93429 57.25316
# Shear Modulus (GPa) = -25.05585 28.14128 1.54272
#
# Velocity S-wave (km/s) = -3.69056 3.91119 0.91576
# Velocity P-wave (km/s) = 1.08465 7.95643 5.67808
#
# Compressibility (1/GPa) = 0.02811198
#
# Stress axis : x y z
#
# Youngs Moduli (GPa) = 88.49871 22.01726 172.05737
#
# Poissons Ratio (x) = 0.31189 0.35845
# Poissons Ratio (y) = 1.25364 0.16523
# Poissons Ratio (z) = 0.18437 0.02114
#
# Static dielectric constant tensor:
#      x y z
#    x 4.927090 0.000000 0.000000 
#    y 0.000000 2.752790 0.000000 
#    z 0.000000 0.000000 3.606290 
# 
# 
# High freq. dielectric constant tensor:
#      x y z
#    x 1.751990 0.000000 0.000000 
#    y 0.000000 1.632560 0.000000 
#    z 0.000000 0.000000 1.745780 
# 
# From -- ./inp_files/1383.got.cif
#   From: 2010.03.12/outbox.cif.g09.slc.cpg/sg49_1_cif.got.tgz:1383.got - 2010.04.14 03:58:27.
