data_PCOD8202741
_publ_section_title
;
Structure prediction by ZEFSAII (Michael W. Deem and Ramdas Pophale) SiO2 
 PCOD8202741
Probable space group: P C C M
;
_chemical_formula_sum "Si O2"
_cell_formula_units_Z 48
_cell_length_a 24.148922
_cell_length_b 13.651774
_cell_length_c 8.772990
_cell_angle_alpha 90.000000
_cell_angle_beta 90.000000
_cell_angle_gamma 90.000000
_cell_volume 2892.240966
_symmetry_space_group_name_H-M "P C C M"
_symmetry_group_IT_number 49
_symmetry_cell_setting 'orthorhombic'
loop_
_space_group_symop_operation_xyz
x,y,z
-x,-y,z
x,-y,1/2-z
-x,y,1/2-z
-x,-y,-z
x,y,-z
-x,y,1/2+z
x,-y,1/2+z
loop_
_atom_site_type_symbol
_atom_site_label
_atom_site_fract_x
_atom_site_fract_y
_atom_site_fract_z
Si Si1 0.119096 0.396622 0.318554
Si Si2 0.057745 0.782866 0.319335
Si Si3 0.835326 0.101967 0.323029
Si Si4 0.325191 0.607150 0.178496
Si Si5 0.222690 0.702624 0.319480
Si Si6 0.552489 0.605941 0.323847
O O1 0.100704 0.500000 0.250000
O O2 0.118138 0.399546 0.500000
O O3 0.074632 0.318959 0.257892
O O4 0.180767 0.372153 0.260981
O O5 0.054036 0.767444 0.500000
O O6 0.102714 0.865586 0.276118
O O7 0.000000 0.819390 0.250000
O O8 0.831524 0.085144 0.500000
O O9 0.792453 0.186395 0.271832
O O10 0.818011 0.000000 0.250000
O O11 0.318768 0.500000 0.250000
O O12 0.284310 0.682038 0.261598
O O13 0.386859 0.652764 0.204917
O O14 0.311376 0.599299 0.000000
O O15 0.217476 0.687544 0.500000
O O16 0.554428 0.500000 0.250000
O O17 0.500000 0.665198 0.250000
O O18 0.539982 0.595355 0.500000
#
# Coordination Sequence:
#
# PCOD8202741 Si02
#       6
#     8   8   8   8   8   8
#     4  11  21  34  51  70  94 126 157 190 229 270
#     4  10  21  37  53  74  98 121 152 188 224 269
#     4   9  20  36  54  73  94 118 147 184 230 279
#     4  10  19  29  43  66  94 128 164 198 232 271
#     4  10  20  34  49  69  95 122 154 193 231 275
#     4   9  16  25  38  57  85 121 162 198 231 266
#
# _framework density 16.596126999999999
#
# number of rings (size 3 to 8) (size 9 to 14) (size 15 to 20)
#    0.000    2.167    0.000    5.500    0.000    6.667 
#    0.000    3.333    0.000    0.000    0.000    0.000 
#    0.000    0.667    0.000    7.333    0.000    5.333 
#
# Total GULP energy -595053.864887 kJ/mol
# GULP energy per Si atom -12396.955518 kJ/mol
# Density = 1.655835 g / cm^3
# Si number density = 16.596127 Si / 1000 Ang^3
#
#
#
# Elastic Constant Matrix: (Units=GPa)
#
#
# Indices 1 2 3 4 5 6 
#
# 1 119.2033 34.2950 45.5585 0.0000 0.0000 0.0000
# 2 34.2950 81.1447 34.3535 0.0000 0.0000 0.0000
# 3 45.5585 34.3535 103.1506 0.0000 0.0000 0.0000
# 4 0.0000 0.0000 0.0000 24.8880 0.0000 0.0000
# 5 0.0000 0.0000 0.0000 0.0000 32.4479 0.0000
# 6 0.0000 0.0000 0.0000 0.0000 0.0000 -46.4899
#
#
#
# Elastic Compliance Matrix: (Units=1/GPa)
#
#
# Indices 1 2 3 4 5 6 
#
# 1 0.010657 -0.002924 -0.003733 0.000000 0.000000 0.000000
# 2 -0.002924 0.015149 -0.003754 0.000000 0.000000 0.000000
# 3 -0.003733 -0.003754 0.012594 0.000000 0.000000 0.000000
# 4 0.000000 0.000000 0.000000 0.040180 0.000000 0.000000
# 5 0.000000 0.000000 0.000000 0.000000 0.030819 0.000000
# 6 0.000000 0.000000 0.000000 0.000000 0.000000 -0.021510
#
#
# Mechanical properties :
#
#
# Convention : Reuss Voigt Hill
#
# Bulk Modulus (GPa) = 56.88976 59.10141 57.99558
# Shear Modulus (GPa) = 43.64216 14.78864 29.21540
#
# Velocity S-wave (km/s) = 5.13358 2.98835 4.20023
# Velocity P-wave (km/s) = 8.33616 6.89898 7.65139
#
# Compressibility (1/GPa) = 0.01757786
#
# Stress axis : x y z
#
# Youngs Moduli (GPa) = 93.83561 66.01314 79.40552
#
# Poissons Ratio (x) = 0.19299 0.29644
# Poissons Ratio (y) = 0.27433 0.29808
# Poissons Ratio (z) = 0.35031 0.24780
#
# Static dielectric constant tensor:
#      x y z
#    x 3.721890 0.000000 0.000000 
#    y 0.000000 3.054450 0.000000 
#    z 0.000000 0.000000 3.247960 
# 
# 
# High freq. dielectric constant tensor:
#      x y z
#    x 1.644380 0.000000 0.000000 
#    y 0.000000 1.597940 0.000000 
#    z 0.000000 0.000000 1.658550 
# 
# From -- ./inp_files/4148.got.cif
#   From: 2010.03.12/outbox.cif.g09.slc.cpg/sg49_3_cif.got.tgz:4148.got - 2010.04.14 03:58:27.
