data_PCOD8202711
_publ_section_title
;
Structure prediction by ZEFSAII (Michael W. Deem and Ramdas Pophale) SiO2 
 PCOD8202711
Probable space group: P C C M
;
_chemical_formula_sum "Si O2"
_cell_formula_units_Z 48
_cell_length_a 5.766285
_cell_length_b 13.704477
_cell_length_c 26.504267
_cell_angle_alpha 90.000000
_cell_angle_beta 90.000000
_cell_angle_gamma 90.000000
_cell_volume 2094.471079
_symmetry_space_group_name_H-M "P C C M"
_symmetry_group_IT_number 49
_symmetry_cell_setting 'orthorhombic'
loop_
_space_group_symop_operation_xyz
x,y,z
-x,-y,z
x,-y,1/2-z
-x,y,1/2-z
-x,-y,-z
x,y,-z
-x,y,1/2+z
x,-y,1/2+z
loop_
_atom_site_type_symbol
_atom_site_label
_atom_site_fract_x
_atom_site_fract_y
_atom_site_fract_z
Si Si1 0.106971 0.649114 0.556510
Si Si2 0.641486 0.144008 0.555278
Si Si3 0.111538 0.901182 0.349877
Si Si4 0.610132 0.738889 0.195629
Si Si5 0.741137 0.759615 0.390375
Si Si6 0.247262 0.550928 0.347765
O O1 0.089673 0.605477 0.500000
O O2 0.224055 0.754448 0.555847
O O3 0.247675 0.574844 0.592000
O O4 0.851945 0.667010 0.580616
O O5 0.654495 0.093965 0.500000
O O6 0.753843 0.073151 0.597592
O O7 0.376101 0.167922 0.568819
O O8 0.283262 0.848194 0.310196
O O9 0.917713 0.821724 0.358058
O O10 0.000000 0.000000 0.327255
O O11 0.500000 0.733122 0.250000
O O12 0.434567 0.716376 0.150040
O O13 0.784306 0.648601 0.186845
O O14 0.500000 0.500000 0.335020
O O15 0.000000 0.500000 0.334336
#
# Coordination Sequence:
#
# PCOD8202711 Si02
#       6
#     8   8   8   8   8   8
#     4  10  20  38  64  97 138 185 230 284 359 431
#     4   9  18  33  61  95 134 186 232 276 349 433
#     4  10  22  41  67  99 135 180 230 300 361 433
#     4  11  25  47  70  98 135 188 235 302 376 433
#     4  10  18  40  65  93 137 182 229 293 354 431
#     4  12  26  46  71 106 145 184 247 306 360 437
#
# _framework density 22.917480000000001
#
# number of rings (size 3 to 8) (size 9 to 14) (size 15 to 20)
#    0.000    1.667    5.000    1.500    0.000    5.333 
#    0.000    5.833    0.000    0.000    0.000    0.000 
#    0.000    0.000    0.000    0.000    0.000    0.000 
#
# Total GULP energy -594703.671833 kJ/mol
# GULP energy per Si atom -12389.659830 kJ/mol
# Density = 2.286532 g / cm^3
# Si number density = 22.917480 Si / 1000 Ang^3
#
#
#
# Elastic Constant Matrix: (Units=GPa)
#
#
# Indices 1 2 3 4 5 6 
#
# 1 106.2407 28.4376 37.3676 0.0000 0.0000 0.0000
# 2 28.4376 92.1765 49.4379 0.0000 0.0000 0.0000
# 3 37.3676 49.4379 136.5106 0.0000 0.0000 0.0000
# 4 0.0000 0.0000 0.0000 8.9098 0.0000 0.0000
# 5 0.0000 0.0000 0.0000 0.0000 15.3928 0.0000
# 6 0.0000 0.0000 0.0000 0.0000 0.0000 33.8745
#
#
#
# Elastic Compliance Matrix: (Units=1/GPa)
#
#
# Indices 1 2 3 4 5 6 
#
# 1 0.010750 -0.002157 -0.002161 0.000000 0.000000 0.000000
# 2 -0.002157 0.013897 -0.004442 0.000000 0.000000 0.000000
# 3 -0.002161 -0.004442 0.009526 0.000000 0.000000 0.000000
# 4 0.000000 0.000000 0.000000 0.112236 0.000000 0.000000
# 5 0.000000 0.000000 0.000000 0.000000 0.064965 0.000000
# 6 0.000000 0.000000 0.000000 0.000000 0.000000 0.029521
#
#
# Mechanical properties :
#
#
# Convention : Reuss Voigt Hill
#
# Bulk Modulus (GPa) = 60.05659 62.82376 61.44018
# Shear Modulus (GPa) = 18.94172 26.28106 22.61139
#
# Velocity S-wave (km/s) = 2.87804 3.39007 3.14450
# Velocity P-wave (km/s) = 6.10792 6.54186 6.32861
#
# Compressibility (1/GPa) = 0.01665096
#
# Stress axis : x y z
#
# Youngs Moduli (GPa) = 93.02081 71.95852 104.97712
#
# Poissons Ratio (x) = 0.15524 0.22690
# Poissons Ratio (y) = 0.20068 0.46634
# Poissons Ratio (z) = 0.20106 0.31966
#
# Static dielectric constant tensor:
#      x y z
#    x 4.629410 0.000000 0.000000 
#    y 0.000000 3.945080 0.000000 
#    z 0.000000 0.000000 4.172810 
# 
# 
# High freq. dielectric constant tensor:
#      x y z
#    x 1.914050 0.000000 0.000000 
#    y 0.000000 1.889800 0.000000 
#    z 0.000000 0.000000 1.888260 
# 
# From -- ./inp_files/23935.got.cif
#   From: 2010.03.12/outbox.cif.g09.slc.cpg/sg49_12_cif.got.tgz:23935.got - 2010.04.14 03:58:27.
