data_PCOD8202935
_publ_section_title
;
Structure prediction by ZEFSAII (Michael W. Deem and Ramdas Pophale) SiO2 
 PCOD8202935
Probable space group: P C C M
;
_chemical_formula_sum "Si O2"
_cell_formula_units_Z 40
_cell_length_a 13.913140
_cell_length_b 20.592748
_cell_length_c 8.677339
_cell_angle_alpha 90.000000
_cell_angle_beta 90.000000
_cell_angle_gamma 90.000000
_cell_volume 2486.142539
_symmetry_space_group_name_H-M "P C C M"
_symmetry_group_IT_number 49
_symmetry_cell_setting 'orthorhombic'
loop_
_space_group_symop_operation_xyz
x,y,z
-x,-y,z
x,-y,1/2-z
-x,y,1/2-z
-x,-y,-z
x,y,-z
-x,y,1/2+z
x,-y,1/2+z
loop_
_atom_site_type_symbol
_atom_site_label
_atom_site_fract_x
_atom_site_fract_y
_atom_site_fract_z
Si Si1 0.101407 0.069557 0.818030
Si Si2 0.230088 0.178174 0.679849
Si Si3 0.895595 0.567368 0.817162
Si Si4 0.399243 0.759286 0.674348
Si Si5 0.786201 0.693057 0.825543
O O1 0.183968 0.119708 0.773740
O O2 0.000000 0.093742 0.750000
O O3 0.130204 0.000000 0.750000
O O4 0.092081 0.063949 0.000000
O O5 0.222113 0.164129 0.500000
O O6 0.342288 0.183874 0.732665
O O7 0.175538 0.246045 0.723354
O O8 0.854658 0.500000 0.750000
O O9 0.824655 0.624732 0.761110
O O10 0.000000 0.582576 0.750000
O O11 0.901590 0.561832 0.000000
O O12 0.500000 0.741758 0.750000
O O13 0.416205 0.782973 0.500000
O O14 0.331066 0.694722 0.678375
O O15 0.823691 0.703261 0.000000
#
# Coordination Sequence:
#
# PCOD8202935 Si02
#       5
#     8   8   8   8   8
#     4  11  21  35  52  73 102 136 170 204 243 291
#     4  10  19  32  51  76 100 130 166 203 247 292
#     4  10  19  32  48  69  97 132 165 200 242 291
#     4   9  17  32  51  74  99 126 161 203 251 296
#     4   8  18  33  48  69  99 129 162 204 247 288
#
# _framework density 16.089182999999998
#
# number of rings (size 3 to 8) (size 9 to 14) (size 15 to 20)
#    1.200    1.200    0.000    5.400    0.000    2.400 
#    0.000    2.000    0.000    1.200    0.000    8.400 
#    0.000    0.000    0.000    0.000    0.000    0.000 
#
# Total GULP energy -495626.616755 kJ/mol
# GULP energy per Si atom -12390.665419 kJ/mol
# Density = 1.605256 g / cm^3
# Si number density = 16.089183 Si / 1000 Ang^3
#
#
#
# Elastic Constant Matrix: (Units=GPa)
#
#
# Indices 1 2 3 4 5 6 
#
# 1 79.9515 55.1379 32.4448 0.0000 0.0000 0.0000
# 2 55.1379 96.0886 41.3865 0.0000 0.0000 0.0000
# 3 32.4448 41.3865 115.2891 0.0000 0.0000 0.0000
# 4 0.0000 0.0000 0.0000 26.0217 0.0000 0.0000
# 5 0.0000 0.0000 0.0000 0.0000 25.8010 0.0000
# 6 0.0000 0.0000 0.0000 0.0000 0.0000 8.4576
#
#
#
# Elastic Compliance Matrix: (Units=1/GPa)
#
#
# Indices 1 2 3 4 5 6 
#
# 1 0.021037 -0.011263 -0.001877 0.000000 0.000000 0.000000
# 2 -0.011263 0.018341 -0.003414 0.000000 0.000000 0.000000
# 3 -0.001877 -0.003414 0.010428 0.000000 0.000000 0.000000
# 4 0.000000 0.000000 0.000000 0.038429 0.000000 0.000000
# 5 0.000000 0.000000 0.000000 0.000000 0.038758 0.000000
# 6 0.000000 0.000000 0.000000 0.000000 0.000000 0.118237
#
#
# Mechanical properties :
#
#
# Convention : Reuss Voigt Hill
#
# Bulk Modulus (GPa) = 59.89247 61.02973 60.46110
# Shear Modulus (GPa) = 17.61163 22.88006 20.24585
#
# Velocity S-wave (km/s) = 3.31210 3.77514 3.55117
# Velocity P-wave (km/s) = 7.20644 7.55094 7.38070
#
# Compressibility (1/GPa) = 0.01669659
#
# Stress axis : x y z
#
# Youngs Moduli (GPa) = 47.53618 54.52407 95.89810
#
# Poissons Ratio (x) = 0.61410 0.18000
# Poissons Ratio (y) = 0.53539 0.32742
# Poissons Ratio (z) = 0.08923 0.18616
#
# Static dielectric constant tensor:
#      x y z
#    x 2.884300 0.000000 0.000000 
#    y 0.000000 2.988940 0.000000 
#    z 0.000000 0.000000 3.128140 
# 
# 
# High freq. dielectric constant tensor:
#      x y z
#    x 1.597160 0.000000 0.000000 
#    y 0.000000 1.602990 0.000000 
#    z 0.000000 0.000000 1.636560 
# 
# From -- ./inp_files/3816.got.cif
#   From: 2010.03.12/outbox.cif.g09.slc.cpg/sg49_2_cif.got.tgz:3816.got - 2010.04.14 03:58:27.
