data_PCOD8202606
_publ_section_title
;
Structure prediction by ZEFSAII (Michael W. Deem and Ramdas Pophale) SiO2 
 PCOD8202606
Probable space group: P C C M
;
_chemical_formula_sum "Si O2"
_cell_formula_units_Z 42
_cell_length_a 9.489777
_cell_length_b 12.290084
_cell_length_c 20.968834
_cell_angle_alpha 90.000000
_cell_angle_beta 90.000000
_cell_angle_gamma 90.000000
_cell_volume 2445.598390
_symmetry_space_group_name_H-M "P C C M"
_symmetry_group_IT_number 49
_symmetry_cell_setting 'orthorhombic'
loop_
_space_group_symop_operation_xyz
x,y,z
-x,-y,z
x,-y,1/2-z
-x,y,1/2-z
-x,-y,-z
x,y,-z
-x,y,1/2+z
x,-y,1/2+z
loop_
_atom_site_type_symbol
_atom_site_label
_atom_site_fract_x
_atom_site_fract_y
_atom_site_fract_z
Si Si1 0.500000 0.500000 0.750000
Si Si2 0.664163 0.870094 0.811412
Si Si3 0.844968 0.507873 0.572753
Si Si4 0.333644 0.105694 0.671585
Si Si5 0.342622 0.711194 0.073557
Si Si6 0.373754 0.642579 0.641566
O O1 0.403926 0.580136 0.707707
O O2 0.731184 0.860108 0.740271
O O3 0.497368 0.883500 0.813568
O O4 0.701455 0.759371 0.848090
O O5 0.718633 0.982285 0.844786
O O6 0.857092 0.471619 0.500000
O O7 0.787506 0.629613 0.579773
O O8 0.738304 0.424572 0.603239
O O9 0.000000 0.500000 0.604895
O O10 0.292804 0.182834 0.612829
O O11 0.481691 0.654372 0.102065
O O12 0.371432 0.743459 0.000000
#
# Coordination Sequence:
#
# PCOD8202606 Si02
#       6
#     2   8   8   8   8   8
#     4  12  20  28  52  78 104 132 166 210 250 308
#     4   8  15  26  47  68 100 127 159 197 248 297
#     4  10  21  36  51  69  99 136 169 205 251 300
#     4   8  14  28  45  71  96 130 160 197 246 301
#     4  10  18  31  52  75 100 129 167 211 253 300
#     4  11  19  31  50  76 101 130 167 205 252 300
#
# _framework density 17.173711000000001
#
# number of rings (size 3 to 8) (size 9 to 14) (size 15 to 20)
#    0.000    2.476    1.905    4.000    0.000    1.524 
#    0.000    9.048    0.000    1.143    0.000    6.667 
#    0.000    0.000    0.000    0.000    0.000    0.000 
#
# Total GULP energy -520329.648682 kJ/mol
# GULP energy per Si atom -12388.801159 kJ/mol
# Density = 1.713462 g / cm^3
# Si number density = 17.173711 Si / 1000 Ang^3
#
#
#
# Elastic Constant Matrix: (Units=GPa)
#
#
# Indices 1 2 3 4 5 6 
#
# 1 60.0241 33.7508 31.8917 0.0000 0.0000 0.0000
# 2 33.7508 129.8066 67.0558 0.0000 0.0000 0.0000
# 3 31.8917 67.0558 97.6496 0.0000 0.0000 0.0000
# 4 0.0000 0.0000 0.0000 46.0886 0.0000 0.0000
# 5 0.0000 0.0000 0.0000 0.0000 3.3779 0.0000
# 6 0.0000 0.0000 0.0000 0.0000 0.0000 4.4921
#
#
#
# Elastic Compliance Matrix: (Units=1/GPa)
#
#
# Indices 1 2 3 4 5 6 
#
# 1 0.020863 -0.002952 -0.004787 0.000000 0.000000 0.000000
# 2 -0.002952 0.012357 -0.007521 0.000000 0.000000 0.000000
# 3 -0.004787 -0.007521 0.016969 0.000000 0.000000 0.000000
# 4 0.000000 0.000000 0.000000 0.021697 0.000000 0.000000
# 5 0.000000 0.000000 0.000000 0.000000 0.296044 0.000000
# 6 0.000000 0.000000 0.000000 0.000000 0.000000 0.222611
#
#
# Mechanical properties :
#
#
# Convention : Reuss Voigt Hill
#
# Bulk Modulus (GPa) = 50.84162 61.43075 56.13618
# Shear Modulus (GPa) = 7.96665 21.11052 14.53858
#
# Velocity S-wave (km/s) = 2.15614 3.50985 2.91273
# Velocity P-wave (km/s) = 5.98892 7.23002 6.63854
#
# Compressibility (1/GPa) = 0.01966893
#
# Stress axis : x y z
#
# Youngs Moduli (GPa) = 47.93176 80.92851 58.93171
#
# Poissons Ratio (x) = 0.23889 0.28209
# Poissons Ratio (y) = 0.14149 0.44324
# Poissons Ratio (z) = 0.22944 0.60868
#
# Static dielectric constant tensor:
#      x y z
#    x 2.974660 0.000000 0.000000 
#    y 0.000000 3.745670 0.000000 
#    z 0.000000 0.000000 3.347820 
# 
# 
# High freq. dielectric constant tensor:
#      x y z
#    x 1.608280 0.000000 0.000000 
#    y 0.000000 1.680820 0.000000 
#    z 0.000000 0.000000 1.660100 
# 
# From -- ./inp_files/22327.got.cif
#   From: 2010.03.12/outbox.cif.g09.slc.cpg/sg49_12_cif.got.tgz:22327.got - 2010.04.14 03:58:27.
