data_PCOD8202251
_publ_section_title
;
Structure prediction by ZEFSAII (Michael W. Deem and Ramdas Pophale) SiO2 
 PCOD8202251
Probable space group: P C C M
;
_chemical_formula_sum "Si O2"
_cell_formula_units_Z 64
_cell_length_a 26.692662
_cell_length_b 18.405627
_cell_length_c 8.703303
_cell_angle_alpha 90.000000
_cell_angle_beta 90.000000
_cell_angle_gamma 90.000000
_cell_volume 4275.890818
_symmetry_space_group_name_H-M "P C C M"
_symmetry_group_IT_number 49
_symmetry_cell_setting 'orthorhombic'
loop_
_space_group_symop_operation_xyz
x,y,z
-x,-y,z
x,-y,1/2-z
-x,y,1/2-z
-x,-y,-z
x,y,-z
-x,y,1/2+z
x,-y,1/2+z
loop_
_atom_site_type_symbol
_atom_site_label
_atom_site_fract_x
_atom_site_fract_y
_atom_site_fract_z
Si Si1 0.749909 0.158710 0.819941
Si Si2 0.349079 0.921177 0.182252
Si Si3 0.552446 0.340962 0.182152
Si Si4 0.848939 0.079977 0.183340
Si Si5 0.295479 0.712296 0.330562
Si Si6 0.353984 0.422409 0.183152
Si Si7 0.950069 0.080812 0.683064
Si Si8 0.400524 0.793135 0.672193
O O1 0.704257 0.109586 0.755436
O O2 0.802514 0.128412 0.757689
O O3 0.743632 0.243384 0.774049
O O4 0.749359 0.153673 0.000000
O O5 0.394149 0.869780 0.240805
O O6 0.358173 0.000000 0.250000
O O7 0.350202 0.924193 0.000000
O O8 0.500000 0.368664 0.250000
O O9 0.594224 0.395921 0.244005
O O10 0.561179 0.257982 0.235898
O O11 0.551773 0.344195 0.000000
O O12 0.899088 0.117627 0.253682
O O13 0.840816 0.000000 0.250000
O O14 0.853103 0.076121 0.000000
O O15 0.271759 0.708439 0.500000
O O16 0.308034 0.631358 0.268904
O O17 0.347692 0.753720 0.334280
O O18 0.339149 0.500000 0.250000
O O19 0.360260 0.423805 0.000000
O O20 0.951235 0.080541 0.500000
O O21 0.000000 0.120609 0.750000
O O22 0.949447 0.000000 0.750000
O O23 0.421154 0.806361 0.500000
#
# Coordination Sequence:
#
# PCOD8202251 Si02
#       8
#     8   8   8   8   8   8   8   8
#     4   9  18  28  40  58  82 109 139 171 208 249
#     4  10  18  28  42  62  84 109 138 171 210 250
#     4  11  21  34  51  70  90 113 137 165 198 238
#     4  10  18  27  37  54  78 105 138 179 219 256
#     4   8  16  29  45  62  83 108 136 165 197 237
#     4  10  20  34  50  71  93 115 140 168 198 233
#     4  10  17  26  38  51  68  96 133 175 218 260
#     4   9  17  31  47  64  84 108 137 169 201 241
#
# _framework density 14.967639999999999
#
# number of rings (size 3 to 8) (size 9 to 14) (size 15 to 20)
#    0.000    2.375    0.000    6.000    0.000    5.250 
#    0.000    1.250    0.000    0.375    0.000    2.625 
#    0.000    0.000    0.000    0.000    0.000    0.625 
#
# Total GULP energy -793296.115860 kJ/mol
# GULP energy per Si atom -12395.251810 kJ/mol
# Density = 1.493357 g / cm^3
# Si number density = 14.967640 Si / 1000 Ang^3
#
#
#
# Elastic Constant Matrix: (Units=GPa)
#
#
# Indices 1 2 3 4 5 6 
#
# 1 56.8506 29.6500 21.7762 0.0000 0.0000 0.0000
# 2 29.6500 92.4099 27.1485 0.0000 0.0000 0.0000
# 3 21.7762 27.1485 85.3540 0.0000 0.0000 0.0000
# 4 0.0000 0.0000 0.0000 24.2714 0.0000 0.0000
# 5 0.0000 0.0000 0.0000 0.0000 19.4776 0.0000
# 6 0.0000 0.0000 0.0000 0.0000 0.0000 11.7691
#
#
#
# Elastic Compliance Matrix: (Units=1/GPa)
#
#
# Indices 1 2 3 4 5 6 
#
# 1 0.022158 -0.006010 -0.003741 0.000000 0.000000 0.000000
# 2 -0.006010 0.013567 -0.002782 0.000000 0.000000 0.000000
# 3 -0.003741 -0.002782 0.013555 0.000000 0.000000 0.000000
# 4 0.000000 0.000000 0.000000 0.041201 0.000000 0.000000
# 5 0.000000 0.000000 0.000000 0.000000 0.051341 0.000000
# 6 0.000000 0.000000 0.000000 0.000000 0.000000 0.084968
#
#
# Mechanical properties :
#
#
# Convention : Reuss Voigt Hill
#
# Bulk Modulus (GPa) = 41.30008 43.52931 42.41469
# Shear Modulus (GPa) = 19.23611 21.50628 20.37120
#
# Velocity S-wave (km/s) = 3.58883 3.79470 3.69320
# Velocity P-wave (km/s) = 6.69520 6.95306 6.82535
#
# Compressibility (1/GPa) = 0.02421303
#
# Stress axis : x y z
#
# Youngs Moduli (GPa) = 45.13117 73.70821 73.77199
#
# Poissons Ratio (x) = 0.44300 0.27601
# Poissons Ratio (y) = 0.27125 0.20522
# Poissons Ratio (z) = 0.16885 0.20505
#
# Static dielectric constant tensor:
#      x y z
#    x 3.244570 0.000000 0.000000 
#    y 0.000000 2.904760 0.000000 
#    z 0.000000 0.000000 3.012060 
# 
# 
# High freq. dielectric constant tensor:
#      x y z
#    x 1.549450 0.000000 0.000000 
#    y 0.000000 1.542570 0.000000 
#    z 0.000000 0.000000 1.589270 
# 
# From -- ./inp_files/6784.got.cif
#   From: 2010.03.12/outbox.cif.g09.slc.cpg/sg49_4_cif.got.tgz:6784.got - 2010.04.14 03:58:27.
