data_PCOD8202731
_publ_section_title
;
Structure prediction by ZEFSAII (Michael W. Deem and Ramdas Pophale) SiO2 
 PCOD8202731
Probable space group: P C C M
;
_chemical_formula_sum "Si O2"
_cell_formula_units_Z 56
_cell_length_a 21.652180
_cell_length_b 18.519258
_cell_length_c 8.616941
_cell_angle_alpha 90.000000
_cell_angle_beta 90.000000
_cell_angle_gamma 90.000000
_cell_volume 3455.240887
_symmetry_space_group_name_H-M "P C C M"
_symmetry_group_IT_number 49
_symmetry_cell_setting 'orthorhombic'
loop_
_space_group_symop_operation_xyz
x,y,z
-x,-y,z
x,-y,1/2-z
-x,y,1/2-z
-x,-y,-z
x,y,-z
-x,y,1/2+z
x,-y,1/2+z
loop_
_atom_site_type_symbol
_atom_site_label
_atom_site_fract_x
_atom_site_fract_y
_atom_site_fract_z
Si Si1 0.679364 0.578327 0.313809
Si Si2 0.936018 0.921467 0.316935
Si Si3 0.565760 0.336874 0.683648
Si Si4 0.695882 0.922334 0.816651
Si Si5 0.371873 0.205478 0.671833
Si Si6 0.812604 0.155348 0.814634
Si Si7 0.246468 0.293068 0.330964
O O1 0.695008 0.500000 0.250000
O O2 0.677602 0.579848 0.500000
O O3 0.614075 0.605430 0.250717
O O4 0.734836 0.631216 0.248996
O O5 0.941368 0.927971 0.500000
O O6 0.881121 0.868222 0.265649
O O7 0.000000 0.889931 0.250000
O O8 0.921796 0.000000 0.250000
O O9 0.500000 0.360751 0.750000
O O10 0.566241 0.342020 0.500000
O O11 0.579698 0.254642 0.734634
O O12 0.641535 0.868446 0.762979
O O13 0.763430 0.899627 0.756538
O O14 0.678798 0.000000 0.750000
O O15 0.697870 0.924976 0.000000
O O16 0.398616 0.188384 0.500000
O O17 0.309121 0.248704 0.652918
O O18 0.801679 0.237696 0.747970
O O19 0.803388 0.154755 0.000000
O O20 0.219287 0.312008 0.500000
#
# Coordination Sequence:
#
# PCOD8202731 Si02
#       7
#     8   8   8   8   8   8   8
#     4  10  19  32  49  70  96 124 148 180 223 270
#     4  10  19  29  42  59  86 122 159 194 232 272
#     4  11  21  34  51  71  92 119 154 186 219 265
#     4  11  20  29  44  67  91 117 148 188 233 276
#     4   9  17  32  49  66  89 116 146 185 228 270
#     4   9  17  30  46  64  86 117 154 192 229 272
#     4   7  13  27  46  64  85 112 143 177 220 266
#
# _framework density 16.207263000000001
#
# number of rings (size 3 to 8) (size 9 to 14) (size 15 to 20)
#    0.000    2.429    0.000    6.429    0.000    2.571 
#    0.000    2.143    0.000    0.429    0.000    3.000 
#    0.000    0.571    0.000    7.143    0.000    0.000 
#
# Total GULP energy -693929.234878 kJ/mol
# GULP energy per Si atom -12391.593480 kJ/mol
# Density = 1.617037 g / cm^3
# Si number density = 16.207263 Si / 1000 Ang^3
#
#
#
# Elastic Constant Matrix: (Units=GPa)
#
#
# Indices 1 2 3 4 5 6 
#
# 1 60.8685 46.0418 19.0429 0.0000 0.0000 0.0000
# 2 46.0418 127.5494 32.2618 0.0000 0.0000 0.0000
# 3 19.0429 32.2618 84.9443 0.0000 0.0000 0.0000
# 4 0.0000 0.0000 0.0000 23.7576 0.0000 0.0000
# 5 0.0000 0.0000 0.0000 0.0000 16.6430 0.0000
# 6 0.0000 0.0000 0.0000 0.0000 0.0000 21.5781
#
#
#
# Elastic Compliance Matrix: (Units=1/GPa)
#
#
# Indices 1 2 3 4 5 6 
#
# 1 0.022969 -0.007732 -0.002213 0.000000 0.000000 0.000000
# 2 -0.007732 0.011276 -0.002549 0.000000 0.000000 0.000000
# 3 -0.002213 -0.002549 0.013237 0.000000 0.000000 0.000000
# 4 0.000000 0.000000 0.000000 0.042092 0.000000 0.000000
# 5 0.000000 0.000000 0.000000 0.000000 0.060085 0.000000
# 6 0.000000 0.000000 0.000000 0.000000 0.000000 0.046343
#
#
# Mechanical properties :
#
#
# Convention : Reuss Voigt Hill
#
# Bulk Modulus (GPa) = 44.45533 52.00614 48.23074
# Shear Modulus (GPa) = 21.88299 24.13013 23.00656
#
# Velocity S-wave (km/s) = 3.67849 3.86274 3.77174
# Velocity P-wave (km/s) = 6.74763 7.21472 6.98508
#
# Compressibility (1/GPa) = 0.02249449
#
# Stress axis : x y z
#
# Youngs Moduli (GPa) = 43.53607 88.68552 75.54749
#
# Poissons Ratio (x) = 0.68568 0.16718
# Poissons Ratio (y) = 0.33660 0.19259
# Poissons Ratio (z) = 0.09634 0.22608
#
# Static dielectric constant tensor:
#      x y z
#    x 3.055300 0.000000 0.000000 
#    y 0.000000 3.316400 0.000000 
#    z 0.000000 0.000000 3.092950 
# 
# 
# High freq. dielectric constant tensor:
#      x y z
#    x 1.590860 0.000000 0.000000 
#    y 0.000000 1.618500 0.000000 
#    z 0.000000 0.000000 1.626680 
# 
# From -- ./inp_files/5200.got.cif
#   From: 2010.03.12/outbox.cif.g09.slc.cpg/sg49_3_cif.got.tgz:5200.got - 2010.04.14 03:58:27.
