data_PCOD8202415
_publ_section_title
;
Structure prediction by ZEFSAII (Michael W. Deem and Ramdas Pophale) SiO2 
 PCOD8202415
Probable space group: P C C M
;
_chemical_formula_sum "Si O2"
_cell_formula_units_Z 26
_cell_length_a 16.958058
_cell_length_b 7.160434
_cell_length_c 8.752962
_cell_angle_alpha 90.000000
_cell_angle_beta 90.000000
_cell_angle_gamma 90.000000
_cell_volume 1062.846399
_symmetry_space_group_name_H-M "P C C M"
_symmetry_group_IT_number 49
_symmetry_cell_setting 'orthorhombic'
loop_
_space_group_symop_operation_xyz
x,y,z
-x,-y,z
x,-y,1/2-z
-x,y,1/2-z
-x,-y,-z
x,y,-z
-x,y,1/2+z
x,-y,1/2+z
loop_
_atom_site_type_symbol
_atom_site_label
_atom_site_fract_x
_atom_site_fract_y
_atom_site_fract_z
Si Si1 0.078276 0.292383 0.182045
Si Si2 0.765152 0.703486 0.319423
Si Si3 0.609252 0.825958 0.170129
Si Si4 0.500000 0.500000 0.250000
O O1 0.080072 0.500000 0.250000
O O2 0.158331 0.194127 0.243611
O O3 0.000000 0.190616 0.250000
O O4 0.075581 0.294063 0.000000
O O5 0.755739 0.500000 0.250000
O O6 0.776354 0.692486 0.500000
O O7 0.685766 0.809670 0.276963
O O8 0.556292 0.638614 0.154687
O O9 0.562815 0.000000 0.250000
O O10 0.635539 0.879099 0.000000
#
# Coordination Sequence:
#
# PCOD8202415 Si02
#       4
#     8   8   8   2
#     4  10  17  28  49  83 126 172 224 280 334 395
#     4  11  21  37  62  93 131 178 227 280 341 405
#     4  12  27  47  72 104 140 181 228 280 342 409
#     4  12  28  48  80 104 140 176 228 276 346 406
#
# _framework density 24.462612
#
# number of rings (size 3 to 8) (size 9 to 14) (size 15 to 20)
#    0.000    0.923    1.538   10.154    0.000    4.923 
#    0.000    0.000    0.000    0.923    0.000    6.462 
#    0.000    0.000    0.000    0.000    0.000    0.000 
#
# Total GULP energy -322173.574169 kJ/mol
# GULP energy per Si atom -12391.291314 kJ/mol
# Density = 2.440693 g / cm^3
# Si number density = 24.462612 Si / 1000 Ang^3
#
#
#
# Elastic Constant Matrix: (Units=GPa)
#
#
# Indices 1 2 3 4 5 6 
#
# 1 175.1913 30.8466 63.8026 0.0000 0.0000 0.0000
# 2 30.8466 100.9494 38.3053 0.0000 0.0000 0.0000
# 3 63.8026 38.3053 255.0758 0.0000 0.0000 0.0000
# 4 0.0000 0.0000 0.0000 21.9031 0.0000 0.0000
# 5 0.0000 0.0000 0.0000 0.0000 34.7508 0.0000
# 6 0.0000 0.0000 0.0000 0.0000 0.0000 -18.1585
#
#
#
# Elastic Compliance Matrix: (Units=1/GPa)
#
#
# Indices 1 2 3 4 5 6 
#
# 1 0.006473 -0.001446 -0.001402 0.000000 0.000000 0.000000
# 2 -0.001446 0.010828 -0.001264 0.000000 0.000000 0.000000
# 3 -0.001402 -0.001264 0.004461 0.000000 0.000000 0.000000
# 4 0.000000 0.000000 0.000000 0.045656 0.000000 0.000000
# 5 0.000000 0.000000 0.000000 0.000000 0.028776 0.000000
# 6 0.000000 0.000000 0.000000 0.000000 0.000000 -0.055071
#
#
# Mechanical properties :
#
#
# Convention : Reuss Voigt Hill
#
# Bulk Modulus (GPa) = 73.87109 88.56950 81.22030
# Shear Modulus (GPa) = 92.83301 34.24988 63.54144
#
# Velocity S-wave (km/s) = 6.16695 3.74584 5.10209
# Velocity P-wave (km/s) = 8.99842 7.41573 8.24514
#
# Compressibility (1/GPa) = 0.01353710
#
# Stress axis : x y z
#
# Youngs Moduli (GPa) = 154.48201 92.35710 224.16730
#
# Poissons Ratio (x) = 0.13355 0.31429
# Poissons Ratio (y) = 0.22338 0.28342
# Poissons Ratio (z) = 0.21659 0.11677
#
# Static dielectric constant tensor:
#      x y z
#    x 5.959890 0.000000 0.000000 
#    y 0.000000 4.247190 0.000000 
#    z 0.000000 0.000000 4.157330 
# 
# 
# High freq. dielectric constant tensor:
#      x y z
#    x 2.002120 0.000000 0.000000 
#    y 0.000000 1.953610 0.000000 
#    z 0.000000 0.000000 1.975050 
# 
# From -- ./inp_files/4613.got.cif
#   From: 2010.03.12/outbox.cif.g09.slc.cpg/sg49_3_cif.got.tgz:4613.got - 2010.04.14 03:58:27.
