data_PCOD8202208
_publ_section_title
;
Structure prediction by ZEFSAII (Michael W. Deem and Ramdas Pophale) SiO2 
 PCOD8202208
Probable space group: P C C M
;
_chemical_formula_sum "Si O2"
_cell_formula_units_Z 48
_cell_length_a 9.253364
_cell_length_b 31.449665
_cell_length_c 8.577220
_cell_angle_alpha 90.000000
_cell_angle_beta 90.000000
_cell_angle_gamma 90.000000
_cell_volume 2496.101376
_symmetry_space_group_name_H-M "P C C M"
_symmetry_group_IT_number 49
_symmetry_cell_setting 'orthorhombic'
loop_
_space_group_symop_operation_xyz
x,y,z
-x,-y,z
x,-y,1/2-z
-x,y,1/2-z
-x,-y,-z
x,y,-z
-x,y,1/2+z
x,-y,1/2+z
loop_
_atom_site_type_symbol
_atom_site_label
_atom_site_fract_x
_atom_site_fract_y
_atom_site_fract_z
Si Si1 0.659218 0.205692 0.816376
Si Si2 0.160219 0.280198 0.181905
Si Si3 0.156925 0.625800 0.320808
Si Si4 0.840591 0.870828 0.816102
Si Si5 0.161590 0.457542 0.317135
Si Si6 0.161264 0.957409 0.815482
O O1 0.500000 0.208392 0.750000
O O2 0.737209 0.249859 0.780149
O O3 0.740382 0.168000 0.729241
O O4 0.657816 0.197175 0.000000
O O5 0.228761 0.327740 0.201458
O O6 0.000000 0.276708 0.250000
O O7 0.156465 0.267127 0.000000
O O8 0.143895 0.613162 0.500000
O O9 0.241003 0.586553 0.235536
O O10 0.000000 0.630638 0.250000
O O11 0.766871 0.913811 0.746192
O O12 0.000000 0.862584 0.750000
O O13 0.851791 0.875433 0.000000
O O14 0.239920 0.500000 0.250000
O O15 0.159284 0.461052 0.500000
O O16 0.000000 0.455550 0.250000
O O17 0.000000 0.957092 0.750000
O O18 0.240909 0.000000 0.750000
O O19 0.162062 0.958443 0.000000
#
# Coordination Sequence:
#
# PCOD8202208 Si02
#       6
#     8   8   8   8   8   8
#     4  12  25  41  58  78 105 138 175 218 266 318
#     4  10  20  35  55  79 105 136 173 216 262 312
#     4   9  16  26  41  62  90 122 160 202 247 296
#     4  11  21  36  57  83 112 144 181 221 263 310
#     4  10  16  22  33  51  81 119 159 197 241 294
#     4  10  17  28  47  76 110 143 177 217 262 306
#
# _framework density 19.229989
#
# number of rings (size 3 to 8) (size 9 to 14) (size 15 to 20)
#    0.000    1.667    0.000   10.500    0.000    2.000 
#    0.000    0.000    0.000    0.500    0.000    3.500 
#    0.000    0.667    0.000    7.000    0.000    5.167 
#
# Total GULP energy -594890.946023 kJ/mol
# GULP energy per Si atom -12393.561375 kJ/mol
# Density = 1.918622 g / cm^3
# Si number density = 19.229989 Si / 1000 Ang^3
#
#
#
# Elastic Constant Matrix: (Units=GPa)
#
#
# Indices 1 2 3 4 5 6 
#
# 1 51.1235 36.4441 20.2249 0.0000 0.0000 0.0000
# 2 36.4441 166.0582 56.1530 0.0000 0.0000 0.0000
# 3 20.2249 56.1530 172.2221 0.0000 0.0000 0.0000
# 4 0.0000 0.0000 0.0000 41.2749 0.0000 0.0000
# 5 0.0000 0.0000 0.0000 0.0000 19.2003 0.0000
# 6 0.0000 0.0000 0.0000 0.0000 0.0000 -3.9942
#
#
#
# Elastic Compliance Matrix: (Units=1/GPa)
#
#
# Indices 1 2 3 4 5 6 
#
# 1 0.023409 -0.004729 -0.001207 0.000000 0.000000 0.000000
# 2 -0.004729 0.007724 -0.001963 0.000000 0.000000 0.000000
# 3 -0.001207 -0.001963 0.006588 0.000000 0.000000 0.000000
# 4 0.000000 0.000000 0.000000 0.024228 0.000000 0.000000
# 5 0.000000 0.000000 0.000000 0.000000 0.052083 0.000000
# 6 0.000000 0.000000 0.000000 0.000000 0.000000 -0.250364
#
#
# Mechanical properties :
#
#
# Convention : Reuss Voigt Hill
#
# Bulk Modulus (GPa) = 45.61510 68.33864 56.97687
# Shear Modulus (GPa) = -44.15928 29.73500 -7.21214
#
# Velocity S-wave (km/s) = -4.79725 3.93655 -1.93871
# Velocity P-wave (km/s) = 2.62916 7.50177 4.96810
#
# Compressibility (1/GPa) = 0.02192257
#
# Stress axis : x y z
#
# Youngs Moduli (GPa) = 42.71788 129.47185 151.78622
#
# Poissons Ratio (x) = 0.61232 0.18322
# Poissons Ratio (y) = 0.20203 0.29794
# Poissons Ratio (z) = 0.05156 0.25414
#
# Static dielectric constant tensor:
#      x y z
#    x 2.906330 0.000000 0.000000 
#    y 0.000000 5.147740 0.000000 
#    z 0.000000 0.000000 4.029600 
# 
# 
# High freq. dielectric constant tensor:
#      x y z
#    x 1.663100 0.000000 0.000000 
#    y 0.000000 1.788670 0.000000 
#    z 0.000000 0.000000 1.773870 
# 
# From -- ./inp_files/2078.got.cif
#   From: 2010.03.12/outbox.cif.g09.slc.cpg/sg49_2_cif.got.tgz:2078.got - 2010.04.14 03:58:27.
