data_PCOD8202674
_publ_section_title
;
Structure prediction by ZEFSAII (Michael W. Deem and Ramdas Pophale) SiO2 
 PCOD8202674
Probable space group: P C C M
;
_chemical_formula_sum "Si O2"
_cell_formula_units_Z 48
_cell_length_a 14.003895
_cell_length_b 19.234559
_cell_length_c 9.908815
_cell_angle_alpha 90.000000
_cell_angle_beta 90.000000
_cell_angle_gamma 90.000000
_cell_volume 2669.025969
_symmetry_space_group_name_H-M "P C C M"
_symmetry_group_IT_number 49
_symmetry_cell_setting 'orthorhombic'
loop_
_space_group_symop_operation_xyz
x,y,z
-x,-y,z
x,-y,1/2-z
-x,y,1/2-z
-x,-y,-z
x,y,-z
-x,y,1/2+z
x,-y,1/2+z
loop_
_atom_site_type_symbol
_atom_site_label
_atom_site_fract_x
_atom_site_fract_y
_atom_site_fract_z
Si Si1 0.802774 0.927349 0.500000
Si Si2 0.606161 0.144469 0.500000
Si Si3 0.095920 0.436397 0.336076
Si Si4 0.394162 0.137635 0.500000
Si Si5 0.394508 0.760230 0.246405
Si Si6 0.887042 0.841734 0.742456
Si Si7 0.209633 0.703163 0.843113
Si Si8 0.198039 0.913275 0.500000
O O1 0.686870 0.921792 0.500000
O O2 0.848272 0.891222 0.627536
O O3 0.835178 0.007231 0.500000
O O4 0.502295 0.106657 0.500000
O O5 0.622668 0.195724 0.377691
O O6 0.686415 0.085214 0.500000
O O7 0.143369 0.500000 0.250000
O O8 0.079042 0.451071 0.500000
O O9 0.164927 0.371654 0.318948
O O10 0.000000 0.420519 0.250000
O O11 0.380430 0.184995 0.371386
O O12 0.500000 0.725378 0.250000
O O13 0.313945 0.701273 0.227972
O O14 0.856583 0.761954 0.722734
O O15 0.000000 0.844968 0.750000
O O16 0.841888 0.870981 0.876217
O O17 0.220924 0.720613 0.000000
#
# Coordination Sequence:
#
# PCOD8202674 Si02
#       8
#     4   4   8   4   8   8   8   4
#     4  12  23  41  58  73 111 158 185 233 304 359
#     4  10  20  34  53  88 108 134 185 247 295 334
#     4  10  21  39  61  90 125 159 191 226 279 337
#     4  10  18  36  61  72 110 148 181 231 295 370
#     4  10  18  33  57  83 111 144 184 232 289 342
#     4  12  24  40  56  79 109 147 200 241 283 340
#     4  11  20  38  63  85 114 153 190 231 284 338
#     4  12  25  37  56  83 111 142 193 251 292 341
#
# _framework density 17.984089000000001
#
# number of rings (size 3 to 8) (size 9 to 14) (size 15 to 20)
#    0.000    1.167    5.000    2.500    0.000    2.333 
#    6.000    0.000    0.000    5.500    0.000    2.333 
#    0.000    0.000    0.000    0.000    0.000    0.000 
#
# Total GULP energy -594819.391764 kJ/mol
# GULP energy per Si atom -12392.070662 kJ/mol
# Density = 1.794316 g / cm^3
# Si number density = 17.984089 Si / 1000 Ang^3
#
#
#
# Elastic Constant Matrix: (Units=GPa)
#
#
# Indices 1 2 3 4 5 6 
#
# 1 146.1908 56.3837 43.5977 0.0000 0.0000 0.0000
# 2 56.3837 105.5817 44.2532 0.0000 0.0000 0.0000
# 3 43.5977 44.2532 141.5499 0.0000 0.0000 0.0000
# 4 0.0000 0.0000 0.0000 41.8536 0.0000 0.0000
# 5 0.0000 0.0000 0.0000 0.0000 41.3921 0.0000
# 6 0.0000 0.0000 0.0000 0.0000 0.0000 25.8975
#
#
#
# Elastic Compliance Matrix: (Units=1/GPa)
#
#
# Indices 1 2 3 4 5 6 
#
# 1 0.008862 -0.004130 -0.001438 0.000000 0.000000 0.000000
# 2 -0.004130 0.012824 -0.002737 0.000000 0.000000 0.000000
# 3 -0.001438 -0.002737 0.008363 0.000000 0.000000 0.000000
# 4 0.000000 0.000000 0.000000 0.023893 0.000000 0.000000
# 5 0.000000 0.000000 0.000000 0.000000 0.024159 0.000000
# 6 0.000000 0.000000 0.000000 0.000000 0.000000 0.038614
#
#
# Mechanical properties :
#
#
# Convention : Reuss Voigt Hill
#
# Bulk Modulus (GPa) = 74.41185 75.75462 75.08323
# Shear Modulus (GPa) = 36.28291 38.43447 37.35869
#
# Velocity S-wave (km/s) = 4.49653 4.62793 4.56271
# Velocity P-wave (km/s) = 8.27192 8.41259 8.34255
#
# Compressibility (1/GPa) = 0.01343872
#
# Stress axis : x y z
#
# Youngs Moduli (GPa) = 112.83962 77.97875 119.56779
#
# Poissons Ratio (x) = 0.32203 0.17199
# Poissons Ratio (y) = 0.46600 0.32729
# Poissons Ratio (z) = 0.16232 0.21345
#
# Static dielectric constant tensor:
#      x y z
#    x 3.771150 0.000000 0.000000 
#    y 0.000000 3.174540 0.000000 
#    z 0.000000 0.000000 3.513930 
# 
# 
# High freq. dielectric constant tensor:
#      x y z
#    x 1.709220 0.000000 0.000000 
#    y 0.000000 1.669070 0.000000 
#    z 0.000000 0.000000 1.720810 
# 
# From -- ./inp_files/3791.got.cif
#   From: 2010.03.12/outbox.cif.g09.slc.cpg/sg49_2_cif.got.tgz:3791.got - 2010.04.14 03:58:27.
