data_PCOD8202268
_publ_section_title
;
Structure prediction by ZEFSAII (Michael W. Deem and Ramdas Pophale) SiO2 
 PCOD8202268
Probable space group: P C C M
;
_chemical_formula_sum "Si O2"
_cell_formula_units_Z 64
_cell_length_a 21.143938
_cell_length_b 21.876782
_cell_length_c 8.990470
_cell_angle_alpha 90.000000
_cell_angle_beta 90.000000
_cell_angle_gamma 90.000000
_cell_volume 4158.643691
_symmetry_space_group_name_H-M "P C C M"
_symmetry_group_IT_number 49
_symmetry_cell_setting 'orthorhombic'
loop_
_space_group_symop_operation_xyz
x,y,z
-x,-y,z
x,-y,1/2-z
-x,y,1/2-z
-x,-y,-z
x,y,-z
-x,y,1/2+z
x,-y,1/2+z
loop_
_atom_site_type_symbol
_atom_site_label
_atom_site_fract_x
_atom_site_fract_y
_atom_site_fract_z
Si Si1 0.252560 0.168429 0.671760
Si Si2 0.645609 0.746174 0.335934
Si Si3 0.564816 0.657862 0.828493
Si Si4 0.676016 0.564271 0.825140
Si Si5 0.762525 0.654143 0.330995
Si Si6 0.832155 0.063583 0.168952
Si Si7 0.933636 0.834770 0.676684
Si Si8 0.843835 0.253442 0.675818
O O1 0.233706 0.186899 0.500000
O O2 0.326968 0.185277 0.698915
O O3 0.236388 0.096676 0.694191
O O4 0.211481 0.205432 0.790348
O O5 0.615187 0.743591 0.500000
O O6 0.591631 0.724055 0.223054
O O7 0.707052 0.703680 0.326721
O O8 0.500000 0.640176 0.750000
O O9 0.615292 0.605881 0.789080
O O10 0.550230 0.662769 0.000000
O O11 0.661963 0.500000 0.750000
O O12 0.739033 0.593580 0.754509
O O13 0.686448 0.556529 0.000000
O O14 0.780530 0.636875 0.500000
O O15 0.824095 0.681118 0.246765
O O16 0.886967 0.109874 0.221479
O O17 0.834901 0.000000 0.250000
O O18 0.843247 0.046538 0.000000
O O19 0.939647 0.826979 0.500000
O O20 0.907966 0.771368 0.747485
O O21 0.000000 0.851241 0.750000
O O22 0.853585 0.260763 0.500000
#
# Coordination Sequence:
#
# PCOD8202268 Si02
#       8
#     8   8   8   8   8   8   8   8
#     4   8  15  28  43  60  82 109 138 173 217 261
#     4   8  14  26  44  61  79 104 135 172 217 258
#     4  10  20  31  43  60  84 113 147 181 214 253
#     4  10  20  32  45  63  86 115 150 185 217 254
#     4   9  16  28  45  63  84 110 138 174 218 260
#     4   9  18  30  43  60  85 115 148 181 214 253
#     4  10  20  33  45  60  84 115 150 185 219 257
#     4  10  17  26  43  65  85 107 137 175 218 262
#
# _framework density 15.389633
#
# number of rings (size 3 to 8) (size 9 to 14) (size 15 to 20)
#    0.000    2.750    0.000    4.125    0.000    7.500 
#    0.000    2.500    0.000    0.000    0.000    0.000 
#    0.000    1.000    0.000   10.750    0.000    5.500 
#
# Total GULP energy -793107.995346 kJ/mol
# GULP energy per Si atom -12392.312427 kJ/mol
# Density = 1.535461 g / cm^3
# Si number density = 15.389633 Si / 1000 Ang^3
#
#
#
# Elastic Constant Matrix: (Units=GPa)
#
#
# Indices 1 2 3 4 5 6 
#
# 1 49.7122 60.1983 42.6537 0.0000 0.0000 0.0000
# 2 60.1983 74.9016 54.9134 0.0000 0.0000 0.0000
# 3 42.6537 54.9134 99.0600 0.0000 0.0000 0.0000
# 4 0.0000 0.0000 0.0000 25.8208 0.0000 0.0000
# 5 0.0000 0.0000 0.0000 0.0000 23.6891 0.0000
# 6 0.0000 0.0000 0.0000 0.0000 0.0000 10.8697
#
#
#
# Elastic Compliance Matrix: (Units=1/GPa)
#
#
# Indices 1 2 3 4 5 6 
#
# 1 0.773000 -0.635524 0.019457 0.000000 0.000000 0.000000
# 2 -0.635524 0.544989 -0.028465 0.000000 0.000000 0.000000
# 3 0.019457 -0.028465 0.017496 0.000000 0.000000 0.000000
# 4 0.000000 0.000000 0.000000 0.038729 0.000000 0.000000
# 5 0.000000 0.000000 0.000000 0.000000 0.042214 0.000000
# 6 0.000000 0.000000 0.000000 0.000000 0.000000 0.091999
#
#
# Mechanical properties :
#
#
# Convention : Reuss Voigt Hill
#
# Bulk Modulus (GPa) = 21.54130 59.91163 40.72647
# Shear Modulus (GPa) = 1.77748 16.46980 9.12364
#
# Velocity S-wave (km/s) = 1.07587 3.27492 2.43748
# Velocity P-wave (km/s) = 3.94601 7.30168 5.86880
#
# Compressibility (1/GPa) = 0.04642246
#
# Stress axis : x y z
#
# Youngs Moduli (GPa) = 1.29366 1.83490 57.15480
#
# Poissons Ratio (x) = 1.16612 -1.11208
# Poissons Ratio (y) = 0.82215 1.62692
# Poissons Ratio (z) = -0.02517 0.05223
#
# Static dielectric constant tensor:
#      x y z
#    x 2.892610 0.000000 0.000000 
#    y 0.000000 2.942940 0.000000 
#    z 0.000000 0.000000 3.041030 
# 
# 
# High freq. dielectric constant tensor:
#      x y z
#    x 1.559880 0.000000 0.000000 
#    y 0.000000 1.564980 0.000000 
#    z 0.000000 0.000000 1.603370 
# 
# From -- ./inp_files/5412.got.cif
#   From: 2010.03.12/outbox.cif.g09.slc.cpg/sg49_3_cif.got.tgz:5412.got - 2010.04.14 03:58:27.
