data_PCOD8202335
_publ_section_title
;
Structure prediction by ZEFSAII (Michael W. Deem and Ramdas Pophale) SiO2 
 PCOD8202335
Probable space group: P C C M
;
_chemical_formula_sum "Si O2"
_cell_formula_units_Z 40
_cell_length_a 25.827032
_cell_length_b 9.236126
_cell_length_c 8.570894
_cell_angle_alpha 90.000000
_cell_angle_beta 90.000000
_cell_angle_gamma 90.000000
_cell_volume 2044.515812
_symmetry_space_group_name_H-M "P C C M"
_symmetry_group_IT_number 49
_symmetry_cell_setting 'orthorhombic'
loop_
_space_group_symop_operation_xyz
x,y,z
-x,-y,z
x,-y,1/2-z
-x,y,1/2-z
-x,-y,-z
x,y,-z
-x,y,1/2+z
x,-y,1/2+z
loop_
_atom_site_type_symbol
_atom_site_label
_atom_site_fract_x
_atom_site_fract_y
_atom_site_fract_z
Si Si1 0.051942 0.661722 0.184786
Si Si2 0.556481 0.153324 0.184829
Si Si3 0.255601 0.840679 0.684025
Si Si4 0.354096 0.658346 0.685245
Si Si5 0.157436 0.660333 0.314865
O O1 0.052230 0.500000 0.250000
O O2 0.104781 0.734532 0.247903
O O3 0.000000 0.741275 0.250000
O O4 0.051070 0.662472 0.000000
O O5 0.500000 0.189048 0.250000
O O6 0.593696 0.280887 0.239614
O O7 0.577047 0.000000 0.250000
O O8 0.554300 0.144854 0.000000
O O9 0.254689 0.848685 0.500000
O O10 0.306343 0.756432 0.742151
O O11 0.204779 0.757851 0.745388
O O12 0.256688 0.000000 0.750000
O O13 0.343617 0.500000 0.750000
O O14 0.359599 0.655191 0.500000
O O15 0.165907 0.500000 0.250000
O O16 0.154082 0.652685 0.500000
#
# Coordination Sequence:
#
# PCOD8202335 Si02
#       5
#     8   8   8   8   8
#     4  10  17  27  45  72 104 140 176 219 268 320
#     4  11  22  39  62  89 119 155 193 234 278 331
#     4  10  23  39  58  81 110 145 185 227 275 331
#     4  11  23  40  60  87 117 150 189 234 283 334
#     4  10  19  33  52  79 109 141 179 224 271 323
#
# _framework density 19.564534999999999
#
# number of rings (size 3 to 8) (size 9 to 14) (size 15 to 20)
#    0.000    1.600    0.000    8.400    0.000    5.200 
#    0.000    2.000    0.000    0.600    0.000    4.200 
#    0.000    0.000    0.000    0.000    0.000    0.000 
#
# Total GULP energy -496049.683008 kJ/mol
# GULP energy per Si atom -12401.242075 kJ/mol
# Density = 1.952001 g / cm^3
# Si number density = 19.564535 Si / 1000 Ang^3
#
#
#
# Elastic Constant Matrix: (Units=GPa)
#
#
# Indices 1 2 3 4 5 6 
#
# 1 159.1644 75.9547 56.8815 0.0000 0.0000 0.0000
# 2 75.9547 115.3578 38.2520 0.0000 0.0000 0.0000
# 3 56.8815 38.2520 128.9297 0.0000 0.0000 0.0000
# 4 0.0000 0.0000 0.0000 28.8462 0.0000 0.0000
# 5 0.0000 0.0000 0.0000 0.0000 30.5927 0.0000
# 6 0.0000 0.0000 0.0000 0.0000 0.0000 18.4797
#
#
#
# Elastic Compliance Matrix: (Units=1/GPa)
#
#
# Indices 1 2 3 4 5 6 
#
# 1 0.009949 -0.005651 -0.002713 0.000000 0.000000 0.000000
# 2 -0.005651 0.012825 -0.001312 0.000000 0.000000 0.000000
# 3 -0.002713 -0.001312 0.009342 0.000000 0.000000 0.000000
# 4 0.000000 0.000000 0.000000 0.034667 0.000000 0.000000
# 5 0.000000 0.000000 0.000000 0.000000 0.032687 0.000000
# 6 0.000000 0.000000 0.000000 0.000000 0.000000 0.054114
#
#
# Mechanical properties :
#
#
# Convention : Reuss Voigt Hill
#
# Bulk Modulus (GPa) = 78.34205 82.84758 80.59481
# Shear Modulus (GPa) = 28.21838 31.07463 29.64650
#
# Velocity S-wave (km/s) = 3.80191 3.98969 3.89693
# Velocity P-wave (km/s) = 7.70730 7.97880 7.84423
#
# Compressibility (1/GPa) = 0.01276454
#
# Stress axis : x y z
#
# Youngs Moduli (GPa) = 100.51169 77.97540 107.04205
#
# Poissons Ratio (x) = 0.44066 0.29037
# Poissons Ratio (y) = 0.56802 0.14040
# Poissons Ratio (z) = 0.27266 0.10228
#
# Static dielectric constant tensor:
#      x y z
#    x 4.403660 0.000000 0.000000 
#    y 0.000000 3.304880 0.000000 
#    z 0.000000 0.000000 3.620730 
# 
# 
# High freq. dielectric constant tensor:
#      x y z
#    x 1.789280 0.000000 0.000000 
#    y 0.000000 1.731750 0.000000 
#    z 0.000000 0.000000 1.775560 
# 
# From -- ./inp_files/1885.got.cif
#   From: 2010.03.12/outbox.cif.g09.slc.cpg/sg49_1_cif.got.tgz:1885.got - 2010.04.14 03:58:27.
