data_PCOD8202144
_publ_section_title
;
Structure prediction by ZEFSAII (Michael W. Deem and Ramdas Pophale) SiO2 
 PCOD8202144
Probable space group: P N N N
;
_chemical_formula_sum "Si O2"
_cell_formula_units_Z 40
_cell_length_a 8.690208
_cell_length_b 12.181665
_cell_length_c 16.207668
_cell_angle_alpha 90.000000
_cell_angle_beta 90.000000
_cell_angle_gamma 90.000000
_cell_volume 1715.763226
_symmetry_space_group_name_H-M "P N N N"
_symmetry_group_IT_number 48
_space_group.IT_coordinate_system_code '2'
_symmetry_cell_setting 'orthorhombic'
loop_
_space_group_symop_operation_xyz
x,y,z
1/2-x,1/2-y,z
x,1/2-y,1/2-z
1/2-x,y,1/2-z
-x,-y,-z
1/2+x,1/2+y,-z
-x,1/2+y,1/2+z
1/2+x,-y,1/2+z
loop_
_atom_site_type_symbol
_atom_site_label
_atom_site_fract_x
_atom_site_fract_y
_atom_site_fract_z
Si Si1 0.664836 0.398746 0.836574
Si Si2 0.406659 0.536427 0.655268
Si Si3 0.424436 0.217286 0.067575
Si Si4 0.964158 0.185393 0.612266
Si Si5 0.431883 0.915175 0.656902
O O1 0.750000 0.425570 0.750000
O O2 0.796205 0.370279 0.904261
O O3 0.555280 0.291444 0.828228
O O4 0.565216 0.500081 0.870200
O O5 0.533214 0.593662 0.596025
O O6 0.433389 0.405566 0.659087
O O7 0.234052 0.550849 0.621029
O O8 0.425919 0.590237 0.744579
O O9 0.250000 0.250000 0.087233
O O10 0.533742 0.296723 0.119803
O O11 0.456554 0.226726 0.970957
#
# Coordination Sequence:
#
# PCOD8202144 Si02
#       5
#     8   8   8   8   8
#     4  11  24  46  78 104 134 189 239 292 355 435
#     4  11  25  47  72 104 143 188 241 301 355 430
#     4  12  28  46  69 105 146 192 238 294 368 434
#     4  11  25  44  71 104 142 181 234 298 356 427
#     4  11  26  45  75 103 141 189 242 298 356 428
#
# _framework density 23.313241999999999
#
# number of rings (size 3 to 8) (size 9 to 14) (size 15 to 20)
#    0.000    0.800    2.000    4.200    8.400    3.200 
#    0.000    2.000    0.000    0.000    0.000    0.000 
#    0.000    0.000    0.000    0.000    0.000    0.000 
#
# Total GULP energy -496011.757009 kJ/mol
# GULP energy per Si atom -12400.293925 kJ/mol
# Density = 2.326018 g / cm^3
# Si number density = 23.313242 Si / 1000 Ang^3
#
#
#
# Elastic Constant Matrix: (Units=GPa)
#
#
# Indices 1 2 3 4 5 6 
#
# 1 123.2857 25.4624 6.7593 0.0000 0.0000 0.0000
# 2 25.4624 101.5875 11.5211 0.0000 0.0000 0.0000
# 3 6.7593 11.5211 64.2833 0.0000 0.0000 0.0000
# 4 0.0000 0.0000 0.0000 28.6309 0.0000 0.0000
# 5 0.0000 0.0000 0.0000 0.0000 35.1217 0.0000
# 6 0.0000 0.0000 0.0000 0.0000 0.0000 46.5327
#
#
#
# Elastic Compliance Matrix: (Units=1/GPa)
#
#
# Indices 1 2 3 4 5 6 
#
# 1 0.008572 -0.002089 -0.000527 0.000000 0.000000 0.000000
# 2 -0.002089 0.010557 -0.001672 0.000000 0.000000 0.000000
# 3 -0.000527 -0.001672 0.015911 0.000000 0.000000 0.000000
# 4 0.000000 0.000000 0.000000 0.034927 0.000000 0.000000
# 5 0.000000 0.000000 0.000000 0.000000 0.028472 0.000000
# 6 0.000000 0.000000 0.000000 0.000000 0.000000 0.021490
#
#
# Mechanical properties :
#
#
# Convention : Reuss Voigt Hill
#
# Bulk Modulus (GPa) = 37.78769 41.84915 39.81842
# Shear Modulus (GPa) = 36.40947 38.41798 37.41373
#
# Velocity S-wave (km/s) = 3.95619 4.06384 4.01038
# Velocity P-wave (km/s) = 6.09200 6.32531 6.20975
#
# Compressibility (1/GPa) = 0.02646364
#
# Stress axis : x y z
#
# Youngs Moduli (GPa) = 116.66569 94.72467 62.84845
#
# Poissons Ratio (x) = 0.19785 0.03312
# Poissons Ratio (y) = 0.24367 0.10511
# Poissons Ratio (z) = 0.06148 0.15842
#
# Static dielectric constant tensor:
#      x y z
#    x 4.518200 0.000000 0.000000 
#    y 0.000000 4.248400 0.000000 
#    z 0.000000 0.000000 3.850840 
# 
# 
# High freq. dielectric constant tensor:
#      x y z
#    x 1.932520 0.000000 0.000000 
#    y 0.000000 1.932990 0.000000 
#    z 0.000000 0.000000 1.899810 
# 
# From -- ./inp_files/30008.got.cif
#   From: 2010.06.25/outbox.cif.g09.slc.cpg/sg48_16_cif.got.tgz:30008.got - 2010.06.26 18:06:46.
