data_PCOD8202350
_publ_section_title
;
Structure prediction by ZEFSAII (Michael W. Deem and Ramdas Pophale) SiO2 
 PCOD8202350
Probable space group: P C C M
;
_chemical_formula_sum "Si O2"
_cell_formula_units_Z 64
_cell_length_a 23.586936
_cell_length_b 15.247036
_cell_length_c 8.673178
_cell_angle_alpha 90.000000
_cell_angle_beta 90.000000
_cell_angle_gamma 90.000000
_cell_volume 3119.142483
_symmetry_space_group_name_H-M "P C C M"
_symmetry_group_IT_number 49
_symmetry_cell_setting 'orthorhombic'
loop_
_space_group_symop_operation_xyz
x,y,z
-x,-y,z
x,-y,1/2-z
-x,y,1/2-z
-x,-y,-z
x,y,-z
-x,y,1/2+z
x,-y,1/2+z
loop_
_atom_site_type_symbol
_atom_site_label
_atom_site_fract_x
_atom_site_fract_y
_atom_site_fract_z
Si Si1 0.727164 0.091419 0.181312
Si Si2 0.856987 0.092456 0.817355
Si Si3 0.105982 0.592671 0.816733
Si Si4 0.560955 0.265868 0.681355
Si Si5 0.940812 0.766575 0.817166
Si Si6 0.672334 0.272299 0.817750
Si Si7 0.437741 0.915489 0.182925
Si Si8 0.765120 0.590257 0.680890
O O1 0.791884 0.108204 0.231773
O O2 0.687426 0.172350 0.234901
O O3 0.704222 0.000000 0.250000
O O4 0.722595 0.082530 0.000000
O O5 0.891295 0.171434 0.743582
O O6 0.878871 0.000000 0.750000
O O7 0.865132 0.093058 0.000000
O O8 0.084456 0.500000 0.750000
O O9 0.068070 0.668012 0.742243
O O10 0.170885 0.609076 0.763661
O O11 0.099034 0.594218 0.000000
O O12 0.500000 0.296471 0.750000
O O13 0.552472 0.262316 0.500000
O O14 0.616899 0.318961 0.734184
O O15 0.585137 0.175016 0.751882
O O16 0.000000 0.802128 0.750000
O O17 0.942336 0.768474 0.000000
O O18 0.725581 0.330291 0.764310
O O19 0.662077 0.277030 0.000000
O O20 0.500000 0.921277 0.250000
O O21 0.403691 0.000000 0.250000
O O22 0.436527 0.915094 0.000000
O O23 0.741550 0.500000 0.750000
O O24 0.763662 0.580276 0.500000
#
# Coordination Sequence:
#
# PCOD8202350 Si02
#       8
#     8   8   8   8   8   8   8   8
#     4   9  19  35  57  83 115 150 187 229 280 335
#     4  10  20  38  61  86 115 152 195 243 294 346
#     4  10  20  38  62  90 121 155 190 231 282 342
#     4  11  22  36  52  73 101 139 182 225 271 327
#     4  12  25  40  58  84 116 156 201 247 292 342
#     4  10  20  36  56  81 113 150 183 223 277 333
#     4  10  17  28  45  65  90 124 166 213 258 306
#     4   9  19  36  61  89 118 147 181 226 281 337
#
# _framework density 20.518460000000001
#
# number of rings (size 3 to 8) (size 9 to 14) (size 15 to 20)
#    0.000    1.875    0.000    6.000    0.000    5.000 
#    0.000    5.000    0.000    0.375    0.000    2.625 
#    0.000    0.000    0.000    0.000    0.000    0.000 
#
# Total GULP energy -793215.967386 kJ/mol
# GULP energy per Si atom -12393.999490 kJ/mol
# Density = 2.047176 g / cm^3
# Si number density = 20.518460 Si / 1000 Ang^3
#
#
#
# Elastic Constant Matrix: (Units=GPa)
#
#
# Indices 1 2 3 4 5 6 
#
# 1 103.4849 29.8548 33.1339 0.0000 0.0000 0.0000
# 2 29.8548 72.3224 22.6894 0.0000 0.0000 0.0000
# 3 33.1339 22.6894 109.1811 0.0000 0.0000 0.0000
# 4 0.0000 0.0000 0.0000 33.9157 0.0000 0.0000
# 5 0.0000 0.0000 0.0000 0.0000 29.3317 0.0000
# 6 0.0000 0.0000 0.0000 0.0000 0.0000 4.1949
#
#
#
# Elastic Compliance Matrix: (Units=1/GPa)
#
#
# Indices 1 2 3 4 5 6 
#
# 1 0.011679 -0.003968 -0.002720 0.000000 0.000000 0.000000
# 2 -0.003968 0.016139 -0.002150 0.000000 0.000000 0.000000
# 3 -0.002720 -0.002150 0.010431 0.000000 0.000000 0.000000
# 4 0.000000 0.000000 0.000000 0.029485 0.000000 0.000000
# 5 0.000000 0.000000 0.000000 0.000000 0.034093 0.000000
# 6 0.000000 0.000000 0.000000 0.000000 0.000000 0.238385
#
#
# Mechanical properties :
#
#
# Convention : Reuss Voigt Hill
#
# Bulk Modulus (GPa) = 48.60337 50.70496 49.65417
# Shear Modulus (GPa) = 13.70821 26.77581 20.24201
#
# Velocity S-wave (km/s) = 2.58755 3.61634 3.14431
# Velocity P-wave (km/s) = 5.71544 6.49637 6.11838
#
# Compressibility (1/GPa) = 0.02057470
#
# Stress axis : x y z
#
# Youngs Moduli (GPa) = 85.62592 61.96034 95.86604
#
# Poissons Ratio (x) = 0.24584 0.26072
# Poissons Ratio (y) = 0.33974 0.20610
# Poissons Ratio (z) = 0.23287 0.13321
#
# Static dielectric constant tensor:
#      x y z
#    x 3.932410 0.000000 0.000000 
#    y 0.000000 3.559690 0.000000 
#    z 0.000000 0.000000 3.689040 
# 
# 
# High freq. dielectric constant tensor:
#      x y z
#    x 1.816790 0.000000 0.000000 
#    y 0.000000 1.786810 0.000000 
#    z 0.000000 0.000000 1.801810 
# 
# From -- ./inp_files/6528.got.cif
#   From: 2010.03.12/outbox.cif.g09.slc.cpg/sg49_4_cif.got.tgz:6528.got - 2010.04.14 03:58:27.
