data_PCOD8202301
_publ_section_title
;
Structure prediction by ZEFSAII (Michael W. Deem and Ramdas Pophale) SiO2 
 PCOD8202301
Probable space group: P C C M
;
_chemical_formula_sum "Si O2"
_cell_formula_units_Z 64
_cell_length_a 14.434290
_cell_length_b 26.188801
_cell_length_c 8.812821
_cell_angle_alpha 90.000000
_cell_angle_beta 90.000000
_cell_angle_gamma 90.000000
_cell_volume 3331.393939
_symmetry_space_group_name_H-M "P C C M"
_symmetry_group_IT_number 49
_symmetry_cell_setting 'orthorhombic'
loop_
_space_group_symop_operation_xyz
x,y,z
-x,-y,z
x,-y,1/2-z
-x,y,1/2-z
-x,-y,-z
x,y,-z
-x,y,1/2+z
x,-y,1/2+z
loop_
_atom_site_type_symbol
_atom_site_label
_atom_site_fract_x
_atom_site_fract_y
_atom_site_fract_z
Si Si1 0.221057 0.162363 0.175531
Si Si2 0.596768 0.202266 0.178640
Si Si3 0.224534 0.947703 0.674375
Si Si4 0.901991 0.447146 0.321098
Si Si5 0.777817 0.351523 0.322202
Si Si6 0.412148 0.944459 0.180267
Si Si7 0.404428 0.680681 0.177809
Si Si8 0.899749 0.743574 0.179293
O O1 0.318363 0.167572 0.264294
O O2 0.168958 0.106017 0.190810
O O3 0.148382 0.204138 0.236379
O O4 0.244827 0.172557 0.000000
O O5 0.500000 0.183583 0.250000
O O6 0.615286 0.260827 0.224933
O O7 0.588836 0.194196 0.000000
O O8 0.243013 0.962516 0.500000
O O9 0.315087 0.925302 0.757156
O O10 0.182983 0.000000 0.750000
O O11 0.865568 0.500000 0.250000
O O12 0.914666 0.453534 0.500000
O O13 0.828815 0.403718 0.279307
O O14 0.000000 0.431346 0.250000
O O15 0.760109 0.346217 0.500000
O O16 0.679369 0.353394 0.239209
O O17 0.838634 0.303962 0.262790
O O18 0.500000 0.913018 0.250000
O O19 0.419375 0.000000 0.250000
O O20 0.415082 0.943544 0.000000
O O21 0.500000 0.661009 0.250000
O O22 0.412864 0.673957 0.000000
O O23 0.000000 0.739109 0.250000
O O24 0.910808 0.742520 0.000000
#
# Coordination Sequence:
#
# PCOD8202301 Si02
#       8
#     8   8   8   8   8   8   8   8
#     4  10  21  37  56  76 105 140 173 215 269 322
#     4  10  20  33  52  78 108 143 181 220 265 319
#     4  10  20  34  51  71  93 125 166 208 258 314
#     4  10  20  34  54  82 116 158 198 242 288 335
#     4  10  20  35  57  83 115 152 191 230 277 327
#     4  10  17  27  43  63  89 121 156 198 243 292
#     4  10  20  33  53  81 113 150 189 230 275 325
#     4  10  21  37  57  82 111 140 172 218 270 326
#
# _framework density 19.211178
#
# number of rings (size 3 to 8) (size 9 to 14) (size 15 to 20)
#    0.000    2.000    1.250    4.500    0.000    4.500 
#    0.000    0.000    0.000    0.750    0.000    5.250 
#    0.000    0.000    0.000    0.000    0.000    0.000 
#
# Total GULP energy -793059.341729 kJ/mol
# GULP energy per Si atom -12391.552215 kJ/mol
# Density = 1.916745 g / cm^3
# Si number density = 19.211178 Si / 1000 Ang^3
#
#
#
# Elastic Constant Matrix: (Units=GPa)
#
#
# Indices 1 2 3 4 5 6 
#
# 1 107.6457 63.8383 36.1500 0.0000 0.0000 0.0000
# 2 63.8383 134.2219 45.5987 0.0000 0.0000 0.0000
# 3 36.1500 45.5987 90.8992 0.0000 0.0000 0.0000
# 4 0.0000 0.0000 0.0000 13.8618 0.0000 0.0000
# 5 0.0000 0.0000 0.0000 0.0000 29.4250 0.0000
# 6 0.0000 0.0000 0.0000 0.0000 0.0000 10.3509
#
#
#
# Elastic Compliance Matrix: (Units=1/GPa)
#
#
# Indices 1 2 3 4 5 6 
#
# 1 0.013421 -0.005509 -0.002574 0.000000 0.000000 0.000000
# 2 -0.005509 0.011242 -0.003449 0.000000 0.000000 0.000000
# 3 -0.002574 -0.003449 0.013755 0.000000 0.000000 0.000000
# 4 0.000000 0.000000 0.000000 0.072141 0.000000 0.000000
# 5 0.000000 0.000000 0.000000 0.000000 0.033985 0.000000
# 6 0.000000 0.000000 0.000000 0.000000 0.000000 0.096610
#
#
# Mechanical properties :
#
#
# Convention : Reuss Voigt Hill
#
# Bulk Modulus (GPa) = 65.12542 69.32677 67.22610
# Shear Modulus (GPa) = 18.56422 23.20617 20.88519
#
# Velocity S-wave (km/s) = 3.11195 3.47933 3.30075
# Velocity P-wave (km/s) = 6.84731 7.23229 7.04243
#
# Compressibility (1/GPa) = 0.01535499
#
# Stress axis : x y z
#
# Youngs Moduli (GPa) = 74.50927 88.95170 72.70168
#
# Poissons Ratio (x) = 0.49002 0.18714
# Poissons Ratio (y) = 0.41046 0.25072
# Poissons Ratio (z) = 0.19179 0.30676
#
# Static dielectric constant tensor:
#      x y z
#    x 2.955140 0.000000 0.000000 
#    y 0.000000 3.609150 0.000000 
#    z 0.000000 0.000000 3.503630 
# 
# 
# High freq. dielectric constant tensor:
#      x y z
#    x 1.723580 0.000000 0.000000 
#    y 0.000000 1.749180 0.000000 
#    z 0.000000 0.000000 1.752260 
# 
# From -- ./inp_files/4314.got.cif
#   From: 2010.03.12/outbox.cif.g09.slc.cpg/sg49_3_cif.got.tgz:4314.got - 2010.04.14 03:58:27.
