data_PCOD8202917
_publ_section_title
;
Structure prediction by ZEFSAII (Michael W. Deem and Ramdas Pophale) SiO2 
 PCOD8202917
Probable space group: P C C M
;
_chemical_formula_sum "Si O2"
_cell_formula_units_Z 56
_cell_length_a 20.138324
_cell_length_b 15.384083
_cell_length_c 9.033780
_cell_angle_alpha 90.000000
_cell_angle_beta 90.000000
_cell_angle_gamma 90.000000
_cell_volume 2798.752201
_symmetry_space_group_name_H-M "P C C M"
_symmetry_group_IT_number 49
_symmetry_cell_setting 'orthorhombic'
loop_
_space_group_symop_operation_xyz
x,y,z
-x,-y,z
x,-y,1/2-z
-x,y,1/2-z
-x,-y,-z
x,y,-z
-x,y,1/2+z
x,-y,1/2+z
loop_
_atom_site_type_symbol
_atom_site_label
_atom_site_fract_x
_atom_site_fract_y
_atom_site_fract_z
Si Si1 0.709428 0.306842 0.671302
Si Si2 0.265911 0.134835 0.330744
Si Si3 0.832964 0.587709 0.169446
Si Si4 0.116385 0.087384 0.671398
Si Si5 0.564228 0.726818 0.828691
Si Si6 0.932160 0.261408 0.323385
Si Si7 0.393800 0.917191 0.673732
O O1 0.712342 0.274857 0.500000
O O2 0.740809 0.233293 0.773996
O O3 0.754464 0.392201 0.694862
O O4 0.632100 0.324530 0.713974
O O5 0.290979 0.135379 0.500000
O O6 0.195624 0.088512 0.315537
O O7 0.317943 0.083723 0.229214
O O8 0.853643 0.500000 0.250000
O O9 0.876128 0.669309 0.225117
O O10 0.848765 0.570550 0.000000
O O11 0.093736 0.089455 0.500000
O O12 0.084893 0.167940 0.757026
O O13 0.089960 0.000000 0.750000
O O14 0.500000 0.685067 0.750000
O O15 0.571233 0.827476 0.778733
O O16 0.549697 0.719480 0.000000
O O17 0.938395 0.253972 0.500000
O O18 0.000000 0.295044 0.250000
O O19 0.394649 0.930683 0.500000
O O20 0.430107 0.000000 0.750000
#
# Coordination Sequence:
#
# PCOD8202917 Si02
#       7
#     8   8   8   8   8   8   8
#     4   9  18  36  58  82 114 152 190 234 290 345
#     4  10  19  31  52  81 110 146 191 242 293 344
#     4  10  22  40  66  95 123 155 192 239 295 353
#     4  11  23  37  57  86 119 158 204 250 295 348
#     4   9  19  33  51  74 105 145 189 236 287 348
#     4  11  24  43  65  89 122 162 198 243 296 348
#     4  10  20  32  46  68 102 144 189 242 294 346
#
# _framework density 20.008915999999999
#
# number of rings (size 3 to 8) (size 9 to 14) (size 15 to 20)
#    0.000    2.000    1.429    3.000    0.000    8.286 
#    0.000    4.286    0.000    0.429    0.000    3.000 
#    0.000    0.000    0.000    0.000    0.000    0.000 
#
# Total GULP energy -694321.459850 kJ/mol
# GULP energy per Si atom -12398.597497 kJ/mol
# Density = 1.996338 g / cm^3
# Si number density = 20.008916 Si / 1000 Ang^3
#
#
#
# Elastic Constant Matrix: (Units=GPa)
#
#
# Indices 1 2 3 4 5 6 
#
# 1 110.6547 42.2132 44.5776 0.0000 0.0000 0.0000
# 2 42.2132 101.2033 39.6855 0.0000 0.0000 0.0000
# 3 44.5776 39.6855 78.6355 0.0000 0.0000 0.0000
# 4 0.0000 0.0000 0.0000 28.9680 0.0000 0.0000
# 5 0.0000 0.0000 0.0000 0.0000 30.5252 0.0000
# 6 0.0000 0.0000 0.0000 0.0000 0.0000 8.3250
#
#
#
# Elastic Compliance Matrix: (Units=1/GPa)
#
#
# Indices 1 2 3 4 5 6 
#
# 1 0.012408 -0.003014 -0.005513 0.000000 0.000000 0.000000
# 2 -0.003014 0.013051 -0.004878 0.000000 0.000000 0.000000
# 3 -0.005513 -0.004878 0.018304 0.000000 0.000000 0.000000
# 4 0.000000 0.000000 0.000000 0.034521 0.000000 0.000000
# 5 0.000000 0.000000 0.000000 0.000000 0.032760 0.000000
# 6 0.000000 0.000000 0.000000 0.000000 0.000000 0.120119
#
#
# Mechanical properties :
#
#
# Convention : Reuss Voigt Hill
#
# Bulk Modulus (GPa) = 58.98527 60.38290 59.68408
# Shear Modulus (GPa) = 18.96646 24.49812 21.73229
#
# Velocity S-wave (km/s) = 3.08214 3.50288 3.29922
# Velocity P-wave (km/s) = 6.49689 6.82669 6.66383
#
# Compressibility (1/GPa) = 0.01695339
#
# Stress axis : x y z
#
# Youngs Moduli (GPa) = 80.59544 76.62235 54.63291
#
# Poissons Ratio (x) = 0.23091 0.30118
# Poissons Ratio (y) = 0.24288 0.26651
# Poissons Ratio (z) = 0.44431 0.37378
#
# Static dielectric constant tensor:
#      x y z
#    x 3.730630 0.000000 0.000000 
#    y 0.000000 3.391250 0.000000 
#    z 0.000000 0.000000 3.652980 
# 
# 
# High freq. dielectric constant tensor:
#      x y z
#    x 1.784330 0.000000 0.000000 
#    y 0.000000 1.754310 0.000000 
#    z 0.000000 0.000000 1.783390 
# 
# From -- ./inp_files/4099.got.cif
#   From: 2010.03.12/outbox.cif.g09.slc.cpg/sg49_3_cif.got.tgz:4099.got - 2010.04.14 03:58:27.
