data_PCOD8202126
_publ_section_title
;
Structure prediction by ZEFSAII (Michael W. Deem and Ramdas Pophale) SiO2 
 PCOD8202126
Probable space group: P N N N
;
_chemical_formula_sum "Si O2"
_cell_formula_units_Z 26
_cell_length_a 4.777441
_cell_length_b 12.546466
_cell_length_c 19.921889
_cell_angle_alpha 90.000000
_cell_angle_beta 90.000000
_cell_angle_gamma 90.000000
_cell_volume 1194.118048
_symmetry_space_group_name_H-M "P N N N"
_symmetry_group_IT_number 48
_space_group.IT_coordinate_system_code '2'
_symmetry_cell_setting 'orthorhombic'
loop_
_space_group_symop_operation_xyz
x,y,z
1/2-x,1/2-y,z
x,1/2-y,1/2-z
1/2-x,y,1/2-z
-x,-y,-z
1/2+x,1/2+y,-z
-x,1/2+y,1/2+z
1/2+x,-y,1/2+z
loop_
_atom_site_type_symbol
_atom_site_label
_atom_site_fract_x
_atom_site_fract_y
_atom_site_fract_z
Si Si1 0.928259 0.986359 0.103280
Si Si2 0.750000 0.750000 0.250000
Si Si3 0.992451 0.823290 0.992544
Si Si4 0.065615 0.938222 0.311633
O O1 0.725197 0.996856 0.168551
O O2 0.240534 0.950702 0.123637
O O3 0.847040 0.891131 0.052475
O O4 0.910254 0.099347 0.067032
O O5 0.538101 0.681531 0.295701
O O6 0.750000 0.750000 0.962107
O O7 0.250000 0.750000 0.016870
O O8 0.250000 0.986188 0.250000
#
# Coordination Sequence:
#
# PCOD8202126 Si02
#       4
#     8   2   8   8
#     4  11  25  41  65  99 132 170 216 264 328 391
#     4  12  26  36  62 104 120 176 206 252 344 400
#     4  11  24  42  67  96 130 175 218 268 323 382
#     4  12  24  40  62  95 136 164 212 260 329 394
#
# _framework density 21.773389999999999
#
# number of rings (size 3 to 8) (size 9 to 14) (size 15 to 20)
#    0.000    0.615    3.077    4.154    6.462    4.923 
#    0.000    0.000    0.000   13.846    0.000    0.000 
#    0.000    0.000    0.000    0.000    0.000    0.000 
#
# Total GULP energy -322151.683680 kJ/mol
# GULP energy per Si atom -12390.449372 kJ/mol
# Density = 2.172383 g / cm^3
# Si number density = 21.773390 Si / 1000 Ang^3
#
#
#
# Elastic Constant Matrix: (Units=GPa)
#
#
# Indices 1 2 3 4 5 6 
#
# 1 130.3504 43.0075 22.9526 0.0000 0.0000 0.0000
# 2 43.0075 109.6341 38.0520 0.0000 0.0000 0.0000
# 3 22.9526 38.0520 58.8460 0.0000 0.0000 0.0000
# 4 0.0000 0.0000 0.0000 19.8787 0.0000 0.0000
# 5 0.0000 0.0000 0.0000 0.0000 51.2884 0.0000
# 6 0.0000 0.0000 0.0000 0.0000 0.0000 26.3003
#
#
#
# Elastic Compliance Matrix: (Units=1/GPa)
#
#
# Indices 1 2 3 4 5 6 
#
# 1 0.008923 -0.002956 -0.001569 0.000000 0.000000 0.000000
# 2 -0.002956 0.012740 -0.007085 0.000000 0.000000 0.000000
# 3 -0.001569 -0.007085 0.022187 0.000000 0.000000 0.000000
# 4 0.000000 0.000000 0.000000 0.050305 0.000000 0.000000
# 5 0.000000 0.000000 0.000000 0.000000 0.019498 0.000000
# 6 0.000000 0.000000 0.000000 0.000000 0.000000 0.038022
#
#
# Mechanical properties :
#
#
# Convention : Reuss Voigt Hill
#
# Bulk Modulus (GPa) = 48.47325 56.31719 52.39522
# Shear Modulus (GPa) = 27.50698 32.48137 29.99417
#
# Velocity S-wave (km/s) = 3.55819 3.86656 3.71558
# Velocity P-wave (km/s) = 6.26034 6.77163 6.52100
#
# Compressibility (1/GPa) = 0.02062993
#
# Stress axis : x y z
#
# Youngs Moduli (GPa) = 112.06814 78.49362 45.07130
#
# Poissons Ratio (x) = 0.23201 0.07072
# Poissons Ratio (y) = 0.33125 0.31934
# Poissons Ratio (z) = 0.17585 0.55614
#
# Static dielectric constant tensor:
#      x y z
#    x 4.198170 0.000000 0.000000 
#    y 0.000000 3.685290 0.000000 
#    z 0.000000 0.000000 4.006490 
# 
# 
# High freq. dielectric constant tensor:
#      x y z
#    x 1.883760 0.000000 0.000000 
#    y 0.000000 1.823780 0.000000 
#    z 0.000000 0.000000 1.851840 
# 
# From -- ./inp_files/29130.got.cif
#   From: 2010.06.25/outbox.cif.g09.slc.cpg/sg48_15_cif.got.tgz:29130.got - 2010.06.26 18:06:46.
