data_PCOD8202156
_publ_section_title
;
Structure prediction by ZEFSAII (Michael W. Deem and Ramdas Pophale) SiO2 
 PCOD8202156
Probable space group: P N N N
;
_chemical_formula_sum "Si O2"
_cell_formula_units_Z 48
_cell_length_a 25.656694
_cell_length_b 14.006089
_cell_length_c 5.792015
_cell_angle_alpha 90.000000
_cell_angle_beta 90.000000
_cell_angle_gamma 90.000000
_cell_volume 2081.360240
_symmetry_space_group_name_H-M "P N N N"
_symmetry_group_IT_number 48
_space_group.IT_coordinate_system_code '2'
_symmetry_cell_setting 'orthorhombic'
loop_
_space_group_symop_operation_xyz
x,y,z
1/2-x,1/2-y,z
x,1/2-y,1/2-z
1/2-x,y,1/2-z
-x,-y,-z
1/2+x,1/2+y,-z
-x,1/2+y,1/2+z
1/2+x,-y,1/2+z
loop_
_atom_site_type_symbol
_atom_site_label
_atom_site_fract_x
_atom_site_fract_y
_atom_site_fract_z
Si Si1 0.278296 0.013883 0.499172
Si Si2 0.537457 0.917300 0.594264
Si Si3 0.344287 0.855918 0.321704
Si Si4 0.606754 0.495804 0.509359
Si Si5 0.362941 0.357344 0.824321
Si Si6 0.566564 0.347539 0.156952
O O1 0.250000 0.022525 0.750000
O O2 0.321604 0.098682 0.493910
O O3 0.304164 0.906902 0.498522
O O4 0.250000 0.027095 0.250000
O O5 0.565696 0.959172 0.816249
O O6 0.578705 0.869739 0.421633
O O7 0.495777 0.832662 0.639364
O O8 0.500000 0.000000 0.500000
O O9 0.325460 0.750000 0.250000
O O10 0.403692 0.860694 0.415074
O O11 0.348554 0.924051 0.100134
O O12 0.640958 0.581681 0.408974
O O13 0.575391 0.440834 0.311203
O O14 0.349650 0.250000 0.750000
O O15 0.591841 0.250000 0.250000
#
# Coordination Sequence:
#
# PCOD8202156 Si02
#       6
#     8   8   8   8   8   8
#     4  12  28  56  85 111 150 195 259 335 403 469
#     4  12  24  42  69 106 155 205 257 305 367 446
#     4  12  25  47  77 113 150 194 242 308 390 469
#     4  12  22  45  68 100 157 200 244 312 365 441
#     4  12  29  48  73 109 150 203 258 320 385 451
#     4  12  25  39  70 110 153 204 245 294 374 458
#
# _framework density 23.06184
#
# number of rings (size 3 to 8) (size 9 to 14) (size 15 to 20)
#    0.000    0.000    8.333    1.500    2.333    1.333 
#    0.000    5.000    0.000    0.000    0.000    0.000 
#    0.000    0.000    0.000    0.000    0.000    0.000 
#
# Total GULP energy -594688.661014 kJ/mol
# GULP energy per Si atom -12389.347104 kJ/mol
# Density = 2.300935 g / cm^3
# Si number density = 23.061840 Si / 1000 Ang^3
#
#
#
# Elastic Constant Matrix: (Units=GPa)
#
#
# Indices 1 2 3 4 5 6 
#
# 1 99.6191 44.5293 42.9343 0.0000 0.0000 0.0000
# 2 44.5293 173.9482 55.2285 0.0000 0.0000 0.0000
# 3 42.9343 55.2285 113.5640 0.0000 0.0000 0.0000
# 4 0.0000 0.0000 0.0000 43.1601 0.0000 0.0000
# 5 0.0000 0.0000 0.0000 0.0000 43.0998 0.0000
# 6 0.0000 0.0000 0.0000 0.0000 0.0000 17.1670
#
#
#
# Elastic Compliance Matrix: (Units=1/GPa)
#
#
# Indices 1 2 3 4 5 6 
#
# 1 0.012565 -0.002020 -0.003768 0.000000 0.000000 0.000000
# 2 -0.002020 0.007123 -0.002700 0.000000 0.000000 0.000000
# 3 -0.003768 -0.002700 0.011543 0.000000 0.000000 0.000000
# 4 0.000000 0.000000 0.000000 0.023170 0.000000 0.000000
# 5 0.000000 0.000000 0.000000 0.000000 0.023202 0.000000
# 6 0.000000 0.000000 0.000000 0.000000 0.000000 0.058251
#
#
# Mechanical properties :
#
#
# Convention : Reuss Voigt Hill
#
# Bulk Modulus (GPa) = 70.15240 74.72395 72.43818
# Shear Modulus (GPa) = 31.72915 36.98132 34.35524
#
# Velocity S-wave (km/s) = 3.71324 4.00881 3.86385
# Velocity P-wave (km/s) = 6.99067 7.34161 7.16829
#
# Compressibility (1/GPa) = 0.01425468
#
# Stress axis : x y z
#
# Youngs Moduli (GPa) = 79.58488 140.38218 86.62954
#
# Poissons Ratio (x) = 0.28361 0.32641
# Poissons Ratio (y) = 0.16078 0.23394
# Poissons Ratio (z) = 0.29987 0.37910
#
# Static dielectric constant tensor:
#      x y z
#    x 6.284260 0.000000 0.000000 
#    y 0.000000 6.537920 0.000000 
#    z 0.000000 0.000000 4.405790 
# 
# 
# High freq. dielectric constant tensor:
#      x y z
#    x 1.915280 0.000000 0.000000 
#    y 0.000000 1.914380 0.000000 
#    z 0.000000 0.000000 1.915830 
# 
# From -- ./inp_files/6478.got.cif
#   From: 2010.06.25/outbox.cif.g09.slc.cpg/sg48_4_cif.got.tgz:6478.got - 2010.06.26 18:06:46.
