data_PCOD8202419
_publ_section_title
;
Structure prediction by ZEFSAII (Michael W. Deem and Ramdas Pophale) SiO2 
 PCOD8202419
Probable space group: P C C M
;
_chemical_formula_sum "Si O2"
_cell_formula_units_Z 48
_cell_length_a 20.277133
_cell_length_b 14.296807
_cell_length_c 8.599268
_cell_angle_alpha 90.000000
_cell_angle_beta 90.000000
_cell_angle_gamma 90.000000
_cell_volume 2492.912805
_symmetry_space_group_name_H-M "P C C M"
_symmetry_group_IT_number 49
_symmetry_cell_setting 'orthorhombic'
loop_
_space_group_symop_operation_xyz
x,y,z
-x,-y,z
x,-y,1/2-z
-x,y,1/2-z
-x,-y,-z
x,y,-z
-x,y,1/2+z
x,-y,1/2+z
loop_
_atom_site_type_symbol
_atom_site_label
_atom_site_fract_x
_atom_site_fract_y
_atom_site_fract_z
Si Si1 0.573586 0.906363 0.184387
Si Si2 0.200635 0.285921 0.676413
Si Si3 0.427508 0.284374 0.316295
Si Si4 0.685323 0.599240 0.182161
Si Si5 0.855893 0.096925 0.176164
Si Si6 0.069415 0.251756 0.182811
O O1 0.500000 0.905633 0.250000
O O2 0.605997 0.810346 0.246393
O O3 0.609821 0.000000 0.250000
O O4 0.573958 0.908054 0.000000
O O5 0.209469 0.322690 0.500000
O O6 0.256732 0.327222 0.785695
O O7 0.204719 0.171803 0.682166
O O8 0.127961 0.314992 0.741122
O O9 0.500000 0.303012 0.250000
O O10 0.431764 0.275134 0.500000
O O11 0.381699 0.370506 0.267903
O O12 0.707614 0.500000 0.250000
O O13 0.671952 0.592851 0.000000
O O14 0.917610 0.142640 0.270103
O O15 0.832127 0.000000 0.250000
O O16 0.879025 0.079803 0.000000
O O17 0.000000 0.286502 0.250000
O O18 0.070047 0.264645 0.000000
#
# Coordination Sequence:
#
# PCOD8202419 Si02
#       6
#     8   8   8   8   8   8
#     4  10  17  29  50  79 113 151 189 225 268 323
#     4   9  20  38  57  82 114 150 192 238 282 336
#     4  11  22  39  61  89 122 153 190 238 289 344
#     4  12  25  43  66  89 112 146 189 235 292 353
#     4   9  18  31  51  79 116 155 197 239 285 337
#     4  10  18  31  52  81 117 157 198 240 287 336
#
# _framework density 19.254584000000001
#
# number of rings (size 3 to 8) (size 9 to 14) (size 15 to 20)
#    1.000    0.833    0.000    8.000    0.000    0.667 
#    0.000    4.167    0.000    2.500    0.000    3.500 
#    0.000    0.000    0.000    0.000    0.000    0.000 
#
# Total GULP energy -594884.171016 kJ/mol
# GULP energy per Si atom -12393.420230 kJ/mol
# Density = 1.921076 g / cm^3
# Si number density = 19.254584 Si / 1000 Ang^3
#
#
#
# Elastic Constant Matrix: (Units=GPa)
#
#
# Indices 1 2 3 4 5 6 
#
# 1 88.7330 35.1317 30.9179 0.0000 0.0000 0.0000
# 2 35.1317 50.5238 28.8508 0.0000 0.0000 0.0000
# 3 30.9179 28.8508 163.3444 0.0000 0.0000 0.0000
# 4 0.0000 0.0000 0.0000 24.4746 0.0000 0.0000
# 5 0.0000 0.0000 0.0000 0.0000 31.4061 0.0000
# 6 0.0000 0.0000 0.0000 0.0000 0.0000 -901.9644
#
#
#
# Elastic Compliance Matrix: (Units=1/GPa)
#
#
# Indices 1 2 3 4 5 6 
#
# 1 0.015748 -0.010285 -0.001164 0.000000 0.000000 0.000000
# 2 -0.010285 0.028731 -0.003128 0.000000 0.000000 0.000000
# 3 -0.001164 -0.003128 0.006895 0.000000 0.000000 0.000000
# 4 0.000000 0.000000 0.000000 0.040859 0.000000 0.000000
# 5 0.000000 0.000000 0.000000 0.000000 0.031841 0.000000
# 6 0.000000 0.000000 0.000000 0.000000 0.000000 -0.001109
#
#
# Mechanical properties :
#
#
# Convention : Reuss Voigt Hill
#
# Bulk Modulus (GPa) = 45.00718 54.71137 49.85928
# Shear Modulus (GPa) = 31.34314 -155.37002 -62.01344
#
# Velocity S-wave (km/s) = 4.03901 -8.99264 -5.68129
# Velocity P-wave (km/s) = 6.72138 8.90770 4.13341
#
# Compressibility (1/GPa) = 0.02221868
#
# Stress axis : x y z
#
# Youngs Moduli (GPa) = 63.50166 34.80606 145.03672
#
# Poissons Ratio (x) = 0.35799 0.16883
# Poissons Ratio (y) = 0.65314 0.45364
# Poissons Ratio (z) = 0.07392 0.10886
#
# Static dielectric constant tensor:
#      x y z
#    x 3.222730 0.000000 0.000000 
#    y 0.000000 3.771970 0.000000 
#    z 0.000000 0.000000 3.594870 
# 
# 
# High freq. dielectric constant tensor:
#      x y z
#    x 1.719300 0.000000 0.000000 
#    y 0.000000 1.732110 0.000000 
#    z 0.000000 0.000000 1.771940 
# 
# From -- ./inp_files/5651.got.cif
#   From: 2010.03.12/outbox.cif.g09.slc.cpg/sg49_3_cif.got.tgz:5651.got - 2010.04.14 03:58:27.
