data_PCOD8202660
_publ_section_title
;
Structure prediction by ZEFSAII (Michael W. Deem and Ramdas Pophale) SiO2 
 PCOD8202660
Probable space group: P C C M
;
_chemical_formula_sum "Si O2"
_cell_formula_units_Z 58
_cell_length_a 11.279003
_cell_length_b 9.588234
_cell_length_c 27.673065
_cell_angle_alpha 90.000000
_cell_angle_beta 90.000000
_cell_angle_gamma 90.000000
_cell_volume 2992.723540
_symmetry_space_group_name_H-M "P C C M"
_symmetry_group_IT_number 49
_symmetry_cell_setting 'orthorhombic'
loop_
_space_group_symop_operation_xyz
x,y,z
-x,-y,z
x,-y,1/2-z
-x,y,1/2-z
-x,-y,-z
x,y,-z
-x,y,1/2+z
x,-y,1/2+z
loop_
_atom_site_type_symbol
_atom_site_label
_atom_site_fract_x
_atom_site_fract_y
_atom_site_fract_z
Si Si1 0.378167 0.834361 0.863566
Si Si2 0.500000 0.500000 0.750000
Si Si3 0.827757 0.148808 0.556669
Si Si4 0.724425 0.639665 0.206667
Si Si5 0.978134 0.337389 0.105316
Si Si6 0.206608 0.837039 0.054092
Si Si7 0.357195 0.149928 0.133989
Si Si8 0.807530 0.349895 0.188965
O O1 0.328389 0.827224 0.917383
O O2 0.512896 0.781645 0.866375
O O3 0.305688 0.737985 0.827527
O O4 0.366271 0.993349 0.845921
O O5 0.411719 0.400256 0.780365
O O6 0.829551 0.195781 0.500000
O O7 0.696389 0.162181 0.579819
O O8 0.909205 0.243885 0.591230
O O9 0.863106 0.984932 0.561191
O O10 0.726943 0.772260 0.172241
O O11 0.784408 0.512697 0.177100
O O12 0.809142 0.670695 0.253074
O O13 0.876257 0.291109 0.068549
O O14 0.928775 0.307381 0.160410
O O15 0.000000 0.500000 0.096817
O O16 0.247400 0.817531 0.000000
#
# Coordination Sequence:
#
# PCOD8202660 Si02
#       8
#     8   2   8   8   8   8   8   8
#     4   9  19  33  53  80 111 138 171 216 261 302
#     4   8  16  28  52  78 100 136 176 214 256 314
#     4  10  21  36  54  77 107 143 178 212 257 314
#     4  10  18  33  54  76 104 138 177 211 256 315
#     4  11  21  35  55  78 103 132 173 224 267 306
#     4   9  19  36  56  77 104 140 177 213 260 313
#     4  10  19  33  53  81 109 139 175 215 256 304
#     4   9  20  36  52  76 104 137 174 214 261 314
#
# _framework density 19.380338999999999
#
# number of rings (size 3 to 8) (size 9 to 14) (size 15 to 20)
#    0.000    2.483    0.000    3.310    0.000    3.310 
#    0.000    8.966    0.000    0.000    0.000   23.655 
#    0.000    0.000    0.000    0.000    0.000    0.000 
#
# Total GULP energy -718667.556070 kJ/mol
# GULP energy per Si atom -12390.819932 kJ/mol
# Density = 1.933623 g / cm^3
# Si number density = 19.380339 Si / 1000 Ang^3
#
#
#
# Elastic Constant Matrix: (Units=GPa)
#
#
# Indices 1 2 3 4 5 6 
#
# 1 70.5139 41.2219 41.5985 0.0000 0.0000 0.0000
# 2 41.2219 85.7852 60.2357 0.0000 0.0000 0.0000
# 3 41.5985 60.2357 96.1367 0.0000 0.0000 0.0000
# 4 0.0000 0.0000 0.0000 24.2814 0.0000 0.0000
# 5 0.0000 0.0000 0.0000 0.0000 18.1356 0.0000
# 6 0.0000 0.0000 0.0000 0.0000 0.0000 23.4115
#
#
#
# Elastic Compliance Matrix: (Units=1/GPa)
#
#
# Indices 1 2 3 4 5 6 
#
# 1 0.020950 -0.006610 -0.004924 0.000000 0.000000 0.000000
# 2 -0.006610 0.022900 -0.011488 0.000000 0.000000 0.000000
# 3 -0.004924 -0.011488 0.019730 0.000000 0.000000 0.000000
# 4 0.000000 0.000000 0.000000 0.041184 0.000000 0.000000
# 5 0.000000 0.000000 0.000000 0.000000 0.055140 0.000000
# 6 0.000000 0.000000 0.000000 0.000000 0.000000 0.042714
#
#
# Mechanical properties :
#
#
# Convention : Reuss Voigt Hill
#
# Bulk Modulus (GPa) = 57.02178 59.83867 58.43023
# Shear Modulus (GPa) = 19.64576 20.45767 20.05171
#
# Velocity S-wave (km/s) = 3.18731 3.25251 3.22007
# Velocity P-wave (km/s) = 6.55985 6.71179 6.63625
#
# Compressibility (1/GPa) = 0.01753716
#
# Stress axis : x y z
#
# Youngs Moduli (GPa) = 47.73183 43.66850 50.68328
#
# Poissons Ratio (x) = 0.28864 0.24955
# Poissons Ratio (y) = 0.31550 0.58225
# Poissons Ratio (z) = 0.23502 0.50167
#
# Static dielectric constant tensor:
#      x y z
#    x 3.523980 0.000000 0.000000 
#    y 0.000000 3.592700 0.000000 
#    z 0.000000 0.000000 3.499050 
# 
# 
# High freq. dielectric constant tensor:
#      x y z
#    x 1.750020 0.000000 0.000000 
#    y 0.000000 1.751790 0.000000 
#    z 0.000000 0.000000 1.750240 
# 
# From -- ./inp_files/26637.got.cif
#   From: 2010.03.12/outbox.cif.g09.slc.cpg/sg49_14_cif.got.tgz:26637.got - 2010.04.14 03:58:27.
