data_PCOD8202336
_publ_section_title
;
Structure prediction by ZEFSAII (Michael W. Deem and Ramdas Pophale) SiO2 
 PCOD8202336
Probable space group: P C C M
;
_chemical_formula_sum "Si O2"
_cell_formula_units_Z 48
_cell_length_a 9.121836
_cell_length_b 30.943759
_cell_length_c 8.535296
_cell_angle_alpha 90.000000
_cell_angle_beta 90.000000
_cell_angle_gamma 90.000000
_cell_volume 2409.205892
_symmetry_space_group_name_H-M "P C C M"
_symmetry_group_IT_number 49
_symmetry_cell_setting 'orthorhombic'
loop_
_space_group_symop_operation_xyz
x,y,z
-x,-y,z
x,-y,1/2-z
-x,y,1/2-z
-x,-y,-z
x,y,-z
-x,y,1/2+z
x,-y,1/2+z
loop_
_atom_site_type_symbol
_atom_site_label
_atom_site_fract_x
_atom_site_fract_y
_atom_site_fract_z
Si Si1 0.838822 0.285735 0.315350
Si Si2 0.344070 0.952745 0.685561
Si Si3 0.662702 0.631592 0.185852
Si Si4 0.840409 0.877136 0.314875
Si Si5 0.661346 0.201850 0.686108
Si Si6 0.664008 0.456546 0.814699
O O1 0.845635 0.287474 0.500000
O O2 0.758747 0.328542 0.251080
O O3 0.752036 0.243571 0.258954
O O4 0.000000 0.283261 0.250000
O O5 0.500000 0.935674 0.750000
O O6 0.351980 0.954090 0.500000
O O7 0.213860 0.921917 0.741079
O O8 0.308454 0.000000 0.750000
O O9 0.500000 0.637874 0.250000
O O10 0.738298 0.587513 0.251372
O O11 0.656679 0.629435 0.000000
O O12 0.846737 0.881674 0.500000
O O13 0.729159 0.839862 0.266876
O O14 0.000000 0.865564 0.250000
O O15 0.500000 0.208679 0.750000
O O16 0.661428 0.195608 0.500000
O O17 0.744402 0.500000 0.750000
O O18 0.500000 0.456337 0.750000
O O19 0.664986 0.457118 0.000000
#
# Coordination Sequence:
#
# PCOD8202336 Si02
#       6
#     8   8   8   8   8   8
#     4  10  23  39  58  82 113 148 187 230 281 337
#     4  11  22  40  64  92 123 160 202 248 295 346
#     4  10  19  33  52  79 109 142 182 228 275 330
#     4  12  25  42  62  89 122 159 198 243 293 348
#     4  11  23  41  63  90 118 152 193 238 287 341
#     4  10  17  27  45  72 104 140 177 223 274 325
#
# _framework density 19.923577999999999
#
# number of rings (size 3 to 8) (size 9 to 14) (size 15 to 20)
#    0.000    1.333    0.000    9.000    0.000    4.333 
#    0.000    1.667    0.000    0.500    0.000    3.500 
#    0.000    0.000    0.000    0.000    0.000    0.000 
#
# Total GULP energy -595322.742490 kJ/mol
# GULP energy per Si atom -12402.557135 kJ/mol
# Density = 1.987823 g / cm^3
# Si number density = 19.923578 Si / 1000 Ang^3
#
#
#
# Elastic Constant Matrix: (Units=GPa)
#
#
# Indices 1 2 3 4 5 6 
#
# 1 108.9573 60.2876 32.7781 0.0000 0.0000 0.0000
# 2 60.2876 150.6503 52.4162 0.0000 0.0000 0.0000
# 3 32.7781 52.4162 140.9355 0.0000 0.0000 0.0000
# 4 0.0000 0.0000 0.0000 30.3707 0.0000 0.0000
# 5 0.0000 0.0000 0.0000 0.0000 29.4006 0.0000
# 6 0.0000 0.0000 0.0000 0.0000 0.0000 16.5044
#
#
#
# Elastic Compliance Matrix: (Units=1/GPa)
#
#
# Indices 1 2 3 4 5 6 
#
# 1 0.011948 -0.004382 -0.001149 0.000000 0.000000 0.000000
# 2 -0.004382 0.009231 -0.002414 0.000000 0.000000 0.000000
# 3 -0.001149 -0.002414 0.008261 0.000000 0.000000 0.000000
# 4 0.000000 0.000000 0.000000 0.032926 0.000000 0.000000
# 5 0.000000 0.000000 0.000000 0.000000 0.034013 0.000000
# 6 0.000000 0.000000 0.000000 0.000000 0.000000 0.060590
#
#
# Mechanical properties :
#
#
# Convention : Reuss Voigt Hill
#
# Bulk Modulus (GPa) = 73.80126 76.83412 75.31769
# Shear Modulus (GPa) = 28.18873 32.25922 30.22397
#
# Velocity S-wave (km/s) = 3.76552 4.02823 3.89909
# Velocity P-wave (km/s) = 7.48519 7.76425 7.62600
#
# Compressibility (1/GPa) = 0.01354990
#
# Stress axis : x y z
#
# Youngs Moduli (GPa) = 83.69602 108.32729 121.05619
#
# Poissons Ratio (x) = 0.47464 0.13912
# Poissons Ratio (y) = 0.36672 0.29226
# Poissons Ratio (z) = 0.09619 0.26153
#
# Static dielectric constant tensor:
#      x y z
#    x 3.444570 0.000000 0.000000 
#    y 0.000000 4.422890 0.000000 
#    z 0.000000 0.000000 3.722970 
# 
# 
# High freq. dielectric constant tensor:
#      x y z
#    x 1.754560 0.000000 0.000000 
#    y 0.000000 1.803920 0.000000 
#    z 0.000000 0.000000 1.792570 
# 
# From -- ./inp_files/2089.got.cif
#   From: 2010.03.12/outbox.cif.g09.slc.cpg/sg49_2_cif.got.tgz:2089.got - 2010.04.14 03:58:27.
