data_PCOD8202006
_publ_section_title
;
Structure prediction by ZEFSAII (Michael W. Deem and Ramdas Pophale) SiO2 
 PCOD8202006
Probable space group: P N N N
;
_chemical_formula_sum "Si O2"
_cell_formula_units_Z 38
_cell_length_a 8.597660
_cell_length_b 17.841066
_cell_length_c 11.060380
_cell_angle_alpha 90.000000
_cell_angle_beta 90.000000
_cell_angle_gamma 90.000000
_cell_volume 1696.567388
_symmetry_space_group_name_H-M "P N N N"
_symmetry_group_IT_number 48
_space_group.IT_coordinate_system_code '2'
_symmetry_cell_setting 'orthorhombic'
loop_
_space_group_symop_operation_xyz
x,y,z
1/2-x,1/2-y,z
x,1/2-y,1/2-z
1/2-x,y,1/2-z
-x,-y,-z
1/2+x,1/2+y,-z
-x,1/2+y,1/2+z
1/2+x,-y,1/2+z
loop_
_atom_site_type_symbol
_atom_site_label
_atom_site_fract_x
_atom_site_fract_y
_atom_site_fract_z
Si Si1 0.876660 0.012195 0.153202
Si Si2 0.250000 0.250000 0.750000
Si Si3 0.641396 0.880072 0.649599
Si Si4 0.250000 0.624702 0.250000
Si Si5 0.524822 0.651565 0.095830
Si Si6 0.334687 0.985150 0.055605
O O1 0.750000 0.987320 0.250000
O O2 0.002675 0.069965 0.209371
O O3 0.965181 0.938415 0.106223
O O4 0.784911 0.051756 0.041709
O O5 0.346961 0.304142 0.833179
O O6 0.750000 0.836411 0.750000
O O7 0.557459 0.828068 0.546740
O O8 0.766761 0.934381 0.589214
O O9 0.358537 0.673948 0.158473
O O10 0.140805 0.571087 0.167969
O O11 0.500000 0.000000 0.000000
#
# Coordination Sequence:
#
# PCOD8202006 Si02
#       6
#     8   2   8   4   8   8
#     4  11  19  35  58  95 132 159 201 254 339 401
#     4  12  28  46  62  84 116 170 236 254 306 382
#     4  11  20  37  59  95 127 157 201 258 330 395
#     4  12  20  39  60  90 132 161 212 258 322 388
#     4  11  23  40  60  85 121 172 210 262 308 376
#     4  11  20  30  55  93 131 167 189 249 327 394
#
# _framework density 22.398167999999998
#
# number of rings (size 3 to 8) (size 9 to 14) (size 15 to 20)
#    0.000    0.842    6.316    3.789    2.947    0.421 
#    0.000    0.526    0.000    0.000    0.000    0.000 
#    0.000    0.000    0.000    0.000    0.000    0.000 
#
# Total GULP energy -470759.272705 kJ/mol
# GULP energy per Si atom -12388.401913 kJ/mol
# Density = 2.234719 g / cm^3
# Si number density = 22.398168 Si / 1000 Ang^3
#
#
#
# Elastic Constant Matrix: (Units=GPa)
#
#
# Indices 1 2 3 4 5 6 
#
# 1 147.0721 12.2583 59.0944 0.0000 0.0000 0.0000
# 2 12.2583 25.8913 9.9795 0.0000 0.0000 0.0000
# 3 59.0944 9.9795 130.3253 0.0000 0.0000 0.0000
# 4 0.0000 0.0000 0.0000 21.9122 0.0000 0.0000
# 5 0.0000 0.0000 0.0000 0.0000 64.3088 0.0000
# 6 0.0000 0.0000 0.0000 0.0000 0.0000 23.8161
#
#
#
# Elastic Compliance Matrix: (Units=1/GPa)
#
#
# Indices 1 2 3 4 5 6 
#
# 1 0.008482 -0.002610 -0.003646 0.000000 0.000000 0.000000
# 2 -0.002610 0.040601 -0.001925 0.000000 0.000000 0.000000
# 3 -0.003646 -0.001925 0.009474 0.000000 0.000000 0.000000
# 4 0.000000 0.000000 0.000000 0.045637 0.000000 0.000000
# 5 0.000000 0.000000 0.000000 0.000000 0.015550 0.000000
# 6 0.000000 0.000000 0.000000 0.000000 0.000000 0.041988
#
#
# Mechanical properties :
#
#
# Convention : Reuss Voigt Hill
#
# Bulk Modulus (GPa) = 23.70056 51.77255 37.73655
# Shear Modulus (GPa) = 26.01995 36.80451 31.41223
#
# Velocity S-wave (km/s) = 3.41207 4.05803 3.74899
# Velocity P-wave (km/s) = 5.11150 6.71726 5.96863
#
# Compressibility (1/GPa) = 0.04219310
#
# Stress axis : x y z
#
# Youngs Moduli (GPa) = 117.89654 24.62988 105.55375
#
# Poissons Ratio (x) = 0.06429 0.38487
# Poissons Ratio (y) = 0.30776 0.20322
# Poissons Ratio (z) = 0.42987 0.04742
#
# Static dielectric constant tensor:
#      x y z
#    x 4.578880 0.000000 0.000000 
#    y 0.000000 3.296030 0.000000 
#    z 0.000000 0.000000 4.982110 
# 
# 
# High freq. dielectric constant tensor:
#      x y z
#    x 1.906660 0.000000 0.000000 
#    y 0.000000 1.798560 0.000000 
#    z 0.000000 0.000000 1.904490 
# 
# From -- ./inp_files/10743.got.cif
#   From: 2010.06.25/outbox.cif.g09.slc.cpg/sg48_6_cif.got.tgz:10743.got - 2010.06.26 18:06:46.
