data_PCOD8202924
_publ_section_title
;
Structure prediction by ZEFSAII (Michael W. Deem and Ramdas Pophale) SiO2 
 PCOD8202924
Probable space group: P C C M
;
_chemical_formula_sum "Si O2"
_cell_formula_units_Z 48
_cell_length_a 14.448542
_cell_length_b 18.096238
_cell_length_c 9.200861
_cell_angle_alpha 90.000000
_cell_angle_beta 90.000000
_cell_angle_gamma 90.000000
_cell_volume 2405.696265
_symmetry_space_group_name_H-M "P C C M"
_symmetry_group_IT_number 49
_symmetry_cell_setting 'orthorhombic'
loop_
_space_group_symop_operation_xyz
x,y,z
-x,-y,z
x,-y,1/2-z
-x,y,1/2-z
-x,-y,-z
x,y,-z
-x,y,1/2+z
x,-y,1/2+z
loop_
_atom_site_type_symbol
_atom_site_label
_atom_site_fract_x
_atom_site_fract_y
_atom_site_fract_z
Si Si1 0.414326 0.344458 0.330909
Si Si2 0.784987 0.816753 0.161849
Si Si3 0.121954 0.566644 0.500000
Si Si4 0.084353 0.606124 0.000000
Si Si5 0.418601 0.189844 0.166844
Si Si6 0.901908 0.927892 0.673989
Si Si7 0.788028 0.647810 0.750379
O O1 0.500000 0.387913 0.250000
O O2 0.438360 0.340396 0.500000
O O3 0.410219 0.264351 0.259182
O O4 0.311878 0.378966 0.310663
O O5 0.680842 0.849677 0.174060
O O6 0.843045 0.855415 0.288535
O O7 0.784197 0.728841 0.180170
O O8 0.824245 0.834447 0.000000
O O9 0.105043 0.480256 0.500000
O O10 0.184344 0.585610 0.636479
O O11 0.026775 0.614601 0.500000
O O12 0.129609 0.648059 0.865448
O O13 0.500000 0.142999 0.250000
O O14 0.446461 0.205664 0.000000
O O15 0.910238 0.937247 0.500000
O O16 0.000000 0.916800 0.750000
O O17 0.855314 0.000000 0.750000
#
# Coordination Sequence:
#
# PCOD8202924 Si02
#       7
#     8   8   4   4   8   8   8
#     4  10  19  31  54  83 114 148 188 237 294 357
#     4  10  21  37  57  88 122 154 195 240 291 340
#     4  11  24  42  63  81 114 162 195 246 301 361
#     4  11  24  42  61  87 112 152 209 240 299 363
#     4   9  17  29  51  81 117 152 187 233 284 341
#     4  11  23  40  62  85 118 159 198 239 290 352
#     4  11  22  39  61  89 120 151 197 253 295 349
#
# _framework density 19.952643999999999
#
# number of rings (size 3 to 8) (size 9 to 14) (size 15 to 20)
#    0.000    1.667    1.667    5.000    3.500    4.000 
#    0.000    0.000    0.000    3.500    0.000    3.500 
#    0.000    0.000    0.000    0.000    0.000    0.000 
#
# Total GULP energy -594731.080338 kJ/mol
# GULP energy per Si atom -12390.230840 kJ/mol
# Density = 1.990723 g / cm^3
# Si number density = 19.952644 Si / 1000 Ang^3
#
#
#
# Elastic Constant Matrix: (Units=GPa)
#
#
# Indices 1 2 3 4 5 6 
#
# 1 112.3521 23.4429 54.5252 0.0000 0.0000 0.0000
# 2 23.4429 39.0246 17.9592 0.0000 0.0000 0.0000
# 3 54.5252 17.9592 178.0015 0.0000 0.0000 0.0000
# 4 0.0000 0.0000 0.0000 23.7990 0.0000 0.0000
# 5 0.0000 0.0000 0.0000 0.0000 40.3725 0.0000
# 6 0.0000 0.0000 0.0000 0.0000 0.0000 7.7709
#
#
#
# Elastic Compliance Matrix: (Units=1/GPa)
#
#
# Indices 1 2 3 4 5 6 
#
# 1 0.011494 -0.005542 -0.002962 0.000000 0.000000 0.000000
# 2 -0.005542 0.029545 -0.001283 0.000000 0.000000 0.000000
# 3 -0.002962 -0.001283 0.006655 0.000000 0.000000 0.000000
# 4 0.000000 0.000000 0.000000 0.042018 0.000000 0.000000
# 5 0.000000 0.000000 0.000000 0.000000 0.024769 0.000000
# 6 0.000000 0.000000 0.000000 0.000000 0.000000 0.128686
#
#
# Mechanical properties :
#
#
# Convention : Reuss Voigt Hill
#
# Bulk Modulus (GPa) = 35.56228 57.91474 46.73851
# Shear Modulus (GPa) = 18.37465 29.95188 24.16327
#
# Velocity S-wave (km/s) = 3.03795 3.87867 3.48376
# Velocity P-wave (km/s) = 5.49250 7.01055 6.29744
#
# Compressibility (1/GPa) = 0.02811968
#
# Stress axis : x y z
#
# Youngs Moduli (GPa) = 86.99970 33.84719 150.27080
#
# Poissons Ratio (x) = 0.18758 0.44507
# Poissons Ratio (y) = 0.48214 0.19284
# Poissons Ratio (z) = 0.25767 0.04344
#
# Static dielectric constant tensor:
#      x y z
#    x 4.734650 0.000000 0.000000 
#    y 0.000000 3.205030 0.000000 
#    z 0.000000 0.000000 3.745390 
# 
# 
# High freq. dielectric constant tensor:
#      x y z
#    x 1.799170 0.000000 0.000000 
#    y 0.000000 1.724430 0.000000 
#    z 0.000000 0.000000 1.798740 
# 
# From -- ./inp_files/3765.got.cif
#   From: 2010.03.12/outbox.cif.g09.slc.cpg/sg49_2_cif.got.tgz:3765.got - 2010.04.14 03:58:27.
