data_PCOD8202290
_publ_section_title
;
Structure prediction by ZEFSAII (Michael W. Deem and Ramdas Pophale) SiO2 
 PCOD8202290
Probable space group: P C C M
;
_chemical_formula_sum "Si O2"
_cell_formula_units_Z 64
_cell_length_a 14.866398
_cell_length_b 28.180794
_cell_length_c 8.635069
_cell_angle_alpha 90.000000
_cell_angle_beta 90.000000
_cell_angle_gamma 90.000000
_cell_volume 3617.635385
_symmetry_space_group_name_H-M "P C C M"
_symmetry_group_IT_number 49
_symmetry_cell_setting 'orthorhombic'
loop_
_space_group_symop_operation_xyz
x,y,z
-x,-y,z
x,-y,1/2-z
-x,y,1/2-z
-x,-y,-z
x,y,-z
-x,y,1/2+z
x,-y,1/2+z
loop_
_atom_site_type_symbol
_atom_site_label
_atom_site_fract_x
_atom_site_fract_y
_atom_site_fract_z
Si Si1 0.094929 0.420683 0.683954
Si Si2 0.593849 0.375039 0.816812
Si Si3 0.907296 0.687307 0.682433
Si Si4 0.275840 0.548421 0.682733
Si Si5 0.100098 0.047398 0.184181
Si Si6 0.407147 0.266544 0.682701
Si Si7 0.900177 0.855515 0.315393
Si Si8 0.220225 0.768576 0.816085
O O1 0.098251 0.427028 0.500000
O O2 0.110657 0.366279 0.736645
O O3 0.172307 0.451134 0.764052
O O4 0.000000 0.439109 0.750000
O O5 0.500000 0.394675 0.750000
O O6 0.674734 0.405878 0.750748
O O7 0.608238 0.320756 0.762198
O O8 0.593720 0.379554 0.000000
O O9 0.914228 0.689977 0.500000
O O10 0.828465 0.721081 0.745702
O O11 0.000000 0.707166 0.750000
O O12 0.319468 0.500000 0.750000
O O13 0.284246 0.548417 0.500000
O O14 0.143745 0.095800 0.249186
O O15 0.000000 0.047093 0.250000
O O16 0.149996 0.000000 0.250000
O O17 0.100711 0.046962 0.000000
O O18 0.500000 0.245713 0.750000
O O19 0.413975 0.264852 0.500000
O O20 0.323752 0.234129 0.742508
O O21 0.906286 0.857861 0.500000
O O22 0.832280 0.814814 0.254929
O O23 0.000000 0.845899 0.250000
O O24 0.218576 0.768921 0.000000
#
# Coordination Sequence:
#
# PCOD8202290 Si02
#       8
#     8   8   8   8   8   8   8   8
#     4  10  20  36  56  77 101 130 165 203 241 281
#     4  10  20  37  60  83 106 130 158 194 238 288
#     4   9  17  30  48  70  96 127 160 193 229 274
#     4  12  25  40  57  78 102 128 160 196 240 290
#     4  10  17  27  42  60  85 120 164 208 247 285
#     4   9  18  34  54  75  98 126 160 197 236 281
#     4  10  18  28  42  63  94 131 168 203 240 282
#     4   9  17  29  46  67  96 132 162 191 235 285
#
# _framework density 17.691113000000001
#
# number of rings (size 3 to 8) (size 9 to 14) (size 15 to 20)
#    0.000    2.125    0.000    5.625    0.000    3.500 
#    0.000    5.000    0.000    0.000    0.000    0.000 
#    0.000    0.500    0.000    5.750    0.000    1.750 
#
# Total GULP energy -793465.262197 kJ/mol
# GULP energy per Si atom -12397.894722 kJ/mol
# Density = 1.765085 g / cm^3
# Si number density = 17.691113 Si / 1000 Ang^3
#
#
#
# Elastic Constant Matrix: (Units=GPa)
#
#
# Indices 1 2 3 4 5 6 
#
# 1 103.9986 44.6221 22.7470 0.0000 0.0000 0.0000
# 2 44.6221 87.1675 26.9782 0.0000 0.0000 0.0000
# 3 22.7470 26.9782 76.0437 0.0000 0.0000 0.0000
# 4 0.0000 0.0000 0.0000 12.1051 0.0000 0.0000
# 5 0.0000 0.0000 0.0000 0.0000 26.4137 0.0000
# 6 0.0000 0.0000 0.0000 0.0000 0.0000 17.5731
#
#
#
# Elastic Compliance Matrix: (Units=1/GPa)
#
#
# Indices 1 2 3 4 5 6 
#
# 1 0.012504 -0.005890 -0.001651 0.000000 0.000000 0.000000
# 2 -0.005890 0.015662 -0.003794 0.000000 0.000000 0.000000
# 3 -0.001651 -0.003794 0.014990 0.000000 0.000000 0.000000
# 4 0.000000 0.000000 0.000000 0.082610 0.000000 0.000000
# 5 0.000000 0.000000 0.000000 0.000000 0.037859 0.000000
# 6 0.000000 0.000000 0.000000 0.000000 0.000000 0.056905
#
#
# Mechanical properties :
#
#
# Convention : Reuss Voigt Hill
#
# Bulk Modulus (GPa) = 48.81493 50.65606 49.73550
# Shear Modulus (GPa) = 19.99774 22.74256 21.37015
#
# Velocity S-wave (km/s) = 3.36577 3.58933 3.47934
# Velocity P-wave (km/s) = 6.53891 6.77300 6.65698
#
# Compressibility (1/GPa) = 0.02048553
#
# Stress axis : x y z
#
# Youngs Moduli (GPa) = 79.97628 63.85010 66.70995
#
# Poissons Ratio (x) = 0.37607 0.11012
# Poissons Ratio (y) = 0.47105 0.25313
# Poissons Ratio (z) = 0.13201 0.24228
#
# Static dielectric constant tensor:
#      x y z
#    x 3.269630 0.000000 0.000000 
#    y 0.000000 3.803700 0.000000 
#    z 0.000000 0.000000 3.212810 
# 
# 
# High freq. dielectric constant tensor:
#      x y z
#    x 1.661940 0.000000 0.000000 
#    y 0.000000 1.677450 0.000000 
#    z 0.000000 0.000000 1.683340 
# 
# From -- ./inp_files/4507.got.cif
#   From: 2010.03.12/outbox.cif.g09.slc.cpg/sg49_3_cif.got.tgz:4507.got - 2010.04.14 03:58:27.
