data_PCOD8202394
_publ_section_title
;
Structure prediction by ZEFSAII (Michael W. Deem and Ramdas Pophale) SiO2 
 PCOD8202394
Probable space group: P C C M
;
_chemical_formula_sum "Si O2"
_cell_formula_units_Z 48
_cell_length_a 29.094820
_cell_length_b 9.075547
_cell_length_c 9.023998
_cell_angle_alpha 90.000000
_cell_angle_beta 90.000000
_cell_angle_gamma 90.000000
_cell_volume 2382.799363
_symmetry_space_group_name_H-M "P C C M"
_symmetry_group_IT_number 49
_symmetry_cell_setting 'orthorhombic'
loop_
_space_group_symop_operation_xyz
x,y,z
-x,-y,z
x,-y,1/2-z
-x,y,1/2-z
-x,-y,-z
x,y,-z
-x,y,1/2+z
x,-y,1/2+z
loop_
_atom_site_type_symbol
_atom_site_label
_atom_site_fract_x
_atom_site_fract_y
_atom_site_fract_z
Si Si1 0.545242 0.837137 0.319708
Si Si2 0.635396 0.840527 0.179120
Si Si3 0.933839 0.644465 0.000000
Si Si4 0.899261 0.174559 0.766834
Si Si5 0.287634 0.346408 0.677108
Si Si6 0.042022 0.687880 0.000000
Si Si7 0.815506 0.358760 0.835395
O O1 0.500000 0.756870 0.250000
O O2 0.544801 0.838326 0.500000
O O3 0.590928 0.757419 0.252629
O O4 0.545417 0.000000 0.250000
O O5 0.682268 0.770841 0.236066
O O6 0.635559 0.000000 0.250000
O O7 0.632642 0.842952 0.000000
O O8 0.906407 0.722646 0.128025
O O9 0.929521 0.466904 0.000000
O O10 0.987892 0.673218 0.000000
O O11 0.850055 0.220176 0.833030
O O12 0.898983 0.000000 0.750000
O O13 0.943545 0.214542 0.862268
O O14 0.301680 0.500000 0.750000
O O15 0.296604 0.344476 0.500000
O O16 0.234783 0.308379 0.720114
O O17 0.835439 0.500000 0.750000
O O18 0.809672 0.417993 0.000000
#
# Coordination Sequence:
#
# PCOD8202394 Si02
#       7
#     8   8   4   8   8   4   8
#     4  10  17  28  47  75 111 153 199 251 305 366
#     4  11  21  35  55  84 118 157 200 251 310 365
#     4  11  25  41  67  91 115 167 203 251 288 367
#     4  12  25  40  61  94 126 157 194 252 312 358
#     4  10  21  39  61  87 115 153 199 247 298 359
#     4  11  23  45  65  87 123 157 215 241 296 359
#     4  10  22  41  65  88 116 155 199 242 290 362
#
# _framework density 20.144373999999999
#
# number of rings (size 3 to 8) (size 9 to 14) (size 15 to 20)
#    0.000    1.333    0.833    7.500    1.167    4.667 
#    0.000    0.000    0.000    0.500    0.000    3.500 
#    0.000    0.000    0.000    0.000    0.000    0.000 
#
# Total GULP energy -594660.437691 kJ/mol
# GULP energy per Si atom -12388.759119 kJ/mol
# Density = 2.009852 g / cm^3
# Si number density = 20.144374 Si / 1000 Ang^3
#
#
#
# Elastic Constant Matrix: (Units=GPa)
#
#
# Indices 1 2 3 4 5 6 
#
# 1 100.2334 42.3113 31.7931 0.0000 0.0000 0.0000
# 2 42.3113 91.8297 25.5335 0.0000 0.0000 0.0000
# 3 31.7931 25.5335 144.8466 0.0000 0.0000 0.0000
# 4 0.0000 0.0000 0.0000 31.2715 0.0000 0.0000
# 5 0.0000 0.0000 0.0000 0.0000 36.2175 0.0000
# 6 0.0000 0.0000 0.0000 0.0000 0.0000 22.3061
#
#
#
# Elastic Compliance Matrix: (Units=1/GPa)
#
#
# Indices 1 2 3 4 5 6 
#
# 1 0.012849 -0.005401 -0.001868 0.000000 0.000000 0.000000
# 2 -0.005401 0.013721 -0.001233 0.000000 0.000000 0.000000
# 3 -0.001868 -0.001233 0.007531 0.000000 0.000000 0.000000
# 4 0.000000 0.000000 0.000000 0.031978 0.000000 0.000000
# 5 0.000000 0.000000 0.000000 0.000000 0.027611 0.000000
# 6 0.000000 0.000000 0.000000 0.000000 0.000000 0.044831
#
#
# Mechanical properties :
#
#
# Convention : Reuss Voigt Hill
#
# Bulk Modulus (GPa) = 58.49057 59.57617 59.03337
# Shear Modulus (GPa) = 31.01250 33.77713 32.39482
#
# Velocity S-wave (km/s) = 3.92792 4.09926 4.01450
# Velocity P-wave (km/s) = 7.04770 7.21416 7.13141
#
# Compressibility (1/GPa) = 0.01709677
#
# Stress axis : x y z
#
# Youngs Moduli (GPa) = 77.82608 72.88021 132.77858
#
# Poissons Ratio (x) = 0.39362 0.24807
# Poissons Ratio (y) = 0.42033 0.16376
# Poissons Ratio (z) = 0.14540 0.08988
#
# Static dielectric constant tensor:
#      x y z
#    x 4.432150 0.000000 0.000000 
#    y 0.000000 3.289360 0.000000 
#    z 0.000000 0.000000 3.851260 
# 
# 
# High freq. dielectric constant tensor:
#      x y z
#    x 1.811670 0.000000 0.000000 
#    y 0.000000 1.750430 0.000000 
#    z 0.000000 0.000000 1.805990 
# 
# From -- ./inp_files/6932.got.cif
#   From: 2010.03.12/outbox.cif.g09.slc.cpg/sg49_4_cif.got.tgz:6932.got - 2010.04.14 03:58:27.
