data_PCOD8202753
_publ_section_title
;
Structure prediction by ZEFSAII (Michael W. Deem and Ramdas Pophale) SiO2 
 PCOD8202753
Probable space group: P C C M
;
_chemical_formula_sum "Si O2"
_cell_formula_units_Z 64
_cell_length_a 23.412392
_cell_length_b 19.100614
_cell_length_c 8.830414
_cell_angle_alpha 90.000000
_cell_angle_beta 90.000000
_cell_angle_gamma 90.000000
_cell_volume 3948.882218
_symmetry_space_group_name_H-M "P C C M"
_symmetry_group_IT_number 49
_symmetry_cell_setting 'orthorhombic'
loop_
_space_group_symop_operation_xyz
x,y,z
-x,-y,z
x,-y,1/2-z
-x,y,1/2-z
-x,-y,-z
x,y,-z
-x,y,1/2+z
x,-y,1/2+z
loop_
_atom_site_type_symbol
_atom_site_label
_atom_site_fract_x
_atom_site_fract_y
_atom_site_fract_z
Si Si1 0.833416 0.791680 0.179145
Si Si2 0.340697 0.846762 0.324061
Si Si3 0.059880 0.295063 0.179816
Si Si4 0.439524 0.073523 0.679483
Si Si5 0.118204 0.427511 0.678854
Si Si6 0.250127 0.428195 0.676900
Si Si7 0.274972 0.709377 0.676722
Si Si8 0.773513 0.073920 0.677712
O O1 0.895451 0.765197 0.230363
O O2 0.784451 0.740176 0.243117
O O3 0.821693 0.870933 0.235962
O O4 0.826186 0.790773 0.000000
O O5 0.355727 0.857943 0.500000
O O6 0.394570 0.866197 0.221053
O O7 0.325089 0.765632 0.292589
O O8 0.288418 0.896774 0.275595
O O9 0.079227 0.368564 0.247195
O O10 0.000000 0.271919 0.250000
O O11 0.055487 0.301459 0.000000
O O12 0.500000 0.095346 0.750000
O O13 0.445179 0.065867 0.500000
O O14 0.418546 0.000000 0.750000
O O15 0.096746 0.500000 0.750000
O O16 0.108649 0.428411 0.500000
O O17 0.184198 0.415037 0.722571
O O18 0.272742 0.500000 0.750000
O O19 0.258484 0.435147 0.500000
O O20 0.287808 0.363293 0.737604
O O21 0.269791 0.692701 0.500000
O O22 0.776853 0.064480 0.500000
O O23 0.786801 0.000000 0.750000
#
# Coordination Sequence:
#
# PCOD8202753 Si02
#       8
#     8   8   8   8   8   8   8   8
#     4   8  16  31  49  65  87 118 147 178 225 282
#     4   9  18  31  48  71 100 129 161 197 236 281
#     4  11  21  34  51  67  87 114 148 188 230 279
#     4  11  21  33  49  68  97 135 175 209 240 278
#     4  10  20  33  48  68  91 118 151 187 225 270
#     4  10  19  29  45  68  95 124 156 192 229 279
#     4   9  16  30  50  69  92 124 157 191 235 283
#     4   9  17  30  48  71  94 119 149 184 229 277
#
# _framework density 16.207117
#
# number of rings (size 3 to 8) (size 9 to 14) (size 15 to 20)
#    0.000    2.375    1.250    4.500    0.000    3.250 
#    0.000    4.375    0.000    0.375    0.000    2.625 
#    0.000    0.500    0.000    5.250    0.000    2.250 
#
# Total GULP energy -793528.303034 kJ/mol
# GULP energy per Si atom -12398.879735 kJ/mol
# Density = 1.617023 g / cm^3
# Si number density = 16.207117 Si / 1000 Ang^3
#
#
#
# Elastic Constant Matrix: (Units=GPa)
#
#
# Indices 1 2 3 4 5 6 
#
# 1 79.8149 56.9157 41.4635 0.0000 0.0000 0.0000
# 2 56.9157 135.8208 44.0913 0.0000 0.0000 0.0000
# 3 41.4635 44.0913 73.0806 0.0000 0.0000 0.0000
# 4 0.0000 0.0000 0.0000 28.6873 0.0000 0.0000
# 5 0.0000 0.0000 0.0000 0.0000 8.1914 0.0000
# 6 0.0000 0.0000 0.0000 0.0000 0.0000 22.2266
#
#
#
# Elastic Compliance Matrix: (Units=1/GPa)
#
#
# Indices 1 2 3 4 5 6 
#
# 1 0.021289 -0.006218 -0.008327 0.000000 0.000000 0.000000
# 2 -0.006218 0.010972 -0.003092 0.000000 0.000000 0.000000
# 3 -0.008327 -0.003092 0.020274 0.000000 0.000000 0.000000
# 4 0.000000 0.000000 0.000000 0.034859 0.000000 0.000000
# 5 0.000000 0.000000 0.000000 0.000000 0.122079 0.000000
# 6 0.000000 0.000000 0.000000 0.000000 0.000000 0.044991
#
#
# Mechanical properties :
#
#
# Convention : Reuss Voigt Hill
#
# Bulk Modulus (GPa) = 57.93577 63.73970 60.83773
# Shear Modulus (GPa) = 16.92102 21.57078 19.24590
#
# Velocity S-wave (km/s) = 3.23468 3.65217 3.44975
# Velocity P-wave (km/s) = 7.05518 7.56294 7.31347
#
# Compressibility (1/GPa) = 0.01726049
#
# Stress axis : x y z
#
# Youngs Moduli (GPa) = 46.97288 91.14174 49.32544
#
# Poissons Ratio (x) = 0.56670 0.41074
# Poissons Ratio (y) = 0.29207 0.15251
# Poissons Ratio (z) = 0.39115 0.28180
#
# Static dielectric constant tensor:
#      x y z
#    x 2.902050 0.000000 0.000000 
#    y 0.000000 3.347850 0.000000 
#    z 0.000000 0.000000 2.962710 
# 
# 
# High freq. dielectric constant tensor:
#      x y z
#    x 1.590270 0.000000 0.000000 
#    y 0.000000 1.623930 0.000000 
#    z 0.000000 0.000000 1.621880 
# 
# From -- ./inp_files/6612.got.cif
#   From: 2010.03.12/outbox.cif.g09.slc.cpg/sg49_4_cif.got.tgz:6612.got - 2010.04.14 03:58:27.
