data_PCOD8202226
_publ_section_title
;
Structure prediction by ZEFSAII (Michael W. Deem and Ramdas Pophale) SiO2 
 PCOD8202226
Probable space group: P C C M
;
_chemical_formula_sum "Si O2"
_cell_formula_units_Z 48
_cell_length_a 21.623783
_cell_length_b 5.114588
_cell_length_c 23.650994
_cell_angle_alpha 90.000000
_cell_angle_beta 90.000000
_cell_angle_gamma 90.000000
_cell_volume 2615.722859
_symmetry_space_group_name_H-M "P C C M"
_symmetry_group_IT_number 49
_symmetry_cell_setting 'orthorhombic'
loop_
_space_group_symop_operation_xyz
x,y,z
-x,-y,z
x,-y,1/2-z
-x,y,1/2-z
-x,-y,-z
x,y,-z
-x,y,1/2+z
x,-y,1/2+z
loop_
_atom_site_type_symbol
_atom_site_label
_atom_site_fract_x
_atom_site_fract_y
_atom_site_fract_z
Si Si1 0.472133 0.252722 0.813076
Si Si2 0.902188 0.919649 0.186531
Si Si3 0.192054 0.416954 0.434892
Si Si4 0.225156 0.083084 0.129842
Si Si5 0.331241 0.250128 0.788203
Si Si6 0.064861 0.586405 0.877641
O O1 0.500000 0.500000 0.846352
O O2 0.500000 0.250404 0.750000
O O3 0.398822 0.282685 0.814485
O O4 0.500000 0.000000 0.844976
O O5 0.828832 0.940385 0.176157
O O6 0.921629 0.623022 0.172422
O O7 0.917249 0.000000 0.250000
O O8 0.940440 0.124435 0.148455
O O9 0.206089 0.363929 0.500000
O O10 0.211368 0.709937 0.419335
O O11 0.118399 0.400994 0.424442
O O12 0.231129 0.203596 0.398687
O O13 0.285851 0.191994 0.160216
O O14 0.311592 0.500000 0.750000
O O15 0.331399 0.000000 0.750000
O O16 0.000000 0.500000 0.906570
#
# Coordination Sequence:
#
# PCOD8202226 Si02
#       6
#     8   8   8   8   8   8
#     4  10  16  29  43  68 107 150 175 199 234 291
#     4  10  20  34  49  69 108 141 163 202 246 298
#     4  10  21  40  58  71  99 131 163 232 285 304
#     4  10  22  35  51  80 101 131 186 208 251 320
#     4  12  20  30  51  76 113 153 171 206 245 299
#     4  10  21  34  52  78  98 124 173 213 251 324
#
# _framework density 18.350569
#
# number of rings (size 3 to 8) (size 9 to 14) (size 15 to 20)
#    0.000    1.667    3.333    3.000    0.000    5.000 
#    0.000    0.000    0.000    6.000    0.000    0.000 
#    0.000   13.333    0.000    0.000    0.000    0.000 
#
# Total GULP energy -594934.702404 kJ/mol
# GULP energy per Si atom -12394.472967 kJ/mol
# Density = 1.830880 g / cm^3
# Si number density = 18.350569 Si / 1000 Ang^3
#
#
#
# Elastic Constant Matrix: (Units=GPa)
#
#
# Indices 1 2 3 4 5 6 
#
# 1 103.7144 20.7189 25.5978 0.0000 0.0000 0.0000
# 2 20.7189 126.7933 15.5727 0.0000 0.0000 0.0000
# 3 25.5978 15.5727 48.3839 0.0000 0.0000 0.0000
# 4 0.0000 0.0000 0.0000 17.0841 0.0000 0.0000
# 5 0.0000 0.0000 0.0000 0.0000 11.4608 0.0000
# 6 0.0000 0.0000 0.0000 0.0000 0.0000 9.6333
#
#
#
# Elastic Compliance Matrix: (Units=1/GPa)
#
#
# Indices 1 2 3 4 5 6 
#
# 1 0.011250 -0.001153 -0.005581 0.000000 0.000000 0.000000
# 2 -0.001153 0.008330 -0.002071 0.000000 0.000000 0.000000
# 3 -0.005581 -0.002071 0.024287 0.000000 0.000000 0.000000
# 4 0.000000 0.000000 0.000000 0.058534 0.000000 0.000000
# 5 0.000000 0.000000 0.000000 0.000000 0.087254 0.000000
# 6 0.000000 0.000000 0.000000 0.000000 0.000000 0.103807
#
#
# Mechanical properties :
#
#
# Convention : Reuss Voigt Hill
#
# Bulk Modulus (GPa) = 38.08466 44.74116 41.41291
# Shear Modulus (GPa) = 15.63369 22.10245 18.86807
#
# Velocity S-wave (km/s) = 2.92198 3.47429 3.21004
# Velocity P-wave (km/s) = 5.67300 6.36620 6.02957
#
# Compressibility (1/GPa) = 0.02625729
#
# Stress axis : x y z
#
# Youngs Moduli (GPa) = 88.89280 120.05389 41.17420
#
# Poissons Ratio (x) = 0.13840 0.22978
# Poissons Ratio (y) = 0.10248 0.08527
# Poissons Ratio (z) = 0.49607 0.24863
#
# Static dielectric constant tensor:
#      x y z
#    x 3.152440 0.000000 0.000000 
#    y 0.000000 3.214600 0.000000 
#    z 0.000000 0.000000 2.816980 
# 
# 
# High freq. dielectric constant tensor:
#      x y z
#    x 1.708250 0.000000 0.000000 
#    y 0.000000 1.746610 0.000000 
#    z 0.000000 0.000000 1.653530 
# 
# From -- ./inp_files/21140.got.cif
#   From: 2010.03.12/outbox.cif.g09.slc.cpg/sg49_11_cif.got.tgz:21140.got - 2010.04.14 03:58:27.
