data_PCOD8202746
_publ_section_title
;
Structure prediction by ZEFSAII (Michael W. Deem and Ramdas Pophale) SiO2 
 PCOD8202746
Probable space group: P C C M
;
_chemical_formula_sum "Si O2"
_cell_formula_units_Z 56
_cell_length_a 18.450471
_cell_length_b 21.003554
_cell_length_c 8.849079
_cell_angle_alpha 90.000000
_cell_angle_beta 90.000000
_cell_angle_gamma 90.000000
_cell_volume 3429.243445
_symmetry_space_group_name_H-M "P C C M"
_symmetry_group_IT_number 49
_symmetry_cell_setting 'orthorhombic'
loop_
_space_group_symop_operation_xyz
x,y,z
-x,-y,z
x,-y,1/2-z
-x,y,1/2-z
-x,-y,-z
x,y,-z
-x,y,1/2+z
x,-y,1/2+z
loop_
_atom_site_type_symbol
_atom_site_label
_atom_site_fract_x
_atom_site_fract_y
_atom_site_fract_z
Si Si1 0.421759 0.692505 0.322557
Si Si2 0.922475 0.308497 0.178243
Si Si3 0.796062 0.751025 0.174075
Si Si4 0.423720 0.933437 0.821424
Si Si5 0.292124 0.641435 0.175182
Si Si6 0.842003 0.434983 0.172487
Si Si7 0.341053 0.823884 0.673533
O O1 0.500000 0.689407 0.250000
O O2 0.425814 0.678747 0.500000
O O3 0.373550 0.636893 0.241646
O O4 0.387233 0.761125 0.286067
O O5 0.870119 0.249980 0.228864
O O6 0.887981 0.375158 0.237306
O O7 0.000000 0.297613 0.250000
O O8 0.929024 0.307384 0.000000
O O9 0.746977 0.692154 0.220178
O O10 0.745294 0.813009 0.200805
O O11 0.817883 0.744691 0.000000
O O12 0.500000 0.911884 0.750000
O O13 0.364163 0.880450 0.783919
O O14 0.398101 0.000000 0.750000
O O15 0.432370 0.940988 0.000000
O O16 0.244827 0.576789 0.191942
O O17 0.292985 0.663222 0.000000
O O18 0.865993 0.500000 0.250000
O O19 0.863217 0.443081 0.000000
O O20 0.355716 0.843116 0.500000
#
# Coordination Sequence:
#
# PCOD8202746 Si02
#       7
#     8   8   8   8   8   8   8
#     4  10  19  29  44  66  89 115 145 184 231 274
#     4  10  20  33  48  69  96 123 150 181 221 268
#     4   9  17  30  48  68  90 118 149 184 225 268
#     4  11  21  32  46  63  90 127 164 199 235 270
#     4   9  17  30  45  63  87 113 144 182 223 269
#     4   9  19  32  47  66  87 115 149 183 218 262
#     4   9  18  31  46  66  91 118 153 189 224 268
#
# _framework density 16.330134000000001
#
# number of rings (size 3 to 8) (size 9 to 14) (size 15 to 20)
#    0.000    2.429    0.000    5.571    0.000    8.286 
#    0.000    1.429    0.000    0.429    0.000    3.000 
#    0.000    0.571    0.000    6.000    0.000    2.571 
#
# Total GULP energy -694058.354575 kJ/mol
# GULP energy per Si atom -12393.899189 kJ/mol
# Density = 1.629297 g / cm^3
# Si number density = 16.330134 Si / 1000 Ang^3
#
#
#
# Elastic Constant Matrix: (Units=GPa)
#
#
# Indices 1 2 3 4 5 6 
#
# 1 121.4404 30.0535 42.8305 0.0000 0.0000 0.0000
# 2 30.0535 39.1711 28.6141 0.0000 0.0000 0.0000
# 3 42.8305 28.6141 80.2083 0.0000 0.0000 0.0000
# 4 0.0000 0.0000 0.0000 23.1325 0.0000 0.0000
# 5 0.0000 0.0000 0.0000 0.0000 29.5353 0.0000
# 6 0.0000 0.0000 0.0000 0.0000 0.0000 17.3154
#
#
#
# Elastic Compliance Matrix: (Units=1/GPa)
#
#
# Indices 1 2 3 4 5 6 
#
# 1 0.010985 -0.005603 -0.003867 0.000000 0.000000 0.000000
# 2 -0.005603 0.037385 -0.010345 0.000000 0.000000 0.000000
# 3 -0.003867 -0.010345 0.018223 0.000000 0.000000 0.000000
# 4 0.000000 0.000000 0.000000 0.043229 0.000000 0.000000
# 5 0.000000 0.000000 0.000000 0.000000 0.033858 0.000000
# 6 0.000000 0.000000 0.000000 0.000000 0.000000 0.057752
#
#
# Mechanical properties :
#
#
# Convention : Reuss Voigt Hill
#
# Bulk Modulus (GPa) = 37.08832 49.31289 43.20060
# Shear Modulus (GPa) = 19.99602 23.28475 21.64039
#
# Velocity S-wave (km/s) = 3.50306 3.78017 3.64425
# Velocity P-wave (km/s) = 6.25482 7.02253 6.64977
#
# Compressibility (1/GPa) = 0.02696267
#
# Stress axis : x y z
#
# Youngs Moduli (GPa) = 91.03332 26.74874 54.87595
#
# Poissons Ratio (x) = 0.14988 0.21220
# Poissons Ratio (y) = 0.51009 0.56768
# Poissons Ratio (z) = 0.35202 0.27671
#
# Static dielectric constant tensor:
#      x y z
#    x 3.343890 0.000000 0.000000 
#    y 0.000000 2.887340 0.000000 
#    z 0.000000 0.000000 3.185710 
# 
# 
# High freq. dielectric constant tensor:
#      x y z
#    x 1.624530 0.000000 0.000000 
#    y 0.000000 1.584490 0.000000 
#    z 0.000000 0.000000 1.643700 
# 
# From -- ./inp_files/5176.got.cif
#   From: 2010.03.12/outbox.cif.g09.slc.cpg/sg49_3_cif.got.tgz:5176.got - 2010.04.14 03:58:27.
