data_PCOD8202386
_publ_section_title
;
Structure prediction by ZEFSAII (Michael W. Deem and Ramdas Pophale) SiO2 
 PCOD8202386
Probable space group: P C C M
;
_chemical_formula_sum "Si O2"
_cell_formula_units_Z 48
_cell_length_a 30.678756
_cell_length_b 9.573684
_cell_length_c 8.583165
_cell_angle_alpha 90.000000
_cell_angle_beta 90.000000
_cell_angle_gamma 90.000000
_cell_volume 2520.950367
_symmetry_space_group_name_H-M "P C C M"
_symmetry_group_IT_number 49
_symmetry_cell_setting 'orthorhombic'
loop_
_space_group_symop_operation_xyz
x,y,z
-x,-y,z
x,-y,1/2-z
-x,y,1/2-z
-x,-y,-z
x,y,-z
-x,y,1/2+z
x,-y,1/2+z
loop_
_atom_site_type_symbol
_atom_site_label
_atom_site_fract_x
_atom_site_fract_y
_atom_site_fract_z
Si Si1 0.291326 0.655061 0.684620
Si Si2 0.044538 0.346276 0.316020
Si Si3 0.883829 0.147880 0.315304
Si Si4 0.214724 0.854439 0.317721
Si Si5 0.367014 0.845202 0.184376
Si Si6 0.456350 0.155725 0.184821
O O1 0.290852 0.500000 0.750000
O O2 0.298436 0.654013 0.500000
O O3 0.245723 0.727243 0.732873
O O4 0.329280 0.741601 0.765301
O O5 0.049492 0.500000 0.250000
O O6 0.041848 0.350335 0.500000
O O7 0.086701 0.264043 0.262068
O O8 0.000000 0.276901 0.250000
O O9 0.888809 0.151698 0.500000
O O10 0.834268 0.177482 0.259576
O O11 0.899768 0.000000 0.250000
O O12 0.214977 0.874588 0.500000
O O13 0.232663 0.000000 0.250000
O O14 0.411782 0.776519 0.251035
O O15 0.358153 0.000000 0.250000
O O16 0.369980 0.855764 0.000000
O O17 0.500000 0.233258 0.250000
O O18 0.456679 0.000000 0.250000
O O19 0.456719 0.157381 0.000000
#
# Coordination Sequence:
#
# PCOD8202386 Si02
#       6
#     8   8   8   8   8   8
#     4  11  23  39  56  80 110 145 184 227 274 325
#     4  11  22  38  58  82 111 148 187 229 274 325
#     4  10  20  37  58  85 115 146 182 226 274 326
#     4   9  20  37  59  83 111 143 181 224 273 327
#     4  11  21  35  55  81 110 145 184 227 274 326
#     4  10  17  28  47  75 108 141 177 223 271 321
#
# _framework density 19.040438999999999
#
# number of rings (size 3 to 8) (size 9 to 14) (size 15 to 20)
#    0.000    1.667    0.000    8.000    0.000    4.333 
#    0.000    3.333    0.000    0.500    0.000    3.500 
#    0.000    0.000    0.000    0.000    0.000    0.000 
#
# Total GULP energy -595187.423939 kJ/mol
# GULP energy per Si atom -12399.737999 kJ/mol
# Density = 1.899710 g / cm^3
# Si number density = 19.040439 Si / 1000 Ang^3
#
#
#
# Elastic Constant Matrix: (Units=GPa)
#
#
# Indices 1 2 3 4 5 6 
#
# 1 137.7703 69.1681 61.8341 0.0000 0.0000 0.0000
# 2 69.1681 97.0812 46.6151 0.0000 0.0000 0.0000
# 3 61.8341 46.6151 149.9223 0.0000 0.0000 0.0000
# 4 0.0000 0.0000 0.0000 30.4052 0.0000 0.0000
# 5 0.0000 0.0000 0.0000 0.0000 32.4343 0.0000
# 6 0.0000 0.0000 0.0000 0.0000 0.0000 48.4272
#
#
#
# Elastic Compliance Matrix: (Units=1/GPa)
#
#
# Indices 1 2 3 4 5 6 
#
# 1 0.012185 -0.007369 -0.002735 0.000000 0.000000 0.000000
# 2 -0.007369 0.016564 -0.002111 0.000000 0.000000 0.000000
# 3 -0.002735 -0.002111 0.008454 0.000000 0.000000 0.000000
# 4 0.000000 0.000000 0.000000 0.032889 0.000000 0.000000
# 5 0.000000 0.000000 0.000000 0.000000 0.030832 0.000000
# 6 0.000000 0.000000 0.000000 0.000000 0.000000 0.020650
#
#
# Mechanical properties :
#
#
# Convention : Reuss Voigt Hill
#
# Bulk Modulus (GPa) = 78.27680 82.22313 80.24997
# Shear Modulus (GPa) = 33.27531 36.06377 34.66954
#
# Velocity S-wave (km/s) = 4.18498 4.35680 4.27176
# Velocity P-wave (km/s) = 8.03444 8.28168 8.15899
#
# Compressibility (1/GPa) = 0.01277518
#
# Stress axis : x y z
#
# Youngs Moduli (GPa) = 82.06638 60.37045 118.28157
#
# Poissons Ratio (x) = 0.44485 0.32345
# Poissons Ratio (y) = 0.60472 0.24972
# Poissons Ratio (z) = 0.22442 0.12745
#
# Static dielectric constant tensor:
#      x y z
#    x 4.500130 0.000000 0.000000 
#    y 0.000000 3.270140 0.000000 
#    z 0.000000 0.000000 3.597680 
# 
# 
# High freq. dielectric constant tensor:
#      x y z
#    x 1.762800 0.000000 0.000000 
#    y 0.000000 1.709970 0.000000 
#    z 0.000000 0.000000 1.758640 
# 
# From -- ./inp_files/2050.got.cif
#   From: 2010.03.12/outbox.cif.g09.slc.cpg/sg49_2_cif.got.tgz:2050.got - 2010.04.14 03:58:27.
