data_PCOD8202243
_publ_section_title
;
Structure prediction by ZEFSAII (Michael W. Deem and Ramdas Pophale) SiO2 
 PCOD8202243
Probable space group: P C C M
;
_chemical_formula_sum "Si O2"
_cell_formula_units_Z 64
_cell_length_a 26.951192
_cell_length_b 18.538818
_cell_length_c 8.677540
_cell_angle_alpha 90.000000
_cell_angle_beta 90.000000
_cell_angle_gamma 90.000000
_cell_volume 4335.674230
_symmetry_space_group_name_H-M "P C C M"
_symmetry_group_IT_number 49
_symmetry_cell_setting 'orthorhombic'
loop_
_space_group_symop_operation_xyz
x,y,z
-x,-y,z
x,-y,1/2-z
-x,y,1/2-z
-x,-y,-z
x,y,-z
-x,y,1/2+z
x,-y,1/2+z
loop_
_atom_site_type_symbol
_atom_site_label
_atom_site_fract_x
_atom_site_fract_y
_atom_site_fract_z
Si Si1 0.450481 0.080295 0.816628
Si Si2 0.192173 0.282442 0.677040
Si Si3 0.897900 0.792120 0.178989
Si Si4 0.151742 0.078269 0.317306
Si Si5 0.853508 0.575445 0.323561
Si Si6 0.948804 0.663047 0.317495
Si Si7 0.350153 0.079731 0.315747
Si Si8 0.252019 0.847130 0.821815
O O1 0.500000 0.119798 0.750000
O O2 0.399993 0.117037 0.753538
O O3 0.449887 0.000000 0.750000
O O4 0.451611 0.080051 0.000000
O O5 0.174081 0.266766 0.500000
O O6 0.153257 0.250216 0.796077
O O7 0.193114 0.369043 0.702384
O O8 0.244035 0.239699 0.705192
O O9 0.892902 0.870644 0.257707
O O10 0.941478 0.744680 0.255768
O O11 0.909424 0.801846 0.000000
O O12 0.150487 0.075878 0.500000
O O13 0.204789 0.108820 0.255244
O O14 0.142526 0.000000 0.250000
O O15 0.839299 0.500000 0.250000
O O16 0.862296 0.558766 0.500000
O O17 0.904129 0.611266 0.257764
O O18 0.950825 0.664701 0.500000
O O19 0.000000 0.631590 0.250000
O O20 0.354014 0.077418 0.500000
O O21 0.304097 0.127130 0.250096
O O22 0.342678 0.000000 0.250000
O O23 0.255577 0.865797 0.000000
#
# Coordination Sequence:
#
# PCOD8202243 Si02
#       8
#     8   8   8   8   8   8   8   8
#     4  10  17  26  37  49  66  93 129 170 209 248
#     4   8  15  30  45  59  80 109 137 163 193 231
#     4  10  18  29  45  64  82 105 133 162 194 235
#     4  10  18  29  43  61  83 107 134 167 202 239
#     4   9  18  30  46  65  88 111 134 161 191 224
#     4  10  20  34  49  66  85 108 132 160 193 230
#     4  10  17  25  36  53  75 101 131 169 210 247
#     4   8  15  26  41  57  78 105 134 165 201 240
#
# _framework density 14.761257000000001
#
# number of rings (size 3 to 8) (size 9 to 14) (size 15 to 20)
#    0.000    2.625    0.000    6.375    0.000    2.750 
#    0.000    6.875    0.000    0.375    0.000    2.625 
#    0.000    0.000    0.000    0.000    0.000    0.625 
#
# Total GULP energy -792906.503962 kJ/mol
# GULP energy per Si atom -12389.164124 kJ/mol
# Density = 1.472766 g / cm^3
# Si number density = 14.761257 Si / 1000 Ang^3
#
#
#
# Elastic Constant Matrix: (Units=GPa)
#
#
# Indices 1 2 3 4 5 6 
#
# 1 62.1329 33.7552 17.4650 0.0000 0.0000 0.0000
# 2 33.7552 98.1223 24.7015 0.0000 0.0000 0.0000
# 3 17.4650 24.7015 69.1982 0.0000 0.0000 0.0000
# 4 0.0000 0.0000 0.0000 20.5846 0.0000 0.0000
# 5 0.0000 0.0000 0.0000 0.0000 11.0086 0.0000
# 6 0.0000 0.0000 0.0000 0.0000 0.0000 12.8852
#
#
#
# Elastic Compliance Matrix: (Units=1/GPa)
#
#
# Indices 1 2 3 4 5 6 
#
# 1 0.020307 -0.006258 -0.002891 0.000000 0.000000 0.000000
# 2 -0.006258 0.013126 -0.003106 0.000000 0.000000 0.000000
# 3 -0.002891 -0.003106 0.016290 0.000000 0.000000 0.000000
# 4 0.000000 0.000000 0.000000 0.048580 0.000000 0.000000
# 5 0.000000 0.000000 0.000000 0.000000 0.090838 0.000000
# 6 0.000000 0.000000 0.000000 0.000000 0.000000 0.077609
#
#
# Mechanical properties :
#
#
# Convention : Reuss Voigt Hill
#
# Bulk Modulus (GPa) = 39.66380 42.36633 41.01507
# Shear Modulus (GPa) = 16.68532 19.13112 17.90822
#
# Velocity S-wave (km/s) = 3.36571 3.60396 3.48687
# Velocity P-wave (km/s) = 6.48325 6.78832 6.63754
#
# Compressibility (1/GPa) = 0.02521190
#
# Stress axis : x y z
#
# Youngs Moduli (GPa) = 49.24389 76.18396 61.38808
#
# Poissons Ratio (x) = 0.47676 0.17750
# Poissons Ratio (y) = 0.30817 0.19068
# Poissons Ratio (z) = 0.14239 0.23664
#
# Static dielectric constant tensor:
#      x y z
#    x 3.239570 0.000000 0.000000 
#    y 0.000000 2.857350 0.000000 
#    z 0.000000 0.000000 2.810600 
# 
# 
# High freq. dielectric constant tensor:
#      x y z
#    x 1.541280 0.000000 0.000000 
#    y 0.000000 1.534510 0.000000 
#    z 0.000000 0.000000 1.569060 
# 
# From -- ./inp_files/6810.got.cif
#   From: 2010.03.12/outbox.cif.g09.slc.cpg/sg49_4_cif.got.tgz:6810.got - 2010.04.14 03:58:27.
