data_PCOD8202211
_publ_section_title
;
Structure prediction by ZEFSAII (Michael W. Deem and Ramdas Pophale) SiO2 
 PCOD8202211
Probable space group: P C C M
;
_chemical_formula_sum "Si O2"
_cell_formula_units_Z 64
_cell_length_a 30.468556
_cell_length_b 15.333422
_cell_length_c 8.699036
_cell_angle_alpha 90.000000
_cell_angle_beta 90.000000
_cell_angle_gamma 90.000000
_cell_volume 4064.078505
_symmetry_space_group_name_H-M "P C C M"
_symmetry_group_IT_number 49
_symmetry_cell_setting 'orthorhombic'
loop_
_space_group_symop_operation_xyz
x,y,z
-x,-y,z
x,-y,1/2-z
-x,y,1/2-z
-x,-y,-z
x,y,-z
-x,y,1/2+z
x,-y,1/2+z
loop_
_atom_site_type_symbol
_atom_site_label
_atom_site_fract_x
_atom_site_fract_y
_atom_site_fract_z
Si Si1 0.209929 0.737231 0.320536
Si Si2 0.786460 0.913647 0.671047
Si Si3 0.046512 0.592747 0.818372
Si Si4 0.109090 0.087676 0.326128
Si Si5 0.631393 0.403145 0.816944
Si Si6 0.543860 0.402746 0.316847
Si Si7 0.890167 0.733133 0.180959
Si Si8 0.720001 0.404929 0.682132
O O1 0.210617 0.752466 0.500000
O O2 0.230251 0.825240 0.250061
O O3 0.160198 0.720246 0.265898
O O4 0.239033 0.655018 0.270762
O O5 0.768075 0.912978 0.500000
O O6 0.838721 0.917185 0.676764
O O7 0.766652 0.000000 0.750000
O O8 0.061039 0.500000 0.750000
O O9 0.082821 0.662765 0.775124
O O10 0.000000 0.622885 0.750000
O O11 0.042282 0.584415 0.000000
O O12 0.091474 0.095924 0.500000
O O13 0.093078 0.170599 0.227519
O O14 0.089394 0.000000 0.250000
O O15 0.633112 0.500000 0.750000
O O16 0.588112 0.355321 0.746190
O O17 0.676607 0.359933 0.757366
O O18 0.628726 0.403126 0.000000
O O19 0.544563 0.500000 0.250000
O O20 0.500000 0.355550 0.250000
O O21 0.542985 0.403481 0.500000
O O22 0.896684 0.719315 0.000000
O O23 0.729735 0.500000 0.750000
O O24 0.713534 0.411881 0.500000
#
# Coordination Sequence:
#
# PCOD8202211 Si02
#       8
#     8   8   8   8   8   8   8   8
#     4   9  19  32  46  65  91 118 148 182 218 256
#     4   9  16  26  43  64  88 114 143 177 216 257
#     4  11  22  38  57  76  95 118 147 181 219 263
#     4   9  16  27  44  69  96 124 151 178 211 252
#     4  10  17  26  38  52  70  98 135 174 214 258
#     4  10  16  23  34  50  70  92 122 166 215 259
#     4  10  19  33  51  73  97 121 147 181 219 258
#     4  10  19  31  43  57  79 112 149 185 219 256
#
# _framework density 15.747728
#
# number of rings (size 3 to 8) (size 9 to 14) (size 15 to 20)
#    0.000    2.250    0.000    7.125    0.000    5.000 
#    0.000    1.250    0.000    0.375    0.000    2.625 
#    0.000    0.000    0.000    0.000    0.000    0.625 
#
# Total GULP energy -793358.025000 kJ/mol
# GULP energy per Si atom -12396.219141 kJ/mol
# Density = 1.571189 g / cm^3
# Si number density = 15.747728 Si / 1000 Ang^3
#
#
#
# Elastic Constant Matrix: (Units=GPa)
#
#
# Indices 1 2 3 4 5 6 
#
# 1 80.6953 52.9447 45.8731 0.0000 0.0000 0.0000
# 2 52.9447 89.3778 43.8505 0.0000 0.0000 0.0000
# 3 45.8731 43.8505 114.8070 0.0000 0.0000 0.0000
# 4 0.0000 0.0000 0.0000 24.9249 0.0000 0.0000
# 5 0.0000 0.0000 0.0000 0.0000 125.7750 0.0000
# 6 0.0000 0.0000 0.0000 0.0000 0.0000 -0.1991
#
#
#
# Elastic Compliance Matrix: (Units=1/GPa)
#
#
# Indices 1 2 3 4 5 6 
#
# 1 0.022178 -0.010817 -0.004730 0.000000 0.000000 0.000000
# 2 -0.010817 0.019044 -0.002952 0.000000 0.000000 0.000000
# 3 -0.004730 -0.002952 0.011728 0.000000 0.000000 0.000000
# 4 0.000000 0.000000 0.000000 0.040121 0.000000 0.000000
# 5 0.000000 0.000000 0.000000 0.000000 0.007951 0.000000
# 6 0.000000 0.000000 0.000000 0.000000 0.000000 -5.023034
#
#
# Mechanical properties :
#
#
# Convention : Reuss Voigt Hill
#
# Bulk Modulus (GPa) = 62.68678 63.35742 63.02210
# Shear Modulus (GPa) = -1.02465 39.58094 19.27814
#
# Velocity S-wave (km/s) = -0.80751 5.01886 3.50263
# Velocity P-wave (km/s) = 6.24691 8.59682 7.51429
#
# Compressibility (1/GPa) = 0.01595233
#
# Stress axis : x y z
#
# Youngs Moduli (GPa) = 45.08878 52.50877 85.26781
#
# Poissons Ratio (x) = 0.56799 0.40333
# Poissons Ratio (y) = 0.48773 0.25170
# Poissons Ratio (z) = 0.21328 0.15500
#
# Static dielectric constant tensor:
#      x y z
#    x 3.564830 0.000000 0.000000 
#    y 0.000000 2.834810 0.000000 
#    z 0.000000 0.000000 3.142780 
# 
# 
# High freq. dielectric constant tensor:
#      x y z
#    x 1.584550 0.000000 0.000000 
#    y 0.000000 1.568330 0.000000 
#    z 0.000000 0.000000 1.626380 
# 
# From -- ./inp_files/7069.got.cif
#   From: 2010.03.12/outbox.cif.g09.slc.cpg/sg49_4_cif.got.tgz:7069.got - 2010.04.14 03:58:27.
