data_PCOD8202888
_publ_section_title
;
Structure prediction by ZEFSAII (Michael W. Deem and Ramdas Pophale) SiO2 
 PCOD8202888
Probable space group: P C C M
;
_chemical_formula_sum "Si O2"
_cell_formula_units_Z 64
_cell_length_a 22.893110
_cell_length_b 16.481118
_cell_length_c 8.883555
_cell_angle_alpha 90.000000
_cell_angle_beta 90.000000
_cell_angle_gamma 90.000000
_cell_volume 3351.801256
_symmetry_space_group_name_H-M "P C C M"
_symmetry_group_IT_number 49
_symmetry_cell_setting 'orthorhombic'
loop_
_space_group_symop_operation_xyz
x,y,z
-x,-y,z
x,-y,1/2-z
-x,y,1/2-z
-x,-y,-z
x,y,-z
-x,y,1/2+z
x,-y,1/2+z
loop_
_atom_site_type_symbol
_atom_site_label
_atom_site_fract_x
_atom_site_fract_y
_atom_site_fract_z
Si Si1 0.436470 0.648410 0.323261
Si Si2 0.327664 0.578307 0.177060
Si Si3 0.127630 0.250823 0.177307
Si Si4 0.251111 0.731824 0.174048
Si Si5 0.936235 0.416570 0.680655
Si Si6 0.447616 0.916117 0.668863
Si Si7 0.646252 0.794249 0.831942
Si Si8 0.063805 0.084292 0.180828
O O1 0.500000 0.641701 0.250000
O O2 0.443049 0.632188 0.500000
O O3 0.391879 0.584085 0.250968
O O4 0.406513 0.734326 0.286311
O O5 0.297303 0.500000 0.250000
O O6 0.282775 0.648812 0.222248
O O7 0.335045 0.571540 0.000000
O O8 0.193491 0.252927 0.232400
O O9 0.096795 0.334201 0.234100
O O10 0.098525 0.165873 0.232932
O O11 0.126498 0.250922 0.000000
O O12 0.299480 0.798702 0.217516
O O13 0.234966 0.736006 0.000000
O O14 0.907573 0.500000 0.750000
O O15 0.938282 0.424045 0.500000
O O16 0.000000 0.408264 0.750000
O O17 0.500000 0.864953 0.750000
O O18 0.468621 0.926572 0.500000
O O19 0.382906 0.881130 0.677908
O O20 0.441965 0.000000 0.750000
O O21 0.669068 0.773183 0.000000
O O22 0.000000 0.094939 0.250000
O O23 0.091212 0.000000 0.250000
O O24 0.061411 0.076738 0.000000
#
# Coordination Sequence:
#
# PCOD8202888 Si02
#       8
#     8   8   8   8   8   8   8   8
#     4  10  19  32  51  75 100 129 164 208 260 315
#     4  10  21  37  54  75 101 132 170 214 262 314
#     4  10  22  38  57  81 113 150 187 226 273 323
#     4  10  22  37  56  79 102 132 176 222 261 305
#     4  10  20  35  55  82 115 151 186 226 272 322
#     4  10  19  31  49  75 103 132 164 204 253 308
#     4   9  19  35  53  71  98 134 169 207 257 310
#     4  10  20  36  59  88 118 150 184 224 272 324
#
# _framework density 19.094211999999999
#
# number of rings (size 3 to 8) (size 9 to 14) (size 15 to 20)
#    0.000    2.125    0.000    4.125    0.000    5.750 
#    0.000    4.375    0.000    0.000    0.000    0.000 
#    0.000    0.000    0.000    0.000    0.000    0.000 
#
# Total GULP energy -792989.169484 kJ/mol
# GULP energy per Si atom -12390.455773 kJ/mol
# Density = 1.905075 g / cm^3
# Si number density = 19.094212 Si / 1000 Ang^3
#
#
#
# Elastic Constant Matrix: (Units=GPa)
#
#
# Indices 1 2 3 4 5 6 
#
# 1 99.2574 58.0935 31.2142 0.0000 0.0000 0.0000
# 2 58.0935 120.4480 41.6179 0.0000 0.0000 0.0000
# 3 31.2142 41.6179 67.1958 0.0000 0.0000 0.0000
# 4 0.0000 0.0000 0.0000 -4.1675 0.0000 0.0000
# 5 0.0000 0.0000 0.0000 0.0000 -5.1031 0.0000
# 6 0.0000 0.0000 0.0000 0.0000 0.0000 16.1443
#
#
#
# Elastic Compliance Matrix: (Units=1/GPa)
#
#
# Indices 1 2 3 4 5 6 
#
# 1 0.014516 -0.005943 -0.003062 0.000000 0.000000 0.000000
# 2 -0.005943 0.012996 -0.005288 0.000000 0.000000 0.000000
# 3 -0.003062 -0.005288 0.019580 0.000000 0.000000 0.000000
# 4 0.000000 0.000000 0.000000 -0.239954 0.000000 0.000000
# 5 0.000000 0.000000 0.000000 0.000000 -0.195958 0.000000
# 6 0.000000 0.000000 0.000000 0.000000 0.000000 0.061941
#
#
# Mechanical properties :
#
#
# Convention : Reuss Voigt Hill
#
# Bulk Modulus (GPa) = 54.04121 60.97250 57.50685
# Shear Modulus (GPa) = -17.11611 11.77312 -2.67150
#
# Velocity S-wave (km/s) = -2.99725 2.48580 -1.18412
# Velocity P-wave (km/s) = 4.04794 6.34356 5.32102
#
# Compressibility (1/GPa) = 0.01850440
#
# Stress axis : x y z
#
# Youngs Moduli (GPa) = 68.88798 76.94600 51.07331
#
# Poissons Ratio (x) = 0.45731 0.15640
# Poissons Ratio (y) = 0.40942 0.27009
# Poissons Ratio (z) = 0.21095 0.40692
#
# Static dielectric constant tensor:
#      x y z
#    x 2.837120 0.000000 0.000000 
#    y 0.000000 3.918580 0.000000 
#    z 0.000000 0.000000 3.633800 
# 
# 
# High freq. dielectric constant tensor:
#      x y z
#    x 1.731360 0.000000 0.000000 
#    y 0.000000 1.745720 0.000000 
#    z 0.000000 0.000000 1.751840 
# 
# From -- ./inp_files/6013.got.cif
#   From: 2010.03.12/outbox.cif.g09.slc.cpg/sg49_4_cif.got.tgz:6013.got - 2010.04.14 03:58:27.
