data_PCOD8202704
_publ_section_title
;
Structure prediction by ZEFSAII (Michael W. Deem and Ramdas Pophale) SiO2 
 PCOD8202704
Probable space group: P C C M
;
_chemical_formula_sum "Si O2"
_cell_formula_units_Z 42
_cell_length_a 9.384054
_cell_length_b 9.502611
_cell_length_c 25.854207
_cell_angle_alpha 90.000000
_cell_angle_beta 90.000000
_cell_angle_gamma 90.000000
_cell_volume 2305.497583
_symmetry_space_group_name_H-M "P C C M"
_symmetry_group_IT_number 49
_symmetry_cell_setting 'orthorhombic'
loop_
_space_group_symop_operation_xyz
x,y,z
-x,-y,z
x,-y,1/2-z
-x,y,1/2-z
-x,-y,-z
x,y,-z
-x,y,1/2+z
x,-y,1/2+z
loop_
_atom_site_type_symbol
_atom_site_label
_atom_site_fract_x
_atom_site_fract_y
_atom_site_fract_z
Si Si1 0.734728 0.057685 0.000000
Si Si2 0.769833 0.848948 0.390063
Si Si3 0.500000 0.000000 0.750000
Si Si4 0.506122 0.338655 0.103041
Si Si5 0.988351 0.836280 0.192663
Si Si6 0.566034 0.214115 0.500000
Si Si7 0.679761 0.871429 0.164591
O O1 0.822197 0.104717 0.051881
O O2 0.579890 0.127612 0.000000
O O3 0.703761 0.889507 0.000000
O O4 0.668692 0.714492 0.396334
O O5 0.894248 0.796924 0.351003
O O6 0.683109 0.983801 0.368335
O O7 0.609031 0.902811 0.780800
O O8 0.500000 0.500000 0.119856
O O9 0.418858 0.247350 0.142565
O O10 0.428752 0.318448 0.048321
O O11 0.834440 0.800796 0.169774
O O12 0.000000 0.762881 0.250000
O O13 0.000000 0.000000 0.202362
#
# Coordination Sequence:
#
# PCOD8202704 Si02
#       7
#     4   8   2   8   8   4   8
#     4   9  16  28  58  86 110 139 185 229 289 332
#     4  10  18  36  56  83 115 144 182 234 282 335
#     4  12  20  32  64  82 108 144 192 244 292 326
#     4  11  21  34  55  84 114 147 188 229 278 334
#     4   9  19  34  55  80 109 143 185 227 279 339
#     4   9  17  32  53  83 114 150 177 232 277 337
#     4  11  20  34  57  82 106 142 187 232 281 334
#
# _framework density 18.217327000000001
#
# number of rings (size 3 to 8) (size 9 to 14) (size 15 to 20)
#    0.000    1.905    3.810    2.571    0.000    0.000 
#    0.000    6.667    0.000    1.143    0.000    5.333 
#    0.000    0.000    0.000    0.000    0.000    0.000 
#
# Total GULP energy -520445.562166 kJ/mol
# GULP energy per Si atom -12391.561004 kJ/mol
# Density = 1.817586 g / cm^3
# Si number density = 18.217327 Si / 1000 Ang^3
#
#
#
# Elastic Constant Matrix: (Units=GPa)
#
#
# Indices 1 2 3 4 5 6 
#
# 1 82.9607 27.6163 50.1530 0.0000 0.0000 0.0000
# 2 27.6163 79.7431 32.2214 0.0000 0.0000 0.0000
# 3 50.1530 32.2214 149.6252 0.0000 0.0000 0.0000
# 4 0.0000 0.0000 0.0000 -3.9153 0.0000 0.0000
# 5 0.0000 0.0000 0.0000 0.0000 40.3288 0.0000
# 6 0.0000 0.0000 0.0000 0.0000 0.0000 4.1185
#
#
#
# Elastic Compliance Matrix: (Units=1/GPa)
#
#
# Indices 1 2 3 4 5 6 
#
# 1 0.016060 -0.003709 -0.004584 0.000000 0.000000 0.000000
# 2 -0.003709 0.014592 -0.001899 0.000000 0.000000 0.000000
# 3 -0.004584 -0.001899 0.008629 0.000000 0.000000 0.000000
# 4 0.000000 0.000000 0.000000 -0.255409 0.000000 0.000000
# 5 0.000000 0.000000 0.000000 0.000000 0.024796 0.000000
# 6 0.000000 0.000000 0.000000 0.000000 0.000000 0.242805
#
#
# Mechanical properties :
#
#
# Convention : Reuss Voigt Hill
#
# Bulk Modulus (GPa) = 52.92243 59.14558 56.03401
# Shear Modulus (GPa) = 63.97283 21.59563 42.78423
#
# Velocity S-wave (km/s) = 5.93234 3.44676 4.85144
# Velocity P-wave (km/s) = 8.71994 6.95539 7.88716
#
# Compressibility (1/GPa) = 0.01889558
#
# Stress axis : x y z
#
# Youngs Moduli (GPa) = 62.26581 68.52952 115.88883
#
# Poissons Ratio (x) = 0.25421 0.53128
# Poissons Ratio (y) = 0.23098 0.22007
# Poissons Ratio (z) = 0.28545 0.13014
#
# Static dielectric constant tensor:
#      x y z
#    x 3.747240 0.000000 0.000000 
#    y 0.000000 2.916350 0.000000 
#    z 0.000000 0.000000 3.682590 
# 
# 
# High freq. dielectric constant tensor:
#      x y z
#    x 1.694090 0.000000 0.000000 
#    y 0.000000 1.657050 0.000000 
#    z 0.000000 0.000000 1.728720 
# 
# From -- ./inp_files/24418.got.cif
#   From: 2010.03.12/outbox.cif.g09.slc.cpg/sg49_13_cif.got.tgz:24418.got - 2010.04.14 03:58:27.
