data_PCOD8202766
_publ_section_title
;
Structure prediction by ZEFSAII (Michael W. Deem and Ramdas Pophale) SiO2 
 PCOD8202766
Probable space group: P C C M
;
_chemical_formula_sum "Si O2"
_cell_formula_units_Z 56
_cell_length_a 17.231870
_cell_length_b 23.323083
_cell_length_c 8.999316
_cell_angle_alpha 90.000000
_cell_angle_beta 90.000000
_cell_angle_gamma 90.000000
_cell_volume 3616.828108
_symmetry_space_group_name_H-M "P C C M"
_symmetry_group_IT_number 49
_symmetry_cell_setting 'orthorhombic'
loop_
_space_group_symop_operation_xyz
x,y,z
-x,-y,z
x,-y,1/2-z
-x,y,1/2-z
-x,-y,-z
x,y,-z
-x,y,1/2+z
x,-y,1/2+z
loop_
_atom_site_type_symbol
_atom_site_label
_atom_site_fract_x
_atom_site_fract_y
_atom_site_fract_z
Si Si1 0.416426 0.180412 0.326188
Si Si2 0.327709 0.552644 0.337118
Si Si3 0.428930 0.629799 0.163326
Si Si4 0.915962 0.440989 0.820631
Si Si5 0.700096 0.724791 0.334518
Si Si6 0.582765 0.946903 0.327312
Si Si7 0.804381 0.354931 0.665973
O O1 0.500000 0.190249 0.250000
O O2 0.429895 0.193215 0.500000
O O3 0.349131 0.222468 0.263064
O O4 0.381638 0.116290 0.300738
O O5 0.288227 0.500000 0.250000
O O6 0.351792 0.531449 0.500000
O O7 0.404688 0.572294 0.250173
O O8 0.268442 0.604175 0.348595
O O9 0.500000 0.659836 0.250000
O O10 0.357102 0.671759 0.153605
O O11 0.457622 0.612762 0.000000
O O12 0.881045 0.500000 0.750000
O O13 0.866547 0.385328 0.773561
O O14 0.000000 0.431676 0.750000
O O15 0.918969 0.445915 0.000000
O O16 0.729944 0.741289 0.500000
O O17 0.774592 0.705801 0.235551
O O18 0.500000 0.945274 0.250000
O O19 0.574425 0.960595 0.500000
O O20 0.630444 0.000000 0.250000
O O21 0.838826 0.343582 0.500000
#
# Coordination Sequence:
#
# PCOD8202766 Si02
#       7
#     8   8   8   8   8   8   8
#     4   9  17  27  40  58  80 107 142 182 222 259
#     4  10  20  32  45  59  75  95 122 154 191 235
#     4  10  19  30  43  56  72  93 121 158 200 241
#     4  11  21  34  52  73  95 115 136 164 198 240
#     4   9  18  31  44  59  79 105 135 168 206 247
#     4   9  15  23  35  52  75 103 135 174 217 260
#     4  10  20  33  48  66  86 108 133 162 197 240
#
# _framework density 15.483180000000001
#
# number of rings (size 3 to 8) (size 9 to 14) (size 15 to 20)
#    0.000    2.286    0.000    4.714    0.000    4.857 
#    0.000    1.429    0.000    0.000    0.000    0.000 
#    0.000    0.000    0.000    0.000    0.000    0.714 
#
# Total GULP energy -693828.545496 kJ/mol
# GULP energy per Si atom -12389.795455 kJ/mol
# Density = 1.544794 g / cm^3
# Si number density = 15.483180 Si / 1000 Ang^3
#
#
#
# Elastic Constant Matrix: (Units=GPa)
#
#
# Indices 1 2 3 4 5 6 
#
# 1 41.4886 24.4386 28.8314 0.0000 0.0000 0.0000
# 2 24.4386 92.1367 40.1810 0.0000 0.0000 0.0000
# 3 28.8314 40.1810 121.7482 0.0000 0.0000 0.0000
# 4 0.0000 0.0000 0.0000 17.3720 0.0000 0.0000
# 5 0.0000 0.0000 0.0000 0.0000 19.2865 0.0000
# 6 0.0000 0.0000 0.0000 0.0000 0.0000 10.2810
#
#
#
# Elastic Compliance Matrix: (Units=1/GPa)
#
#
# Indices 1 2 3 4 5 6 
#
# 1 0.031410 -0.005943 -0.005477 0.000000 0.000000 0.000000
# 2 -0.005943 0.013803 -0.003148 0.000000 0.000000 0.000000
# 3 -0.005477 -0.003148 0.010550 0.000000 0.000000 0.000000
# 4 0.000000 0.000000 0.000000 0.057564 0.000000 0.000000
# 5 0.000000 0.000000 0.000000 0.000000 0.051850 0.000000
# 6 0.000000 0.000000 0.000000 0.000000 0.000000 0.097267
#
#
# Mechanical properties :
#
#
# Convention : Reuss Voigt Hill
#
# Bulk Modulus (GPa) = 37.55645 49.14172 43.34908
# Shear Modulus (GPa) = 16.64153 20.18272 18.41212
#
# Velocity S-wave (km/s) = 3.28199 3.61435 3.45217
# Velocity P-wave (km/s) = 6.21859 7.01611 6.62935
#
# Compressibility (1/GPa) = 0.02662659
#
# Stress axis : x y z
#
# Youngs Moduli (GPa) = 31.83750 72.45041 94.79021
#
# Poissons Ratio (x) = 0.43055 0.51915
# Poissons Ratio (y) = 0.18920 0.29840
# Poissons Ratio (z) = 0.17437 0.22808
#
# Static dielectric constant tensor:
#      x y z
#    x 2.639930 0.000000 0.000000 
#    y 0.000000 3.553040 0.000000 
#    z 0.000000 0.000000 3.375640 
# 
# 
# High freq. dielectric constant tensor:
#      x y z
#    x 1.542630 0.000000 0.000000 
#    y 0.000000 1.576450 0.000000 
#    z 0.000000 0.000000 1.613950 
# 
# From -- ./inp_files/5350.got.cif
#   From: 2010.03.12/outbox.cif.g09.slc.cpg/sg49_3_cif.got.tgz:5350.got - 2010.04.14 03:58:27.
