data_PCOD8202671
_publ_section_title
;
Structure prediction by ZEFSAII (Michael W. Deem and Ramdas Pophale) SiO2 
 PCOD8202671
Probable space group: P C C M
;
_chemical_formula_sum "Si O2"
_cell_formula_units_Z 64
_cell_length_a 17.754059
_cell_length_b 11.016666
_cell_length_c 18.554909
_cell_angle_alpha 90.000000
_cell_angle_beta 90.000000
_cell_angle_gamma 90.000000
_cell_volume 3629.164637
_symmetry_space_group_name_H-M "P C C M"
_symmetry_group_IT_number 49
_symmetry_cell_setting 'orthorhombic'
loop_
_space_group_symop_operation_xyz
x,y,z
-x,-y,z
x,-y,1/2-z
-x,y,1/2-z
-x,-y,-z
x,y,-z
-x,y,1/2+z
x,-y,1/2+z
loop_
_atom_site_type_symbol
_atom_site_label
_atom_site_fract_x
_atom_site_fract_y
_atom_site_fract_z
Si Si1 0.518128 0.864113 0.833383
Si Si2 0.717731 0.455432 0.863081
Si Si3 0.600017 0.712273 0.583342
Si Si4 0.920384 0.360764 0.228952
Si Si5 0.237192 0.323013 0.781948
Si Si6 0.680143 0.087096 0.686108
Si Si7 0.847254 0.687700 0.580624
Si Si8 0.735423 0.105548 0.918276
O O1 0.500000 0.846273 0.750000
O O2 0.474746 0.757915 0.876124
O O3 0.607152 0.848167 0.848486
O O4 0.500000 0.000000 0.861355
O O5 0.632702 0.418253 0.888101
O O6 0.730754 0.599871 0.850436
O O7 0.735210 0.388117 0.789244
O O8 0.778764 0.409684 0.921406
O O9 0.579469 0.698578 0.500000
O O10 0.663898 0.810900 0.599016
O O11 0.924874 0.500000 0.250000
O O12 0.853246 0.308358 0.278379
O O13 0.907488 0.343378 0.142801
O O14 0.000000 0.297594 0.250000
O O15 0.266523 0.187644 0.780862
O O16 0.650614 0.000000 0.750000
O O17 0.730843 0.014486 0.629423
O O18 0.883929 0.685458 0.500000
O O19 0.812099 0.820572 0.597467
O O20 0.733512 0.061102 0.000000
#
# Coordination Sequence:
#
# PCOD8202671 Si02
#       8
#     8   8   8   8   8   8   8   8
#     4  11  19  31  46  75 104 133 171 233 274 300
#     4   9  16  33  50  77 102 134 179 219 253 313
#     4  10  19  32  53  74 102 140 180 223 269 319
#     4  10  18  33  55  81 112 132 160 219 267 304
#     4  10  19  32  55  77 104 140 175 214 265 317
#     4  12  20  31  52  75 102 137 177 221 268 315
#     4   9  16  31  55  77 103 139 175 209 250 314
#     4   9  18  31  49  76 102 132 175 219 259 306
#
# _framework density 17.634912
#
# number of rings (size 3 to 8) (size 9 to 14) (size 15 to 20)
#    0.000    2.000    5.000    4.125    0.000    0.750 
#    0.000    3.125    0.000    6.375    0.000    1.750 
#    0.000    0.000    0.000    0.000    0.000    0.000 
#
# Total GULP energy -793195.168858 kJ/mol
# GULP energy per Si atom -12393.674513 kJ/mol
# Density = 1.759477 g / cm^3
# Si number density = 17.634912 Si / 1000 Ang^3
#
#
#
# Elastic Constant Matrix: (Units=GPa)
#
#
# Indices 1 2 3 4 5 6 
#
# 1 110.5030 40.9465 46.0018 0.0000 0.0000 0.0000
# 2 40.9465 54.6321 29.0725 0.0000 0.0000 0.0000
# 3 46.0018 29.0725 82.0191 0.0000 0.0000 0.0000
# 4 0.0000 0.0000 0.0000 18.3110 0.0000 0.0000
# 5 0.0000 0.0000 0.0000 0.0000 12.2794 0.0000
# 6 0.0000 0.0000 0.0000 0.0000 0.0000 16.7481
#
#
#
# Elastic Compliance Matrix: (Units=1/GPa)
#
#
# Indices 1 2 3 4 5 6 
#
# 1 0.014084 -0.007829 -0.005124 0.000000 0.000000 0.000000
# 2 -0.007829 0.026911 -0.005148 0.000000 0.000000 0.000000
# 3 -0.005124 -0.005148 0.016891 0.000000 0.000000 0.000000
# 4 0.000000 0.000000 0.000000 0.054612 0.000000 0.000000
# 5 0.000000 0.000000 0.000000 0.000000 0.081437 0.000000
# 6 0.000000 0.000000 0.000000 0.000000 0.000000 0.059708
#
#
# Mechanical properties :
#
#
# Convention : Reuss Voigt Hill
#
# Bulk Modulus (GPa) = 46.11667 53.24397 49.68032
# Shear Modulus (GPa) = 16.83086 18.20994 17.52040
#
# Velocity S-wave (km/s) = 3.09270 3.21691 3.15541
# Velocity P-wave (km/s) = 6.24184 6.63746 6.44269
#
# Compressibility (1/GPa) = 0.02168413
#
# Stress axis : x y z
#
# Youngs Moduli (GPa) = 71.00485 37.15886 59.20326
#
# Poissons Ratio (x) = 0.29091 0.30336
# Poissons Ratio (y) = 0.55588 0.30479
# Poissons Ratio (z) = 0.36383 0.19130
#
# Static dielectric constant tensor:
#      x y z
#    x 3.543340 0.000000 0.000000 
#    y 0.000000 3.281670 0.000000 
#    z 0.000000 0.000000 3.335680 
# 
# 
# High freq. dielectric constant tensor:
#      x y z
#    x 1.661510 0.000000 0.000000 
#    y 0.000000 1.657410 0.000000 
#    z 0.000000 0.000000 1.678730 
# 
# From -- ./inp_files/18224.got.cif
#   From: 2010.03.12/outbox.cif.g09.slc.cpg/sg49_10_cif.got.tgz:18224.got - 2010.04.14 03:58:27.
