data_PCOD8202849
_publ_section_title
;
Structure prediction by ZEFSAII (Michael W. Deem and Ramdas Pophale) SiO2 
 PCOD8202849
Probable space group: P C C M
;
_chemical_formula_sum "Si O2"
_cell_formula_units_Z 48
_cell_length_a 23.779391
_cell_length_b 13.707061
_cell_length_c 8.656689
_cell_angle_alpha 90.000000
_cell_angle_beta 90.000000
_cell_angle_gamma 90.000000
_cell_volume 2821.609370
_symmetry_space_group_name_H-M "P C C M"
_symmetry_group_IT_number 49
_symmetry_cell_setting 'orthorhombic'
loop_
_space_group_symop_operation_xyz
x,y,z
-x,-y,z
x,-y,1/2-z
-x,y,1/2-z
-x,-y,-z
x,y,-z
-x,y,1/2+z
x,-y,1/2+z
loop_
_atom_site_type_symbol
_atom_site_label
_atom_site_fract_x
_atom_site_fract_y
_atom_site_fract_z
Si Si1 0.057808 0.894785 0.181060
Si Si2 0.771053 0.397542 0.179875
Si Si3 0.661566 0.285876 0.183233
Si Si4 0.722746 0.104981 0.317305
Si Si5 0.172173 0.797122 0.819041
Si Si6 0.439808 0.396118 0.182868
O O1 0.108016 0.821209 0.223932
O O2 0.000000 0.851689 0.250000
O O3 0.071930 0.000000 0.250000
O O4 0.050462 0.906772 0.000000
O O5 0.789204 0.500000 0.250000
O O6 0.709564 0.362689 0.236168
O O7 0.816716 0.315402 0.227002
O O8 0.769902 0.413013 0.000000
O O9 0.679158 0.178944 0.238487
O O10 0.604084 0.313800 0.267337
O O11 0.653315 0.285999 0.000000
O O12 0.714823 0.106221 0.500000
O O13 0.786899 0.132125 0.275833
O O14 0.707837 0.000000 0.250000
O O15 0.185059 0.814127 0.000000
O O16 0.420128 0.500000 0.250000
O O17 0.500000 0.365517 0.250000
O O18 0.443675 0.404000 0.000000
#
# Coordination Sequence:
#
# PCOD8202849 Si02
#       6
#     8   8   8   8   8   8
#     4  10  19  31  48  69  95 124 157 196 242 291
#     4   9  18  31  48  70  97 126 158 196 241 286
#     4  10  20  35  52  73 102 133 165 206 249 293
#     4  11  21  33  51  75 101 131 165 202 244 294
#     4   9  19  34  49  69  98 130 161 200 244 289
#     4  11  21  34  52  76 104 136 171 208 251 297
#
# _framework density 17.011569000000001
#
# number of rings (size 3 to 8) (size 9 to 14) (size 15 to 20)
#    0.000    2.000    0.000    7.000    0.000    7.333 
#    0.000    0.000    0.000    1.000    0.000    7.000 
#    0.000    0.000    0.000    0.000    0.000    0.000 
#
# Total GULP energy -595278.292918 kJ/mol
# GULP energy per Si atom -12401.631102 kJ/mol
# Density = 1.697285 g / cm^3
# Si number density = 17.011569 Si / 1000 Ang^3
#
#
#
# Elastic Constant Matrix: (Units=GPa)
#
#
# Indices 1 2 3 4 5 6 
#
# 1 125.5484 68.0643 47.9388 0.0000 0.0000 0.0000
# 2 68.0643 117.6041 38.1236 0.0000 0.0000 0.0000
# 3 47.9388 38.1236 94.6395 0.0000 0.0000 0.0000
# 4 0.0000 0.0000 0.0000 28.8616 0.0000 0.0000
# 5 0.0000 0.0000 0.0000 0.0000 -15.3309 0.0000
# 6 0.0000 0.0000 0.0000 0.0000 0.0000 106.6914
#
#
#
# Elastic Compliance Matrix: (Units=1/GPa)
#
#
# Indices 1 2 3 4 5 6 
#
# 1 0.012817 -0.006112 -0.004031 0.000000 0.000000 0.000000
# 2 -0.006112 0.012694 -0.002018 0.000000 0.000000 0.000000
# 3 -0.004031 -0.002018 0.013421 0.000000 0.000000 0.000000
# 4 0.000000 0.000000 0.000000 0.034648 0.000000 0.000000
# 5 0.000000 0.000000 0.000000 0.000000 -0.065228 0.000000
# 6 0.000000 0.000000 0.000000 0.000000 0.000000 0.009373
#
#
# Mechanical properties :
#
#
# Convention : Reuss Voigt Hill
#
# Bulk Modulus (GPa) = 68.43439 71.78282 70.10860
# Shear Modulus (GPa) = 106.57102 36.28877 71.42990
#
# Velocity S-wave (km/s) = 7.92352 4.62365 6.48692
# Velocity P-wave (km/s) = 11.13666 8.41381 9.86958
#
# Compressibility (1/GPa) = 0.01461254
#
# Stress axis : x y z
#
# Youngs Moduli (GPa) = 78.01908 78.77515 74.51037
#
# Poissons Ratio (x) = 0.48144 0.30032
# Poissons Ratio (y) = 0.47682 0.15035
# Poissons Ratio (z) = 0.31446 0.15896
#
# Static dielectric constant tensor:
#      x y z
#    x 3.217950 0.000000 0.000000 
#    y 0.000000 3.323180 0.000000 
#    z 0.000000 0.000000 3.258550 
# 
# 
# High freq. dielectric constant tensor:
#      x y z
#    x 1.648490 0.000000 0.000000 
#    y 0.000000 1.646640 0.000000 
#    z 0.000000 0.000000 1.669510 
# 
# From -- ./inp_files/4155.got.cif
#   From: 2010.03.12/outbox.cif.g09.slc.cpg/sg49_3_cif.got.tgz:4155.got - 2010.04.14 03:58:27.
