data_PCOD8202961
_publ_section_title
;
Structure prediction by ZEFSAII (Michael W. Deem and Ramdas Pophale) SiO2 
 PCOD8202961
Probable space group: P C C M
;
_chemical_formula_sum "Si O2"
_cell_formula_units_Z 48
_cell_length_a 16.366711
_cell_length_b 18.310888
_cell_length_c 9.020343
_cell_angle_alpha 90.000000
_cell_angle_beta 90.000000
_cell_angle_gamma 90.000000
_cell_volume 2703.297682
_symmetry_space_group_name_H-M "P C C M"
_symmetry_group_IT_number 49
_symmetry_cell_setting 'orthorhombic'
loop_
_space_group_symop_operation_xyz
x,y,z
-x,-y,z
x,-y,1/2-z
-x,y,1/2-z
-x,-y,-z
x,y,-z
-x,y,1/2+z
x,-y,1/2+z
loop_
_atom_site_type_symbol
_atom_site_label
_atom_site_fract_x
_atom_site_fract_y
_atom_site_fract_z
Si Si1 0.830693 0.285692 0.330520
Si Si2 0.760566 0.074021 0.168087
Si Si3 0.686643 0.218000 0.167026
Si Si4 0.081965 0.165824 0.325701
Si Si5 0.415968 0.650698 0.170527
Si Si6 0.736959 0.575234 0.825861
O O1 0.854205 0.270311 0.500000
O O2 0.744580 0.248409 0.294261
O O3 0.900734 0.249146 0.228995
O O4 0.815597 0.371808 0.301149
O O5 0.683380 0.129977 0.188193
O O6 0.843485 0.113498 0.225128
O O7 0.739729 0.000000 0.250000
O O8 0.773678 0.051346 0.000000
O O9 0.601045 0.261345 0.181994
O O10 0.723210 0.232619 0.000000
O O11 0.069809 0.166575 0.500000
O O12 0.000000 0.135407 0.250000
O O13 0.500000 0.631755 0.250000
O O14 0.344060 0.605583 0.247245
O O15 0.422025 0.626044 0.000000
O O16 0.762555 0.500000 0.750000
O O17 0.718442 0.565615 0.000000
#
# Coordination Sequence:
#
# PCOD8202961 Si02
#       6
#     8   8   8   8   8   8
#     4   9  17  30  49  71  93 120 158 197 231 274
#     4   9  18  31  47  69  95 124 157 193 235 281
#     4   8  16  31  48  66  91 124 159 194 233 278
#     4  10  20  33  49  70  97 127 159 194 235 281
#     4  10  19  32  50  71  97 126 158 197 239 283
#     4  10  20  33  50  73  99 127 159 193 233 281
#
# _framework density 17.756091999999999
#
# number of rings (size 3 to 8) (size 9 to 14) (size 15 to 20)
#    0.000    2.667    0.000    3.000    0.000    6.667 
#    0.000    3.333    0.000    1.000    0.000    7.000 
#    0.000    0.000    0.000    0.000    0.000    0.000 
#
# Total GULP energy -594725.161122 kJ/mol
# GULP energy per Si atom -12390.107523 kJ/mol
# Density = 1.771568 g / cm^3
# Si number density = 17.756092 Si / 1000 Ang^3
#
#
#
# Elastic Constant Matrix: (Units=GPa)
#
#
# Indices 1 2 3 4 5 6 
#
# 1 6.8685 -0.0233 2.7561 0.0000 0.0000 0.0000
# 2 -0.0233 102.8753 34.7565 0.0000 0.0000 0.0000
# 3 2.7561 34.7565 77.8964 0.0000 0.0000 0.0000
# 4 0.0000 0.0000 0.0000 30.4108 0.0000 0.0000
# 5 0.0000 0.0000 0.0000 0.0000 21.8651 0.0000
# 6 0.0000 0.0000 0.0000 0.0000 0.0000 17.5559
#
#
#
# Elastic Compliance Matrix: (Units=1/GPa)
#
#
# Indices 1 2 3 4 5 6 
#
# 1 0.148083 0.002124 -0.006187 0.000000 0.000000 0.000000
# 2 0.002124 0.011476 -0.005196 0.000000 0.000000 0.000000
# 3 -0.006187 -0.005196 0.015375 0.000000 0.000000 0.000000
# 4 0.000000 0.000000 0.000000 0.032883 0.000000 0.000000
# 5 0.000000 0.000000 0.000000 0.000000 0.045735 0.000000
# 6 0.000000 0.000000 0.000000 0.000000 0.000000 0.056961
#
#
# Mechanical properties :
#
#
# Convention : Reuss Voigt Hill
#
# Bulk Modulus (GPa) = 6.39319 29.17984 17.78652
# Shear Modulus (GPa) = 13.11753 23.97644 18.54698
#
# Velocity S-wave (km/s) = 2.72097 3.67866 3.23544
# Velocity P-wave (km/s) = 3.67150 5.87476 4.89861
#
# Compressibility (1/GPa) = 0.15641633
#
# Stress axis : x y z
#
# Youngs Moduli (GPa) = 6.75297 87.13553 65.04169
#
# Poissons Ratio (x) = -0.18506 0.40241
# Poissons Ratio (y) = -0.01434 0.33794
# Poissons Ratio (z) = 0.04178 0.45274
#
# Static dielectric constant tensor:
#      x y z
#    x 3.053710 0.000000 0.000000 
#    y 0.000000 3.449020 0.000000 
#    z 0.000000 0.000000 3.380310 
# 
# 
# High freq. dielectric constant tensor:
#      x y z
#    x 1.647290 0.000000 0.000000 
#    y 0.000000 1.682530 0.000000 
#    z 0.000000 0.000000 1.700670 
# 
# From -- ./inp_files/3682.got.cif
#   From: 2010.03.12/outbox.cif.g09.slc.cpg/sg49_2_cif.got.tgz:3682.got - 2010.04.14 03:58:27.
