data_PCOD8202427
_publ_section_title
;
Structure prediction by ZEFSAII (Michael W. Deem and Ramdas Pophale) SiO2 
 PCOD8202427
Probable space group: P C C M
;
_chemical_formula_sum "Si O2"
_cell_formula_units_Z 64
_cell_length_a 20.242745
_cell_length_b 9.039050
_cell_length_c 18.410481
_cell_angle_alpha 90.000000
_cell_angle_beta 90.000000
_cell_angle_gamma 90.000000
_cell_volume 3368.661152
_symmetry_space_group_name_H-M "P C C M"
_symmetry_group_IT_number 49
_symmetry_cell_setting 'orthorhombic'
loop_
_space_group_symop_operation_xyz
x,y,z
-x,-y,z
x,-y,1/2-z
-x,y,1/2-z
-x,-y,-z
x,y,-z
-x,y,1/2+z
x,-y,1/2+z
loop_
_atom_site_type_symbol
_atom_site_label
_atom_site_fract_x
_atom_site_fract_y
_atom_site_fract_z
Si Si1 0.753509 0.348905 0.706068
Si Si2 0.373834 0.858134 0.848083
Si Si3 0.379875 0.190095 0.181507
Si Si4 0.762415 0.203008 0.081965
Si Si5 0.071821 0.425455 0.681732
Si Si6 0.824703 0.517778 0.920967
Si Si7 0.503559 0.825183 0.082828
Si Si8 0.851296 0.853560 0.294536
O O1 0.743842 0.500000 0.750000
O O2 0.683082 0.295579 0.675906
O O3 0.796278 0.362471 0.633484
O O4 0.790459 0.228668 0.755288
O O5 0.396282 0.824886 0.766135
O O6 0.304484 0.791858 0.871967
O O7 0.428881 0.777030 0.897871
O O8 0.364855 0.034020 0.857313
O O9 0.443086 0.253211 0.136448
O O10 0.779554 0.374374 0.076578
O O11 0.820048 0.112232 0.125538
O O12 0.754971 0.136362 0.000000
O O13 0.111429 0.500000 0.750000
O O14 0.102553 0.469471 0.605215
O O15 0.082252 0.248395 0.695698
O O16 0.000000 0.500000 0.682980
O O17 0.831542 0.591263 0.000000
O O18 0.500000 0.000000 0.096894
O O19 0.521122 0.783500 0.000000
O O20 0.871695 0.000000 0.250000
#
# Coordination Sequence:
#
# PCOD8202427 Si02
#       8
#     8   8   8   8   8   8   8   8
#     4  12  19  36  57  82 114 156 190 240 290 349
#     4  10  17  32  50  77 104 146 186 243 297 357
#     4  10  20  29  51  76 105 139 197 240 289 349
#     4  10  19  32  54  84 114 149 193 237 291 354
#     4  10  19  37  63  85 115 154 195 231 267 339
#     4  10  20  35  56  84 114 150 192 232 282 341
#     4   9  18  31  46  69 107 145 184 238 300 355
#     4  11  20  36  60  90 122 151 190 241 289 334
#
# _framework density 18.998645
#
# number of rings (size 3 to 8) (size 9 to 14) (size 15 to 20)
#    0.000    1.750    5.000    1.500    0.000    2.750 
#    0.000    3.125    0.000    5.250    0.000    6.125 
#    0.000    0.000    0.000    0.000    0.000    0.000 
#
# Total GULP energy -792902.220410 kJ/mol
# GULP energy per Si atom -12389.097194 kJ/mol
# Density = 1.895540 g / cm^3
# Si number density = 18.998645 Si / 1000 Ang^3
#
#
#
# Elastic Constant Matrix: (Units=GPa)
#
#
# Indices 1 2 3 4 5 6 
#
# 1 119.2057 43.3190 48.0972 0.0000 0.0000 0.0000
# 2 43.3190 58.3606 29.5329 0.0000 0.0000 0.0000
# 3 48.0972 29.5329 130.4875 0.0000 0.0000 0.0000
# 4 0.0000 0.0000 0.0000 15.9497 0.0000 0.0000
# 5 0.0000 0.0000 0.0000 0.0000 20.2077 0.0000
# 6 0.0000 0.0000 0.0000 0.0000 0.0000 24.1470
#
#
#
# Elastic Compliance Matrix: (Units=1/GPa)
#
#
# Indices 1 2 3 4 5 6 
#
# 1 0.012327 -0.007737 -0.002793 0.000000 0.000000 0.000000
# 2 -0.007737 0.024207 -0.002627 0.000000 0.000000 0.000000
# 3 -0.002793 -0.002627 0.009287 0.000000 0.000000 0.000000
# 4 0.000000 0.000000 0.000000 0.062697 0.000000 0.000000
# 5 0.000000 0.000000 0.000000 0.000000 0.049486 0.000000
# 6 0.000000 0.000000 0.000000 0.000000 0.000000 0.041413
#
#
# Mechanical properties :
#
#
# Convention : Reuss Voigt Hill
#
# Bulk Modulus (GPa) = 51.25907 61.10576 56.18242
# Shear Modulus (GPa) = 21.53004 24.53453 23.03229
#
# Velocity S-wave (km/s) = 3.37002 3.59748 3.48560
# Velocity P-wave (km/s) = 6.49474 7.03483 6.77017
#
# Compressibility (1/GPa) = 0.01950874
#
# Stress axis : x y z
#
# Youngs Moduli (GPa) = 81.12141 41.31040 107.67168
#
# Poissons Ratio (x) = 0.31961 0.30069
# Poissons Ratio (y) = 0.62762 0.28285
# Poissons Ratio (z) = 0.22655 0.10852
#
# Static dielectric constant tensor:
#      x y z
#    x 3.440450 0.000000 0.000000 
#    y 0.000000 3.209960 0.000000 
#    z 0.000000 0.000000 4.038300 
# 
# 
# High freq. dielectric constant tensor:
#      x y z
#    x 1.735350 0.000000 0.000000 
#    y 0.000000 1.697230 0.000000 
#    z 0.000000 0.000000 1.751020 
# 
# From -- ./inp_files/21206.got.cif
#   From: 2010.03.12/outbox.cif.g09.slc.cpg/sg49_11_cif.got.tgz:21206.got - 2010.04.14 03:58:27.
