data_PCOD8202363
_publ_section_title
;
Structure prediction by ZEFSAII (Michael W. Deem and Ramdas Pophale) SiO2 
 PCOD8202363
Probable space group: P C C M
;
_chemical_formula_sum "Si O2"
_cell_formula_units_Z 32
_cell_length_a 21.009224
_cell_length_b 9.602936
_cell_length_c 8.646488
_cell_angle_alpha 90.000000
_cell_angle_beta 90.000000
_cell_angle_gamma 90.000000
_cell_volume 1744.430973
_symmetry_space_group_name_H-M "P C C M"
_symmetry_group_IT_number 49
_symmetry_cell_setting 'orthorhombic'
loop_
_space_group_symop_operation_xyz
x,y,z
-x,-y,z
x,-y,1/2-z
-x,y,1/2-z
-x,-y,-z
x,y,-z
-x,y,1/2+z
x,-y,1/2+z
loop_
_atom_site_type_symbol
_atom_site_label
_atom_site_fract_x
_atom_site_fract_y
_atom_site_fract_z
Si Si1 0.560991 0.348400 0.321799
Si Si2 0.936460 0.155071 0.316391
Si Si3 0.192385 0.152878 0.317427
Si Si4 0.701569 0.653846 0.818485
O O1 0.562926 0.500000 0.250000
O O2 0.500000 0.264358 0.250000
O O3 0.547086 0.362775 0.500000
O O4 0.630561 0.281519 0.291496
O O5 0.938241 0.155375 0.500000
O O6 0.871310 0.224884 0.254781
O O7 0.000000 0.231735 0.250000
O O8 0.935798 0.000000 0.250000
O O9 0.184401 0.141975 0.500000
O O10 0.251669 0.247421 0.274465
O O11 0.204110 0.000000 0.250000
O O12 0.707435 0.500000 0.750000
O O13 0.718486 0.650328 0.000000
#
# Coordination Sequence:
#
# PCOD8202363 Si02
#       4
#     8   8   8   8
#     4   9  16  26  44  68  96 125 160 202 245 288
#     4  10  17  28  46  70  98 127 162 205 247 291
#     4  11  21  34  52  75 102 134 168 207 251 298
#     4  10  20  34  51  75 103 134 168 206 249 297
#
# _framework density 18.344093000000001
#
# number of rings (size 3 to 8) (size 9 to 14) (size 15 to 20)
#    0.000    2.000    0.000    9.000    0.000    3.000 
#    0.000    0.000    0.000    1.500    0.000   10.500 
#    0.000    0.000    0.000    0.000    0.000    0.000 
#
# Total GULP energy -396493.132067 kJ/mol
# GULP energy per Si atom -12390.410377 kJ/mol
# Density = 1.830234 g / cm^3
# Si number density = 18.344093 Si / 1000 Ang^3
#
#
#
# Elastic Constant Matrix: (Units=GPa)
#
#
# Indices 1 2 3 4 5 6 
#
# 1 176.6711 38.8689 78.6250 0.0000 0.0000 0.0000
# 2 38.8689 36.3945 24.9270 0.0000 0.0000 0.0000
# 3 78.6250 24.9270 172.9126 0.0000 0.0000 0.0000
# 4 0.0000 0.0000 0.0000 20.7076 0.0000 0.0000
# 5 0.0000 0.0000 0.0000 0.0000 38.7319 0.0000
# 6 0.0000 0.0000 0.0000 0.0000 0.0000 15.3167
#
#
#
# Elastic Compliance Matrix: (Units=1/GPa)
#
#
# Indices 1 2 3 4 5 6 
#
# 1 0.008489 -0.007126 -0.002833 0.000000 0.000000 0.000000
# 2 -0.007126 0.036468 -0.002017 0.000000 0.000000 0.000000
# 3 -0.002833 -0.002017 0.007362 0.000000 0.000000 0.000000
# 4 0.000000 0.000000 0.000000 0.048291 0.000000 0.000000
# 5 0.000000 0.000000 0.000000 0.000000 0.025818 0.000000
# 6 0.000000 0.000000 0.000000 0.000000 0.000000 0.065288
#
#
# Mechanical properties :
#
#
# Convention : Reuss Voigt Hill
#
# Bulk Modulus (GPa) = 35.25073 74.53556 54.89315
# Shear Modulus (GPa) = 22.21001 31.18841 26.69921
#
# Velocity S-wave (km/s) = 3.48335 4.12781 3.81920
# Velocity P-wave (km/s) = 5.95285 7.96483 7.03118
#
# Compressibility (1/GPa) = 0.02836821
#
# Stress axis : x y z
#
# Youngs Moduli (GPa) = 117.80630 27.42107 135.83130
#
# Poissons Ratio (x) = 0.19539 0.38475
# Poissons Ratio (y) = 0.83944 0.27400
# Poissons Ratio (z) = 0.33370 0.05531
#
# Static dielectric constant tensor:
#      x y z
#    x 5.051270 0.000000 0.000000 
#    y 0.000000 2.737070 0.000000 
#    z 0.000000 0.000000 5.627130 
# 
# 
# High freq. dielectric constant tensor:
#      x y z
#    x 1.749120 0.000000 0.000000 
#    y 0.000000 1.629920 0.000000 
#    z 0.000000 0.000000 1.737190 
# 
# From -- ./inp_files/1386.got.cif
#   From: 2010.03.12/outbox.cif.g09.slc.cpg/sg49_1_cif.got.tgz:1386.got - 2010.04.14 03:58:27.
