data_PCOD8202669
_publ_section_title
;
Structure prediction by ZEFSAII (Michael W. Deem and Ramdas Pophale) SiO2 
 PCOD8202669
Probable space group: P C C M
;
_chemical_formula_sum "Si O2"
_cell_formula_units_Z 64
_cell_length_a 15.237785
_cell_length_b 24.740849
_cell_length_c 8.681561
_cell_angle_alpha 90.000000
_cell_angle_beta 90.000000
_cell_angle_gamma 90.000000
_cell_volume 3272.911494
_symmetry_space_group_name_H-M "P C C M"
_symmetry_group_IT_number 49
_symmetry_cell_setting 'orthorhombic'
loop_
_space_group_symop_operation_xyz
x,y,z
-x,-y,z
x,-y,1/2-z
-x,y,1/2-z
-x,-y,-z
x,y,-z
-x,y,1/2+z
x,-y,1/2+z
loop_
_atom_site_type_symbol
_atom_site_label
_atom_site_fract_x
_atom_site_fract_y
_atom_site_fract_z
Si Si1 0.591696 0.358592 0.182056
Si Si2 0.125007 0.714398 0.825890
Si Si3 0.086545 0.827496 0.318522
Si Si4 0.089803 0.397149 0.180774
Si Si5 0.679317 0.252045 0.826401
Si Si6 0.720070 0.142261 0.678557
Si Si7 0.591615 0.941750 0.318731
Si Si8 0.264831 0.442970 0.682747
O O1 0.500000 0.378257 0.250000
O O2 0.609188 0.296258 0.232372
O O3 0.667233 0.398098 0.245604
O O4 0.588672 0.362201 0.000000
O O5 0.085746 0.769619 0.762269
O O6 0.093344 0.666580 0.716602
O O7 0.229575 0.716109 0.824155
O O8 0.091037 0.704500 0.000000
O O9 0.078840 0.820566 0.500000
O O10 0.176426 0.859230 0.276931
O O11 0.000000 0.858328 0.250000
O O12 0.168166 0.429089 0.260124
O O13 0.000000 0.421282 0.250000
O O14 0.093623 0.406977 0.000000
O O15 0.679121 0.201029 0.712906
O O16 0.658844 0.231549 0.000000
O O17 0.705583 0.129189 0.500000
O O18 0.671482 0.097729 0.779647
O O19 0.500000 0.919294 0.250000
O O20 0.581078 0.946891 0.500000
O O21 0.614189 0.000000 0.250000
O O22 0.295845 0.500000 0.750000
O O23 0.264264 0.445252 0.500000
#
# Coordination Sequence:
#
# PCOD8202669 Si02
#       8
#     8   8   8   8   8   8   8   8
#     4  10  22  40  62  87 117 149 188 233 286 345
#     4  10  18  33  55  79 113 152 192 236 283 338
#     4  10  20  33  51  80 118 159 202 244 289 341
#     4  12  24  38  59  86 114 148 187 231 284 344
#     4   9  18  35  56  81 116 157 191 233 287 341
#     4  10  21  36  56  87 122 158 200 246 290 347
#     4  11  22  39  63  89 119 156 198 247 298 350
#     4  11  24  45  65  86 113 145 186 237 288 343
#
# _framework density 19.554454
#
# number of rings (size 3 to 8) (size 9 to 14) (size 15 to 20)
#    0.000    1.625    1.250    4.500    0.000    4.500 
#    0.000    3.750    0.000    0.375    0.000    2.625 
#    0.000    0.000    0.000    0.000    0.000    0.000 
#
# Total GULP energy -793728.898486 kJ/mol
# GULP energy per Si atom -12402.014039 kJ/mol
# Density = 1.950995 g / cm^3
# Si number density = 19.554454 Si / 1000 Ang^3
#
#
#
# Elastic Constant Matrix: (Units=GPa)
#
#
# Indices 1 2 3 4 5 6 
#
# 1 126.9376 54.1588 44.2640 0.0000 0.0000 0.0000
# 2 54.1588 77.4012 34.7514 0.0000 0.0000 0.0000
# 3 44.2640 34.7514 99.2009 0.0000 0.0000 0.0000
# 4 0.0000 0.0000 0.0000 31.5142 0.0000 0.0000
# 5 0.0000 0.0000 0.0000 0.0000 33.3585 0.0000
# 6 0.0000 0.0000 0.0000 0.0000 0.0000 13.3295
#
#
#
# Elastic Compliance Matrix: (Units=1/GPa)
#
#
# Indices 1 2 3 4 5 6 
#
# 1 0.011865 -0.007031 -0.002831 0.000000 0.000000 0.000000
# 2 -0.007031 0.019497 -0.003693 0.000000 0.000000 0.000000
# 3 -0.002831 -0.003693 0.012638 0.000000 0.000000 0.000000
# 4 0.000000 0.000000 0.000000 0.031732 0.000000 0.000000
# 5 0.000000 0.000000 0.000000 0.000000 0.029977 0.000000
# 6 0.000000 0.000000 0.000000 0.000000 0.000000 0.075021
#
#
# Mechanical properties :
#
#
# Convention : Reuss Voigt Hill
#
# Bulk Modulus (GPa) = 59.20753 63.32088 61.26420
# Shear Modulus (GPa) = 23.42245 26.99814 25.21029
#
# Velocity S-wave (km/s) = 3.46469 3.71976 3.59449
# Velocity P-wave (km/s) = 6.80804 7.13449 6.97318
#
# Compressibility (1/GPa) = 0.01688974
#
# Stress axis : x y z
#
# Youngs Moduli (GPa) = 84.28198 51.28891 79.12940
#
# Poissons Ratio (x) = 0.36061 0.22403
# Poissons Ratio (y) = 0.59258 0.29222
# Poissons Ratio (z) = 0.23862 0.18941
#
# Static dielectric constant tensor:
#      x y z
#    x 3.916070 0.000000 0.000000 
#    y 0.000000 3.391580 0.000000 
#    z 0.000000 0.000000 3.583390 
# 
# 
# High freq. dielectric constant tensor:
#      x y z
#    x 1.772200 0.000000 0.000000 
#    y 0.000000 1.738470 0.000000 
#    z 0.000000 0.000000 1.769350 
# 
# From -- ./inp_files/4357.got.cif
#   From: 2010.03.12/outbox.cif.g09.slc.cpg/sg49_3_cif.got.tgz:4357.got - 2010.04.14 03:58:27.
