data_PCOD8202422
_publ_section_title
;
Structure prediction by ZEFSAII (Michael W. Deem and Ramdas Pophale) SiO2 
 PCOD8202422
Probable space group: P C C M
;
_chemical_formula_sum "Si O2"
_cell_formula_units_Z 64
_cell_length_a 14.443665
_cell_length_b 25.121734
_cell_length_c 8.670187
_cell_angle_alpha 90.000000
_cell_angle_beta 90.000000
_cell_angle_gamma 90.000000
_cell_volume 3145.976574
_symmetry_space_group_name_H-M "P C C M"
_symmetry_group_IT_number 49
_symmetry_cell_setting 'orthorhombic'
loop_
_space_group_symop_operation_xyz
x,y,z
-x,-y,z
x,-y,1/2-z
-x,y,1/2-z
-x,-y,-z
x,y,-z
-x,y,1/2+z
x,-y,1/2+z
loop_
_atom_site_type_symbol
_atom_site_label
_atom_site_fract_x
_atom_site_fract_y
_atom_site_fract_z
Si Si1 0.907686 0.059250 0.183432
Si Si2 0.282885 0.750439 0.179012
Si Si3 0.402033 0.853872 0.819892
Si Si4 0.905330 0.602056 0.181187
Si Si5 0.399608 0.343390 0.181615
Si Si6 0.720009 0.058428 0.682639
Si Si7 0.714010 0.444031 0.682996
Si Si8 0.095891 0.724729 0.317764
O O1 0.812903 0.085767 0.245069
O O2 0.000000 0.088552 0.250000
O O3 0.906880 0.000000 0.250000
O O4 0.909838 0.059422 0.000000
O O5 0.333001 0.805658 0.212133
O O6 0.331870 0.703943 0.273304
O O7 0.178416 0.757474 0.239033
O O8 0.284577 0.735322 0.000000
O O9 0.500000 0.837031 0.750000
O O10 0.366814 0.905851 0.730340
O O11 0.411125 0.866878 0.000000
O O12 0.817259 0.569392 0.245016
O O13 0.892765 0.663192 0.231357
O O14 0.000000 0.577892 0.250000
O O15 0.911905 0.597221 0.000000
O O16 0.500000 0.333534 0.250000
O O17 0.357200 0.399074 0.242188
O O18 0.408304 0.344201 0.000000
O O19 0.730045 0.054811 0.500000
O O20 0.703022 0.000000 0.750000
O O21 0.680169 0.500000 0.750000
O O22 0.714260 0.446217 0.500000
O O23 0.098473 0.732749 0.500000
O O24 0.000000 0.747435 0.250000
#
# Coordination Sequence:
#
# PCOD8202422 Si02
#       8
#     8   8   8   8   8   8   8   8
#     4  10  17  29  51  82 119 158 201 247 293 346
#     4  11  23  40  65  94 123 157 198 244 300 358
#     4  11  25  44  64  91 123 156 200 252 303 359
#     4   9  18  34  54  81 114 152 192 237 289 347
#     4  11  23  41  62  86 116 150 197 250 303 364
#     4  11  22  39  63  91 124 164 206 249 301 358
#     4  10  22  39  56  80 116 154 196 246 300 355
#     4  10  19  35  60  90 125 160 199 244 294 356
#
# _framework density 20.343444000000002
#
# number of rings (size 3 to 8) (size 9 to 14) (size 15 to 20)
#    0.000    1.625    1.250    5.250    0.000    5.750 
#    0.000    4.375    0.000    3.000    0.000    0.000 
#    0.000    0.000    0.000    0.000    0.000    0.000 
#
# Total GULP energy -793769.000766 kJ/mol
# GULP energy per Si atom -12402.640637 kJ/mol
# Density = 2.029714 g / cm^3
# Si number density = 20.343444 Si / 1000 Ang^3
#
#
#
# Elastic Constant Matrix: (Units=GPa)
#
#
# Indices 1 2 3 4 5 6 
#
# 1 137.0066 41.3509 38.7015 0.0000 0.0000 0.0000
# 2 41.3509 75.8878 37.6553 0.0000 0.0000 0.0000
# 3 38.7015 37.6553 102.4422 0.0000 0.0000 0.0000
# 4 0.0000 0.0000 0.0000 20.3223 0.0000 0.0000
# 5 0.0000 0.0000 0.0000 0.0000 37.0154 0.0000
# 6 0.0000 0.0000 0.0000 0.0000 0.0000 3.8673
#
#
#
# Elastic Compliance Matrix: (Units=1/GPa)
#
#
# Indices 1 2 3 4 5 6 
#
# 1 0.009048 -0.003955 -0.001964 0.000000 0.000000 0.000000
# 2 -0.003955 0.017846 -0.005066 0.000000 0.000000 0.000000
# 3 -0.001964 -0.005066 0.012366 0.000000 0.000000 0.000000
# 4 0.000000 0.000000 0.000000 0.049207 0.000000 0.000000
# 5 0.000000 0.000000 0.000000 0.000000 0.027016 0.000000
# 6 0.000000 0.000000 0.000000 0.000000 0.000000 0.258580
#
#
# Mechanical properties :
#
#
# Convention : Reuss Voigt Hill
#
# Bulk Modulus (GPa) = 57.83963 61.19467 59.51715
# Shear Modulus (GPa) = 12.44415 25.41624 18.93019
#
# Velocity S-wave (km/s) = 2.47595 3.53846 3.05377
# Velocity P-wave (km/s) = 6.05533 6.84400 6.46171
#
# Compressibility (1/GPa) = 0.01728918
#
# Stress axis : x y z
#
# Youngs Moduli (GPa) = 110.52722 56.03468 80.86946
#
# Poissons Ratio (x) = 0.22164 0.15884
# Poissons Ratio (y) = 0.43717 0.40965
# Poissons Ratio (z) = 0.21709 0.28384
#
# Static dielectric constant tensor:
#      x y z
#    x 4.213700 0.000000 0.000000 
#    y 0.000000 3.510390 0.000000 
#    z 0.000000 0.000000 3.667260 
# 
# 
# High freq. dielectric constant tensor:
#      x y z
#    x 1.812990 0.000000 0.000000 
#    y 0.000000 1.772220 0.000000 
#    z 0.000000 0.000000 1.801580 
# 
# From -- ./inp_files/4339.got.cif
#   From: 2010.03.12/outbox.cif.g09.slc.cpg/sg49_3_cif.got.tgz:4339.got - 2010.04.14 03:58:27.
