data_PCOD8202920
_publ_section_title
;
Structure prediction by ZEFSAII (Michael W. Deem and Ramdas Pophale) SiO2 
 PCOD8202920
Probable space group: P C C M
;
_chemical_formula_sum "Si O2"
_cell_formula_units_Z 52
_cell_length_a 17.871721
_cell_length_b 16.106076
_cell_length_c 9.006274
_cell_angle_alpha 90.000000
_cell_angle_beta 90.000000
_cell_angle_gamma 90.000000
_cell_volume 2592.395599
_symmetry_space_group_name_H-M "P C C M"
_symmetry_group_IT_number 49
_symmetry_cell_setting 'orthorhombic'
loop_
_space_group_symop_operation_xyz
x,y,z
-x,-y,z
x,-y,1/2-z
-x,y,1/2-z
-x,-y,-z
x,y,-z
-x,y,1/2+z
x,-y,1/2+z
loop_
_atom_site_type_symbol
_atom_site_label
_atom_site_fract_x
_atom_site_fract_y
_atom_site_fract_z
Si Si1 0.699694 0.000000 0.250000
Si Si2 0.640224 0.254976 0.177372
Si Si3 0.318853 0.415555 0.172694
Si Si4 0.218983 0.159627 0.667067
Si Si5 0.143902 0.586290 0.325453
Si Si6 0.922935 0.252398 0.177537
Si Si7 0.568017 0.109713 0.664756
O O1 0.756788 0.937125 0.330778
O O2 0.642968 0.946829 0.148063
O O3 0.631278 0.345135 0.249029
O O4 0.718062 0.217122 0.241404
O O5 0.577624 0.193326 0.239048
O O6 0.635712 0.259250 0.000000
O O7 0.343962 0.500000 0.250000
O O8 0.231575 0.398187 0.200589
O O9 0.338482 0.419719 0.000000
O O10 0.214714 0.189995 0.500000
O O11 0.137430 0.182406 0.732993
O O12 0.119286 0.500000 0.250000
O O13 0.123908 0.584575 0.500000
O O14 0.098821 0.658158 0.242516
O O15 0.000000 0.222496 0.250000
O O16 0.930934 0.258086 0.000000
O O17 0.500000 0.062514 0.750000
O O18 0.542309 0.133081 0.500000
#
# Coordination Sequence:
#
# PCOD8202920 Si02
#       7
#     4   8   8   8   8   8   8
#     4  10  21  38  63  90 114 148 186 234 285 340
#     4  10  19  35  58  83 114 153 195 237 287 336
#     4  10  19  31  52  83 117 151 194 241 287 334
#     4   9  19  36  57  81 109 144 187 235 287 343
#     4  10  20  34  54  82 114 149 191 238 289 342
#     4  11  22  38  57  79 111 151 193 240 294 347
#     4  11  23  38  59  89 124 155 188 228 280 343
#
# _framework density 20.058667
#
# number of rings (size 3 to 8) (size 9 to 14) (size 15 to 20)
#    0.000    1.846    1.538    3.000    0.000    4.000 
#    0.000    4.231    0.000    2.308    0.000    3.231 
#    0.000    0.000    0.000    0.000    0.000    0.000 
#
# Total GULP energy -644393.611621 kJ/mol
# GULP energy per Si atom -12392.184839 kJ/mol
# Density = 2.001301 g / cm^3
# Si number density = 20.058667 Si / 1000 Ang^3
#
#
#
# Elastic Constant Matrix: (Units=GPa)
#
#
# Indices 1 2 3 4 5 6 
#
# 1 91.8083 52.3237 40.2222 0.0000 0.0000 0.0000
# 2 52.3237 129.8023 49.2502 0.0000 0.0000 0.0000
# 3 40.2222 49.2502 132.5441 0.0000 0.0000 0.0000
# 4 0.0000 0.0000 0.0000 22.2517 0.0000 0.0000
# 5 0.0000 0.0000 0.0000 0.0000 26.3049 0.0000
# 6 0.0000 0.0000 0.0000 0.0000 0.0000 11.8509
#
#
#
# Elastic Compliance Matrix: (Units=1/GPa)
#
#
# Indices 1 2 3 4 5 6 
#
# 1 0.014909 -0.004998 -0.002667 0.000000 0.000000 0.000000
# 2 -0.004998 0.010644 -0.002438 0.000000 0.000000 0.000000
# 3 -0.002667 -0.002438 0.009260 0.000000 0.000000 0.000000
# 4 0.000000 0.000000 0.000000 0.044940 0.000000 0.000000
# 5 0.000000 0.000000 0.000000 0.000000 0.038016 0.000000
# 6 0.000000 0.000000 0.000000 0.000000 0.000000 0.084382
#
#
# Mechanical properties :
#
#
# Convention : Reuss Voigt Hill
#
# Bulk Modulus (GPa) = 68.46432 70.86076 69.66254
# Shear Modulus (GPa) = 22.00443 26.23874 24.12159
#
# Velocity S-wave (km/s) = 3.31570 3.62069 3.47155
# Velocity P-wave (km/s) = 6.99032 7.27205 7.13257
#
# Compressibility (1/GPa) = 0.01460615
#
# Stress axis : x y z
#
# Youngs Moduli (GPa) = 67.07232 93.95084 107.99017
#
# Poissons Ratio (x) = 0.46956 0.28804
# Poissons Ratio (y) = 0.33522 0.26331
# Poissons Ratio (z) = 0.17890 0.22908
#
# Static dielectric constant tensor:
#      x y z
#    x 3.683880 0.000000 0.000000 
#    y 0.000000 3.633140 0.000000 
#    z 0.000000 0.000000 3.532040 
# 
# 
# High freq. dielectric constant tensor:
#      x y z
#    x 1.767160 0.000000 0.000000 
#    y 0.000000 1.783940 0.000000 
#    z 0.000000 0.000000 1.780650 
# 
# From -- ./inp_files/5029.got.cif
#   From: 2010.03.12/outbox.cif.g09.slc.cpg/sg49_3_cif.got.tgz:5029.got - 2010.04.14 03:58:27.
