data_PCOD8202981
_publ_section_title
;
Structure prediction by ZEFSAII (Michael W. Deem and Ramdas Pophale) SiO2 
 PCOD8202981
Probable space group: P C C M
;
_chemical_formula_sum "Si O2"
_cell_formula_units_Z 64
_cell_length_a 15.212766
_cell_length_b 24.887837
_cell_length_c 8.874672
_cell_angle_alpha 90.000000
_cell_angle_beta 90.000000
_cell_angle_gamma 90.000000
_cell_volume 3360.064775
_symmetry_space_group_name_H-M "P C C M"
_symmetry_group_IT_number 49
_symmetry_cell_setting 'orthorhombic'
loop_
_space_group_symop_operation_xyz
x,y,z
-x,-y,z
x,-y,1/2-z
-x,y,1/2-z
-x,-y,-z
x,y,-z
-x,y,1/2+z
x,-y,1/2+z
loop_
_atom_site_type_symbol
_atom_site_label
_atom_site_fract_x
_atom_site_fract_y
_atom_site_fract_z
Si Si1 0.769892 0.944467 0.177627
Si Si2 0.219947 0.348233 0.175485
Si Si3 0.825975 0.759821 0.671522
Si Si4 0.585729 0.675212 0.177227
Si Si5 0.089692 0.856998 0.322070
Si Si6 0.091118 0.556581 0.677897
Si Si7 0.413469 0.102696 0.821430
Si Si8 0.626265 0.786005 0.673223
O O1 0.833945 0.897156 0.233017
O O2 0.671424 0.930611 0.232202
O O3 0.801131 0.000000 0.250000
O O4 0.774418 0.950578 0.000000
O O5 0.173504 0.300379 0.265105
O O6 0.322991 0.354857 0.220919
O O7 0.169596 0.402701 0.217094
O O8 0.212371 0.334043 0.000000
O O9 0.858729 0.757632 0.500000
O O10 0.892234 0.796633 0.765732
O O11 0.730850 0.786227 0.685595
O O12 0.500000 0.645581 0.250000
O O13 0.586956 0.734870 0.243153
O O14 0.572957 0.677248 0.000000
O O15 0.081112 0.856188 0.500000
O O16 0.000000 0.878571 0.250000
O O17 0.118330 0.500000 0.750000
O O18 0.077845 0.549956 0.500000
O O19 0.000000 0.577598 0.750000
O O20 0.500000 0.074582 0.750000
O O21 0.410036 0.162733 0.758876
O O22 0.420370 0.104511 0.000000
O O23 0.595102 0.786201 0.500000
#
# Coordination Sequence:
#
# PCOD8202981 Si02
#       8
#     8   8   8   8   8   8   8   8
#     4  10  24  43  63  82 108 142 180 227 279 331
#     4   9  20  36  55  80 115 156 191 229 279 335
#     4  10  20  34  56  85 115 148 185 226 274 328
#     4  10  19  32  50  75 110 150 189 231 275 324
#     4  11  23  41  62  86 113 145 182 224 277 335
#     4  10  20  36  58  84 112 147 189 234 284 332
#     4  11  22  37  56  82 110 143 181 222 273 328
#     4  10  19  32  52  79 109 145 184 223 268 324
#
# _framework density 19.047250999999999
#
# number of rings (size 3 to 8) (size 9 to 14) (size 15 to 20)
#    0.000    1.875    1.250    3.000    0.000    5.500 
#    0.000    3.750    0.000    0.375    0.000    2.625 
#    0.000    0.000    0.000    0.000    0.000    0.000 
#
# Total GULP energy -793713.389336 kJ/mol
# GULP energy per Si atom -12401.771708 kJ/mol
# Density = 1.900390 g / cm^3
# Si number density = 19.047251 Si / 1000 Ang^3
#
#
#
# Elastic Constant Matrix: (Units=GPa)
#
#
# Indices 1 2 3 4 5 6 
#
# 1 128.6354 63.4594 55.6039 0.0000 0.0000 0.0000
# 2 63.4594 92.7913 46.1642 0.0000 0.0000 0.0000
# 3 55.6039 46.1642 91.5051 0.0000 0.0000 0.0000
# 4 0.0000 0.0000 0.0000 25.9544 0.0000 0.0000
# 5 0.0000 0.0000 0.0000 0.0000 32.0867 0.0000
# 6 0.0000 0.0000 0.0000 0.0000 0.0000 13.8836
#
#
#
# Elastic Compliance Matrix: (Units=1/GPa)
#
#
# Indices 1 2 3 4 5 6 
#
# 1 0.013019 -0.006633 -0.004565 0.000000 0.000000 0.000000
# 2 -0.006633 0.017767 -0.004933 0.000000 0.000000 0.000000
# 3 -0.004565 -0.004933 0.016191 0.000000 0.000000 0.000000
# 4 0.000000 0.000000 0.000000 0.038529 0.000000 0.000000
# 5 0.000000 0.000000 0.000000 0.000000 0.031166 0.000000
# 6 0.000000 0.000000 0.000000 0.000000 0.000000 0.072027
#
#
# Mechanical properties :
#
#
# Convention : Reuss Voigt Hill
#
# Bulk Modulus (GPa) = 67.95415 71.48744 69.72080
# Shear Modulus (GPa) = 22.13694 24.23188 23.18441
#
# Velocity S-wave (km/s) = 3.41282 3.57066 3.49263
# Velocity P-wave (km/s) = 7.16128 7.39003 7.27655
#
# Compressibility (1/GPa) = 0.01471580
#
# Stress axis : x y z
#
# Youngs Moduli (GPa) = 76.80908 56.28369 61.76212
#
# Poissons Ratio (x) = 0.37331 0.28195
# Poissons Ratio (y) = 0.50945 0.30468
# Poissons Ratio (z) = 0.35064 0.27765
#
# Static dielectric constant tensor:
#      x y z
#    x 3.836500 0.000000 0.000000 
#    y 0.000000 3.247870 0.000000 
#    z 0.000000 0.000000 3.536440 
# 
# 
# High freq. dielectric constant tensor:
#      x y z
#    x 1.753390 0.000000 0.000000 
#    y 0.000000 1.714140 0.000000 
#    z 0.000000 0.000000 1.750070 
# 
# From -- ./inp_files/4333.got.cif
#   From: 2010.03.12/outbox.cif.g09.slc.cpg/sg49_3_cif.got.tgz:4333.got - 2010.04.14 03:58:27.
