data_PCOD8202661
_publ_section_title
;
Structure prediction by ZEFSAII (Michael W. Deem and Ramdas Pophale) SiO2 
 PCOD8202661
Probable space group: P C C M
;
_chemical_formula_sum "Si O2"
_cell_formula_units_Z 64
_cell_length_a 25.155369
_cell_length_b 15.245902
_cell_length_c 8.698828
_cell_angle_alpha 90.000000
_cell_angle_beta 90.000000
_cell_angle_gamma 90.000000
_cell_volume 3336.142247
_symmetry_space_group_name_H-M "P C C M"
_symmetry_group_IT_number 49
_symmetry_cell_setting 'orthorhombic'
loop_
_space_group_symop_operation_xyz
x,y,z
-x,-y,z
x,-y,1/2-z
-x,y,1/2-z
-x,-y,-z
x,y,-z
-x,y,1/2+z
x,-y,1/2+z
loop_
_atom_site_type_symbol
_atom_site_label
_atom_site_fract_x
_atom_site_fract_y
_atom_site_fract_z
Si Si1 0.148346 0.721766 0.180712
Si Si2 0.943181 0.593867 0.683547
Si Si3 0.825141 0.912709 0.317725
Si Si4 0.744424 0.322864 0.673065
Si Si5 0.602650 0.910270 0.681736
Si Si6 0.360821 0.408347 0.817826
Si Si7 0.444009 0.263807 0.817303
Si Si8 0.285807 0.124790 0.175248
O O1 0.098388 0.666871 0.243939
O O2 0.146900 0.822576 0.242856
O O3 0.202722 0.672800 0.225257
O O4 0.145712 0.724052 0.000000
O O5 0.925458 0.500000 0.750000
O O6 0.945781 0.588075 0.500000
O O7 0.000000 0.622086 0.750000
O O8 0.825936 0.916336 0.500000
O O9 0.765456 0.915797 0.255805
O O10 0.854416 0.000000 0.250000
O O11 0.761512 0.346805 0.500000
O O12 0.699813 0.389484 0.737619
O O13 0.716235 0.229167 0.677677
O O14 0.596296 0.908050 0.500000
O O15 0.569602 0.831682 0.754576
O O16 0.664301 0.906089 0.727149
O O17 0.578350 0.000000 0.750000
O O18 0.380414 0.500000 0.750000
O O19 0.400182 0.332905 0.757634
O O20 0.362477 0.411782 0.000000
O O21 0.500000 0.295430 0.750000
O O22 0.446186 0.260206 0.000000
O O23 0.290182 0.090427 0.000000
#
# Coordination Sequence:
#
# PCOD8202661 Si02
#       8
#     8   8   8   8   8   8   8   8
#     4   9  20  35  53  80 114 149 187 231 276 331
#     4  10  20  36  57  82 111 145 187 235 284 332
#     4  10  19  32  49  76 111 149 190 230 275 326
#     4   9  18  34  55  80 113 150 184 224 274 327
#     4  12  24  38  59  86 113 147 185 226 279 335
#     4  10  22  40  61  86 116 147 183 229 277 333
#     4  11  24  45  65  85 113 143 184 234 282 333
#     4  10  18  33  54  78 111 148 186 228 273 325
#
# _framework density 19.183833
#
# number of rings (size 3 to 8) (size 9 to 14) (size 15 to 20)
#    0.000    1.875    1.250    3.375    0.000    4.500 
#    0.000    5.000    0.000    0.375    0.000    2.625 
#    0.000    0.000    0.000    0.000    0.000    0.000 
#
# Total GULP energy -793586.343572 kJ/mol
# GULP energy per Si atom -12399.786618 kJ/mol
# Density = 1.914017 g / cm^3
# Si number density = 19.183833 Si / 1000 Ang^3
#
#
#
# Elastic Constant Matrix: (Units=GPa)
#
#
# Indices 1 2 3 4 5 6 
#
# 1 105.0381 71.7740 27.1528 0.0000 0.0000 0.0000
# 2 71.7740 128.9803 36.8289 0.0000 0.0000 0.0000
# 3 27.1528 36.8289 64.6498 0.0000 0.0000 0.0000
# 4 0.0000 0.0000 0.0000 29.2363 0.0000 0.0000
# 5 0.0000 0.0000 0.0000 0.0000 24.6770 0.0000
# 6 0.0000 0.0000 0.0000 0.0000 0.0000 25.9104
#
#
#
# Elastic Compliance Matrix: (Units=1/GPa)
#
#
# Indices 1 2 3 4 5 6 
#
# 1 0.015557 -0.008111 -0.001914 0.000000 0.000000 0.000000
# 2 -0.008111 0.013488 -0.004277 0.000000 0.000000 0.000000
# 3 -0.001914 -0.004277 0.018708 0.000000 0.000000 0.000000
# 4 0.000000 0.000000 0.000000 0.034204 0.000000 0.000000
# 5 0.000000 0.000000 0.000000 0.000000 0.040524 0.000000
# 6 0.000000 0.000000 0.000000 0.000000 0.000000 0.038595
#
#
# Mechanical properties :
#
#
# Convention : Reuss Voigt Hill
#
# Bulk Modulus (GPa) = 52.21823 63.35329 57.78576
# Shear Modulus (GPa) = 25.50219 26.82557 26.16388
#
# Velocity S-wave (km/s) = 3.64999 3.74350 3.69704
# Velocity P-wave (km/s) = 6.71135 7.19591 6.95785
#
# Compressibility (1/GPa) = 0.01915040
#
# Stress axis : x y z
#
# Youngs Moduli (GPa) = 64.27878 74.14092 53.45262
#
# Poissons Ratio (x) = 0.60134 0.10228
# Poissons Ratio (y) = 0.52135 0.22862
# Poissons Ratio (z) = 0.12300 0.31711
#
# Static dielectric constant tensor:
#      x y z
#    x 3.546680 0.000000 0.000000 
#    y 0.000000 3.813180 0.000000 
#    z 0.000000 0.000000 3.473500 
# 
# 
# High freq. dielectric constant tensor:
#      x y z
#    x 1.725950 0.000000 0.000000 
#    y 0.000000 1.756890 0.000000 
#    z 0.000000 0.000000 1.748030 
# 
# From -- ./inp_files/6555.got.cif
#   From: 2010.03.12/outbox.cif.g09.slc.cpg/sg49_4_cif.got.tgz:6555.got - 2010.04.14 03:58:27.
