data_PCOD8202528
_publ_section_title
;
Structure prediction by ZEFSAII (Michael W. Deem and Ramdas Pophale) SiO2 
 PCOD8202528
Probable space group: P C C M
;
_chemical_formula_sum "Si O2"
_cell_formula_units_Z 58
_cell_length_a 14.434744
_cell_length_b 12.352988
_cell_length_c 19.371889
_cell_angle_alpha 90.000000
_cell_angle_beta 90.000000
_cell_angle_gamma 90.000000
_cell_volume 3454.244522
_symmetry_space_group_name_H-M "P C C M"
_symmetry_group_IT_number 49
_symmetry_cell_setting 'orthorhombic'
loop_
_space_group_symop_operation_xyz
x,y,z
-x,-y,z
x,-y,1/2-z
-x,y,1/2-z
-x,-y,-z
x,y,-z
-x,y,1/2+z
x,-y,1/2+z
loop_
_atom_site_type_symbol
_atom_site_label
_atom_site_fract_x
_atom_site_fract_y
_atom_site_fract_z
Si Si1 0.602918 0.501449 0.918314
Si Si2 0.901444 0.372135 0.421750
Si Si3 0.906204 0.390372 0.129558
Si Si4 0.711385 0.288102 0.582443
Si Si5 0.393124 0.128506 0.670584
Si Si6 0.000000 0.500000 0.750000
Si Si7 0.394532 0.875102 0.327856
Si Si8 0.720083 0.705737 0.416934
O O1 0.500000 0.500000 0.886113
O O2 0.652050 0.609441 0.891910
O O3 0.659149 0.396595 0.893621
O O4 0.598021 0.500648 0.000000
O O5 0.897518 0.340043 0.500000
O O6 0.888654 0.501552 0.415022
O O7 0.815084 0.308465 0.388282
O O8 0.999159 0.330332 0.393005
O O9 0.821406 0.308748 0.117835
O O10 0.927558 0.426074 0.207810
O O11 0.706169 0.274360 0.500000
O O12 0.673162 0.181619 0.618354
O O13 0.499843 0.155783 0.653544
O O14 0.371300 0.161787 0.749634
O O15 0.326518 0.188740 0.616415
O O16 0.376602 0.001530 0.662235
O O17 0.727600 0.718487 0.500000
#
# Coordination Sequence:
#
# PCOD8202528 Si02
#       8
#     8   8   8   8   8   2   8   8
#     4   9  17  28  42  69 108 137 158 195 250 307
#     4   9  16  28  47  71  97 131 166 198 244 298
#     4  10  18  31  48  70 105 136 169 211 248 301
#     4  10  18  29  50  76 100 132 170 207 253 308
#     4   9  20  36  55  72  96 136 177 218 265 311
#     4   8  20  32  46  72 102 142 180 210 252 300
#     4   9  19  38  54  71  99 133 176 222 263 307
#     4  11  20  32  52  79 107 137 171 213 265 311
#
# _framework density 16.790935999999999
#
# number of rings (size 3 to 8) (size 9 to 14) (size 15 to 20)
#    0.000    2.621    1.379    3.310    0.000    4.414 
#    0.000    1.379    0.000    3.310    0.000    4.828 
#    0.000    0.000    0.000    0.000    0.000    0.000 
#
# Total GULP energy -718836.062860 kJ/mol
# GULP energy per Si atom -12393.725222 kJ/mol
# Density = 1.675272 g / cm^3
# Si number density = 16.790936 Si / 1000 Ang^3
#
#
#
# Elastic Constant Matrix: (Units=GPa)
#
#
# Indices 1 2 3 4 5 6 
#
# 1 152.3742 55.2440 54.1282 0.0000 0.0000 0.0000
# 2 55.2440 64.7482 36.0706 0.0000 0.0000 0.0000
# 3 54.1282 36.0706 74.5372 0.0000 0.0000 0.0000
# 4 0.0000 0.0000 0.0000 32.6492 0.0000 0.0000
# 5 0.0000 0.0000 0.0000 0.0000 22.5678 0.0000
# 6 0.0000 0.0000 0.0000 0.0000 0.0000 40.7418
#
#
#
# Elastic Compliance Matrix: (Units=1/GPa)
#
#
# Indices 1 2 3 4 5 6 
#
# 1 0.010502 -0.006451 -0.004505 0.000000 0.000000 0.000000
# 2 -0.006451 0.025107 -0.007466 0.000000 0.000000 0.000000
# 3 -0.004505 -0.007466 0.020300 0.000000 0.000000 0.000000
# 4 0.000000 0.000000 0.000000 0.030629 0.000000 0.000000
# 5 0.000000 0.000000 0.000000 0.000000 0.044311 0.000000
# 6 0.000000 0.000000 0.000000 0.000000 0.000000 0.024545
#
#
# Mechanical properties :
#
#
# Convention : Reuss Voigt Hill
#
# Bulk Modulus (GPa) = 52.44589 64.72722 58.58655
# Shear Modulus (GPa) = 25.17736 28.93954 27.05845
#
# Velocity S-wave (km/s) = 3.87649 4.15604 4.01869
# Velocity P-wave (km/s) = 7.16510 7.85256 7.51670
#
# Compressibility (1/GPa) = 0.01906727
#
# Stress axis : x y z
#
# Youngs Moduli (GPa) = 95.22275 39.82899 49.26082
#
# Poissons Ratio (x) = 0.25693 0.22190
# Poissons Ratio (y) = 0.61426 0.36776
# Poissons Ratio (z) = 0.42893 0.29735
#
# Static dielectric constant tensor:
#      x y z
#    x 3.112410 0.000000 0.000000 
#    y 0.000000 2.768960 0.000000 
#    z 0.000000 0.000000 3.001470 
# 
# 
# High freq. dielectric constant tensor:
#      x y z
#    x 1.657930 0.000000 0.000000 
#    y 0.000000 1.617160 0.000000 
#    z 0.000000 0.000000 1.636730 
# 
# From -- ./inp_files/17893.got.cif
#   From: 2010.03.12/outbox.cif.g09.slc.cpg/sg49_9_cif.got.tgz:17893.got - 2010.04.14 03:58:27.
