data_PCOD8202889
_publ_section_title
;
Structure prediction by ZEFSAII (Michael W. Deem and Ramdas Pophale) SiO2 
 PCOD8202889
Probable space group: P C C M
;
_chemical_formula_sum "Si O2"
_cell_formula_units_Z 56
_cell_length_a 22.405451
_cell_length_b 14.833788
_cell_length_c 8.995188
_cell_angle_alpha 90.000000
_cell_angle_beta 90.000000
_cell_angle_gamma 90.000000
_cell_volume 2989.620086
_symmetry_space_group_name_H-M "P C C M"
_symmetry_group_IT_number 49
_symmetry_cell_setting 'orthorhombic'
loop_
_space_group_symop_operation_xyz
x,y,z
-x,-y,z
x,-y,1/2-z
-x,y,1/2-z
-x,-y,-z
x,y,-z
-x,y,1/2+z
x,-y,1/2+z
loop_
_atom_site_type_symbol
_atom_site_label
_atom_site_fract_x
_atom_site_fract_y
_atom_site_fract_z
Si Si1 0.209164 0.411041 0.328351
Si Si2 0.828560 0.782213 0.327637
Si Si3 0.937947 0.092722 0.175497
Si Si4 0.739600 0.090206 0.675021
Si Si5 0.560469 0.718505 0.175057
Si Si6 0.396038 0.087743 0.171696
Si Si7 0.653727 0.592192 0.676122
O O1 0.183018 0.500000 0.250000
O O2 0.206508 0.433498 0.500000
O O3 0.168840 0.324111 0.287845
O O4 0.277383 0.391609 0.280451
O O5 0.811671 0.795844 0.500000
O O6 0.891779 0.827380 0.289785
O O7 0.776615 0.824536 0.229458
O O8 0.000000 0.122056 0.250000
O O9 0.914751 0.000000 0.250000
O O10 0.946488 0.077313 0.000000
O O11 0.746328 0.080698 0.500000
O O12 0.671550 0.104983 0.727171
O O13 0.766013 0.000000 0.750000
O O14 0.500000 0.681672 0.250000
O O15 0.564563 0.825056 0.207615
O O16 0.616966 0.673073 0.251980
O O17 0.560454 0.697185 0.000000
O O18 0.424286 0.000000 0.250000
O O19 0.395324 0.065007 0.000000
O O20 0.630511 0.500000 0.750000
O O21 0.643237 0.589118 0.500000
#
# Coordination Sequence:
#
# PCOD8202889 Si02
#       7
#     8   8   8   8   8   8   8
#     4   9  19  35  55  80 108 135 167 207 255 307
#     4  10  20  33  51  77 107 138 171 213 258 302
#     4  10  20  34  52  74 105 142 180 217 254 296
#     4  10  19  31  49  75 104 134 167 205 252 307
#     4  11  23  38  54  75 101 130 169 213 254 302
#     4   9  20  36  53  73 100 133 168 208 253 302
#     4  10  20  36  58  81 105 134 164 202 254 310
#
# _framework density 18.731476000000001
#
# number of rings (size 3 to 8) (size 9 to 14) (size 15 to 20)
#    0.000    2.143    0.000    3.429    0.000    5.714 
#    0.000    2.857    0.000    0.429    0.000    3.000 
#    0.000    0.000    0.000    0.000    0.000    0.000 
#
# Total GULP energy -694512.611938 kJ/mol
# GULP energy per Si atom -12402.010927 kJ/mol
# Density = 1.868884 g / cm^3
# Si number density = 18.731476 Si / 1000 Ang^3
#
#
#
# Elastic Constant Matrix: (Units=GPa)
#
#
# Indices 1 2 3 4 5 6 
#
# 1 66.9109 46.4270 35.5986 0.0000 0.0000 0.0000
# 2 46.4270 115.2304 49.9570 0.0000 0.0000 0.0000
# 3 35.5986 49.9570 82.5056 0.0000 0.0000 0.0000
# 4 0.0000 0.0000 0.0000 34.7883 0.0000 0.0000
# 5 0.0000 0.0000 0.0000 0.0000 20.6186 0.0000
# 6 0.0000 0.0000 0.0000 0.0000 0.0000 25.2730
#
#
#
# Elastic Compliance Matrix: (Units=1/GPa)
#
#
# Indices 1 2 3 4 5 6 
#
# 1 0.022588 -0.006611 -0.005743 0.000000 0.000000 0.000000
# 2 -0.006611 0.013702 -0.005444 0.000000 0.000000 0.000000
# 3 -0.005743 -0.005444 0.017895 0.000000 0.000000 0.000000
# 4 0.000000 0.000000 0.000000 0.028745 0.000000 0.000000
# 5 0.000000 0.000000 0.000000 0.000000 0.048500 0.000000
# 6 0.000000 0.000000 0.000000 0.000000 0.000000 0.039568
#
#
# Mechanical properties :
#
#
# Convention : Reuss Voigt Hill
#
# Bulk Modulus (GPa) = 53.79703 58.73468 56.26585
# Shear Modulus (GPa) = 23.49733 24.98027 24.23880
#
# Velocity S-wave (km/s) = 3.54564 3.65581 3.60114
# Velocity P-wave (km/s) = 6.74867 7.01742 6.88435
#
# Compressibility (1/GPa) = 0.01858839
#
# Stress axis : x y z
#
# Youngs Moduli (GPa) = 44.27178 72.98132 55.88216
#
# Poissons Ratio (x) = 0.48247 0.32093
# Poissons Ratio (y) = 0.29268 0.30424
# Poissons Ratio (z) = 0.25425 0.39733
#
# Static dielectric constant tensor:
#      x y z
#    x 3.291050 0.000000 0.000000 
#    y 0.000000 3.504680 0.000000 
#    z 0.000000 0.000000 3.456430 
# 
# 
# High freq. dielectric constant tensor:
#      x y z
#    x 1.707680 0.000000 0.000000 
#    y 0.000000 1.728860 0.000000 
#    z 0.000000 0.000000 1.734420 
# 
# From -- ./inp_files/4088.got.cif
#   From: 2010.03.12/outbox.cif.g09.slc.cpg/sg49_3_cif.got.tgz:4088.got - 2010.04.14 03:58:27.
