data_PCOD8202721
_publ_section_title
;
Structure prediction by ZEFSAII (Michael W. Deem and Ramdas Pophale) SiO2 
 PCOD8202721
Probable space group: P C C M
;
_chemical_formula_sum "Si O2"
_cell_formula_units_Z 64
_cell_length_a 26.292017
_cell_length_b 18.291582
_cell_length_c 8.660059
_cell_angle_alpha 90.000000
_cell_angle_beta 90.000000
_cell_angle_gamma 90.000000
_cell_volume 4164.817960
_symmetry_space_group_name_H-M "P C C M"
_symmetry_group_IT_number 49
_symmetry_cell_setting 'orthorhombic'
loop_
_space_group_symop_operation_xyz
x,y,z
-x,-y,z
x,-y,1/2-z
-x,y,1/2-z
-x,-y,-z
x,y,-z
-x,y,1/2+z
x,-y,1/2+z
loop_
_atom_site_type_symbol
_atom_site_label
_atom_site_fract_x
_atom_site_fract_y
_atom_site_fract_z
Si Si1 0.743326 0.921519 0.679334
Si Si2 0.644409 0.834460 0.682861
Si Si3 0.244668 0.578858 0.816781
Si Si4 0.054483 0.421866 0.683411
Si Si5 0.798279 0.798471 0.829680
Si Si6 0.696812 0.704705 0.173267
Si Si7 0.554688 0.922565 0.182864
Si Si8 0.147545 0.342221 0.183771
O O1 0.740446 0.932095 0.500000
O O2 0.690622 0.886503 0.739983
O O3 0.790722 0.868153 0.719034
O O4 0.753055 0.000000 0.750000
O O5 0.637471 0.837748 0.500000
O O6 0.654360 0.751121 0.735106
O O7 0.593644 0.860137 0.767453
O O8 0.257531 0.500000 0.750000
O O9 0.291435 0.630562 0.765748
O O10 0.191053 0.605187 0.748978
O O11 0.240650 0.577004 0.000000
O O12 0.071735 0.500000 0.750000
O O13 0.051785 0.426493 0.500000
O O14 0.094312 0.361270 0.737721
O O15 0.000000 0.398750 0.750000
O O16 0.747724 0.751028 0.835100
O O17 0.842180 0.742973 0.771720
O O18 0.811169 0.828659 0.000000
O O19 0.677573 0.686632 0.000000
O O20 0.500000 0.901211 0.250000
O O21 0.573527 0.000000 0.250000
O O22 0.551319 0.928555 0.000000
O O23 0.145535 0.352500 0.000000
#
# Coordination Sequence:
#
# PCOD8202721 Si02
#       8
#     8   8   8   8   8   8   8   8
#     4  10  19  28  42  62  87 115 146 179 213 254
#     4  10  19  31  46  65  87 116 150 183 219 263
#     4  11  20  30  44  64  89 118 150 184 219 260
#     4  11  21  33  47  64  87 115 147 184 220 257
#     4   8  16  29  44  60  83 111 141 176 214 254
#     4   9  17  30  45  63  86 114 145 180 219 260
#     4  11  21  33  47  64  87 116 149 188 226 263
#     4  10  19  32  47  64  86 115 148 182 220 263
#
# _framework density 15.366818
#
# number of rings (size 3 to 8) (size 9 to 14) (size 15 to 20)
#    0.000    2.000    0.000    7.125    0.000    6.000 
#    0.000    0.000    0.000    0.000    0.000    0.000 
#    0.000    1.000    0.000   10.250    0.000    5.250 
#
# Total GULP energy -793569.041174 kJ/mol
# GULP energy per Si atom -12399.516268 kJ/mol
# Density = 1.533184 g / cm^3
# Si number density = 15.366818 Si / 1000 Ang^3
#
#
#
# Elastic Constant Matrix: (Units=GPa)
#
#
# Indices 1 2 3 4 5 6 
#
# 1 76.8214 51.1703 38.2301 0.0000 0.0000 0.0000
# 2 51.1703 102.4397 44.3178 0.0000 0.0000 0.0000
# 3 38.2301 44.3178 112.3728 0.0000 0.0000 0.0000
# 4 0.0000 0.0000 0.0000 27.4833 0.0000 0.0000
# 5 0.0000 0.0000 0.0000 0.0000 23.0087 0.0000
# 6 0.0000 0.0000 0.0000 0.0000 0.0000 4.4721
#
#
#
# Elastic Compliance Matrix: (Units=1/GPa)
#
#
# Indices 1 2 3 4 5 6 
#
# 1 0.020626 -0.008762 -0.003561 0.000000 0.000000 0.000000
# 2 -0.008762 0.015492 -0.003129 0.000000 0.000000 0.000000
# 3 -0.003561 -0.003129 0.011345 0.000000 0.000000 0.000000
# 4 0.000000 0.000000 0.000000 0.036386 0.000000 0.000000
# 5 0.000000 0.000000 0.000000 0.000000 0.043462 0.000000
# 6 0.000000 0.000000 0.000000 0.000000 0.000000 0.223608
#
#
# Mechanical properties :
#
#
# Convention : Reuss Voigt Hill
#
# Bulk Modulus (GPa) = 60.39486 62.11893 61.25689
# Shear Modulus (GPa) = 12.90844 21.52053 17.21448
#
# Velocity S-wave (km/s) = 2.90145 3.74632 3.35063
# Velocity P-wave (km/s) = 7.11421 7.69578 7.41071
#
# Compressibility (1/GPa) = 0.01655770
#
# Stress axis : x y z
#
# Youngs Moduli (GPa) = 48.48227 64.54776 88.14782
#
# Poissons Ratio (x) = 0.56559 0.31393
# Poissons Ratio (y) = 0.42482 0.27581
# Poissons Ratio (z) = 0.17267 0.20197
#
# Static dielectric constant tensor:
#      x y z
#    x 2.841050 0.000000 0.000000 
#    y 0.000000 3.805260 0.000000 
#    z 0.000000 0.000000 3.124900 
# 
# 
# High freq. dielectric constant tensor:
#      x y z
#    x 1.555090 0.000000 0.000000 
#    y 0.000000 1.578140 0.000000 
#    z 0.000000 0.000000 1.610210 
# 
# From -- ./inp_files/6794.got.cif
#   From: 2010.03.12/outbox.cif.g09.slc.cpg/sg49_4_cif.got.tgz:6794.got - 2010.04.14 03:58:27.
