data_PCOD8202954
_publ_section_title
;
Structure prediction by ZEFSAII (Michael W. Deem and Ramdas Pophale) SiO2 
 PCOD8202954
Probable space group: P C C M
;
_chemical_formula_sum "Si O2"
_cell_formula_units_Z 58
_cell_length_a 23.828624
_cell_length_b 14.859100
_cell_length_c 8.931727
_cell_angle_alpha 90.000000
_cell_angle_beta 90.000000
_cell_angle_gamma 90.000000
_cell_volume 3162.473611
_symmetry_space_group_name_H-M "P C C M"
_symmetry_group_IT_number 49
_symmetry_cell_setting 'orthorhombic'
loop_
_space_group_symop_operation_xyz
x,y,z
-x,-y,z
x,-y,1/2-z
-x,y,1/2-z
-x,-y,-z
x,y,-z
-x,y,1/2+z
x,-y,1/2+z
loop_
_atom_site_type_symbol
_atom_site_label
_atom_site_fract_x
_atom_site_fract_y
_atom_site_fract_z
Si Si1 0.775092 0.091746 0.322754
Si Si2 0.000000 0.500000 0.250000
Si Si3 0.107809 0.415595 0.335779
Si Si4 0.391806 0.404772 0.320361
Si Si5 0.173515 0.725153 0.327805
Si Si6 0.556402 0.763381 0.178340
Si Si7 0.647582 0.909109 0.824499
Si Si8 0.274710 0.408868 0.824948
O O1 0.777928 0.082710 0.500000
O O2 0.814493 0.174105 0.267966
O O3 0.711210 0.111004 0.270558
O O4 0.798216 0.000000 0.250000
O O5 0.040457 0.433651 0.345811
O O6 0.136785 0.500000 0.250000
O O7 0.134058 0.412941 0.500000
O O8 0.121283 0.320591 0.257386
O O9 0.409554 0.500000 0.250000
O O10 0.392920 0.408713 0.500000
O O11 0.435485 0.332369 0.258233
O O12 0.330393 0.377266 0.260716
O O13 0.156211 0.727312 0.500000
O O14 0.229418 0.668231 0.301387
O O15 0.500000 0.805538 0.250000
O O16 0.608168 0.827088 0.224028
O O17 0.551187 0.752656 0.000000
O O18 0.624610 0.000000 0.750000
O O19 0.645605 0.924087 0.000000
O O20 0.251684 0.500000 0.750000
O O21 0.288494 0.424381 0.000000
#
# Coordination Sequence:
#
# PCOD8202954 Si02
#       8
#     8   2   8   8   8   8   8   8
#     4   9  18  34  53  76 104 138 174 215 262 314
#     4   8  22  36  54  76 112 152 190 232 264 304
#     4  10  20  33  52  76 108 146 186 224 264 307
#     4  11  22  37  56  76  99 133 172 212 259 315
#     4  10  20  32  50  76 109 143 179 220 267 311
#     4  11  23  39  56  77 103 131 167 215 263 314
#     4   9  19  36  58  79 104 135 169 208 259 317
#     4  10  19  32  49  73 105 139 170 209 257 313
#
# _framework density 18.340074000000001
#
# number of rings (size 3 to 8) (size 9 to 14) (size 15 to 20)
#    0.414    1.655    0.000    4.759    0.000    6.621 
#    0.000    5.517    0.000    0.000    0.000    0.483 
#    0.000    3.310    0.000    0.000    0.000    0.000 
#
# Total GULP energy -719007.973532 kJ/mol
# GULP energy per Si atom -12396.689199 kJ/mol
# Density = 1.829833 g / cm^3
# Si number density = 18.340074 Si / 1000 Ang^3
#
#
#
# Elastic Constant Matrix: (Units=GPa)
#
#
# Indices 1 2 3 4 5 6 
#
# 1 67.8770 54.2401 33.7016 0.0000 0.0000 0.0000
# 2 54.2401 136.2778 52.3178 0.0000 0.0000 0.0000
# 3 33.7016 52.3178 99.9881 0.0000 0.0000 0.0000
# 4 0.0000 0.0000 0.0000 31.5210 0.0000 0.0000
# 5 0.0000 0.0000 0.0000 0.0000 21.5354 0.0000
# 6 0.0000 0.0000 0.0000 0.0000 0.0000 23.6440
#
#
#
# Elastic Compliance Matrix: (Units=1/GPa)
#
#
# Indices 1 2 3 4 5 6 
#
# 1 0.022618 -0.007603 -0.003645 0.000000 0.000000 0.000000
# 2 -0.007603 0.011738 -0.003579 0.000000 0.000000 0.000000
# 3 -0.003645 -0.003579 0.013103 0.000000 0.000000 0.000000
# 4 0.000000 0.000000 0.000000 0.031725 0.000000 0.000000
# 5 0.000000 0.000000 0.000000 0.000000 0.046435 0.000000
# 6 0.000000 0.000000 0.000000 0.000000 0.000000 0.042294
#
#
# Mechanical properties :
#
#
# Convention : Reuss Voigt Hill
#
# Bulk Modulus (GPa) = 56.16787 64.96242 60.56515
# Shear Modulus (GPa) = 24.56982 26.26565 25.41773
#
# Velocity S-wave (km/s) = 3.66413 3.78847 3.72682
# Velocity P-wave (km/s) = 6.97090 7.39153 7.18429
#
# Compressibility (1/GPa) = 0.01780377
#
# Stress axis : x y z
#
# Youngs Moduli (GPa) = 44.21309 85.19355 76.31995
#
# Poissons Ratio (x) = 0.64769 0.27822
# Poissons Ratio (y) = 0.33613 0.27317
# Poissons Ratio (z) = 0.16118 0.30493
#
# Static dielectric constant tensor:
#      x y z
#    x 3.183400 0.000000 0.000000 
#    y 0.000000 3.473750 0.000000 
#    z 0.000000 0.000000 3.409550 
# 
# 
# High freq. dielectric constant tensor:
#      x y z
#    x 1.687280 0.000000 0.000000 
#    y 0.000000 1.706710 0.000000 
#    z 0.000000 0.000000 1.714760 
# 
# From -- ./inp_files/6764.got.cif
#   From: 2010.03.12/outbox.cif.g09.slc.cpg/sg49_4_cif.got.tgz:6764.got - 2010.04.14 03:58:27.
