data_PCOD8202612
_publ_section_title
;
Structure prediction by ZEFSAII (Michael W. Deem and Ramdas Pophale) SiO2 
 PCOD8202612
Probable space group: P C C M
;
_chemical_formula_sum "Si O2"
_cell_formula_units_Z 58
_cell_length_a 18.471254
_cell_length_b 17.765835
_cell_length_c 9.123480
_cell_angle_alpha 90.000000
_cell_angle_beta 90.000000
_cell_angle_gamma 90.000000
_cell_volume 2993.936115
_symmetry_space_group_name_H-M "P C C M"
_symmetry_group_IT_number 49
_symmetry_cell_setting 'orthorhombic'
loop_
_space_group_symop_operation_xyz
x,y,z
-x,-y,z
x,-y,1/2-z
-x,y,1/2-z
-x,-y,-z
x,y,-z
-x,y,1/2+z
x,-y,1/2+z
loop_
_atom_site_type_symbol
_atom_site_label
_atom_site_fract_x
_atom_site_fract_y
_atom_site_fract_z
Si Si1 0.073956 0.290017 0.665294
Si Si2 0.161641 0.567822 0.159049
Si Si3 0.800989 0.212274 0.668685
Si Si4 0.323821 0.580040 0.175242
Si Si5 0.238532 0.073477 0.328366
Si Si6 0.393751 0.127467 0.335843
Si Si7 0.500000 0.000000 0.750000
Si Si8 0.359865 0.728749 0.670600
O O1 0.071916 0.254116 0.500000
O O2 0.093824 0.376806 0.649823
O O3 0.137330 0.265354 0.772386
O O4 0.000000 0.275159 0.750000
O O5 0.130084 0.500000 0.250000
O O6 0.239695 0.598214 0.217274
O O7 0.180540 0.535550 0.000000
O O8 0.813995 0.191908 0.500000
O O9 0.811650 0.139428 0.769231
O O10 0.723271 0.249254 0.693244
O O11 0.346334 0.500000 0.250000
O O12 0.371313 0.648933 0.245134
O O13 0.338167 0.577497 0.000000
O O14 0.230267 0.064178 0.500000
O O15 0.320621 0.089242 0.277513
O O16 0.209277 0.000000 0.250000
O O17 0.383667 0.158402 0.500000
O O18 0.409528 0.202185 0.236386
O O19 0.452201 0.059623 0.341648
O O20 0.380670 0.719295 0.500000
#
# Coordination Sequence:
#
# PCOD8202612 Si02
#       8
#     8   8   8   8   8   8   2   8
#     4  11  22  36  51  72  99 136 179 224 277 335
#     4   9  19  32  48  69  98 135 175 220 272 328
#     4  10  20  34  53  76 102 136 176 227 277 327
#     4  10  18  31  52  79 110 143 183 233 290 340
#     4  10  19  34  55  81 109 140 179 222 266 316
#     4  10  22  36  55  81 116 158 193 228 268 318
#     4  12  22  40  60  90 124 164 198 226 262 312
#     4  10  20  34  54  80 110 145 190 235 281 330
#
# _framework density 19.372491
#
# number of rings (size 3 to 8) (size 9 to 14) (size 15 to 20)
#    0.000    1.931    2.069    2.276    0.000    4.690 
#    0.000    1.379    0.000    0.414    0.000    3.379 
#    0.000    3.310    0.000    0.000    0.000    0.000 
#
# Total GULP energy -718544.960922 kJ/mol
# GULP energy per Si atom -12388.706223 kJ/mol
# Density = 1.932840 g / cm^3
# Si number density = 19.372491 Si / 1000 Ang^3
#
#
#
# Elastic Constant Matrix: (Units=GPa)
#
#
# Indices 1 2 3 4 5 6 
#
# 1 39.3076 14.9272 16.7140 0.0000 0.0000 0.0000
# 2 14.9272 107.0253 62.0254 0.0000 0.0000 0.0000
# 3 16.7140 62.0254 106.9027 0.0000 0.0000 0.0000
# 4 0.0000 0.0000 0.0000 39.2123 0.0000 0.0000
# 5 0.0000 0.0000 0.0000 0.0000 11.3144 0.0000
# 6 0.0000 0.0000 0.0000 0.0000 0.0000 16.7086
#
#
#
# Elastic Compliance Matrix: (Units=1/GPa)
#
#
# Indices 1 2 3 4 5 6 
#
# 1 0.027541 -0.002028 -0.003130 0.000000 0.000000 0.000000
# 2 -0.002028 0.014226 -0.007937 0.000000 0.000000 0.000000
# 3 -0.003130 -0.007937 0.014449 0.000000 0.000000 0.000000
# 4 0.000000 0.000000 0.000000 0.025502 0.000000 0.000000
# 5 0.000000 0.000000 0.000000 0.000000 0.088383 0.000000
# 6 0.000000 0.000000 0.000000 0.000000 0.000000 0.059849
#
#
# Mechanical properties :
#
#
# Convention : Reuss Voigt Hill
#
# Bulk Modulus (GPa) = 33.30274 48.95210 41.12742
# Shear Modulus (GPa) = 18.78649 24.08499 21.43574
#
# Velocity S-wave (km/s) = 3.11746 3.52981 3.33002
# Velocity P-wave (km/s) = 5.49419 6.47584 6.00511
#
# Compressibility (1/GPa) = 0.03002756
#
# Stress axis : x y z
#
# Youngs Moduli (GPa) = 36.30940 70.29248 69.20998
#
# Poissons Ratio (x) = 0.14252 0.21660
# Poissons Ratio (y) = 0.07362 0.54933
# Poissons Ratio (z) = 0.11363 0.55792
#
# Static dielectric constant tensor:
#      x y z
#    x 3.397870 0.000000 0.000000 
#    y 0.000000 3.623000 0.000000 
#    z 0.000000 0.000000 3.654240 
# 
# 
# High freq. dielectric constant tensor:
#      x y z
#    x 1.708750 0.000000 0.000000 
#    y 0.000000 1.755160 0.000000 
#    z 0.000000 0.000000 1.768180 
# 
# From -- ./inp_files/5080.got.cif
#   From: 2010.03.12/outbox.cif.g09.slc.cpg/sg49_3_cif.got.tgz:5080.got - 2010.04.14 03:58:27.
