data_PCOD8202480
_publ_section_title
;
Structure prediction by ZEFSAII (Michael W. Deem and Ramdas Pophale) SiO2 
 PCOD8202480
Probable space group: P C C M
;
_chemical_formula_sum "Si O2"
_cell_formula_units_Z 56
_cell_length_a 18.743632
_cell_length_b 19.044722
_cell_length_c 8.903811
_cell_angle_alpha 90.000000
_cell_angle_beta 90.000000
_cell_angle_gamma 90.000000
_cell_volume 3178.369023
_symmetry_space_group_name_H-M "P C C M"
_symmetry_group_IT_number 49
_symmetry_cell_setting 'orthorhombic'
loop_
_space_group_symop_operation_xyz
x,y,z
-x,-y,z
x,-y,1/2-z
-x,y,1/2-z
-x,-y,-z
x,y,-z
-x,y,1/2+z
x,-y,1/2+z
loop_
_atom_site_type_symbol
_atom_site_label
_atom_site_fract_x
_atom_site_fract_y
_atom_site_fract_z
Si Si1 0.210128 0.207522 0.675696
Si Si2 0.305088 0.568368 0.324869
Si Si3 0.424558 0.149870 0.177289
Si Si4 0.293997 0.072818 0.677909
Si Si5 0.151494 0.429447 0.321573
Si Si6 0.925244 0.712538 0.676564
Si Si7 0.337047 0.280723 0.172236
O O1 0.212954 0.218595 0.500000
O O2 0.231474 0.128126 0.719923
O O3 0.131401 0.228500 0.733773
O O4 0.266500 0.262711 0.737526
O O5 0.342445 0.500000 0.250000
O O6 0.292598 0.553830 0.500000
O O7 0.229557 0.582205 0.246843
O O8 0.355218 0.637044 0.299343
O O9 0.500000 0.133106 0.250000
O O10 0.368156 0.096359 0.248313
O O11 0.402757 0.230278 0.218651
O O12 0.428473 0.137065 0.000000
O O13 0.304501 0.065809 0.500000
O O14 0.269185 0.000000 0.750000
O O15 0.117351 0.500000 0.250000
O O16 0.157768 0.436801 0.500000
O O17 0.101568 0.364543 0.274611
O O18 0.935218 0.716441 0.500000
O O19 0.000000 0.730881 0.750000
O O20 0.318036 0.266728 0.000000
#
# Coordination Sequence:
#
# PCOD8202480 Si02
#       7
#     8   8   8   8   8   8   8
#     4   9  18  34  53  73  99 129 165 205 247 295
#     4  10  18  28  45  70  96 126 164 209 257 298
#     4  10  20  35  53  78 109 138 169 201 240 291
#     4  10  20  35  57  82 107 135 164 199 242 290
#     4  10  19  31  46  66  95 129 166 208 254 301
#     4  10  21  34  49  70  97 131 169 210 253 300
#     4   9  18  31  50  73  98 129 167 210 250 293
#
# _framework density 17.6191
#
# number of rings (size 3 to 8) (size 9 to 14) (size 15 to 20)
#    0.000    2.286    1.429    2.571    0.000    4.000 
#    0.000    2.857    0.000    0.857    0.000    6.000 
#    0.000    0.000    0.000    0.000    0.000    0.000 
#
# Total GULP energy -694188.727032 kJ/mol
# GULP energy per Si atom -12396.227268 kJ/mol
# Density = 1.757900 g / cm^3
# Si number density = 17.619100 Si / 1000 Ang^3
#
#
#
# Elastic Constant Matrix: (Units=GPa)
#
#
# Indices 1 2 3 4 5 6 
#
# 1 73.5379 46.5153 29.3251 0.0000 0.0000 0.0000
# 2 46.5153 130.5809 46.5273 0.0000 0.0000 0.0000
# 3 29.3251 46.5273 64.5865 0.0000 0.0000 0.0000
# 4 0.0000 0.0000 0.0000 27.3088 0.0000 0.0000
# 5 0.0000 0.0000 0.0000 0.0000 22.1208 0.0000
# 6 0.0000 0.0000 0.0000 0.0000 0.0000 22.0561
#
#
#
# Elastic Compliance Matrix: (Units=1/GPa)
#
#
# Indices 1 2 3 4 5 6 
#
# 1 0.018663 -0.004882 -0.004957 0.000000 0.000000 0.000000
# 2 -0.004882 0.011580 -0.006125 0.000000 0.000000 0.000000
# 3 -0.004957 -0.006125 0.022146 0.000000 0.000000 0.000000
# 4 0.000000 0.000000 0.000000 0.036618 0.000000 0.000000
# 5 0.000000 0.000000 0.000000 0.000000 0.045206 0.000000
# 6 0.000000 0.000000 0.000000 0.000000 0.000000 0.045339
#
#
# Mechanical properties :
#
#
# Convention : Reuss Voigt Hill
#
# Bulk Modulus (GPa) = 48.87390 57.04896 52.96143
# Shear Modulus (GPa) = 22.90414 24.05297 23.47856
#
# Velocity S-wave (km/s) = 3.60941 3.69882 3.65439
# Velocity P-wave (km/s) = 6.72085 7.11976 6.92318
#
# Compressibility (1/GPa) = 0.02046082
#
# Stress axis : x y z
#
# Youngs Moduli (GPa) = 53.58155 86.35897 45.15420
#
# Poissons Ratio (x) = 0.42160 0.22383
# Poissons Ratio (y) = 0.26158 0.27658
# Poissons Ratio (z) = 0.26561 0.52896
#
# Static dielectric constant tensor:
#      x y z
#    x 3.120900 0.000000 0.000000 
#    y 0.000000 3.594410 0.000000 
#    z 0.000000 0.000000 3.329550 
# 
# 
# High freq. dielectric constant tensor:
#      x y z
#    x 1.647120 0.000000 0.000000 
#    y 0.000000 1.688360 0.000000 
#    z 0.000000 0.000000 1.690890 
# 
# From -- ./inp_files/5199.got.cif
#   From: 2010.03.12/outbox.cif.g09.slc.cpg/sg49_3_cif.got.tgz:5199.got - 2010.04.14 03:58:27.
