data_PCOD8202965
_publ_section_title
;
Structure prediction by ZEFSAII (Michael W. Deem and Ramdas Pophale) SiO2 
 PCOD8202965
Probable space group: P C C M
;
_chemical_formula_sum "Si O2"
_cell_formula_units_Z 64
_cell_length_a 18.375192
_cell_length_b 12.596395
_cell_length_c 15.916245
_cell_angle_alpha 90.000000
_cell_angle_beta 90.000000
_cell_angle_gamma 90.000000
_cell_volume 3683.992795
_symmetry_space_group_name_H-M "P C C M"
_symmetry_group_IT_number 49
_symmetry_cell_setting 'orthorhombic'
loop_
_space_group_symop_operation_xyz
x,y,z
-x,-y,z
x,-y,1/2-z
-x,y,1/2-z
-x,-y,-z
x,y,-z
-x,y,1/2+z
x,-y,1/2+z
loop_
_atom_site_type_symbol
_atom_site_label
_atom_site_fract_x
_atom_site_fract_y
_atom_site_fract_z
Si Si1 0.576511 0.868408 0.098340
Si Si2 0.323126 0.299316 0.351321
Si Si3 0.674024 0.682283 0.161690
Si Si4 0.417504 0.491355 0.402445
Si Si5 0.918560 0.626125 0.750397
Si Si6 0.412330 0.890849 0.901731
Si Si7 0.822113 0.375344 0.594427
Si Si8 0.824841 0.622972 0.593111
O O1 0.625677 0.786233 0.148448
O O2 0.493183 0.859236 0.129425
O O3 0.604933 0.986588 0.118394
O O4 0.581779 0.842724 0.000000
O O5 0.299396 0.324893 0.257004
O O6 0.387848 0.374053 0.384632
O O7 0.351768 0.179027 0.355625
O O8 0.250942 0.313562 0.406613
O O9 0.628332 0.576906 0.147497
O O10 0.745602 0.685809 0.103702
O O11 0.500000 0.500000 0.370493
O O12 0.412180 0.519586 0.500000
O O13 0.921737 0.500000 0.750000
O O14 0.878969 0.666501 0.835549
O O15 0.878639 0.666466 0.665490
O O16 0.000000 0.673705 0.750000
O O17 0.407651 0.869143 0.000000
O O18 0.852420 0.353784 0.500000
O O19 0.806870 0.499643 0.608927
O O20 0.860018 0.638751 0.500000
#
# Coordination Sequence:
#
# PCOD8202965 Si02
#       8
#     8   8   8   8   8   8   8   8
#     4   9  19  36  54  70  93 130 175 221 267 311
#     4  12  22  32  49  72 101 133 172 216 260 308
#     4  12  22  32  49  72 101 133 172 216 260 308
#     4  11  23  35  47  67  95 132 177 217 257 309
#     4   9  18  32  50  74 103 134 169 205 244 300
#     4   9  19  36  54  70  93 130 175 221 267 311
#     4  10  19  32  50  72 102 138 172 207 253 302
#     4  10  19  32  50  72 102 138 172 207 253 302
#
# _framework density 17.372454999999999
#
# number of rings (size 3 to 8) (size 9 to 14) (size 15 to 20)
#    0.000    1.750    2.500    4.125    0.000    5.500 
#    0.000    3.750    0.000    0.000    0.000    0.000 
#    0.000    2.000    0.000    5.250    0.000    0.250 
#
# Total GULP energy -793683.661832 kJ/mol
# GULP energy per Si atom -12401.307216 kJ/mol
# Density = 1.733291 g / cm^3
# Si number density = 17.372455 Si / 1000 Ang^3
#
#
#
# Elastic Constant Matrix: (Units=GPa)
#
#
# Indices 1 2 3 4 5 6 
#
# 1 94.4255 19.6323 36.3951 0.0000 0.0000 0.0000
# 2 19.6323 52.6802 10.8820 0.0000 0.0000 0.0000
# 3 36.3951 10.8820 100.1317 0.0000 0.0000 0.0000
# 4 0.0000 0.0000 0.0000 18.9392 0.0000 0.0000
# 5 0.0000 0.0000 0.0000 0.0000 23.3577 0.0000
# 6 0.0000 0.0000 0.0000 0.0000 0.0000 14.4406
#
#
#
# Elastic Compliance Matrix: (Units=1/GPa)
#
#
# Indices 1 2 3 4 5 6 
#
# 1 0.013085 -0.003983 -0.004323 0.000000 0.000000 0.000000
# 2 -0.003983 0.020631 -0.000794 0.000000 0.000000 0.000000
# 3 -0.004323 -0.000794 0.011644 0.000000 0.000000 0.000000
# 4 0.000000 0.000000 0.000000 0.052801 0.000000 0.000000
# 5 0.000000 0.000000 0.000000 0.000000 0.042812 0.000000
# 6 0.000000 0.000000 0.000000 0.000000 0.000000 0.069249
#
#
# Mechanical properties :
#
#
# Convention : Reuss Voigt Hill
#
# Bulk Modulus (GPa) = 36.82027 42.33958 39.57992
# Shear Modulus (GPa) = 21.05466 23.36934 22.21200
#
# Velocity S-wave (km/s) = 3.48509 3.67167 3.57960
# Velocity P-wave (km/s) = 6.11843 6.51149 6.31801
#
# Compressibility (1/GPa) = 0.02715896
#
# Stress axis : x y z
#
# Youngs Moduli (GPa) = 76.42442 48.47073 85.87749
#
# Poissons Ratio (x) = 0.19307 0.37126
# Poissons Ratio (y) = 0.30442 0.06821
# Poissons Ratio (z) = 0.33039 0.03850
#
# Static dielectric constant tensor:
#      x y z
#    x 3.213520 0.000000 0.000000 
#    y 0.000000 2.977560 0.000000 
#    z 0.000000 0.000000 3.331790 
# 
# 
# High freq. dielectric constant tensor:
#      x y z
#    x 1.655170 0.000000 0.000000 
#    y 0.000000 1.630840 0.000000 
#    z 0.000000 0.000000 1.686350 
# 
# From -- ./inp_files/14178.got.cif
#   From: 2010.03.12/outbox.cif.g09.slc.cpg/sg49_8_cif.got.tgz:14178.got - 2010.04.14 03:58:27.
