data_PCOD8202515
_publ_section_title
;
Structure prediction by ZEFSAII (Michael W. Deem and Ramdas Pophale) SiO2 
 PCOD8202515
Probable space group: P C C M
;
_chemical_formula_sum "Si O2"
_cell_formula_units_Z 52
_cell_length_a 15.264385
_cell_length_b 20.467763
_cell_length_c 9.294699
_cell_angle_alpha 90.000000
_cell_angle_beta 90.000000
_cell_angle_gamma 90.000000
_cell_volume 2903.922495
_symmetry_space_group_name_H-M "P C C M"
_symmetry_group_IT_number 49
_symmetry_cell_setting 'orthorhombic'
loop_
_space_group_symop_operation_xyz
x,y,z
-x,-y,z
x,-y,1/2-z
-x,y,1/2-z
-x,-y,-z
x,y,-z
-x,y,1/2+z
x,-y,1/2+z
loop_
_atom_site_type_symbol
_atom_site_label
_atom_site_fract_x
_atom_site_fract_y
_atom_site_fract_z
Si Si1 0.088751 0.688629 0.166419
Si Si2 0.773255 0.619370 0.162651
Si Si3 0.091318 0.933610 0.174782
Si Si4 0.661203 0.251847 0.652640
Si Si5 0.209700 0.185210 0.338649
Si Si6 0.500000 0.329108 0.250000
Si Si7 0.621072 0.440916 0.162442
O O1 0.137271 0.628443 0.246849
O O2 0.144858 0.754128 0.176457
O O3 0.000000 0.702954 0.250000
O O4 0.071463 0.669623 0.000000
O O5 0.727833 0.688749 0.153298
O O6 0.711011 0.570986 0.251350
O O7 0.791363 0.592849 0.000000
O O8 0.161346 0.878869 0.221063
O O9 0.000000 0.913999 0.250000
O O10 0.124761 0.000000 0.250000
O O11 0.080794 0.939744 0.000000
O O12 0.664181 0.215662 0.500000
O O13 0.695980 0.198341 0.764895
O O14 0.563524 0.279838 0.667892
O O15 0.237108 0.172103 0.500000
O O16 0.558964 0.376978 0.151218
O O17 0.574149 0.500000 0.250000
O O18 0.642003 0.462992 0.000000
#
# Coordination Sequence:
#
# PCOD8202515 Si02
#       7
#     8   8   8   8   8   4   8
#     4  10  18  29  47  71  97 127 162 201 245 288
#     4   9  18  33  49  68  95 125 160 200 242 288
#     4  10  19  31  47  70 100 135 172 207 244 283
#     4   9  18  31  49  71  95 126 161 198 241 288
#     4   9  19  32  46  68  99 132 165 201 243 291
#     4  10  21  34  52  76 103 128 158 196 240 290
#     4  11  22  35  52  73  99 130 162 196 237 288
#
# _framework density 17.906815000000002
#
# number of rings (size 3 to 8) (size 9 to 14) (size 15 to 20)
#    0.000    2.308    0.000    3.462    0.000    8.615 
#    0.000    0.000    0.000    0.462    0.000    3.769 
#    0.000    3.692    0.000    0.000    0.000    0.000 
#
# Total GULP energy -644261.093523 kJ/mol
# GULP energy per Si atom -12389.636414 kJ/mol
# Density = 1.786606 g / cm^3
# Si number density = 17.906815 Si / 1000 Ang^3
#
#
#
# Elastic Constant Matrix: (Units=GPa)
#
#
# Indices 1 2 3 4 5 6 
#
# 1 61.5419 37.3094 42.1675 0.0000 0.0000 0.0000
# 2 37.3094 70.8549 40.2997 0.0000 0.0000 0.0000
# 3 42.1675 40.2997 141.3828 0.0000 0.0000 0.0000
# 4 0.0000 0.0000 0.0000 22.7073 0.0000 0.0000
# 5 0.0000 0.0000 0.0000 0.0000 4.2848 0.0000
# 6 0.0000 0.0000 0.0000 0.0000 0.0000 26.0842
#
#
#
# Elastic Compliance Matrix: (Units=1/GPa)
#
#
# Indices 1 2 3 4 5 6 
#
# 1 0.026183 -0.011154 -0.004630 0.000000 0.000000 0.000000
# 2 -0.011154 0.021596 -0.002829 0.000000 0.000000 0.000000
# 3 -0.004630 -0.002829 0.009260 0.000000 0.000000 0.000000
# 4 0.000000 0.000000 0.000000 0.044039 0.000000 0.000000
# 5 0.000000 0.000000 0.000000 0.000000 0.233384 0.000000
# 6 0.000000 0.000000 0.000000 0.000000 0.000000 0.038337
#
#
# Mechanical properties :
#
#
# Convention : Reuss Voigt Hill
#
# Bulk Modulus (GPa) = 50.46998 57.03698 53.75348
# Shear Modulus (GPa) = 12.00107 20.88211 16.44159
#
# Velocity S-wave (km/s) = 2.59162 3.41861 3.03343
# Velocity P-wave (km/s) = 6.09929 6.89230 6.50788
#
# Compressibility (1/GPa) = 0.01981376
#
# Stress axis : x y z
#
# Youngs Moduli (GPa) = 38.19215 46.30589 107.98860
#
# Poissons Ratio (x) = 0.51649 0.49998
# Poissons Ratio (y) = 0.42599 0.30550
# Poissons Ratio (z) = 0.17683 0.13100
#
# Static dielectric constant tensor:
#      x y z
#    x 3.331660 0.000000 0.000000 
#    y 0.000000 3.152970 0.000000 
#    z 0.000000 0.000000 3.604890 
# 
# 
# High freq. dielectric constant tensor:
#      x y z
#    x 1.680230 0.000000 0.000000 
#    y 0.000000 1.659260 0.000000 
#    z 0.000000 0.000000 1.708510 
# 
# From -- ./inp_files/3909.got.cif
#   From: 2010.03.12/outbox.cif.g09.slc.cpg/sg49_2_cif.got.tgz:3909.got - 2010.04.14 03:58:27.
