data_PCOD8202414
_publ_section_title
;
Structure prediction by ZEFSAII (Michael W. Deem and Ramdas Pophale) SiO2 
 PCOD8202414
Probable space group: P C C M
;
_chemical_formula_sum "Si O2"
_cell_formula_units_Z 40
_cell_length_a 24.191265
_cell_length_b 8.713832
_cell_length_c 9.151928
_cell_angle_alpha 90.000000
_cell_angle_beta 90.000000
_cell_angle_gamma 90.000000
_cell_volume 1929.213784
_symmetry_space_group_name_H-M "P C C M"
_symmetry_group_IT_number 49
_symmetry_cell_setting 'orthorhombic'
loop_
_space_group_symop_operation_xyz
x,y,z
-x,-y,z
x,-y,1/2-z
-x,y,1/2-z
-x,-y,-z
x,y,-z
-x,y,1/2+z
x,-y,1/2+z
loop_
_atom_site_type_symbol
_atom_site_label
_atom_site_fract_x
_atom_site_fract_y
_atom_site_fract_z
Si Si1 0.548610 0.200934 0.000000
Si Si2 0.624379 0.679764 0.269750
Si Si3 0.837812 0.664418 0.323448
Si Si4 0.420404 0.150435 0.000000
Si Si5 0.268360 0.149396 0.661348
Si Si6 0.053893 0.331428 0.178490
O O1 0.569028 0.293316 0.139001
O O2 0.483040 0.207949 0.000000
O O3 0.576974 0.033155 0.000000
O O4 0.630513 0.500000 0.250000
O O5 0.615729 0.783939 0.129706
O O6 0.680449 0.733853 0.345773
O O7 0.828069 0.500000 0.250000
O O8 0.845349 0.649900 0.500000
O O9 0.785505 0.765717 0.276280
O O10 0.890630 0.746585 0.244083
O O11 0.254587 0.092342 0.500000
O O12 0.284481 0.000000 0.750000
O O13 0.055017 0.500000 0.250000
O O14 0.000000 0.247568 0.250000
O O15 0.052268 0.333495 0.000000
#
# Coordination Sequence:
#
# PCOD8202414 Si02
#       6
#     4   8   8   4   8   8
#     4  11  23  45  65  93 131 159 218 239 314 375
#     4  12  25  42  64  95 126 161 207 261 314 366
#     4  10  20  36  57  87 122 157 202 256 309 367
#     4  11  25  41  69  93 123 175 196 261 300 379
#     4  11  25  43  64  87 119 160 205 254 310 380
#     4  10  17  28  49  81 119 162 204 251 309 367
#
# _framework density 20.733836
#
# number of rings (size 3 to 8) (size 9 to 14) (size 15 to 20)
#    0.000    1.200    1.000    7.800    1.400    5.600 
#    0.000    0.000    0.000    0.600    0.000    4.200 
#    0.000    0.000    0.000    0.000    0.000    0.000 
#
# Total GULP energy -495684.479809 kJ/mol
# GULP energy per Si atom -12392.111995 kJ/mol
# Density = 2.068664 g / cm^3
# Si number density = 20.733836 Si / 1000 Ang^3
#
#
#
# Elastic Constant Matrix: (Units=GPa)
#
#
# Indices 1 2 3 4 5 6 
#
# 1 125.5184 37.3545 29.6785 0.0000 0.0000 0.0000
# 2 37.3545 86.1863 18.3196 0.0000 0.0000 0.0000
# 3 29.6785 18.3196 127.6859 0.0000 0.0000 0.0000
# 4 0.0000 0.0000 0.0000 20.2084 0.0000 0.0000
# 5 0.0000 0.0000 0.0000 0.0000 37.6504 0.0000
# 6 0.0000 0.0000 0.0000 0.0000 0.0000 21.8011
#
#
#
# Elastic Compliance Matrix: (Units=1/GPa)
#
#
# Indices 1 2 3 4 5 6 
#
# 1 0.009478 -0.003754 -0.001664 0.000000 0.000000 0.000000
# 2 -0.003754 0.013455 -0.001058 0.000000 0.000000 0.000000
# 3 -0.001664 -0.001058 0.008370 0.000000 0.000000 0.000000
# 4 0.000000 0.000000 0.000000 0.049484 0.000000 0.000000
# 5 0.000000 0.000000 0.000000 0.000000 0.026560 0.000000
# 6 0.000000 0.000000 0.000000 0.000000 0.000000 0.045869
#
#
# Mechanical properties :
#
#
# Convention : Reuss Voigt Hill
#
# Bulk Modulus (GPa) = 54.49492 56.67733 55.58612
# Shear Modulus (GPa) = 29.02157 32.86784 30.94470
#
# Velocity S-wave (km/s) = 3.74534 3.98581 3.86745
# Velocity P-wave (km/s) = 6.71145 6.96974 6.84181
#
# Compressibility (1/GPa) = 0.01835033
#
# Stress axis : x y z
#
# Youngs Moduli (GPa) = 105.51097 74.32367 119.46950
#
# Poissons Ratio (x) = 0.27901 0.19884
# Poissons Ratio (y) = 0.39609 0.12638
# Poissons Ratio (z) = 0.17561 0.07862
#
# Static dielectric constant tensor:
#      x y z
#    x 4.482020 0.000000 0.000000 
#    y 0.000000 3.444380 0.000000 
#    z 0.000000 0.000000 3.923870 
# 
# 
# High freq. dielectric constant tensor:
#      x y z
#    x 1.838580 0.000000 0.000000 
#    y 0.000000 1.779400 0.000000 
#    z 0.000000 0.000000 1.825910 
# 
# From -- ./inp_files/6684.got.cif
#   From: 2010.03.12/outbox.cif.g09.slc.cpg/sg49_4_cif.got.tgz:6684.got - 2010.04.14 03:58:27.
