data_PCOD8202578
_publ_section_title
;
Structure prediction by ZEFSAII (Michael W. Deem and Ramdas Pophale) SiO2 
 PCOD8202578
Probable space group: P C C M
;
_chemical_formula_sum "Si O2"
_cell_formula_units_Z 56
_cell_length_a 21.058139
_cell_length_b 14.278948
_cell_length_c 8.723033
_cell_angle_alpha 90.000000
_cell_angle_beta 90.000000
_cell_angle_gamma 90.000000
_cell_volume 2622.911973
_symmetry_space_group_name_H-M "P C C M"
_symmetry_group_IT_number 49
_symmetry_cell_setting 'orthorhombic'
loop_
_space_group_symop_operation_xyz
x,y,z
-x,-y,z
x,-y,1/2-z
-x,y,1/2-z
-x,-y,-z
x,y,-z
-x,y,1/2+z
x,-y,1/2+z
loop_
_atom_site_type_symbol
_atom_site_label
_atom_site_fract_x
_atom_site_fract_y
_atom_site_fract_z
Si Si1 0.376121 0.098120 0.674835
Si Si2 0.565676 0.711254 0.676157
Si Si3 0.064584 0.712234 0.824447
Si Si4 0.187362 0.602813 0.816600
Si Si5 0.123704 0.901275 0.823541
Si Si6 0.749757 0.103304 0.318638
Si Si7 0.681532 0.602732 0.817779
O O1 0.357935 0.075762 0.500000
O O2 0.431389 0.175316 0.686971
O O3 0.315553 0.147957 0.757573
O O4 0.398068 0.000000 0.750000
O O5 0.500000 0.677075 0.750000
O O6 0.568877 0.678092 0.500000
O O7 0.622890 0.666384 0.769649
O O8 0.127215 0.662554 0.756343
O O9 0.068436 0.824858 0.801602
O O10 0.000000 0.674436 0.750000
O O11 0.060297 0.684440 0.000000
O O12 0.178085 0.500000 0.750000
O O13 0.252609 0.646449 0.747938
O O14 0.192612 0.601531 0.000000
O O15 0.185761 0.852188 0.747600
O O16 0.102964 0.000000 0.750000
O O17 0.138958 0.920949 0.000000
O O18 0.751387 0.106322 0.500000
O O19 0.748914 0.000000 0.250000
O O20 0.670998 0.500000 0.750000
O O21 0.686145 0.597799 0.000000
#
# Coordination Sequence:
#
# PCOD8202578 Si02
#       7
#     8   8   8   8   8   8   8
#     4  10  21  37  58  84 120 163 206 255 306 359
#     4  11  25  43  63  91 127 167 209 257 308 365
#     4  10  24  41  60  86 122 162 204 249 304 364
#     4  10  21  41  66  95 124 158 199 248 306 365
#     4  10  20  36  55  81 115 158 202 250 303 357
#     4  10  18  30  51  80 110 146 194 248 300 354
#     4  11  23  42  69  99 127 160 202 251 307 371
#
# _framework density 21.350317
#
# number of rings (size 3 to 8) (size 9 to 14) (size 15 to 20)
#    0.000    1.714    0.000    6.857    2.000    5.714 
#    0.000    5.714    0.000    0.000    0.000    0.000 
#    0.000    0.000    0.000    0.000    0.000    0.000 
#
# Total GULP energy -694235.982660 kJ/mol
# GULP energy per Si atom -12397.071119 kJ/mol
# Density = 2.130172 g / cm^3
# Si number density = 21.350317 Si / 1000 Ang^3
#
#
#
# Elastic Constant Matrix: (Units=GPa)
#
#
# Indices 1 2 3 4 5 6 
#
# 1 150.0448 53.2314 57.8427 0.0000 0.0000 0.0000
# 2 53.2314 61.7025 35.7591 0.0000 0.0000 0.0000
# 3 57.8427 35.7591 157.2287 0.0000 0.0000 0.0000
# 4 0.0000 0.0000 0.0000 22.8976 0.0000 0.0000
# 5 0.0000 0.0000 0.0000 0.0000 39.4935 0.0000
# 6 0.0000 0.0000 0.0000 0.0000 0.0000 30.9353
#
#
#
# Elastic Compliance Matrix: (Units=1/GPa)
#
#
# Indices 1 2 3 4 5 6 
#
# 1 0.010123 -0.007573 -0.002002 0.000000 0.000000 0.000000
# 2 -0.007573 0.024333 -0.002748 0.000000 0.000000 0.000000
# 3 -0.002002 -0.002748 0.007722 0.000000 0.000000 0.000000
# 4 0.000000 0.000000 0.000000 0.043673 0.000000 0.000000
# 5 0.000000 0.000000 0.000000 0.000000 0.025321 0.000000
# 6 0.000000 0.000000 0.000000 0.000000 0.000000 0.032326
#
#
# Mechanical properties :
#
#
# Convention : Reuss Voigt Hill
#
# Bulk Modulus (GPa) = 57.03996 73.62693 65.33344
# Shear Modulus (GPa) = 28.73789 33.47479 31.10634
#
# Velocity S-wave (km/s) = 3.67279 3.96395 3.82114
# Velocity P-wave (km/s) = 6.69030 7.45054 7.08063
#
# Compressibility (1/GPa) = 0.01753157
#
# Stress axis : x y z
#
# Youngs Moduli (GPa) = 98.78392 41.09668 129.50703
#
# Poissons Ratio (x) = 0.31123 0.25924
# Poissons Ratio (y) = 0.74811 0.35589
# Poissons Ratio (z) = 0.19774 0.11293
#
# Static dielectric constant tensor:
#      x y z
#    x 4.334580 0.000000 0.000000 
#    y 0.000000 3.851640 0.000000 
#    z 0.000000 0.000000 3.904080 
# 
# 
# High freq. dielectric constant tensor:
#      x y z
#    x 1.838530 0.000000 0.000000 
#    y 0.000000 1.829180 0.000000 
#    z 0.000000 0.000000 1.847100 
# 
# From -- ./inp_files/5816.got.cif
#   From: 2010.03.12/outbox.cif.g09.slc.cpg/sg49_3_cif.got.tgz:5816.got - 2010.04.14 03:58:27.
