data_PCOD8202286
_publ_section_title
;
Structure prediction by ZEFSAII (Michael W. Deem and Ramdas Pophale) SiO2 
 PCOD8202286
Probable space group: P C C M
;
_chemical_formula_sum "Si O2"
_cell_formula_units_Z 48
_cell_length_a 23.969488
_cell_length_b 13.651905
_cell_length_c 8.638623
_cell_angle_alpha 90.000000
_cell_angle_beta 90.000000
_cell_angle_gamma 90.000000
_cell_volume 2826.809461
_symmetry_space_group_name_H-M "P C C M"
_symmetry_group_IT_number 49
_symmetry_cell_setting 'orthorhombic'
loop_
_space_group_symop_operation_xyz
x,y,z
-x,-y,z
x,-y,1/2-z
-x,y,1/2-z
-x,-y,-z
x,y,-z
-x,y,1/2+z
x,-y,1/2+z
loop_
_atom_site_type_symbol
_atom_site_label
_atom_site_fract_x
_atom_site_fract_y
_atom_site_fract_z
Si Si1 0.385474 0.894221 0.181453
Si Si2 0.557502 0.286799 0.318679
Si Si3 0.944331 0.109024 0.816369
Si Si4 0.272666 0.212573 0.318259
Si Si5 0.168810 0.892577 0.682357
Si Si6 0.330684 0.393774 0.182971
O O1 0.430799 0.820374 0.250455
O O2 0.323420 0.859284 0.226341
O O3 0.396915 0.000000 0.250000
O O4 0.393916 0.897341 0.000000
O O5 0.500000 0.328909 0.250000
O O6 0.551721 0.276633 0.500000
O O7 0.606586 0.361631 0.272106
O O8 0.887029 0.157300 0.755036
O O9 0.000000 0.163075 0.750000
O O10 0.943793 0.000000 0.750000
O O11 0.945982 0.109236 0.000000
O O12 0.259758 0.210277 0.500000
O O13 0.219364 0.178363 0.222794
O O14 0.286775 0.322168 0.265065
O O15 0.161441 0.902162 0.500000
O O16 0.180780 0.000000 0.750000
O O17 0.319019 0.500000 0.250000
O O18 0.321189 0.391215 0.000000
#
# Coordination Sequence:
#
# PCOD8202286 Si02
#       6
#     8   8   8   8   8   8
#     4  10  20  33  50  70  95 126 159 193 233 278
#     4  10  21  36  53  73  97 122 154 192 232 278
#     4  10  17  27  41  60  89 127 169 208 244 281
#     4  10  20  34  51  72  97 125 158 199 241 286
#     4  11  20  30  45  68  98 133 170 205 241 283
#     4  10  21  37  56  76  97 123 152 190 238 290
#
# _framework density 16.980274999999999
#
# number of rings (size 3 to 8) (size 9 to 14) (size 15 to 20)
#    0.000    1.833    0.000    7.000    0.000    6.000 
#    0.000    3.333    0.000    0.000    0.000    0.000 
#    0.000    0.667    0.000    6.667    0.000    4.000 
#
# Total GULP energy -595277.648347 kJ/mol
# GULP energy per Si atom -12401.617674 kJ/mol
# Density = 1.694163 g / cm^3
# Si number density = 16.980275 Si / 1000 Ang^3
#
#
#
# Elastic Constant Matrix: (Units=GPa)
#
#
# Indices 1 2 3 4 5 6 
#
# 1 111.0768 24.0931 43.2962 0.0000 0.0000 0.0000
# 2 24.0931 72.7556 21.5655 0.0000 0.0000 0.0000
# 3 43.2962 21.5655 108.1157 0.0000 0.0000 0.0000
# 4 0.0000 0.0000 0.0000 24.3388 0.0000 0.0000
# 5 0.0000 0.0000 0.0000 0.0000 32.4418 0.0000
# 6 0.0000 0.0000 0.0000 0.0000 0.0000 9.4615
#
#
#
# Elastic Compliance Matrix: (Units=1/GPa)
#
#
# Indices 1 2 3 4 5 6 
#
# 1 0.011081 -0.002502 -0.003938 0.000000 0.000000 0.000000
# 2 -0.002502 0.015173 -0.002025 0.000000 0.000000 0.000000
# 3 -0.003938 -0.002025 0.011230 0.000000 0.000000 0.000000
# 4 0.000000 0.000000 0.000000 0.041087 0.000000 0.000000
# 5 0.000000 0.000000 0.000000 0.000000 0.030824 0.000000
# 6 0.000000 0.000000 0.000000 0.000000 0.000000 0.105691
#
#
# Mechanical properties :
#
#
# Convention : Reuss Voigt Hill
#
# Bulk Modulus (GPa) = 48.65134 52.20638 50.42886
# Shear Modulus (GPa) = 20.93211 26.78133 23.85672
#
# Velocity S-wave (km/s) = 3.51484 3.97571 3.75235
# Velocity P-wave (km/s) = 6.72205 7.20327 6.96682
#
# Compressibility (1/GPa) = 0.02055442
#
# Stress axis : x y z
#
# Youngs Moduli (GPa) = 90.24817 65.90527 89.04467
#
# Poissons Ratio (x) = 0.16489 0.35068
# Poissons Ratio (y) = 0.22580 0.18028
# Poissons Ratio (z) = 0.35542 0.13343
#
# Static dielectric constant tensor:
#      x y z
#    x 3.697330 0.000000 0.000000 
#    y 0.000000 2.915050 0.000000 
#    z 0.000000 0.000000 3.312580 
# 
# 
# High freq. dielectric constant tensor:
#      x y z
#    x 1.660430 0.000000 0.000000 
#    y 0.000000 1.613850 0.000000 
#    z 0.000000 0.000000 1.678480 
# 
# From -- ./inp_files/2876.got.cif
#   From: 2010.03.12/outbox.cif.g09.slc.cpg/sg49_2_cif.got.tgz:2876.got - 2010.04.14 03:58:27.
