data_PCOD8202815
_publ_section_title
;
Structure prediction by ZEFSAII (Michael W. Deem and Ramdas Pophale) SiO2 
 PCOD8202815
Probable space group: P C C M
;
_chemical_formula_sum "Si O2"
_cell_formula_units_Z 40
_cell_length_a 9.665321
_cell_length_b 19.618925
_cell_length_c 10.371184
_cell_angle_alpha 90.000000
_cell_angle_beta 90.000000
_cell_angle_gamma 90.000000
_cell_volume 1966.617179
_symmetry_space_group_name_H-M "P C C M"
_symmetry_group_IT_number 49
_symmetry_cell_setting 'orthorhombic'
loop_
_space_group_symop_operation_xyz
x,y,z
-x,-y,z
x,-y,1/2-z
-x,y,1/2-z
-x,-y,-z
x,y,-z
-x,y,1/2+z
x,-y,1/2+z
loop_
_atom_site_type_symbol
_atom_site_label
_atom_site_fract_x
_atom_site_fract_y
_atom_site_fract_z
Si Si1 0.336101 0.423772 0.252017
Si Si2 0.581872 0.070991 0.359202
Si Si3 0.845822 0.879429 0.758541
Si Si4 0.674385 0.654319 0.000000
Si Si5 0.346009 0.339015 0.500000
Si Si6 0.821875 0.202451 0.000000
Si Si7 0.133562 0.216676 0.000000
O O1 0.272914 0.500000 0.250000
O O2 0.500000 0.428763 0.250000
O O3 0.279422 0.387301 0.125212
O O4 0.289896 0.380732 0.376769
O O5 0.500000 0.115780 0.250000
O O6 0.582111 0.106733 0.500000
O O7 0.738202 0.061888 0.304604
O O8 0.500000 0.000000 0.370394
O O9 0.800608 0.846250 0.623488
O O10 0.000000 0.911369 0.750000
O O11 0.837689 0.823214 0.869068
O O12 0.511144 0.669044 0.000000
O O13 0.761201 0.722214 0.000000
O O14 0.289295 0.262436 0.500000
O O15 0.972432 0.238070 0.000000
#
# Coordination Sequence:
#
# PCOD8202815 Si02
#       7
#     8   8   8   4   4   4   4
#     4   9  17  30  49  74 105 142 188 240 291 348
#     4  10  22  41  64  92 124 155 191 239 293 343
#     4  10  21  39  62  86 117 159 202 239 287 358
#     4  10  19  30  52  77 104 144 187 237 296 348
#     4  10  19  32  50  79 108 140 191 241 292 352
#     4  10  22  35  56  85 115 153 193 241 298 350
#     4  10  20  37  56  81 115 153 193 241 296 348
#
# _framework density 20.339494999999999
#
# number of rings (size 3 to 8) (size 9 to 14) (size 15 to 20)
#    0.000    2.200    1.000    1.800    1.400    4.000 
#    0.000    2.000    0.000    9.600    0.000    0.000 
#    0.000    0.000    0.000    0.000    0.000    0.000 
#
# Total GULP energy -495600.400757 kJ/mol
# GULP energy per Si atom -12390.010019 kJ/mol
# Density = 2.029320 g / cm^3
# Si number density = 20.339495 Si / 1000 Ang^3
#
#
#
# Elastic Constant Matrix: (Units=GPa)
#
#
# Indices 1 2 3 4 5 6 
#
# 1 110.7068 49.4124 53.9276 0.0000 0.0000 0.0000
# 2 49.4124 69.0952 35.2031 0.0000 0.0000 0.0000
# 3 53.9276 35.2031 201.9901 0.0000 0.0000 0.0000
# 4 0.0000 0.0000 0.0000 16.9803 0.0000 0.0000
# 5 0.0000 0.0000 0.0000 0.0000 21.8124 0.0000
# 6 0.0000 0.0000 0.0000 0.0000 0.0000 13.8660
#
#
#
# Elastic Compliance Matrix: (Units=1/GPa)
#
#
# Indices 1 2 3 4 5 6 
#
# 1 0.014109 -0.008967 -0.002204 0.000000 0.000000 0.000000
# 2 -0.008967 0.021582 -0.001367 0.000000 0.000000 0.000000
# 3 -0.002204 -0.001367 0.005777 0.000000 0.000000 0.000000
# 4 0.000000 0.000000 0.000000 0.058892 0.000000 0.000000
# 5 0.000000 0.000000 0.000000 0.000000 0.045845 0.000000
# 6 0.000000 0.000000 0.000000 0.000000 0.000000 0.072119
#
#
# Mechanical properties :
#
#
# Convention : Reuss Voigt Hill
#
# Bulk Modulus (GPa) = 61.00607 73.20871 67.10739
# Shear Modulus (GPa) = 20.09129 26.74835 23.41982
#
# Velocity S-wave (km/s) = 3.14633 3.63036 3.39698
# Velocity P-wave (km/s) = 6.57710 7.32422 6.96069
#
# Compressibility (1/GPa) = 0.01639181
#
# Stress axis : x y z
#
# Youngs Moduli (GPa) = 70.87861 46.33531 173.08597
#
# Poissons Ratio (x) = 0.41547 0.38148
# Poissons Ratio (y) = 0.63554 0.23667
# Poissons Ratio (z) = 0.15622 0.06336
#
# Static dielectric constant tensor:
#      x y z
#    x 3.773170 0.000000 0.000000 
#    y 0.000000 3.379080 0.000000 
#    z 0.000000 0.000000 5.642370 
# 
# 
# High freq. dielectric constant tensor:
#      x y z
#    x 1.778820 0.000000 0.000000 
#    y 0.000000 1.765700 0.000000 
#    z 0.000000 0.000000 1.830480 
# 
# From -- ./inp_files/8164.got.cif
#   From: 2010.03.12/outbox.cif.g09.slc.cpg/sg49_5_cif.got.tgz:8164.got - 2010.04.14 03:58:27.
