data_PCOD8202352
_publ_section_title
;
Structure prediction by ZEFSAII (Michael W. Deem and Ramdas Pophale) SiO2 
 PCOD8202352
Probable space group: P C C M
;
_chemical_formula_sum "Si O2"
_cell_formula_units_Z 64
_cell_length_a 31.274316
_cell_length_b 14.307900
_cell_length_c 8.533450
_cell_angle_alpha 90.000000
_cell_angle_beta 90.000000
_cell_angle_gamma 90.000000
_cell_volume 3818.461044
_symmetry_space_group_name_H-M "P C C M"
_symmetry_group_IT_number 49
_symmetry_cell_setting 'orthorhombic'
loop_
_space_group_symop_operation_xyz
x,y,z
-x,-y,z
x,-y,1/2-z
-x,y,1/2-z
-x,-y,-z
x,y,-z
-x,y,1/2+z
x,-y,1/2+z
loop_
_atom_site_type_symbol
_atom_site_label
_atom_site_fract_x
_atom_site_fract_y
_atom_site_fract_z
Si Si1 0.869820 0.897045 0.816160
Si Si2 0.626938 0.210944 0.815023
Si Si3 0.758312 0.599584 0.814262
Si Si4 0.335566 0.403226 0.685293
Si Si5 0.545075 0.897454 0.686037
Si Si6 0.291080 0.102878 0.314598
Si Si7 0.042863 0.104328 0.315108
Si Si8 0.792082 0.215887 0.815267
O O1 0.913015 0.849952 0.745256
O O2 0.831484 0.828673 0.775105
O O3 0.860277 0.000000 0.750000
O O4 0.875351 0.906448 0.000000
O O5 0.631934 0.319948 0.769358
O O6 0.581954 0.171971 0.750447
O O7 0.666167 0.150795 0.744378
O O8 0.627975 0.199550 0.000000
O O9 0.774102 0.500000 0.750000
O O10 0.709481 0.617949 0.765701
O O11 0.788590 0.676545 0.735266
O O12 0.762627 0.603190 0.000000
O O13 0.355357 0.500000 0.750000
O O14 0.327885 0.409687 0.500000
O O15 0.500000 0.859394 0.750000
O O16 0.543284 0.901617 0.500000
O O17 0.555184 0.000000 0.750000
O O18 0.293370 0.099357 0.500000
O O19 0.250632 0.162989 0.259380
O O20 0.286149 0.000000 0.250000
O O21 0.041595 0.105025 0.500000
O O22 0.000000 0.156017 0.250000
O O23 0.043141 0.000000 0.250000
O O24 0.799388 0.207271 0.000000
#
# Coordination Sequence:
#
# PCOD8202352 Si02
#       8
#     8   8   8   8   8   8   8   8
#     4  11  21  33  47  68  98 135 175 211 251 301
#     4   9  18  33  51  70  96 128 157 195 243 287
#     4  11  21  34  52  74  97 126 163 204 248 294
#     4  10  18  33  52  73  98 124 157 197 244 290
#     4  10  19  33  52  73  98 127 158 194 238 284
#     4  10  20  33  47  66  94 128 162 197 236 280
#     4  10  17  28  45  66  91 124 166 213 259 300
#     4  11  21  35  51  68  97 133 167 205 248 293
#
# _framework density 16.760679
#
# number of rings (size 3 to 8) (size 9 to 14) (size 15 to 20)
#    0.000    1.750    1.250    7.500    0.000    2.000 
#    0.000    3.125    0.000    0.375    0.000    2.625 
#    0.000    0.500    0.000    5.000    0.000    3.000 
#
# Total GULP energy -793557.530751 kJ/mol
# GULP energy per Si atom -12399.336418 kJ/mol
# Density = 1.672253 g / cm^3
# Si number density = 16.760679 Si / 1000 Ang^3
#
#
#
# Elastic Constant Matrix: (Units=GPa)
#
#
# Indices 1 2 3 4 5 6 
#
# 1 127.3880 56.8475 32.9004 0.0000 0.0000 0.0000
# 2 56.8475 100.1123 21.0924 0.0000 0.0000 0.0000
# 3 32.9004 21.0924 84.1817 0.0000 0.0000 0.0000
# 4 0.0000 0.0000 0.0000 23.5311 0.0000 0.0000
# 5 0.0000 0.0000 0.0000 0.0000 22.5501 0.0000
# 6 0.0000 0.0000 0.0000 0.0000 0.0000 9.8531
#
#
#
# Elastic Compliance Matrix: (Units=1/GPa)
#
#
# Indices 1 2 3 4 5 6 
#
# 1 0.011159 -0.005719 -0.002928 0.000000 0.000000 0.000000
# 2 -0.005719 0.013477 -0.001141 0.000000 0.000000 0.000000
# 3 -0.002928 -0.001141 0.013309 0.000000 0.000000 0.000000
# 4 0.000000 0.000000 0.000000 0.042497 0.000000 0.000000
# 5 0.000000 0.000000 0.000000 0.000000 0.044346 0.000000
# 6 0.000000 0.000000 0.000000 0.000000 0.000000 0.101491
#
#
# Mechanical properties :
#
#
# Convention : Reuss Voigt Hill
#
# Bulk Modulus (GPa) = 54.44486 59.26250 56.85368
# Shear Modulus (GPa) = 19.84294 24.57629 22.20962
#
# Velocity S-wave (km/s) = 3.44452 3.83339 3.64415
# Velocity P-wave (km/s) = 6.95513 7.41809 7.19033
#
# Compressibility (1/GPa) = 0.01836721
#
# Stress axis : x y z
#
# Youngs Moduli (GPa) = 89.61751 74.20083 75.13473
#
# Poissons Ratio (x) = 0.42438 0.22000
# Poissons Ratio (y) = 0.51255 0.08577
# Poissons Ratio (z) = 0.26240 0.08470
#
# Static dielectric constant tensor:
#      x y z
#    x 3.629820 0.000000 0.000000 
#    y 0.000000 3.141040 0.000000 
#    z 0.000000 0.000000 3.160380 
# 
# 
# High freq. dielectric constant tensor:
#      x y z
#    x 1.640490 0.000000 0.000000 
#    y 0.000000 1.624510 0.000000 
#    z 0.000000 0.000000 1.654410 
# 
# From -- ./inp_files/7045.got.cif
#   From: 2010.03.12/outbox.cif.g09.slc.cpg/sg49_4_cif.got.tgz:7045.got - 2010.04.14 03:58:27.
