data_PCOD8202005
_publ_section_title
;
Structure prediction by ZEFSAII (Michael W. Deem and Ramdas Pophale) SiO2 
 PCOD8202005
Probable space group: P N N N
;
_chemical_formula_sum "Si O2"
_cell_formula_units_Z 64
_cell_length_a 11.840993
_cell_length_b 11.695831
_cell_length_c 24.770824
_cell_angle_alpha 90.000000
_cell_angle_beta 90.000000
_cell_angle_gamma 90.000000
_cell_volume 3430.517683
_symmetry_space_group_name_H-M "P N N N"
_symmetry_group_IT_number 48
_space_group.IT_coordinate_system_code '2'
_symmetry_cell_setting 'orthorhombic'
loop_
_space_group_symop_operation_xyz
x,y,z
1/2-x,1/2-y,z
x,1/2-y,1/2-z
1/2-x,y,1/2-z
-x,-y,-z
1/2+x,1/2+y,-z
-x,1/2+y,1/2+z
1/2+x,-y,1/2+z
loop_
_atom_site_type_symbol
_atom_site_label
_atom_site_fract_x
_atom_site_fract_y
_atom_site_fract_z
Si Si1 0.560978 0.785171 0.539900
Si Si2 0.184652 0.520106 0.456770
Si Si3 0.669185 0.354744 0.067907
Si Si4 0.932233 0.530393 0.945746
Si Si5 0.442425 0.100047 0.857749
Si Si6 0.185757 0.442928 0.634599
Si Si7 0.001064 0.318602 0.579406
Si Si8 0.123343 0.384905 0.745386
O O1 0.456802 0.811718 0.579562
O O2 0.608505 0.661880 0.556735
O O3 0.509166 0.766423 0.480202
O O4 0.652285 0.885758 0.546102
O O5 0.166489 0.559295 0.517680
O O6 0.315610 0.540278 0.441249
O O7 0.108059 0.597709 0.416595
O O8 0.750000 0.250000 0.055660
O O9 0.709463 0.423979 0.121096
O O10 0.012497 0.503259 0.894506
O O11 0.000000 0.500000 0.000000
O O12 0.306546 0.120745 0.861208
O O13 0.505493 0.216046 0.876658
O O14 0.460148 0.070399 0.793542
O O15 0.096403 0.426847 0.684746
O O16 0.116596 0.389439 0.585204
O O17 0.121669 0.250000 0.750000
O O18 0.250000 0.434947 0.750000
#
# Coordination Sequence:
#
# PCOD8202005 Si02
#       8
#     8   8   8   8   8   8   8   8
#     4  11  21  37  52  80 116 155 195 226 278 354
#     4  11  23  37  53  82 119 160 195 228 284 364
#     4  11  21  34  55  84 121 153 190 236 294 348
#     4  12  24  36  54  82 115 159 192 238 287 346
#     4  11  22  34  54  88 120 142 187 243 295 344
#     4  11  19  35  58  85 113 154 191 236 296 354
#     4  11  20  33  57  84 114 152 188 233 292 351
#     4   9  18  32  55  84 112 142 184 238 293 346
#
# _framework density 18.656077
#
# number of rings (size 3 to 8) (size 9 to 14) (size 15 to 20)
#    0.000    1.125    5.000    3.750    1.750    1.000 
#    0.000    0.000    0.000    9.375    0.000    0.000 
#    3.750    0.000    0.000    0.000    0.000    0.000 
#
# Total GULP energy -793021.375893 kJ/mol
# GULP energy per Si atom -12390.958998 kJ/mol
# Density = 1.861361 g / cm^3
# Si number density = 18.656077 Si / 1000 Ang^3
#
#
#
# Elastic Constant Matrix: (Units=GPa)
#
#
# Indices 1 2 3 4 5 6 
#
# 1 94.2107 27.6251 27.8362 0.0000 0.0000 0.0000
# 2 27.6251 103.3156 42.1211 0.0000 0.0000 0.0000
# 3 27.8362 42.1211 85.8440 0.0000 0.0000 0.0000
# 4 0.0000 0.0000 0.0000 23.3971 0.0000 0.0000
# 5 0.0000 0.0000 0.0000 0.0000 25.0689 0.0000
# 6 0.0000 0.0000 0.0000 0.0000 0.0000 29.3350
#
#
#
# Elastic Compliance Matrix: (Units=1/GPa)
#
#
# Indices 1 2 3 4 5 6 
#
# 1 0.012074 -0.002040 -0.002914 0.000000 0.000000 0.000000
# 2 -0.002040 0.012444 -0.005444 0.000000 0.000000 0.000000
# 3 -0.002914 -0.005444 0.015265 0.000000 0.000000 0.000000
# 4 0.000000 0.000000 0.000000 0.042740 0.000000 0.000000
# 5 0.000000 0.000000 0.000000 0.000000 0.039890 0.000000
# 6 0.000000 0.000000 0.000000 0.000000 0.000000 0.034089
#
#
# Mechanical properties :
#
#
# Convention : Reuss Voigt Hill
#
# Bulk Modulus (GPa) = 52.67057 53.17058 52.92058
# Shear Modulus (GPa) = 27.22881 27.94605 27.58743
#
# Velocity S-wave (km/s) = 3.82450 3.87455 3.84961
# Velocity P-wave (km/s) = 6.91347 6.96982 6.94171
#
# Compressibility (1/GPa) = 0.01898593
#
# Stress axis : x y z
#
# Youngs Moduli (GPa) = 82.82414 80.35808 65.50785
#
# Poissons Ratio (x) = 0.16396 0.19089
# Poissons Ratio (y) = 0.16899 0.35665
# Poissons Ratio (z) = 0.24135 0.43750
#
# Static dielectric constant tensor:
#      x y z
#    x 3.369380 0.000000 0.000000 
#    y 0.000000 3.485800 0.000000 
#    z 0.000000 0.000000 3.592550 
# 
# 
# High freq. dielectric constant tensor:
#      x y z
#    x 1.708820 0.000000 0.000000 
#    y 0.000000 1.725060 0.000000 
#    z 0.000000 0.000000 1.695690 
# 
# From -- ./inp_files/37823.got.cif
#   From: 2010.06.25/outbox.cif.g09.slc.cpg/sg48_19_cif.got.tgz:37823.got - 2010.06.26 18:06:46.
