data_PCOD8202996
_publ_section_title
;
Structure prediction by ZEFSAII (Michael W. Deem and Ramdas Pophale) SiO2 
 PCOD8202996
Probable space group: P C C M
;
_chemical_formula_sum "Si O2"
_cell_formula_units_Z 56
_cell_length_a 8.722181
_cell_length_b 21.762018
_cell_length_c 15.132017
_cell_angle_alpha 90.000000
_cell_angle_beta 90.000000
_cell_angle_gamma 90.000000
_cell_volume 2872.242344
_symmetry_space_group_name_H-M "P C C M"
_symmetry_group_IT_number 49
_symmetry_cell_setting 'orthorhombic'
loop_
_space_group_symop_operation_xyz
x,y,z
-x,-y,z
x,-y,1/2-z
-x,y,1/2-z
-x,-y,-z
x,y,-z
-x,y,1/2+z
x,-y,1/2+z
loop_
_atom_site_type_symbol
_atom_site_label
_atom_site_fract_x
_atom_site_fract_y
_atom_site_fract_z
Si Si1 0.180788 0.125909 0.397922
Si Si2 0.319179 0.208756 0.750000
Si Si3 0.818015 0.568118 0.598253
Si Si4 0.181985 0.568118 0.401747
Si Si5 0.180789 0.874091 0.397922
Si Si6 0.817066 0.342390 0.750000
Si Si7 0.671895 0.000000 0.895295
O O1 0.228740 0.136753 0.500000
O O2 0.253471 0.179016 0.339094
O O3 0.240657 0.060483 0.361732
O O4 1.000000 0.127290 0.386579
O O5 0.500000 0.201516 0.750000
O O6 0.253471 0.179016 0.839094
O O7 0.271362 0.279051 0.750000
O O8 0.760617 0.585542 0.500000
O O9 0.756914 0.500000 0.624421
O O10 0.758440 0.619593 0.665172
O O11 0.000000 0.566512 0.601471
O O12 0.239383 0.585542 0.500000
O O13 0.241560 0.619593 0.334828
O O14 0.228740 0.863247 0.500000
O O15 0.240657 0.939517 0.361732
O O16 0.000000 0.331642 0.750000
O O17 0.500000 0.000000 0.856492
O O18 0.670056 0.000000 0.000000
#
# Coordination Sequence:
#
# PCOD8202996 Si02
#       7
#     8   8   8   8   8   8   8
#     4  10  21  39  62  85 110 142 185 236 282 326
#     4  12  26  40  54  77 112 153 193 229 274 334
#     4   8  14  26  48  79 108 132 166 217 272 319
#     4   8  14  26  48  79 108 132 166 217 272 319
#     4  10  21  39  62  85 110 142 185 236 282 326
#     4  10  19  32  51  75 104 139 180 223 267 317
#     4   9  17  32  57  88 118 145 175 218 279 342
#
# _framework density 19.496960999999999
#
# number of rings (size 3 to 8) (size 9 to 14) (size 15 to 20)
#    0.000    2.429    0.000    3.857    0.000    6.857 
#    0.000    5.714    0.000    1.714    0.000    2.000 
#    0.000    0.000    0.000    0.000    0.000    0.000 
#
# Total GULP energy -694308.281216 kJ/mol
# GULP energy per Si atom -12398.362165 kJ/mol
# Density = 1.945259 g / cm^3
# Si number density = 19.496961 Si / 1000 Ang^3
#
#
#
# Elastic Constant Matrix: (Units=GPa)
#
#
# Indices 1 2 3 4 5 6 
#
# 1 81.5573 45.0272 41.7726 0.0000 0.0000 0.0000
# 2 45.0272 167.4241 87.2316 0.0000 0.0000 0.0000
# 3 41.7726 87.2316 122.4754 0.0000 0.0000 0.0000
# 4 0.0000 0.0000 0.0000 4.4026 0.0000 0.0000
# 5 0.0000 0.0000 0.0000 0.0000 17.0527 0.0000
# 6 0.0000 0.0000 0.0000 0.0000 0.0000 -5.4192
#
#
#
# Elastic Compliance Matrix: (Units=1/GPa)
#
#
# Indices 1 2 3 4 5 6 
#
# 1 0.015362 -0.002229 -0.003652 0.000000 0.000000 0.000000
# 2 -0.002229 0.009820 -0.006234 0.000000 0.000000 0.000000
# 3 -0.003652 -0.006234 0.013851 0.000000 0.000000 0.000000
# 4 0.000000 0.000000 0.000000 0.227139 0.000000 0.000000
# 5 0.000000 0.000000 0.000000 0.000000 0.058642 0.000000
# 6 0.000000 0.000000 0.000000 0.000000 0.000000 -0.184530
#
#
# Mechanical properties :
#
#
# Convention : Reuss Voigt Hill
#
# Bulk Modulus (GPa) = 67.55323 79.94660 73.74992
# Shear Modulus (GPa) = 29.50726 16.36891 22.93808
#
# Velocity S-wave (km/s) = 3.89450 2.90066 3.43373
# Velocity P-wave (km/s) = 7.41257 7.23271 7.32319
#
# Compressibility (1/GPa) = 0.01480314
#
# Stress axis : x y z
#
# Youngs Moduli (GPa) = 65.09399 101.82795 72.19710
#
# Poissons Ratio (x) = 0.22694 0.26369
# Poissons Ratio (y) = 0.14507 0.45011
# Poissons Ratio (z) = 0.23774 0.63484
#
# Static dielectric constant tensor:
#      x y z
#    x 3.291030 0.000000 0.000000 
#    y 0.000000 3.670270 0.000000 
#    z 0.000000 0.000000 3.804630 
# 
# 
# High freq. dielectric constant tensor:
#      x y z
#    x 1.730710 0.000000 0.000000 
#    y 0.000000 1.762480 0.000000 
#    z 0.000000 0.000000 1.766240 
# 
# From -- ./inp_files/11964.got.cif
#   From: 2010.03.12/outbox.cif.g09.slc.cpg/sg49_6_cif.got.tgz:11964.got - 2010.04.14 03:58:27.
