data_PCOD8202681
_publ_section_title
;
Structure prediction by ZEFSAII (Michael W. Deem and Ramdas Pophale) SiO2 
 PCOD8202681
Probable space group: P C C M
;
_chemical_formula_sum "Si O2"
_cell_formula_units_Z 18
_cell_length_a 6.733332
_cell_length_b 12.105525
_cell_length_c 8.837450
_cell_angle_alpha 90.000000
_cell_angle_beta 90.000000
_cell_angle_gamma 90.000000
_cell_volume 720.345135
_symmetry_space_group_name_H-M "P C C M"
_symmetry_group_IT_number 49
_symmetry_cell_setting 'orthorhombic'
loop_
_space_group_symop_operation_xyz
x,y,z
-x,-y,z
x,-y,1/2-z
-x,y,1/2-z
-x,-y,-z
x,y,-z
-x,y,1/2+z
x,-y,1/2+z
loop_
_atom_site_type_symbol
_atom_site_label
_atom_site_fract_x
_atom_site_fract_y
_atom_site_fract_z
Si Si1 0.296469 0.322050 0.331462
Si Si2 0.718703 0.108060 0.679605
Si Si3 0.000000 0.500000 0.250000
O O1 0.500000 0.360525 0.250000
O O2 0.351230 0.280390 0.500000
O O3 0.186458 0.223021 0.237913
O O4 0.143896 0.423282 0.349771
O O5 0.500000 0.111896 0.750000
O O6 0.720517 0.099923 0.500000
O O7 0.828532 0.000000 0.750000
#
# Coordination Sequence:
#
# PCOD8202681 Si02
#       3
#     8   8   2
#     4  11  24  43  67  96 130 169 215 266 321 381
#     4  10  18  33  60  93 128 165 207 257 316 381
#     4  12  28  44  66  92 126 172 222 272 318 374
#
# _framework density 24.988022999999998
#
# number of rings (size 3 to 8) (size 9 to 14) (size 15 to 20)
#    0.000    1.333    0.000   10.667    0.000    8.889 
#    0.000    1.111    0.000    5.333    0.000    0.000 
#    0.000    0.000    0.000    0.000    0.000    0.000 
#
# Total GULP energy -223038.774955 kJ/mol
# GULP energy per Si atom -12391.043053 kJ/mol
# Density = 2.493115 g / cm^3
# Si number density = 24.988023 Si / 1000 Ang^3
#
#
#
# Elastic Constant Matrix: (Units=GPa)
#
#
# Indices 1 2 3 4 5 6 
#
# 1 93.4393 51.4048 41.0142 0.0000 0.0000 0.0000
# 2 51.4048 201.0937 72.9230 0.0000 0.0000 0.0000
# 3 41.0142 72.9230 261.6659 0.0000 0.0000 0.0000
# 4 0.0000 0.0000 0.0000 20.5784 0.0000 0.0000
# 5 0.0000 0.0000 0.0000 0.0000 6.4666 0.0000
# 6 0.0000 0.0000 0.0000 0.0000 0.0000 -98.6755
#
#
#
# Elastic Compliance Matrix: (Units=1/GPa)
#
#
# Indices 1 2 3 4 5 6 
#
# 1 0.012792 -0.002829 -0.001217 0.000000 0.000000 0.000000
# 2 -0.002829 0.006157 -0.001273 0.000000 0.000000 0.000000
# 3 -0.001217 -0.001273 0.004367 0.000000 0.000000 0.000000
# 4 0.000000 0.000000 0.000000 0.048595 0.000000 0.000000
# 5 0.000000 0.000000 0.000000 0.000000 0.154640 0.000000
# 6 0.000000 0.000000 0.000000 0.000000 0.000000 -0.010134
#
#
# Mechanical properties :
#
#
# Convention : Reuss Voigt Hill
#
# Bulk Modulus (GPa) = 78.86106 98.54255 88.70181
# Shear Modulus (GPa) = 21.61876 11.73103 16.67490
#
# Velocity S-wave (km/s) = 2.94456 2.16907 2.58605
# Velocity P-wave (km/s) = 6.57181 6.76718 6.67021
#
# Compressibility (1/GPa) = 0.01268053
#
# Stress axis : x y z
#
# Youngs Moduli (GPa) = 78.17081 162.40569 228.98798
#
# Poissons Ratio (x) = 0.45942 0.27862
# Poissons Ratio (y) = 0.22113 0.29141
# Poissons Ratio (z) = 0.09512 0.20668
#
# Static dielectric constant tensor:
#      x y z
#    x 4.222990 0.000000 0.000000 
#    y 0.000000 6.231020 0.000000 
#    z 0.000000 0.000000 4.251720 
# 
# 
# High freq. dielectric constant tensor:
#      x y z
#    x 1.984940 0.000000 0.000000 
#    y 0.000000 2.018590 0.000000 
#    z 0.000000 0.000000 1.992280 
# 
# From -- ./inp_files/992.got.cif
#   From: 2010.03.12/outbox.cif.g09.slc.cpg/sg49_1_cif.got.tgz:992.got - 2010.04.14 03:58:27.
