data_PCOD8202621
_publ_section_title
;
Structure prediction by ZEFSAII (Michael W. Deem and Ramdas Pophale) SiO2 
 PCOD8202621
Probable space group: P C C M
;
_chemical_formula_sum "Si O2"
_cell_formula_units_Z 32
_cell_length_a 18.943280
_cell_length_b 8.662627
_cell_length_c 9.145254
_cell_angle_alpha 90.000000
_cell_angle_beta 90.000000
_cell_angle_gamma 90.000000
_cell_volume 1500.723093
_symmetry_space_group_name_H-M "P C C M"
_symmetry_group_IT_number 49
_symmetry_cell_setting 'orthorhombic'
loop_
_space_group_symop_operation_xyz
x,y,z
-x,-y,z
x,-y,1/2-z
-x,y,1/2-z
-x,-y,-z
x,y,-z
-x,y,1/2+z
x,-y,1/2+z
loop_
_atom_site_type_symbol
_atom_site_label
_atom_site_fract_x
_atom_site_fract_y
_atom_site_fract_z
Si Si1 0.201999 0.344136 0.334046
Si Si2 0.659299 0.819657 0.729865
Si Si3 0.398379 0.651324 0.500000
Si Si4 0.561350 0.297083 0.000000
Si Si5 0.068562 0.669756 0.677287
O O1 0.223476 0.500000 0.250000
O O2 0.175724 0.381247 0.500000
O O3 0.269674 0.235146 0.348896
O O4 0.140845 0.254259 0.239349
O O5 0.588263 0.794141 0.639386
O O6 0.667691 0.000000 0.750000
O O7 0.648571 0.714580 0.870012
O O8 0.477609 0.714396 0.500000
O O9 0.404115 0.467214 0.500000
O O10 0.071706 0.500000 0.750000
O O11 0.064484 0.669475 0.500000
O O12 0.000000 0.753550 0.750000
#
# Coordination Sequence:
#
# PCOD8202621 Si02
#       5
#     8   8   4   4   8
#     4  11  22  38  61  89 124 167 216 262 314 375
#     4  12  26  41  62  93 129 167 208 261 319 377
#     4  11  25  41  73  87 128 157 214 261 317 382
#     4  11  23  47  63  99 116 167 208 263 317 380
#     4  10  18  31  54  88 126 164 210 263 317 364
#
# _framework density 21.323055
#
# number of rings (size 3 to 8) (size 9 to 14) (size 15 to 20)
#    0.000    1.000    1.250    9.000    3.500    5.000 
#    0.000    0.000    0.000    0.750    0.000    3.500 
#    0.000    0.000    0.000    0.000    0.000    0.000 
#
# Total GULP energy -396517.560622 kJ/mol
# GULP energy per Si atom -12391.173769 kJ/mol
# Density = 2.127452 g / cm^3
# Si number density = 21.323055 Si / 1000 Ang^3
#
#
#
# Elastic Constant Matrix: (Units=GPa)
#
#
# Indices 1 2 3 4 5 6 
#
# 1 121.3041 31.2486 37.3451 0.0000 0.0000 0.0000
# 2 31.2486 66.1654 16.2222 0.0000 0.0000 0.0000
# 3 37.3451 16.2222 178.0391 0.0000 0.0000 0.0000
# 4 0.0000 0.0000 0.0000 20.9211 0.0000 0.0000
# 5 0.0000 0.0000 0.0000 0.0000 42.2796 0.0000
# 6 0.0000 0.0000 0.0000 0.0000 0.0000 4.7890
#
#
#
# Elastic Compliance Matrix: (Units=1/GPa)
#
#
# Indices 1 2 3 4 5 6 
#
# 1 0.009854 -0.004242 -0.001680 0.000000 0.000000 0.000000
# 2 -0.004242 0.017285 -0.000685 0.000000 0.000000 0.000000
# 3 -0.001680 -0.000685 0.006032 0.000000 0.000000 0.000000
# 4 0.000000 0.000000 0.000000 0.047799 0.000000 0.000000
# 5 0.000000 0.000000 0.000000 0.000000 0.023652 0.000000
# 6 0.000000 0.000000 0.000000 0.000000 0.000000 0.208812
#
#
# Mechanical properties :
#
#
# Convention : Reuss Voigt Hill
#
# Bulk Modulus (GPa) = 50.11111 59.46003 54.78557
# Shear Modulus (GPa) = 15.00152 32.31077 23.65615
#
# Velocity S-wave (km/s) = 2.65530 3.89691 3.33440
# Velocity P-wave (km/s) = 5.74045 6.94217 6.36971
#
# Compressibility (1/GPa) = 0.01995565
#
# Stress axis : x y z
#
# Youngs Moduli (GPa) = 101.48388 57.85387 165.79192
#
# Poissons Ratio (x) = 0.24540 0.27860
# Poissons Ratio (y) = 0.43047 0.11360
# Poissons Ratio (z) = 0.17054 0.03964
#
# Static dielectric constant tensor:
#      x y z
#    x 4.675830 0.000000 0.000000 
#    y 0.000000 3.378100 0.000000 
#    z 0.000000 0.000000 4.080580 
# 
# 
# High freq. dielectric constant tensor:
#      x y z
#    x 1.864810 0.000000 0.000000 
#    y 0.000000 1.784960 0.000000 
#    z 0.000000 0.000000 1.857670 
# 
# From -- ./inp_files/5483.got.cif
#   From: 2010.03.12/outbox.cif.g09.slc.cpg/sg49_3_cif.got.tgz:5483.got - 2010.04.14 03:58:27.
