data_PCOD8202309
_publ_section_title
;
Structure prediction by ZEFSAII (Michael W. Deem and Ramdas Pophale) SiO2 
 PCOD8202309
Probable space group: P C C M
;
_chemical_formula_sum "Si O2"
_cell_formula_units_Z 40
_cell_length_a 25.395924
_cell_length_b 10.068646
_cell_length_c 8.644798
_cell_angle_alpha 90.000000
_cell_angle_beta 90.000000
_cell_angle_gamma 90.000000
_cell_volume 2210.497054
_symmetry_space_group_name_H-M "P C C M"
_symmetry_group_IT_number 49
_symmetry_cell_setting 'orthorhombic'
loop_
_space_group_symop_operation_xyz
x,y,z
-x,-y,z
x,-y,1/2-z
-x,y,1/2-z
-x,-y,-z
x,y,-z
-x,y,1/2+z
x,-y,1/2+z
loop_
_atom_site_type_symbol
_atom_site_label
_atom_site_fract_x
_atom_site_fract_y
_atom_site_fract_z
Si Si1 0.552540 0.352197 0.816201
Si Si2 0.137640 0.861753 0.317277
Si Si3 0.055985 0.357727 0.816229
Si Si4 0.743664 0.861475 0.817563
Si Si5 0.659801 0.646069 0.816353
O O1 0.552659 0.500000 0.750000
O O2 0.500000 0.278663 0.750000
O O3 0.606447 0.287338 0.753091
O O4 0.551446 0.351704 0.000000
O O5 0.136051 0.870962 0.500000
O O6 0.099970 0.744967 0.257452
O O7 0.196999 0.833421 0.257807
O O8 0.116355 0.000000 0.250000
O O9 0.072360 0.500000 0.750000
O O10 0.000000 0.310818 0.750000
O O11 0.052490 0.365687 0.000000
O O12 0.707292 0.740344 0.761429
O O13 0.722207 0.000000 0.750000
O O14 0.742099 0.873567 0.000000
O O15 0.670787 0.500000 0.750000
O O16 0.654699 0.636766 0.000000
#
# Coordination Sequence:
#
# PCOD8202309 Si02
#       5
#     8   8   8   8   8
#     4  10  17  27  44  67  96 128 161 199 243 289
#     4   9  19  35  53  74  98 128 165 205 244 289
#     4  10  20  34  52  74 102 132 165 201 244 293
#     4   9  19  35  53  72  98 130 165 202 244 292
#     4  10  19  31  48  73 101 128 161 202 243 289
#
# _framework density 18.095476999999999
#
# number of rings (size 3 to 8) (size 9 to 14) (size 15 to 20)
#    0.000    2.400    0.000    5.400    0.000    4.400 
#    0.000    2.000    0.000    0.600    0.000    4.200 
#    0.000    0.000    0.000    0.000    0.000    0.000 
#
# Total GULP energy -495903.321054 kJ/mol
# GULP energy per Si atom -12397.583026 kJ/mol
# Density = 1.805429 g / cm^3
# Si number density = 18.095477 Si / 1000 Ang^3
#
#
#
# Elastic Constant Matrix: (Units=GPa)
#
#
# Indices 1 2 3 4 5 6 
#
# 1 144.3864 94.2656 45.2600 0.0000 0.0000 0.0000
# 2 94.2656 111.1928 37.4422 0.0000 0.0000 0.0000
# 3 45.2600 37.4422 79.3153 0.0000 0.0000 0.0000
# 4 0.0000 0.0000 0.0000 25.4226 0.0000 0.0000
# 5 0.0000 0.0000 0.0000 0.0000 26.4629 0.0000
# 6 0.0000 0.0000 0.0000 0.0000 0.0000 10.8590
#
#
#
# Elastic Compliance Matrix: (Units=1/GPa)
#
#
# Indices 1 2 3 4 5 6 
#
# 1 0.016199 -0.012628 -0.003283 0.000000 0.000000 0.000000
# 2 -0.012628 0.020537 -0.002489 0.000000 0.000000 0.000000
# 3 -0.003283 -0.002489 0.015656 0.000000 0.000000 0.000000
# 4 0.000000 0.000000 0.000000 0.039335 0.000000 0.000000
# 5 0.000000 0.000000 0.000000 0.000000 0.037789 0.000000
# 6 0.000000 0.000000 0.000000 0.000000 0.000000 0.092089
#
#
# Mechanical properties :
#
#
# Convention : Reuss Voigt Hill
#
# Bulk Modulus (GPa) = 64.12979 76.53667 70.33323
# Shear Modulus (GPa) = 18.96801 23.07733 21.02267
#
# Velocity S-wave (km/s) = 3.24113 3.57502 3.41216
# Velocity P-wave (km/s) = 7.03727 7.70901 7.38079
#
# Compressibility (1/GPa) = 0.01559338
#
# Stress axis : x y z
#
# Youngs Moduli (GPa) = 61.73186 48.69297 63.87299
#
# Poissons Ratio (x) = 0.61488 0.20967
# Poissons Ratio (y) = 0.77953 0.15898
# Poissons Ratio (z) = 0.20264 0.12120
#
# Static dielectric constant tensor:
#      x y z
#    x 4.157280 0.000000 0.000000 
#    y 0.000000 3.208620 0.000000 
#    z 0.000000 0.000000 3.319970 
# 
# 
# High freq. dielectric constant tensor:
#      x y z
#    x 1.715520 0.000000 0.000000 
#    y 0.000000 1.671580 0.000000 
#    z 0.000000 0.000000 1.707950 
# 
# From -- ./inp_files/1910.got.cif
#   From: 2010.03.12/outbox.cif.g09.slc.cpg/sg49_1_cif.got.tgz:1910.got - 2010.04.14 03:58:27.
