data_PCOD8202959
_publ_section_title
;
Structure prediction by ZEFSAII (Michael W. Deem and Ramdas Pophale) SiO2 
 PCOD8202959
Probable space group: P C C M
;
_chemical_formula_sum "Si O2"
_cell_formula_units_Z 56
_cell_length_a 18.261909
_cell_length_b 19.031174
_cell_length_c 9.024567
_cell_angle_alpha 90.000000
_cell_angle_beta 90.000000
_cell_angle_gamma 90.000000
_cell_volume 3136.448262
_symmetry_space_group_name_H-M "P C C M"
_symmetry_group_IT_number 49
_symmetry_cell_setting 'orthorhombic'
loop_
_space_group_symop_operation_xyz
x,y,z
-x,-y,z
x,-y,1/2-z
-x,y,1/2-z
-x,-y,-z
x,y,-z
-x,y,1/2+z
x,-y,1/2+z
loop_
_atom_site_type_symbol
_atom_site_label
_atom_site_fract_x
_atom_site_fract_y
_atom_site_fract_z
Si Si1 0.312540 0.932410 0.830114
Si Si2 0.426089 0.648410 0.829140
Si Si3 0.856327 0.071292 0.824373
Si Si4 0.211690 0.701093 0.328797
Si Si5 0.925970 0.205172 0.672939
Si Si6 0.662674 0.779910 0.327770
Si Si7 0.277945 0.573762 0.175614
O O1 0.228839 0.919376 0.782059
O O2 0.357675 0.861087 0.792881
O O3 0.347514 0.000000 0.750000
O O4 0.317301 0.951699 0.000000
O O5 0.500000 0.624993 0.750000
O O6 0.406520 0.729846 0.792917
O O7 0.359053 0.599444 0.776589
O O8 0.441141 0.637100 0.000000
O O9 0.900468 0.135032 0.754697
O O10 0.886353 0.000000 0.750000
O O11 0.869030 0.069128 0.000000
O O12 0.228192 0.684945 0.500000
O O13 0.130997 0.731533 0.305101
O O14 0.268809 0.758997 0.272112
O O15 0.218785 0.629461 0.235351
O O16 0.937856 0.188478 0.500000
O O17 0.000000 0.231661 0.750000
O O18 0.686240 0.771033 0.500000
O O19 0.260797 0.500000 0.250000
O O20 0.270398 0.568031 0.000000
#
# Coordination Sequence:
#
# PCOD8202959 Si02
#       7
#     8   8   8   8   8   8   8
#     4   9  17  28  46  70  97 128 167 216 265 310
#     4   9  19  33  51  76 108 141 173 206 246 298
#     4  10  19  32  50  71 100 136 172 217 268 316
#     4  10  20  34  54  79 104 131 170 215 253 302
#     4  11  23  36  52  75 103 137 177 217 261 312
#     4   9  17  32  51  72  99 136 174 212 260 308
#     4  10  21  37  58  83 110 140 170 204 247 298
#
# _framework density 17.854590000000002
#
# number of rings (size 3 to 8) (size 9 to 14) (size 15 to 20)
#    0.000    2.286    1.429    2.571    0.000    6.286 
#    0.000    2.857    0.000    0.857    0.000    6.000 
#    0.000    0.000    0.000    0.000    0.000    0.000 
#
# Total GULP energy -694364.684174 kJ/mol
# GULP energy per Si atom -12399.369360 kJ/mol
# Density = 1.781395 g / cm^3
# Si number density = 17.854590 Si / 1000 Ang^3
#
#
#
# Elastic Constant Matrix: (Units=GPa)
#
#
# Indices 1 2 3 4 5 6 
#
# 1 48.0733 27.0876 32.8198 0.0000 0.0000 0.0000
# 2 27.0876 126.6577 49.2863 0.0000 0.0000 0.0000
# 3 32.8198 49.2863 85.5432 0.0000 0.0000 0.0000
# 4 0.0000 0.0000 0.0000 29.7704 0.0000 0.0000
# 5 0.0000 0.0000 0.0000 0.0000 24.5578 0.0000
# 6 0.0000 0.0000 0.0000 0.0000 0.0000 16.1629
#
#
#
# Elastic Compliance Matrix: (Units=1/GPa)
#
#
# Indices 1 2 3 4 5 6 
#
# 1 0.028735 -0.002392 -0.009647 0.000000 0.000000 0.000000
# 2 -0.002392 0.010376 -0.005061 0.000000 0.000000 0.000000
# 3 -0.009647 -0.005061 0.018307 0.000000 0.000000 0.000000
# 4 0.000000 0.000000 0.000000 0.033590 0.000000 0.000000
# 5 0.000000 0.000000 0.000000 0.000000 0.040720 0.000000
# 6 0.000000 0.000000 0.000000 0.000000 0.000000 0.061870
#
#
# Mechanical properties :
#
#
# Convention : Reuss Voigt Hill
#
# Bulk Modulus (GPa) = 43.06628 53.18461 48.12545
# Shear Modulus (GPa) = 21.22816 24.17026 22.69921
#
# Velocity S-wave (km/s) = 3.45185 3.68330 3.56945
# Velocity P-wave (km/s) = 6.32929 6.92396 6.63329
#
# Compressibility (1/GPa) = 0.02322002
#
# Stress axis : x y z
#
# Youngs Moduli (GPa) = 34.80082 96.37606 54.62453
#
# Poissons Ratio (x) = 0.23049 0.52694
# Poissons Ratio (y) = 0.08323 0.27644
# Poissons Ratio (z) = 0.33571 0.48773
#
# Static dielectric constant tensor:
#      x y z
#    x 3.088200 0.000000 0.000000 
#    y 0.000000 3.407960 0.000000 
#    z 0.000000 0.000000 3.375200 
# 
# 
# High freq. dielectric constant tensor:
#      x y z
#    x 1.657310 0.000000 0.000000 
#    y 0.000000 1.694360 0.000000 
#    z 0.000000 0.000000 1.700630 
# 
# From -- ./inp_files/5191.got.cif
#   From: 2010.03.12/outbox.cif.g09.slc.cpg/sg49_3_cif.got.tgz:5191.got - 2010.04.14 03:58:27.
