data_PCOD8202874
_publ_section_title
;
Structure prediction by ZEFSAII (Michael W. Deem and Ramdas Pophale) SiO2 
 PCOD8202874
Probable space group: P C C M
;
_chemical_formula_sum "Si O2"
_cell_formula_units_Z 64
_cell_length_a 19.768969
_cell_length_b 19.884234
_cell_length_c 8.909740
_cell_angle_alpha 90.000000
_cell_angle_beta 90.000000
_cell_angle_gamma 90.000000
_cell_volume 3502.336874
_symmetry_space_group_name_H-M "P C C M"
_symmetry_group_IT_number 49
_symmetry_cell_setting 'orthorhombic'
loop_
_space_group_symop_operation_xyz
x,y,z
-x,-y,z
x,-y,1/2-z
-x,y,1/2-z
-x,-y,-z
x,y,-z
-x,y,1/2+z
x,-y,1/2+z
loop_
_atom_site_type_symbol
_atom_site_label
_atom_site_fract_x
_atom_site_fract_y
_atom_site_fract_z
Si Si1 0.250472 0.607132 0.170117
Si Si2 0.430357 0.072269 0.321373
Si Si3 0.433923 0.293576 0.172592
Si Si4 0.900187 0.567693 0.671838
Si Si5 0.065522 0.293665 0.174949
Si Si6 0.787025 0.741509 0.173699
Si Si7 0.619230 0.434059 0.323206
Si Si8 0.335030 0.174126 0.171285
O O1 0.180583 0.567564 0.182116
O O2 0.242371 0.683865 0.221557
O O3 0.302392 0.568371 0.276601
O O4 0.277920 0.607488 0.000000
O O5 0.500000 0.101911 0.250000
O O6 0.438358 0.066883 0.500000
O O7 0.365987 0.118580 0.281922
O O8 0.416025 0.000000 0.250000
O O9 0.500000 0.262785 0.250000
O O10 0.417157 0.367136 0.239699
O O11 0.371228 0.244981 0.201260
O O12 0.451151 0.300347 0.000000
O O13 0.927842 0.500000 0.750000
O O14 0.924954 0.570229 0.500000
O O15 0.929046 0.631702 0.758648
O O16 0.132917 0.249172 0.208634
O O17 0.000000 0.257845 0.250000
O O18 0.052580 0.300000 0.000000
O O19 0.744732 0.810760 0.204238
O O20 0.776720 0.719761 0.000000
O O21 0.584742 0.500000 0.250000
O O22 0.613862 0.439433 0.500000
O O23 0.345855 0.149637 0.000000
#
# Coordination Sequence:
#
# PCOD8202874 Si02
#       8
#     8   8   8   8   8   8   8   8
#     4  10  19  31  49  72  95 122 158 207 261 317
#     4  11  22  37  57  85 119 158 192 224 261 308
#     4  10  22  37  53  71  97 129 167 213 264 315
#     4  10  20  32  46  67  92 120 159 205 256 319
#     4  10  20  34  52  72  98 133 166 207 260 316
#     4   9  18  34  55  76 103 136 170 211 261 309
#     4  11  22  36  50  67  90 123 163 213 270 325
#     4  10  19  36  58  82 109 141 179 222 263 309
#
# _framework density 18.273513999999999
#
# number of rings (size 3 to 8) (size 9 to 14) (size 15 to 20)
#    0.000    1.875    1.250    3.750    0.000    6.500 
#    0.000    2.500    0.000    0.000    0.000    0.000 
#    0.000    0.500    0.000    5.750    0.000    1.750 
#
# Total GULP energy -793520.240751 kJ/mol
# GULP energy per Si atom -12398.753762 kJ/mol
# Density = 1.823192 g / cm^3
# Si number density = 18.273514 Si / 1000 Ang^3
#
#
#
# Elastic Constant Matrix: (Units=GPa)
#
#
# Indices 1 2 3 4 5 6 
#
# 1 103.0357 34.0397 41.3620 0.0000 0.0000 0.0000
# 2 34.0397 64.8383 36.3352 0.0000 0.0000 0.0000
# 3 41.3620 36.3352 95.4820 0.0000 0.0000 0.0000
# 4 0.0000 0.0000 0.0000 23.6448 0.0000 0.0000
# 5 0.0000 0.0000 0.0000 0.0000 25.0853 0.0000
# 6 0.0000 0.0000 0.0000 0.0000 0.0000 16.0822
#
#
#
# Elastic Compliance Matrix: (Units=1/GPa)
#
#
# Indices 1 2 3 4 5 6 
#
# 1 0.012730 -0.004567 -0.003777 0.000000 0.000000 0.000000
# 2 -0.004567 0.021242 -0.006105 0.000000 0.000000 0.000000
# 3 -0.003777 -0.006105 0.014433 0.000000 0.000000 0.000000
# 4 0.000000 0.000000 0.000000 0.042293 0.000000 0.000000
# 5 0.000000 0.000000 0.000000 0.000000 0.039864 0.000000
# 6 0.000000 0.000000 0.000000 0.000000 0.000000 0.062181
#
#
# Mechanical properties :
#
#
# Convention : Reuss Voigt Hill
#
# Bulk Modulus (GPa) = 51.26330 54.09221 52.67776
# Shear Modulus (GPa) = 21.91620 23.07039 22.49330
#
# Velocity S-wave (km/s) = 3.46691 3.55703 3.51226
# Velocity P-wave (km/s) = 6.64381 6.82170 6.73334
#
# Compressibility (1/GPa) = 0.01950713
#
# Stress axis : x y z
#
# Youngs Moduli (GPa) = 78.55324 47.07681 69.28795
#
# Poissons Ratio (x) = 0.21499 0.26168
# Poissons Ratio (y) = 0.35874 0.42302
# Poissons Ratio (z) = 0.29668 0.28741
#
# Static dielectric constant tensor:
#      x y z
#    x 3.603200 0.000000 0.000000 
#    y 0.000000 3.087600 0.000000 
#    z 0.000000 0.000000 3.415960 
# 
# 
# High freq. dielectric constant tensor:
#      x y z
#    x 1.709650 0.000000 0.000000 
#    y 0.000000 1.664750 0.000000 
#    z 0.000000 0.000000 1.716120 
# 
# From -- ./inp_files/6089.got.cif
#   From: 2010.03.12/outbox.cif.g09.slc.cpg/sg49_4_cif.got.tgz:6089.got - 2010.04.14 03:58:27.
