data_PCOD8202287
_publ_section_title
;
Structure prediction by ZEFSAII (Michael W. Deem and Ramdas Pophale) SiO2 
 PCOD8202287
Probable space group: P C C M
;
_chemical_formula_sum "Si O2"
_cell_formula_units_Z 48
_cell_length_a 24.101000
_cell_length_b 13.568985
_cell_length_c 8.564026
_cell_angle_alpha 90.000000
_cell_angle_beta 90.000000
_cell_angle_gamma 90.000000
_cell_volume 2800.660087
_symmetry_space_group_name_H-M "P C C M"
_symmetry_group_IT_number 49
_symmetry_cell_setting 'orthorhombic'
loop_
_space_group_symop_operation_xyz
x,y,z
-x,-y,z
x,-y,1/2-z
-x,y,1/2-z
-x,-y,-z
x,y,-z
-x,y,1/2+z
x,-y,1/2+z
loop_
_atom_site_type_symbol
_atom_site_label
_atom_site_fract_x
_atom_site_fract_y
_atom_site_fract_z
Si Si1 0.168532 0.891583 0.683394
Si Si2 0.725955 0.208577 0.184682
Si Si3 0.615642 0.896059 0.682658
Si Si4 0.559655 0.698366 0.685497
Si Si5 0.666972 0.394587 0.685374
Si Si6 0.944434 0.109949 0.184528
O O1 0.161419 0.900882 0.500000
O O2 0.218566 0.819765 0.725415
O O3 0.112698 0.841507 0.754716
O O4 0.180401 0.000000 0.750000
O O5 0.677699 0.132486 0.237216
O O6 0.708722 0.317586 0.235425
O O7 0.735748 0.205166 0.000000
O O8 0.614311 0.905816 0.500000
O O9 0.573219 0.810765 0.736929
O O10 0.596177 0.000000 0.750000
O O11 0.500000 0.668116 0.750000
O O12 0.562849 0.685627 0.500000
O O13 0.603807 0.625584 0.763413
O O14 0.685462 0.500000 0.750000
O O15 0.672306 0.389660 0.500000
O O16 0.000000 0.164319 0.250000
O O17 0.943936 0.000000 0.250000
O O18 0.946055 0.110414 0.000000
#
# Coordination Sequence:
#
# PCOD8202287 Si02
#       6
#     8   8   8   8   8   8
#     4  11  20  30  45  69  99 135 173 208 245 288
#     4  10  20  35  51  72  99 127 161 203 243 288
#     4   9  19  32  48  68  95 127 160 194 233 277
#     4  10  21  37  53  74  99 125 158 198 237 283
#     4  11  22  38  58  78  98 124 153 191 242 296
#     4  10  17  27  41  60  89 128 170 211 248 286
#
# _framework density 17.138815999999998
#
# number of rings (size 3 to 8) (size 9 to 14) (size 15 to 20)
#    0.000    1.833    0.000    8.500    0.000    6.000 
#    0.000    3.333    0.000    0.000    0.000    0.000 
#    0.000    0.667    0.000    6.667    0.000    4.000 
#
# Total GULP energy -595188.331486 kJ/mol
# GULP energy per Si atom -12399.756906 kJ/mol
# Density = 1.709981 g / cm^3
# Si number density = 17.138816 Si / 1000 Ang^3
#
#
#
# Elastic Constant Matrix: (Units=GPa)
#
#
# Indices 1 2 3 4 5 6 
#
# 1 108.7006 13.8700 24.3210 0.0000 0.0000 0.0000
# 2 13.8700 63.6496 8.3691 0.0000 0.0000 0.0000
# 3 24.3210 8.3691 98.6533 0.0000 0.0000 0.0000
# 4 0.0000 0.0000 0.0000 25.6977 0.0000 0.0000
# 5 0.0000 0.0000 0.0000 0.0000 31.3852 0.0000
# 6 0.0000 0.0000 0.0000 0.0000 0.0000 7.5296
#
#
#
# Elastic Compliance Matrix: (Units=1/GPa)
#
#
# Indices 1 2 3 4 5 6 
#
# 1 0.009951 -0.001867 -0.002295 0.000000 0.000000 0.000000
# 2 -0.001867 0.016238 -0.000917 0.000000 0.000000 0.000000
# 3 -0.002295 -0.000917 0.010780 0.000000 0.000000 0.000000
# 4 0.000000 0.000000 0.000000 0.038914 0.000000 0.000000
# 5 0.000000 0.000000 0.000000 0.000000 0.031862 0.000000
# 6 0.000000 0.000000 0.000000 0.000000 0.000000 0.132810
#
#
# Mechanical properties :
#
#
# Convention : Reuss Voigt Hill
#
# Bulk Modulus (GPa) = 37.29709 40.45817 38.87763
# Shear Modulus (GPa) = 19.25664 27.88539 23.57101
#
# Velocity S-wave (km/s) = 3.35560 4.03802 3.71253
# Velocity P-wave (km/s) = 6.06815 6.73782 6.41174
#
# Compressibility (1/GPa) = 0.02681174
#
# Stress axis : x y z
#
# Youngs Moduli (GPa) = 100.49000 61.58239 92.76351
#
# Poissons Ratio (x) = 0.11496 0.21288
# Poissons Ratio (y) = 0.18759 0.08510
# Poissons Ratio (z) = 0.23062 0.05649
#
# Static dielectric constant tensor:
#      x y z
#    x 3.725090 0.000000 0.000000 
#    y 0.000000 1.728670 0.000000 
#    z 0.000000 0.000000 3.300500 
# 
# 
# High freq. dielectric constant tensor:
#      x y z
#    x 1.665330 0.000000 0.000000 
#    y 0.000000 1.622870 0.000000 
#    z 0.000000 0.000000 1.680800 
# 
# From -- ./inp_files/2882.got.cif
#   From: 2010.03.12/outbox.cif.g09.slc.cpg/sg49_2_cif.got.tgz:2882.got - 2010.04.14 03:58:27.
