data_PCOD8202304
_publ_section_title
;
Structure prediction by ZEFSAII (Michael W. Deem and Ramdas Pophale) SiO2 
 PCOD8202304
Probable space group: P C C M
;
_chemical_formula_sum "Si O2"
_cell_formula_units_Z 64
_cell_length_a 23.665364
_cell_length_b 15.396010
_cell_length_c 8.808650
_cell_angle_alpha 90.000000
_cell_angle_beta 90.000000
_cell_angle_gamma 90.000000
_cell_volume 3209.450837
_symmetry_space_group_name_H-M "P C C M"
_symmetry_group_IT_number 49
_symmetry_cell_setting 'orthorhombic'
loop_
_space_group_symop_operation_xyz
x,y,z
-x,-y,z
x,-y,1/2-z
-x,y,1/2-z
-x,-y,-z
x,y,-z
-x,y,1/2+z
x,-y,1/2+z
loop_
_atom_site_type_symbol
_atom_site_label
_atom_site_fract_x
_atom_site_fract_y
_atom_site_fract_z
Si Si1 0.725027 0.092990 0.179874
Si Si2 0.854447 0.090174 0.822369
Si Si3 0.114969 0.588165 0.821329
Si Si4 0.557660 0.256029 0.326369
Si Si5 0.940233 0.764137 0.680350
Si Si6 0.680379 0.264795 0.675491
Si Si7 0.438534 0.918131 0.179512
Si Si8 0.755582 0.588993 0.678984
O O1 0.790138 0.113925 0.219753
O O2 0.686341 0.169062 0.249709
O O3 0.707997 0.000000 0.250000
O O4 0.713645 0.089616 0.000000
O O5 0.894324 0.166668 0.760077
O O6 0.874040 0.000000 0.750000
O O7 0.861531 0.079356 0.000000
O O8 0.090051 0.500000 0.750000
O O9 0.078489 0.669121 0.760900
O O10 0.179664 0.602307 0.770634
O O11 0.110653 0.579808 0.000000
O O12 0.500000 0.295459 0.250000
O O13 0.540918 0.235288 0.500000
O O14 0.616531 0.309103 0.315521
O O15 0.583172 0.173169 0.238658
O O16 0.943931 0.765687 0.500000
O O17 0.000000 0.789672 0.750000
O O18 0.697767 0.256225 0.500000
O O19 0.721452 0.329414 0.761122
O O20 0.500000 0.923805 0.250000
O O21 0.403500 0.000000 0.250000
O O22 0.437917 0.923300 0.000000
O O23 0.731547 0.500000 0.750000
O O24 0.748635 0.584075 0.500000
#
# Coordination Sequence:
#
# PCOD8202304 Si02
#       8
#     8   8   8   8   8   8   8   8
#     4  10  20  36  58  83 112 147 186 231 283 336
#     4   9  19  36  56  77 104 140 183 231 280 328
#     4   9  19  36  57  81 110 143 178 219 268 324
#     4  10  21  36  52  72 101 137 178 219 262 316
#     4  10  21  36  52  75 109 146 186 228 270 319
#     4  11  23  37  56  84 115 146 181 225 275 329
#     4  10  17  27  44  64  89 123 166 212 256 301
#     4  10  20  37  62  89 115 143 178 224 278 333
#
# _framework density 19.941106000000001
#
# number of rings (size 3 to 8) (size 9 to 14) (size 15 to 20)
#    0.000    2.125    0.000    4.500    0.000    7.000 
#    0.000    3.750    0.000    0.375    0.000    2.625 
#    0.000    0.000    0.000    0.000    0.000    0.000 
#
# Total GULP energy -793048.084011 kJ/mol
# GULP energy per Si atom -12391.376313 kJ/mol
# Density = 1.989572 g / cm^3
# Si number density = 19.941106 Si / 1000 Ang^3
#
#
#
# Elastic Constant Matrix: (Units=GPa)
#
#
# Indices 1 2 3 4 5 6 
#
# 1 113.1072 43.2596 27.6240 0.0000 0.0000 0.0000
# 2 43.2596 88.8447 23.3368 0.0000 0.0000 0.0000
# 3 27.6240 23.3368 91.2162 0.0000 0.0000 0.0000
# 4 0.0000 0.0000 0.0000 34.5759 0.0000 0.0000
# 5 0.0000 0.0000 0.0000 0.0000 11.2358 0.0000
# 6 0.0000 0.0000 0.0000 0.0000 0.0000 6.5807
#
#
#
# Elastic Compliance Matrix: (Units=1/GPa)
#
#
# Indices 1 2 3 4 5 6 
#
# 1 0.011244 -0.004910 -0.002149 0.000000 0.000000 0.000000
# 2 -0.004910 0.014211 -0.002149 0.000000 0.000000 0.000000
# 3 -0.002149 -0.002149 0.012163 0.000000 0.000000 0.000000
# 4 0.000000 0.000000 0.000000 0.028922 0.000000 0.000000
# 5 0.000000 0.000000 0.000000 0.000000 0.089001 0.000000
# 6 0.000000 0.000000 0.000000 0.000000 0.000000 0.151959
#
#
# Mechanical properties :
#
#
# Convention : Reuss Voigt Hill
#
# Bulk Modulus (GPa) = 52.07649 53.51210 52.79430
# Shear Modulus (GPa) = 15.04587 23.74167 19.39377
#
# Velocity S-wave (km/s) = 2.74982 3.45424 3.12196
# Velocity P-wave (km/s) = 6.02112 6.54235 6.28714
#
# Compressibility (1/GPa) = 0.01920252
#
# Stress axis : x y z
#
# Youngs Moduli (GPa) = 88.93589 70.36840 82.21356
#
# Poissons Ratio (x) = 0.34554 0.17667
# Poissons Ratio (y) = 0.43671 0.17665
# Poissons Ratio (z) = 0.19111 0.15120
#
# Static dielectric constant tensor:
#      x y z
#    x 3.677990 0.000000 0.000000 
#    y 0.000000 3.639810 0.000000 
#    z 0.000000 0.000000 3.640370 
# 
# 
# High freq. dielectric constant tensor:
#      x y z
#    x 1.785020 0.000000 0.000000 
#    y 0.000000 1.761740 0.000000 
#    z 0.000000 0.000000 1.781130 
# 
# From -- ./inp_files/6527.got.cif
#   From: 2010.03.12/outbox.cif.g09.slc.cpg/sg49_4_cif.got.tgz:6527.got - 2010.04.14 03:58:27.
