data_PCOD8202133
_publ_section_title
;
Structure prediction by ZEFSAII (Michael W. Deem and Ramdas Pophale) SiO2 
 PCOD8202133
Probable space group: P N N N
;
_chemical_formula_sum "Si O2"
_cell_formula_units_Z 44
_cell_length_a 17.750137
_cell_length_b 7.643626
_cell_length_c 13.640159
_cell_angle_alpha 90.000000
_cell_angle_beta 90.000000
_cell_angle_gamma 90.000000
_cell_volume 1850.634147
_symmetry_space_group_name_H-M "P N N N"
_symmetry_group_IT_number 48
_space_group.IT_coordinate_system_code '2'
_symmetry_cell_setting 'orthorhombic'
loop_
_space_group_symop_operation_xyz
x,y,z
1/2-x,1/2-y,z
x,1/2-y,1/2-z
1/2-x,y,1/2-z
-x,-y,-z
1/2+x,1/2+y,-z
-x,1/2+y,1/2+z
1/2+x,-y,1/2+z
loop_
_atom_site_type_symbol
_atom_site_label
_atom_site_fract_x
_atom_site_fract_y
_atom_site_fract_z
Si Si1 0.750000 0.250000 0.250000
Si Si2 0.500000 0.407681 0.142715
Si Si3 0.161184 0.633636 0.574581
Si Si4 0.750000 0.750000 0.750000
Si Si5 0.500000 0.497672 0.652073
Si Si6 0.161184 0.133636 0.074581
Si Si7 0.624478 1.000000 0.000000
O O1 0.802015 0.374769 0.317443
O O2 0.575423 0.435164 0.079899
O O3 0.500000 0.552850 0.232192
O O4 0.500000 0.204435 0.168978
O O5 0.424577 0.435163 0.079899
O O6 0.202621 0.500000 0.500000
O O7 0.172898 0.832718 0.534786
O O8 0.802015 0.874769 0.817443
O O9 0.573131 0.435028 0.591670
O O10 0.426869 0.435028 0.591670
O O11 0.327101 0.167282 0.034786
#
# Coordination Sequence:
#
# PCOD8202133 Si02
#       7
#     2   8   8   2   8   8   8
#     4  12  28  46  66  98 140 184 224 276 342 408
#     4   9  17  37  65  98 128 168 222 277 334 389
#     4  11  24  44  69  96 134 177 224 279 335 398
#     4  12  28  46  66  98 140 184 224 276 342 408
#     4   8  14  29  60  98 133 161 202 272 339 385
#     4  11  24  44  69  96 134 177 224 279 335 398
#     4   9  18  36  64  94 128 171 216 268 328 397
#
# _framework density 23.775634
#
# number of rings (size 3 to 8) (size 9 to 14) (size 15 to 20)
#    0.000    2.182    0.000    6.000    2.545    0.000 
#    0.000   10.909    0.000    0.000    0.000    0.000 
#    0.000    0.000    0.000    0.000    0.000    0.000 
#
# Total GULP energy -545157.284967 kJ/mol
# GULP energy per Si atom -12389.938295 kJ/mol
# Density = 2.372152 g / cm^3
# Si number density = 23.775634 Si / 1000 Ang^3
#
#
#
# Elastic Constant Matrix: (Units=GPa)
#
#
# Indices 1 2 3 4 5 6 
#
# 1 65.2914 37.4328 42.9480 0.0000 0.0000 0.0000
# 2 37.4328 85.7166 65.5083 0.0000 0.0000 0.0000
# 3 42.9480 65.5083 167.6006 0.0000 0.0000 0.0000
# 4 0.0000 0.0000 0.0000 43.1227 0.0000 0.0000
# 5 0.0000 0.0000 0.0000 0.0000 37.1991 0.0000
# 6 0.0000 0.0000 0.0000 0.0000 0.0000 12.3798
#
#
#
# Elastic Compliance Matrix: (Units=1/GPa)
#
#
# Indices 1 2 3 4 5 6 
#
# 1 0.021189 -0.007278 -0.002585 0.000000 0.000000 0.000000
# 2 -0.007278 0.019135 -0.005614 0.000000 0.000000 0.000000
# 3 -0.002585 -0.005614 0.008823 0.000000 0.000000 0.000000
# 4 0.000000 0.000000 0.000000 0.023190 0.000000 0.000000
# 5 0.000000 0.000000 0.000000 0.000000 0.026882 0.000000
# 6 0.000000 0.000000 0.000000 0.000000 0.000000 0.080777
#
#
# Mechanical properties :
#
#
# Convention : Reuss Voigt Hill
#
# Bulk Modulus (GPa) = 54.96499 67.82075 61.39287
# Shear Modulus (GPa) = 23.03993 30.05496 26.54744
#
# Velocity S-wave (km/s) = 3.11634 3.55929 3.34515
# Velocity P-wave (km/s) = 6.00976 6.74378 6.38732
#
# Compressibility (1/GPa) = 0.01819340
#
# Stress axis : x y z
#
# Youngs Moduli (GPa) = 47.19473 52.25986 113.33478
#
# Poissons Ratio (x) = 0.38032 0.29299
# Poissons Ratio (y) = 0.34346 0.63629
# Poissons Ratio (z) = 0.12201 0.29340
#
# Static dielectric constant tensor:
#      x y z
#    x 4.285900 0.000000 0.000000 
#    y 0.000000 3.725930 0.000000 
#    z 0.000000 0.000000 4.648630 
# 
# 
# High freq. dielectric constant tensor:
#      x y z
#    x 1.948550 0.000000 0.000000 
#    y 0.000000 1.899870 0.000000 
#    z 0.000000 0.000000 1.957860 
# 
# From -- ./inp_files/22120.got.cif
#   From: 2010.06.25/outbox.cif.g09.slc.cpg/sg48_12_cif.got.tgz:22120.got - 2010.06.26 18:06:46.
