data_PCOD8202623
_publ_section_title
;
Structure prediction by ZEFSAII (Michael W. Deem and Ramdas Pophale) SiO2 
 PCOD8202623
Probable space group: P C C M
;
_chemical_formula_sum "Si O2"
_cell_formula_units_Z 64
_cell_length_a 11.719458
_cell_length_b 14.302887
_cell_length_c 17.857368
_cell_angle_alpha 90.000000
_cell_angle_beta 90.000000
_cell_angle_gamma 90.000000
_cell_volume 2993.289230
_symmetry_space_group_name_H-M "P C C M"
_symmetry_group_IT_number 49
_symmetry_cell_setting 'orthorhombic'
loop_
_space_group_symop_operation_xyz
x,y,z
-x,-y,z
x,-y,1/2-z
-x,y,1/2-z
-x,-y,-z
x,y,-z
-x,y,1/2+z
x,-y,1/2+z
loop_
_atom_site_type_symbol
_atom_site_label
_atom_site_fract_x
_atom_site_fract_y
_atom_site_fract_z
Si Si1 0.397316 0.280106 0.087003
Si Si2 0.036986 0.130786 0.675303
Si Si3 0.539342 0.899382 0.588662
Si Si4 0.128463 0.464047 0.414314
Si Si5 0.777827 0.960188 0.584914
Si Si6 0.702404 0.423042 0.689322
Si Si7 0.178962 0.835013 0.583113
Si Si8 0.117910 0.324007 0.711975
O O1 0.476868 0.194810 0.118194
O O2 0.401605 0.369463 0.144242
O O3 0.265366 0.250190 0.091670
O O4 0.429298 0.305820 0.000000
O O5 0.103220 0.056225 0.626214
O O6 0.121234 0.213294 0.700687
O O7 0.000000 0.076153 0.750000
O O8 0.928154 0.178722 0.636604
O O9 0.519436 0.902700 0.500000
O O10 0.673187 0.894630 0.611364
O O11 0.500000 0.000000 0.622447
O O12 0.168635 0.449209 0.500000
O O13 0.216160 0.533416 0.373865
O O14 0.132114 0.366504 0.370708
O O15 0.000000 0.500000 0.411574
O O16 0.803587 0.936279 0.500000
O O17 0.748872 0.069504 0.597435
O O18 0.655541 0.500000 0.750000
O O19 0.775509 0.348831 0.736103
O O20 0.127277 0.837419 0.500000
O O21 0.000000 0.359834 0.750000
#
# Coordination Sequence:
#
# PCOD8202623 Si02
#       8
#     8   8   8   8   8   8   8   8
#     4  10  18  31  56  89 118 151 202 254 303 361
#     4  11  23  35  50  76 114 163 201 238 286 363
#     4   9  16  32  58  88 118 148 191 255 312 356
#     4  10  19  29  48  76 106 141 193 255 304 354
#     4  10  20  36  56  82 115 154 197 242 301 358
#     4  10  20  33  51  74 115 160 201 247 309 375
#     4  10  20  33  53  80 113 152 196 246 296 362
#     4  10  19  34  48  67 106 156 200 237 299 368
#
# _framework density 21.381162
#
# number of rings (size 3 to 8) (size 9 to 14) (size 15 to 20)
#    0.000    2.000    2.500    2.625    0.000    3.000 
#    0.000    0.000    0.000    3.000    0.000    6.125 
#    0.000   13.000    0.000    3.875    0.000   13.250 
#
# Total GULP energy -793080.852405 kJ/mol
# GULP energy per Si atom -12391.888319 kJ/mol
# Density = 2.133250 g / cm^3
# Si number density = 21.381162 Si / 1000 Ang^3
#
#
#
# Elastic Constant Matrix: (Units=GPa)
#
#
# Indices 1 2 3 4 5 6 
#
# 1 55.3275 22.2657 29.7509 0.0000 0.0000 0.0000
# 2 22.2657 88.4998 42.6645 0.0000 0.0000 0.0000
# 3 29.7509 42.6645 110.8957 0.0000 0.0000 0.0000
# 4 0.0000 0.0000 0.0000 -117.6924 0.0000 0.0000
# 5 0.0000 0.0000 0.0000 0.0000 12.6051 0.0000
# 6 0.0000 0.0000 0.0000 0.0000 0.0000 31.8016
#
#
#
# Elastic Compliance Matrix: (Units=1/GPa)
#
#
# Indices 1 2 3 4 5 6 
#
# 1 0.021871 -0.003283 -0.004605 0.000000 0.000000 0.000000
# 2 -0.003283 0.014365 -0.004646 0.000000 0.000000 0.000000
# 3 -0.004605 -0.004646 0.012040 0.000000 0.000000 0.000000
# 4 0.000000 0.000000 0.000000 -0.008497 0.000000 0.000000
# 5 0.000000 0.000000 0.000000 0.000000 0.079333 0.000000
# 6 0.000000 0.000000 0.000000 0.000000 0.000000 0.031445
#
#
# Mechanical properties :
#
#
# Convention : Reuss Voigt Hill
#
# Bulk Modulus (GPa) = 43.08496 49.34279 46.21388
# Shear Modulus (GPa) = 27.26860 -3.98767 11.64047
#
# Velocity S-wave (km/s) = 3.57509 -1.36715 2.33583
# Velocity P-wave (km/s) = 6.10216 4.54265 5.37922
#
# Compressibility (1/GPa) = 0.02320995
#
# Stress axis : x y z
#
# Youngs Moduli (GPa) = 45.72203 69.61306 83.05503
#
# Poissons Ratio (x) = 0.22852 0.38244
# Poissons Ratio (y) = 0.15010 0.38587
# Poissons Ratio (z) = 0.21053 0.32342
#
# Static dielectric constant tensor:
#      x y z
#    x 3.646130 0.000000 0.000000 
#    y 0.000000 3.806050 0.000000 
#    z 0.000000 0.000000 3.949880 
# 
# 
# High freq. dielectric constant tensor:
#      x y z
#    x 1.812420 0.000000 0.000000 
#    y 0.000000 1.835670 0.000000 
#    z 0.000000 0.000000 1.833150 
# 
# From -- ./inp_files/17317.got.cif
#   From: 2010.03.12/outbox.cif.g09.slc.cpg/sg49_9_cif.got.tgz:17317.got - 2010.04.14 03:58:27.
