data_PCOD8202588
_publ_section_title
;
Structure prediction by ZEFSAII (Michael W. Deem and Ramdas Pophale) SiO2 
 PCOD8202588
Probable space group: P C C M
;
_chemical_formula_sum "Si O2"
_cell_formula_units_Z 64
_cell_length_a 23.562391
_cell_length_b 19.003545
_cell_length_c 8.722831
_cell_angle_alpha 90.000000
_cell_angle_beta 90.000000
_cell_angle_gamma 90.000000
_cell_volume 3905.812945
_symmetry_space_group_name_H-M "P C C M"
_symmetry_group_IT_number 49
_symmetry_cell_setting 'orthorhombic'
loop_
_space_group_symop_operation_xyz
x,y,z
-x,-y,z
x,-y,1/2-z
-x,y,1/2-z
-x,-y,-z
x,y,-z
-x,y,1/2+z
x,-y,1/2+z
loop_
_atom_site_type_symbol
_atom_site_label
_atom_site_fract_x
_atom_site_fract_y
_atom_site_fract_z
Si Si1 0.252955 0.426766 0.181491
Si Si2 0.839677 0.840853 0.182473
Si Si3 0.731564 0.073338 0.676271
Si Si4 0.440689 0.712539 0.679713
Si Si5 0.061323 0.074117 0.682463
Si Si6 0.616342 0.571817 0.819538
Si Si7 0.224123 0.715316 0.819307
Si Si8 0.329234 0.211098 0.821963
O O1 0.229755 0.500000 0.250000
O O2 0.318590 0.416949 0.230251
O O3 0.217006 0.363942 0.257364
O O4 0.244782 0.425967 0.000000
O O5 0.790200 0.893949 0.239553
O O6 0.897251 0.863747 0.265161
O O7 0.823700 0.762573 0.236825
O O8 0.846914 0.841691 0.000000
O O9 0.739960 0.057974 0.500000
O O10 0.680572 0.128282 0.707733
O O11 0.714955 0.000000 0.750000
O O12 0.500000 0.736466 0.750000
O O13 0.448469 0.707545 0.500000
O O14 0.420572 0.636838 0.744853
O O15 0.393674 0.770929 0.723544
O O16 0.058279 0.069018 0.500000
O O17 0.000000 0.092185 0.750000
O O18 0.083581 0.000000 0.750000
O O19 0.591344 0.500000 0.750000
O O20 0.611652 0.566988 0.000000
O O21 0.286897 0.742751 0.779241
O O22 0.214472 0.717535 0.000000
O O23 0.316793 0.230434 0.000000
#
# Coordination Sequence:
#
# PCOD8202588 Si02
#       8
#     8   8   8   8   8   8   8   8
#     4  10  18  31  48  68  95 128 161 194 239 291
#     4  10  20  34  50  71 101 137 169 205 249 288
#     4   9  18  30  49  71  93 120 149 188 238 287
#     4  10  20  34  49  65  86 115 151 191 235 283
#     4  11  21  34  51  73 103 142 183 218 251 292
#     4   9  18  31  47  64  87 118 149 186 227 275
#     4  11  20  30  48  74  98 125 161 202 244 291
#     4   9  18  35  50  63  90 124 151 184 238 294
#
# _framework density 16.385833999999999
#
# number of rings (size 3 to 8) (size 9 to 14) (size 15 to 20)
#    0.000    2.125    1.250    4.500    0.000    5.250 
#    0.000    1.250    0.000    0.375    0.000    2.625 
#    0.000    0.500    0.000    5.000    0.000    3.000 
#
# Total GULP energy -793636.367602 kJ/mol
# GULP energy per Si atom -12400.568244 kJ/mol
# Density = 1.634854 g / cm^3
# Si number density = 16.385834 Si / 1000 Ang^3
#
#
#
# Elastic Constant Matrix: (Units=GPa)
#
#
# Indices 1 2 3 4 5 6 
#
# 1 85.9494 54.3560 34.2440 0.0000 0.0000 0.0000
# 2 54.3560 119.4702 41.5216 0.0000 0.0000 0.0000
# 3 34.2440 41.5216 76.6663 0.0000 0.0000 0.0000
# 4 0.0000 0.0000 0.0000 28.9314 0.0000 0.0000
# 5 0.0000 0.0000 0.0000 0.0000 23.7299 0.0000
# 6 0.0000 0.0000 0.0000 0.0000 0.0000 23.3901
#
#
#
# Elastic Compliance Matrix: (Units=1/GPa)
#
#
# Indices 1 2 3 4 5 6 
#
# 1 0.017412 -0.006429 -0.004295 0.000000 0.000000 0.000000
# 2 -0.006429 0.012685 -0.003998 0.000000 0.000000 0.000000
# 3 -0.004295 -0.003998 0.017128 0.000000 0.000000 0.000000
# 4 0.000000 0.000000 0.000000 0.034565 0.000000 0.000000
# 5 0.000000 0.000000 0.000000 0.000000 0.042141 0.000000
# 6 0.000000 0.000000 0.000000 0.000000 0.000000 0.042753
#
#
# Mechanical properties :
#
#
# Convention : Reuss Voigt Hill
#
# Bulk Modulus (GPa) = 56.24670 60.25879 58.25274
# Shear Modulus (GPa) = 24.74566 25.34121 25.04344
#
# Velocity S-wave (km/s) = 3.89033 3.93686 3.91366
# Velocity P-wave (km/s) = 7.38786 7.58419 7.48667
#
# Compressibility (1/GPa) = 0.01777882
#
# Stress axis : x y z
#
# Youngs Moduli (GPa) = 57.43144 78.83295 58.38530
#
# Poissons Ratio (x) = 0.50683 0.25078
# Poissons Ratio (y) = 0.36924 0.23345
# Poissons Ratio (z) = 0.24669 0.31520
#
# Static dielectric constant tensor:
#      x y z
#    x 2.931170 0.000000 0.000000 
#    y 0.000000 3.264240 0.000000 
#    z 0.000000 0.000000 3.061470 
# 
# 
# High freq. dielectric constant tensor:
#      x y z
#    x 1.596980 0.000000 0.000000 
#    y 0.000000 1.630230 0.000000 
#    z 0.000000 0.000000 1.636360 
# 
# From -- ./inp_files/5400.got.cif
#   From: 2010.03.12/outbox.cif.g09.slc.cpg/sg49_3_cif.got.tgz:5400.got - 2010.04.14 03:58:27.
