data_PCOD8202516
_publ_section_title
;
Structure prediction by ZEFSAII (Michael W. Deem and Ramdas Pophale) SiO2 
 PCOD8202516
Probable space group: P C C M
;
_chemical_formula_sum "Si O2"
_cell_formula_units_Z 56
_cell_length_a 18.945706
_cell_length_b 18.532009
_cell_length_c 8.762401
_cell_angle_alpha 90.000000
_cell_angle_beta 90.000000
_cell_angle_gamma 90.000000
_cell_volume 3076.496464
_symmetry_space_group_name_H-M "P C C M"
_symmetry_group_IT_number 49
_symmetry_cell_setting 'orthorhombic'
loop_
_space_group_symop_operation_xyz
x,y,z
-x,-y,z
x,-y,1/2-z
-x,y,1/2-z
-x,-y,-z
x,y,-z
-x,y,1/2+z
x,-y,1/2+z
loop_
_atom_site_type_symbol
_atom_site_label
_atom_site_fract_x
_atom_site_fract_y
_atom_site_fract_z
Si Si1 0.428887 0.185224 0.321384
Si Si2 0.289252 0.156432 0.175866
Si Si3 0.850418 0.076950 0.319781
Si Si4 0.924784 0.787771 0.681559
Si Si5 0.200762 0.704835 0.319727
Si Si6 0.428600 0.650448 0.179841
Si Si7 0.715087 0.422171 0.181702
O O1 0.500000 0.151373 0.250000
O O2 0.436527 0.180714 0.500000
O O3 0.360088 0.140240 0.270785
O O4 0.419468 0.267383 0.262343
O O5 0.230844 0.096547 0.217716
O O6 0.259225 0.234980 0.219447
O O7 0.309880 0.152869 0.000000
O O8 0.864050 0.078014 0.500000
O O9 0.902327 0.134040 0.243049
O O10 0.868802 0.000000 0.250000
O O11 0.927170 0.789364 0.500000
O O12 0.871908 0.725919 0.738582
O O13 0.000000 0.767137 0.750000
O O14 0.188036 0.699232 0.500000
O O15 0.225382 0.629371 0.250770
O O16 0.500000 0.616580 0.250000
O O17 0.362066 0.604182 0.236880
O O18 0.435218 0.647893 0.000000
O O19 0.729766 0.500000 0.250000
O O20 0.720997 0.422712 0.000000
#
# Coordination Sequence:
#
# PCOD8202516 Si02
#       7
#     8   8   8   8   8   8   8
#     4  10  18  29  47  72 100 133 176 225 276 325
#     4   9  18  32  52  76 104 137 177 222 268 318
#     4  10  21  37  56  84 117 150 184 218 262 316
#     4  11  22  38  61  88 117 148 180 218 260 312
#     4  10  20  36  57  81 108 140 179 225 270 320
#     4   9  19  32  47  69 100 137 179 225 275 330
#     4  11  22  36  52  76 106 143 186 229 278 329
#
# _framework density 18.202522999999999
#
# number of rings (size 3 to 8) (size 9 to 14) (size 15 to 20)
#    0.000    2.000    1.429    3.857    0.000    5.143 
#    0.000    2.857    0.000    0.857    0.000    6.000 
#    0.000    0.000    0.000    0.000    0.000    0.000 
#
# Total GULP energy -694549.201474 kJ/mol
# GULP energy per Si atom -12402.664312 kJ/mol
# Density = 1.816109 g / cm^3
# Si number density = 18.202523 Si / 1000 Ang^3
#
#
#
# Elastic Constant Matrix: (Units=GPa)
#
#
# Indices 1 2 3 4 5 6 
#
# 1 135.6710 40.3917 56.1353 0.0000 0.0000 0.0000
# 2 40.3917 70.3909 27.3522 0.0000 0.0000 0.0000
# 3 56.1353 27.3522 97.8806 0.0000 0.0000 0.0000
# 4 0.0000 0.0000 0.0000 23.2686 0.0000 0.0000
# 5 0.0000 0.0000 0.0000 0.0000 35.6635 0.0000
# 6 0.0000 0.0000 0.0000 0.0000 0.0000 16.2924
#
#
#
# Elastic Compliance Matrix: (Units=1/GPa)
#
#
# Indices 1 2 3 4 5 6 
#
# 1 0.010667 -0.004200 -0.004944 0.000000 0.000000 0.000000
# 2 -0.004200 0.017590 -0.002507 0.000000 0.000000 0.000000
# 3 -0.004944 -0.002507 0.013752 0.000000 0.000000 0.000000
# 4 0.000000 0.000000 0.000000 0.042976 0.000000 0.000000
# 5 0.000000 0.000000 0.000000 0.000000 0.028040 0.000000
# 6 0.000000 0.000000 0.000000 0.000000 0.000000 0.061378
#
#
# Mechanical properties :
#
#
# Convention : Reuss Voigt Hill
#
# Bulk Modulus (GPa) = 53.45177 61.30012 57.37594
# Shear Modulus (GPa) = 24.51686 27.04912 25.78299
#
# Velocity S-wave (km/s) = 3.67399 3.85906 3.76766
# Velocity P-wave (km/s) = 6.88668 7.32163 7.10748
#
# Compressibility (1/GPa) = 0.01870845
#
# Stress axis : x y z
#
# Youngs Moduli (GPa) = 93.75012 56.84921 72.71444
#
# Poissons Ratio (x) = 0.23875 0.35949
# Poissons Ratio (y) = 0.39372 0.18229
# Poissons Ratio (z) = 0.46348 0.14252
#
# Static dielectric constant tensor:
#      x y z
#    x 3.417680 0.000000 0.000000 
#    y 0.000000 3.139650 0.000000 
#    z 0.000000 0.000000 3.350550 
# 
# 
# High freq. dielectric constant tensor:
#      x y z
#    x 1.708600 0.000000 0.000000 
#    y 0.000000 1.675930 0.000000 
#    z 0.000000 0.000000 1.716680 
# 
# From -- ./inp_files/5203.got.cif
#   From: 2010.03.12/outbox.cif.g09.slc.cpg/sg49_3_cif.got.tgz:5203.got - 2010.04.14 03:58:27.
