data_PCOD8202675
_publ_section_title
;
Structure prediction by ZEFSAII (Michael W. Deem and Ramdas Pophale) SiO2 
 PCOD8202675
Probable space group: P C C M
;
_chemical_formula_sum "Si O2"
_cell_formula_units_Z 64
_cell_length_a 16.255276
_cell_length_b 12.296863
_cell_length_c 15.437996
_cell_angle_alpha 90.000000
_cell_angle_beta 90.000000
_cell_angle_gamma 90.000000
_cell_volume 3085.884070
_symmetry_space_group_name_H-M "P C C M"
_symmetry_group_IT_number 49
_symmetry_cell_setting 'orthorhombic'
loop_
_space_group_symop_operation_xyz
x,y,z
-x,-y,z
x,-y,1/2-z
-x,y,1/2-z
-x,-y,-z
x,y,-z
-x,y,1/2+z
x,-y,1/2+z
loop_
_atom_site_type_symbol
_atom_site_label
_atom_site_fract_x
_atom_site_fract_y
_atom_site_fract_z
Si Si1 0.645362 0.270755 0.650548
Si Si2 0.903708 0.873401 0.250000
Si Si3 0.361319 0.500000 0.397516
Si Si4 0.170186 0.735282 0.598324
Si Si5 0.500000 0.122274 0.353263
Si Si6 0.645362 0.270755 0.849452
Si Si7 0.829814 0.735282 0.401676
Si Si8 0.821278 0.500000 0.898197
O O1 0.600009 0.388243 0.639107
O O2 0.730498 0.264892 0.597654
O O3 0.582339 0.181501 0.612581
O O4 0.665972 0.246624 0.750000
O O5 0.865664 0.823968 0.162910
O O6 0.865664 0.823968 0.337090
O O7 0.000000 0.851151 0.250000
O O8 0.882016 0.000000 0.250000
O O9 0.368900 0.500000 0.500000
O O10 0.399991 0.388243 0.360893
O O11 0.269270 0.500000 0.358041
O O12 0.141229 0.761587 0.500000
O O13 0.135648 0.614690 0.628195
O O14 0.500000 0.126695 0.250000
O O15 0.417661 0.181501 0.387419
O O16 0.500000 0.000000 0.389346
O O17 0.730498 0.264892 0.902346
O O18 0.858771 0.761587 0.500000
O O19 0.864352 0.614690 0.371805
O O20 0.810071 0.500000 0.000000
#
# Coordination Sequence:
#
# PCOD8202675 Si02
#       8
#     8   8   8   8   8   8   8   8
#     4  10  18  33  57  87 116 154 198 242 295 358
#     4  11  26  45  63  88 120 158 206 251 292 348
#     4   9  17  30  50  79 116 152 191 241 294 350
#     4  10  20  39  65  93 123 157 196 244 303 363
#     4   9  20  35  51  76 114 156 200 255 303 340
#     4  10  18  33  57  87 116 154 198 242 295 358
#     4  10  20  39  65  93 123 157 196 244 303 363
#     4   7  14  30  57  90 122 150 183 233 294 359
#
# _framework density 20.739599999999999
#
# number of rings (size 3 to 8) (size 9 to 14) (size 15 to 20)
#    0.000    2.500    1.250    2.625    0.000    3.000 
#    0.000    7.500    0.000    7.500    0.000    0.000 
#    0.000    0.000    0.000    0.000    0.000    0.000 
#
# Total GULP energy -793013.215793 kJ/mol
# GULP energy per Si atom -12390.831497 kJ/mol
# Density = 2.069240 g / cm^3
# Si number density = 20.739600 Si / 1000 Ang^3
#
#
#
# Elastic Constant Matrix: (Units=GPa)
#
#
# Indices 1 2 3 4 5 6 
#
# 1 65.3199 63.7753 24.6224 0.0000 0.0000 0.0000
# 2 63.7753 188.7229 45.6317 0.0000 0.0000 0.0000
# 3 24.6224 45.6317 92.0914 0.0000 0.0000 0.0000
# 4 0.0000 0.0000 0.0000 23.2066 0.0000 0.0000
# 5 0.0000 0.0000 0.0000 0.0000 4.4907 0.0000
# 6 0.0000 0.0000 0.0000 0.0000 0.0000 -17.3881
#
#
#
# Elastic Compliance Matrix: (Units=1/GPa)
#
#
# Indices 1 2 3 4 5 6 
#
# 1 0.023406 -0.007267 -0.002657 0.000000 0.000000 0.000000
# 2 -0.007267 0.008276 -0.002158 0.000000 0.000000 0.000000
# 3 -0.002657 -0.002158 0.012638 0.000000 0.000000 0.000000
# 4 0.000000 0.000000 0.000000 0.043091 0.000000 0.000000
# 5 0.000000 0.000000 0.000000 0.000000 0.222684 0.000000
# 6 0.000000 0.000000 0.000000 0.000000 0.000000 -0.057511
#
#
# Mechanical properties :
#
#
# Convention : Reuss Voigt Hill
#
# Bulk Modulus (GPa) = 49.61189 68.24367 58.92778
# Shear Modulus (GPa) = 17.63858 16.20216 16.92037
#
# Velocity S-wave (km/s) = 2.91946 2.79806 2.85940
# Velocity P-wave (km/s) = 5.94454 6.58903 6.27507
#
# Compressibility (1/GPa) = 0.02015646
#
# Stress axis : x y z
#
# Youngs Moduli (GPa) = 42.72355 120.82584 79.12335
#
# Poissons Ratio (x) = 0.87807 0.21024
# Poissons Ratio (y) = 0.31048 0.17074
# Poissons Ratio (z) = 0.11352 0.26074
#
# Static dielectric constant tensor:
#      x y z
#    x 3.407640 0.000000 0.000000 
#    y 0.000000 4.170790 0.000000 
#    z 0.000000 0.000000 3.505800 
# 
# 
# High freq. dielectric constant tensor:
#      x y z
#    x 1.771760 0.000000 0.000000 
#    y 0.000000 1.821490 0.000000 
#    z 0.000000 0.000000 1.804170 
# 
# From -- ./inp_files/14216.got.cif
#   From: 2010.03.12/outbox.cif.g09.slc.cpg/sg49_8_cif.got.tgz:14216.got - 2010.04.14 03:58:27.
