data_PCOD8202349
_publ_section_title
;
Structure prediction by ZEFSAII (Michael W. Deem and Ramdas Pophale) SiO2 
 PCOD8202349
Probable space group: P C C M
;
_chemical_formula_sum "Si O2"
_cell_formula_units_Z 56
_cell_length_a 15.254312
_cell_length_b 24.736865
_cell_length_c 8.680449
_cell_angle_alpha 90.000000
_cell_angle_beta 90.000000
_cell_angle_gamma 90.000000
_cell_volume 3275.514103
_symmetry_space_group_name_H-M "P C C M"
_symmetry_group_IT_number 49
_symmetry_cell_setting 'orthorhombic'
loop_
_space_group_symop_operation_xyz
x,y,z
-x,-y,z
x,-y,1/2-z
-x,y,1/2-z
-x,-y,-z
x,y,-z
-x,y,1/2+z
x,-y,1/2+z
loop_
_atom_site_type_symbol
_atom_site_label
_atom_site_fract_x
_atom_site_fract_y
_atom_site_fract_z
Si Si1 0.733164 0.632195 0.823044
Si Si2 0.088151 0.239550 0.326920
Si Si3 0.593229 0.556694 0.680755
Si Si4 0.912147 0.631878 0.326931
Si Si5 0.404254 0.163104 0.318549
Si Si6 0.732067 0.240631 0.677393
Si Si7 0.402559 0.053818 0.816978
O O1 0.661698 0.603407 0.718143
O O2 0.829225 0.612208 0.771913
O O3 0.722933 0.695741 0.795732
O O4 0.718841 0.616249 0.000000
O O5 0.095879 0.216816 0.500000
O O6 0.083043 0.303818 0.328445
O O7 0.172258 0.220097 0.230179
O O8 0.000000 0.215664 0.250000
O O9 0.626394 0.500000 0.750000
O O10 0.500000 0.573715 0.750000
O O11 0.582929 0.550094 0.500000
O O12 0.903849 0.609229 0.500000
O O13 0.000000 0.607916 0.250000
O O14 0.500000 0.174852 0.250000
O O15 0.413215 0.155215 0.500000
O O16 0.342336 0.213374 0.280707
O O17 0.359249 0.109348 0.243999
O O18 0.718644 0.224774 0.500000
O O19 0.500000 0.054563 0.750000
O O20 0.354261 0.000000 0.750000
O O21 0.402575 0.051993 0.000000
#
# Coordination Sequence:
#
# PCOD8202349 Si02
#       7
#     8   8   8   8   8   8   8
#     4  10  20  34  52  74  99 127 160 196 237 284
#     4   9  16  27  44  66  92 123 158 196 236 279
#     4  11  22  38  58  77  97 121 155 198 242 283
#     4   9  16  27  45  70  98 127 158 191 230 276
#     4  11  21  33  47  65  93 129 165 200 240 285
#     4  10  20  33  48  69  98 130 162 197 237 285
#     4  10  17  28  45  65  88 117 157 200 240 280
#
# _framework density 17.096553
#
# number of rings (size 3 to 8) (size 9 to 14) (size 15 to 20)
#    0.000    2.000    0.000    7.286    0.000    5.714 
#    0.000    0.000    0.000    0.429    0.000    3.000 
#    0.000    0.571    0.000    5.714    0.000    3.714 
#
# Total GULP energy -694397.008572 kJ/mol
# GULP energy per Si atom -12399.946582 kJ/mol
# Density = 1.705764 g / cm^3
# Si number density = 17.096553 Si / 1000 Ang^3
#
#
#
# Elastic Constant Matrix: (Units=GPa)
#
#
# Indices 1 2 3 4 5 6 
#
# 1 99.4002 40.9562 43.4350 0.0000 0.0000 0.0000
# 2 40.9562 46.0511 36.3097 0.0000 0.0000 0.0000
# 3 43.4350 36.3097 146.6325 0.0000 0.0000 0.0000
# 4 0.0000 0.0000 0.0000 24.8831 0.0000 0.0000
# 5 0.0000 0.0000 0.0000 0.0000 31.9979 0.0000
# 6 0.0000 0.0000 0.0000 0.0000 0.0000 0.2237
#
#
#
# Elastic Compliance Matrix: (Units=1/GPa)
#
#
# Indices 1 2 3 4 5 6 
#
# 1 0.016149 -0.013160 -0.001525 0.000000 0.000000 0.000000
# 2 -0.013160 0.037708 -0.005439 0.000000 0.000000 0.000000
# 3 -0.001525 -0.005439 0.008618 0.000000 0.000000 0.000000
# 4 0.000000 0.000000 0.000000 0.040188 0.000000 0.000000
# 5 0.000000 0.000000 0.000000 0.000000 0.031252 0.000000
# 6 0.000000 0.000000 0.000000 0.000000 0.000000 4.469387
#
#
# Mechanical properties :
#
#
# Convention : Reuss Voigt Hill
#
# Bulk Modulus (GPa) = 44.99042 59.27615 52.13328
# Shear Modulus (GPa) = 1.07505 22.84648 11.96076
#
# Velocity S-wave (km/s) = 0.79384 3.65954 2.64787
# Velocity P-wave (km/s) = 5.21659 7.25279 6.31727
#
# Compressibility (1/GPa) = 0.02222695
#
# Stress axis : x y z
#
# Youngs Moduli (GPa) = 61.92312 26.51984 116.03211
#
# Poissons Ratio (x) = 0.34900 0.17693
# Poissons Ratio (y) = 0.81491 0.63111
# Poissons Ratio (z) = 0.09442 0.14424
#
# Static dielectric constant tensor:
#      x y z
#    x 3.133440 0.000000 0.000000 
#    y 0.000000 3.245810 0.000000 
#    z 0.000000 0.000000 3.388900 
# 
# 
# High freq. dielectric constant tensor:
#      x y z
#    x 1.645000 0.000000 0.000000 
#    y 0.000000 1.624870 0.000000 
#    z 0.000000 0.000000 1.684710 
# 
# From -- ./inp_files/4057.got.cif
#   From: 2010.03.12/outbox.cif.g09.slc.cpg/sg49_3_cif.got.tgz:4057.got - 2010.04.14 03:58:27.
