data_PCOD8202442
_publ_section_title
;
Structure prediction by ZEFSAII (Michael W. Deem and Ramdas Pophale) SiO2 
 PCOD8202442
Probable space group: P C C M
;
_chemical_formula_sum "Si O2"
_cell_formula_units_Z 56
_cell_length_a 21.366747
_cell_length_b 18.251716
_cell_length_c 9.205280
_cell_angle_alpha 90.000000
_cell_angle_beta 90.000000
_cell_angle_gamma 90.000000
_cell_volume 3589.873236
_symmetry_space_group_name_H-M "P C C M"
_symmetry_group_IT_number 49
_symmetry_cell_setting 'orthorhombic'
loop_
_space_group_symop_operation_xyz
x,y,z
-x,-y,z
x,-y,1/2-z
-x,y,1/2-z
-x,-y,-z
x,y,-z
-x,y,1/2+z
x,-y,1/2+z
loop_
_atom_site_type_symbol
_atom_site_label
_atom_site_fract_x
_atom_site_fract_y
_atom_site_fract_z
Si Si1 0.937347 0.423860 0.826661
Si Si2 0.694901 0.423420 0.828642
Si Si3 0.240769 0.211907 0.160025
Si Si4 0.632643 0.697028 0.161183
Si Si5 0.815900 0.666468 0.331863
Si Si6 0.684940 0.075729 0.327623
Si Si7 0.437011 0.161970 0.828776
O O1 0.919198 0.500000 0.750000
O O2 0.882949 0.366540 0.791599
O O3 0.000000 0.393124 0.750000
O O4 0.946530 0.435126 0.000000
O O5 0.686705 0.500000 0.750000
O O6 0.639315 0.369719 0.774458
O O7 0.762006 0.390081 0.781745
O O8 0.689086 0.434509 0.000000
O O9 0.303767 0.258053 0.152636
O O10 0.190173 0.253905 0.258202
O O11 0.259369 0.131511 0.220036
O O12 0.211171 0.204962 0.000000
O O13 0.579208 0.753751 0.213900
O O14 0.617081 0.666080 0.000000
O O15 0.808422 0.681385 0.500000
O O16 0.685439 0.065522 0.500000
O O17 0.617931 0.107449 0.276597
O O18 0.698998 0.000000 0.250000
O O19 0.500000 0.137014 0.750000
O O20 0.446434 0.155655 0.000000
#
# Coordination Sequence:
#
# PCOD8202442 Si02
#       7
#     8   8   8   8   8   8   8
#     4  10  19  30  42  59  86 120 155 187 217 251
#     4  10  18  27  41  62  84 106 134 171 214 257
#     4   8  15  28  45  62  82 109 141 173 209 251
#     4   8  15  29  44  58  79 106 134 170 211 250
#     4   9  18  29  42  62  86 111 144 181 213 248
#     4   9  18  31  45  65  91 117 141 169 206 249
#     4   9  18  31  46  63  84 110 142 173 204 245
#
# _framework density 15.599437
#
# number of rings (size 3 to 8) (size 9 to 14) (size 15 to 20)
#    0.000    3.000    0.000    3.429    0.000    3.714 
#    0.000    4.286    0.000    0.429    0.000    3.000 
#    0.000    0.571    0.000    6.286    0.000    4.571 
#
# Total GULP energy -694094.423066 kJ/mol
# GULP energy per Si atom -12394.543269 kJ/mol
# Density = 1.556393 g / cm^3
# Si number density = 15.599437 Si / 1000 Ang^3
#
#
#
# Elastic Constant Matrix: (Units=GPa)
#
#
# Indices 1 2 3 4 5 6 
#
# 1 53.3789 41.6316 25.6826 0.0000 0.0000 0.0000
# 2 41.6316 118.9262 49.2340 0.0000 0.0000 0.0000
# 3 25.6826 49.2340 57.3143 0.0000 0.0000 0.0000
# 4 0.0000 0.0000 0.0000 29.3273 0.0000 0.0000
# 5 0.0000 0.0000 0.0000 0.0000 22.0207 0.0000
# 6 0.0000 0.0000 0.0000 0.0000 0.0000 20.8688
#
#
#
# Elastic Compliance Matrix: (Units=1/GPa)
#
#
# Indices 1 2 3 4 5 6 
#
# 1 0.027120 -0.006926 -0.006203 0.000000 0.000000 0.000000
# 2 -0.006926 0.014818 -0.009625 0.000000 0.000000 0.000000
# 3 -0.006203 -0.009625 0.028496 0.000000 0.000000 0.000000
# 4 0.000000 0.000000 0.000000 0.034098 0.000000 0.000000
# 5 0.000000 0.000000 0.000000 0.000000 0.045412 0.000000
# 6 0.000000 0.000000 0.000000 0.000000 0.000000 0.047919
#
#
# Mechanical properties :
#
#
# Convention : Reuss Voigt Hill
#
# Bulk Modulus (GPa) = 40.12036 51.41287 45.76662
# Shear Modulus (GPa) = 19.86661 21.98144 20.92403
#
# Velocity S-wave (km/s) = 3.57255 3.75789 3.66639
# Velocity P-wave (km/s) = 6.54159 7.20130 6.87936
#
# Compressibility (1/GPa) = 0.02492500
#
# Stress axis : x y z
#
# Youngs Moduli (GPa) = 36.87304 67.48664 35.09307
#
# Poissons Ratio (x) = 0.46739 0.21769
# Poissons Ratio (y) = 0.25537 0.33778
# Poissons Ratio (z) = 0.22873 0.64958
#
# Static dielectric constant tensor:
#      x y z
#    x 2.878240 0.000000 0.000000 
#    y 0.000000 3.023160 0.000000 
#    z 0.000000 0.000000 3.046450 
# 
# 
# High freq. dielectric constant tensor:
#      x y z
#    x 1.566400 0.000000 0.000000 
#    y 0.000000 1.588360 0.000000 
#    z 0.000000 0.000000 1.602590 
# 
# From -- ./inp_files/5215.got.cif
#   From: 2010.03.12/outbox.cif.g09.slc.cpg/sg49_3_cif.got.tgz:5215.got - 2010.04.14 03:58:27.
