data_PCOD8202526
_publ_section_title
;
Structure prediction by ZEFSAII (Michael W. Deem and Ramdas Pophale) SiO2 
 PCOD8202526
Probable space group: P C C M
;
_chemical_formula_sum "Si O2"
_cell_formula_units_Z 64
_cell_length_a 11.880481
_cell_length_b 15.153118
_cell_length_c 16.694548
_cell_angle_alpha 90.000000
_cell_angle_beta 90.000000
_cell_angle_gamma 90.000000
_cell_volume 3005.458216
_symmetry_space_group_name_H-M "P C C M"
_symmetry_group_IT_number 49
_symmetry_cell_setting 'orthorhombic'
loop_
_space_group_symop_operation_xyz
x,y,z
-x,-y,z
x,-y,1/2-z
-x,y,1/2-z
-x,-y,-z
x,y,-z
-x,y,1/2+z
x,-y,1/2+z
loop_
_atom_site_type_symbol
_atom_site_label
_atom_site_fract_x
_atom_site_fract_y
_atom_site_fract_z
Si Si1 0.919530 0.321921 0.908842
Si Si2 0.873043 0.995637 0.905458
Si Si3 0.716990 0.839028 0.094527
Si Si4 0.166284 0.662875 0.404567
Si Si5 0.542913 0.410500 0.840384
Si Si6 0.240607 0.473710 0.591819
Si Si7 0.489486 0.783026 0.155864
Si Si8 0.248362 0.824329 0.905592
O O1 0.877266 0.422361 0.904422
O O2 0.830841 0.253359 0.869554
O O3 0.042037 0.321173 0.867189
O O4 0.934196 0.289364 0.000000
O O5 0.809745 0.084468 0.882193
O O6 0.798658 0.914795 0.869025
O O7 0.882360 0.982733 0.000000
O O8 0.000000 0.000000 0.869329
O O9 0.758096 0.743720 0.125201
O O10 0.587100 0.846653 0.121613
O O11 0.721803 0.846281 0.000000
O O12 0.156717 0.656150 0.500000
O O13 0.222277 0.572199 0.373280
O O14 0.500000 0.500000 0.885858
O O15 0.500000 0.413793 0.750000
O O16 0.677283 0.418313 0.849900
O O17 0.502611 0.317735 0.879773
O O18 0.285691 0.474612 0.500000
O O19 0.500000 0.777427 0.250000
O O20 0.369945 0.824956 0.135078
O O21 0.266679 0.812867 0.000000
#
# Coordination Sequence:
#
# PCOD8202526 Si02
#       8
#     8   8   8   8   8   8   8   8
#     4   9  16  28  49  79 112 141 172 216 273 328
#     4   9  18  34  59  89 114 139 177 225 277 329
#     4  10  20  35  56  82 111 142 181 225 269 325
#     4   9  17  29  49  80 114 143 173 221 277 324
#     4  10  21  36  52  73 101 151 191 224 267 319
#     4  10  18  29  49  81 112 138 179 227 272 325
#     4  11  23  38  55  78 109 149 187 229 277 322
#     4  10  19  34  58  84 112 146 183 226 271 328
#
# _framework density 21.294588999999998
#
# number of rings (size 3 to 8) (size 9 to 14) (size 15 to 20)
#    0.000    2.250    1.250    2.250    0.000    5.750 
#    0.000    3.125    0.000    3.750    0.000    3.500 
#    0.000    0.000    0.000    0.000    0.000    0.500 
#
# Total GULP energy -793222.296704 kJ/mol
# GULP energy per Si atom -12394.098386 kJ/mol
# Density = 2.124612 g / cm^3
# Si number density = 21.294589 Si / 1000 Ang^3
#
#
#
# Elastic Constant Matrix: (Units=GPa)
#
#
# Indices 1 2 3 4 5 6 
#
# 1 159.0213 62.8219 25.9380 0.0000 0.0000 0.0000
# 2 62.8219 143.7880 18.2051 0.0000 0.0000 0.0000
# 3 25.9380 18.2051 23.3983 0.0000 0.0000 0.0000
# 4 0.0000 0.0000 0.0000 13.7402 0.0000 0.0000
# 5 0.0000 0.0000 0.0000 0.0000 4.5978 0.0000
# 6 0.0000 0.0000 0.0000 0.0000 0.0000 37.4616
#
#
#
# Elastic Compliance Matrix: (Units=1/GPa)
#
#
# Indices 1 2 3 4 5 6 
#
# 1 0.008603 -0.002830 -0.007335 0.000000 0.000000 0.000000
# 2 -0.002830 0.008646 -0.003590 0.000000 0.000000 0.000000
# 3 -0.007335 -0.003590 0.053662 0.000000 0.000000 0.000000
# 4 0.000000 0.000000 0.000000 0.072779 0.000000 0.000000
# 5 0.000000 0.000000 0.000000 0.000000 0.217497 0.000000
# 6 0.000000 0.000000 0.000000 0.000000 0.000000 0.026694
#
#
# Mechanical properties :
#
#
# Convention : Reuss Voigt Hill
#
# Bulk Modulus (GPa) = 23.04053 60.01528 41.52790
# Shear Modulus (GPa) = 11.63180 25.77609 18.70394
#
# Velocity S-wave (km/s) = 2.33970 3.48293 2.96690
# Velocity P-wave (km/s) = 4.25938 6.66475 5.59291
#
# Compressibility (1/GPa) = 0.04340178
#
# Stress axis : x y z
#
# Youngs Moduli (GPa) = 116.24083 115.66576 18.63519
#
# Poissons Ratio (x) = 0.32733 0.13668
# Poissons Ratio (y) = 0.32896 0.06689
# Poissons Ratio (z) = 0.85259 0.41519
#
# Static dielectric constant tensor:
#      x y z
#    x 4.084830 0.000000 0.000000 
#    y 0.000000 4.154810 0.000000 
#    z 0.000000 0.000000 3.173930 
# 
# 
# High freq. dielectric constant tensor:
#      x y z
#    x 1.851110 0.000000 0.000000 
#    y 0.000000 1.844130 0.000000 
#    z 0.000000 0.000000 1.769900 
# 
# From -- ./inp_files/17350.got.cif
#   From: 2010.03.12/outbox.cif.g09.slc.cpg/sg49_9_cif.got.tgz:17350.got - 2010.04.14 03:58:27.
