data_PCOD8202513
_publ_section_title
;
Structure prediction by ZEFSAII (Michael W. Deem and Ramdas Pophale) SiO2 
 PCOD8202513
Probable space group: P C C M
;
_chemical_formula_sum "Si O2"
_cell_formula_units_Z 64
_cell_length_a 23.557214
_cell_length_b 18.824953
_cell_length_c 9.072869
_cell_angle_alpha 90.000000
_cell_angle_beta 90.000000
_cell_angle_gamma 90.000000
_cell_volume 4023.485755
_symmetry_space_group_name_H-M "P C C M"
_symmetry_group_IT_number 49
_symmetry_cell_setting 'orthorhombic'
loop_
_space_group_symop_operation_xyz
x,y,z
-x,-y,z
x,-y,1/2-z
-x,y,1/2-z
-x,-y,-z
x,y,-z
-x,y,1/2+z
x,-y,1/2+z
loop_
_atom_site_type_symbol
_atom_site_label
_atom_site_fract_x
_atom_site_fract_y
_atom_site_fract_z
Si Si1 0.251036 0.428400 0.172833
Si Si2 0.828565 0.851358 0.330782
Si Si3 0.730668 0.070529 0.669429
Si Si4 0.442443 0.712479 0.671211
Si Si5 0.056979 0.073895 0.673424
Si Si6 0.617104 0.570379 0.827875
Si Si7 0.231836 0.710211 0.828269
Si Si8 0.330178 0.212378 0.831334
O O1 0.228568 0.500000 0.250000
O O2 0.317143 0.416790 0.211054
O O3 0.216836 0.361490 0.239668
O O4 0.239313 0.433789 0.000000
O O5 0.812575 0.867213 0.500000
O O6 0.790455 0.902636 0.231942
O O7 0.894205 0.868007 0.298551
O O8 0.816899 0.768601 0.293884
O O9 0.740644 0.052471 0.500000
O O10 0.681772 0.129227 0.692643
O O11 0.709396 0.000000 0.750000
O O12 0.500000 0.734800 0.750000
O O13 0.455568 0.706297 0.500000
O O14 0.418737 0.637253 0.730984
O O15 0.396017 0.773419 0.704294
O O16 0.046774 0.061091 0.500000
O O17 0.000000 0.103694 0.750000
O O18 0.074621 0.000000 0.750000
O O19 0.593375 0.500000 0.750000
O O20 0.609105 0.559688 0.000000
O O21 0.292103 0.740942 0.776680
O O22 0.235696 0.691857 0.000000
O O23 0.316200 0.235740 0.000000
#
# Coordination Sequence:
#
# PCOD8202513 Si02
#       8
#     8   8   8   8   8   8   8   8
#     4  10  18  30  46  66  92 123 154 185 225 272
#     4   9  19  32  46  68  98 126 157 194 228 267
#     4  10  19  30  49  71  92 118 146 183 229 275
#     4  10  20  34  48  64  85 111 145 184 222 266
#     4  10  19  31  46  65  93 130 167 200 229 263
#     4   9  18  31  46  62  86 114 143 179 214 257
#     4  10  18  29  47  70  93 119 151 189 230 271
#     4   9  18  34  49  63  88 118 145 178 225 276
#
# _framework density 15.906604
#
# number of rings (size 3 to 8) (size 9 to 14) (size 15 to 20)
#    0.000    2.375    1.250    2.250    0.000    4.750 
#    0.000    1.250    0.000    0.375    0.000    2.625 
#    0.000    0.500    0.000    5.750    0.000    1.750 
#
# Total GULP energy -793635.664577 kJ/mol
# GULP energy per Si atom -12400.557259 kJ/mol
# Density = 1.587040 g / cm^3
# Si number density = 15.906604 Si / 1000 Ang^3
#
#
#
# Elastic Constant Matrix: (Units=GPa)
#
#
# Indices 1 2 3 4 5 6 
#
# 1 88.4184 55.4837 40.0060 0.0000 0.0000 0.0000
# 2 55.4837 118.0065 59.3414 0.0000 0.0000 0.0000
# 3 40.0060 59.3414 83.4535 0.0000 0.0000 0.0000
# 4 0.0000 0.0000 0.0000 28.5405 0.0000 0.0000
# 5 0.0000 0.0000 0.0000 0.0000 20.8928 0.0000
# 6 0.0000 0.0000 0.0000 0.0000 0.0000 23.5752
#
#
#
# Elastic Compliance Matrix: (Units=1/GPa)
#
#
# Indices 1 2 3 4 5 6 
#
# 1 0.016779 -0.005984 -0.003789 0.000000 0.000000 0.000000
# 2 -0.005984 0.015325 -0.008028 0.000000 0.000000 0.000000
# 3 -0.003789 -0.008028 0.019508 0.000000 0.000000 0.000000
# 4 0.000000 0.000000 0.000000 0.035038 0.000000 0.000000
# 5 0.000000 0.000000 0.000000 0.000000 0.047863 0.000000
# 6 0.000000 0.000000 0.000000 0.000000 0.000000 0.042417
#
#
# Mechanical properties :
#
#
# Convention : Reuss Voigt Hill
#
# Bulk Modulus (GPa) = 62.46226 66.61561 64.53893
# Shear Modulus (GPa) = 22.94959 23.60486 23.27723
#
# Velocity S-wave (km/s) = 3.80250 3.85641 3.82955
# Velocity P-wave (km/s) = 7.65716 7.86125 7.75988
#
# Compressibility (1/GPa) = 0.01600967
#
# Stress axis : x y z
#
# Youngs Moduli (GPa) = 59.59809 65.25337 51.26190
#
# Poissons Ratio (x) = 0.39048 0.19421
# Poissons Ratio (y) = 0.35663 0.41155
# Poissons Ratio (z) = 0.22579 0.52388
#
# Static dielectric constant tensor:
#      x y z
#    x 2.803900 0.000000 0.000000 
#    y 0.000000 3.134390 0.000000 
#    z 0.000000 0.000000 3.098430 
# 
# 
# High freq. dielectric constant tensor:
#      x y z
#    x 1.574840 0.000000 0.000000 
#    y 0.000000 1.609800 0.000000 
#    z 0.000000 0.000000 1.622280 
# 
# From -- ./inp_files/6617.got.cif
#   From: 2010.03.12/outbox.cif.g09.slc.cpg/sg49_4_cif.got.tgz:6617.got - 2010.04.14 03:58:27.
