data_PCOD8202798
_publ_section_title
;
Structure prediction by ZEFSAII (Michael W. Deem and Ramdas Pophale) SiO2 
 PCOD8202798
Probable space group: P C C M
;
_chemical_formula_sum "Si O2"
_cell_formula_units_Z 56
_cell_length_a 32.262925
_cell_length_b 5.089822
_cell_length_c 18.014951
_cell_angle_alpha 90.000000
_cell_angle_beta 90.000000
_cell_angle_gamma 90.000000
_cell_volume 2958.280960
_symmetry_space_group_name_H-M "P C C M"
_symmetry_group_IT_number 49
_symmetry_cell_setting 'orthorhombic'
loop_
_space_group_symop_operation_xyz
x,y,z
-x,-y,z
x,-y,1/2-z
-x,y,1/2-z
-x,-y,-z
x,y,-z
-x,y,1/2+z
x,-y,1/2+z
loop_
_atom_site_type_symbol
_atom_site_label
_atom_site_fract_x
_atom_site_fract_y
_atom_site_fract_z
Si Si1 0.309899 0.749646 0.798750
Si Si2 0.473220 0.245732 0.413875
Si Si3 0.097135 0.008891 0.585722
Si Si4 0.182643 0.020097 0.161637
Si Si5 0.598752 0.242594 0.800019
Si Si6 0.770711 0.472735 0.838232
Si Si7 0.954353 0.505723 0.585642
O O1 0.320471 0.500000 0.750000
O O2 0.354816 0.819166 0.833154
O O3 0.275104 0.646687 0.858162
O O4 0.292858 0.000000 0.750000
O O5 0.500000 0.500000 0.396752
O O6 0.461770 0.217734 0.500000
O O7 0.430199 0.267093 0.371046
O O8 0.500000 0.000000 0.385795
O O9 0.110158 0.045867 0.500000
O O10 0.137126 0.922461 0.631893
O O11 0.064075 0.780357 0.596216
O O12 0.076154 0.272296 0.619969
O O13 0.215110 0.242817 0.131173
O O14 0.181645 0.000000 0.250000
O O15 0.196768 0.738516 0.130118
O O16 0.595665 0.500000 0.750000
O O17 0.584104 0.000000 0.750000
O O18 0.771425 0.500000 0.750000
O O19 0.959585 0.586841 0.500000
O O20 0.000000 0.500000 0.623343
#
# Coordination Sequence:
#
# PCOD8202798 Si02
#       7
#     8   8   8   8   8   8   8
#     4   9  16  28  46  71  98 121 154 200 243 280
#     4  10  21  36  52  71 100 138 172 202 245 305
#     4  10  19  31  48  69  93 119 147 188 235 271
#     4  10  19  30  47  69  93 122 155 187 222 269
#     4  10  20  32  51  78 102 126 162 213 261 294
#     4   9  16  28  46  68  92 122 156 188 223 271
#     4   9  17  30  49  70  89 115 154 191 224 271
#
# _framework density 18.929912999999999
#
# number of rings (size 3 to 8) (size 9 to 14) (size 15 to 20)
#    0.000    2.429    0.000    4.286    0.000    3.429 
#    0.000    0.000    0.000    4.286    0.000    0.000 
#    0.000    4.571    0.000    0.000    0.000    0.000 
#
# Total GULP energy -693861.544162 kJ/mol
# GULP energy per Si atom -12390.384717 kJ/mol
# Density = 1.888683 g / cm^3
# Si number density = 18.929913 Si / 1000 Ang^3
#
#
#
# Elastic Constant Matrix: (Units=GPa)
#
#
# Indices 1 2 3 4 5 6 
#
# 1 134.0730 32.5473 36.7580 0.0000 0.0000 0.0000
# 2 32.5473 122.0303 21.7313 0.0000 0.0000 0.0000
# 3 36.7580 21.7313 26.2456 0.0000 0.0000 0.0000
# 4 0.0000 0.0000 0.0000 25.3437 0.0000 0.0000
# 5 0.0000 0.0000 0.0000 0.0000 9.2075 0.0000
# 6 0.0000 0.0000 0.0000 0.0000 0.0000 36.1436
#
#
#
# Elastic Compliance Matrix: (Units=1/GPa)
#
#
# Indices 1 2 3 4 5 6 
#
# 1 0.012114 -0.000246 -0.016763 0.000000 0.000000 0.000000
# 2 -0.000246 0.009617 -0.007618 0.000000 0.000000 0.000000
# 3 -0.016763 -0.007618 0.067886 0.000000 0.000000 0.000000
# 4 0.000000 0.000000 0.000000 0.039457 0.000000 0.000000
# 5 0.000000 0.000000 0.000000 0.000000 0.108607 0.000000
# 6 0.000000 0.000000 0.000000 0.000000 0.000000 0.027667
#
#
# Mechanical properties :
#
#
# Convention : Reuss Voigt Hill
#
# Bulk Modulus (GPa) = 24.77488 51.60245 38.18866
# Shear Modulus (GPa) = 15.24124 26.89312 21.06718
#
# Velocity S-wave (km/s) = 2.84058 3.77326 3.33964
# Velocity P-wave (km/s) = 4.88617 6.80458 5.92355
#
# Compressibility (1/GPa) = 0.04036346
#
# Stress axis : x y z
#
# Youngs Moduli (GPa) = 82.54921 103.98289 14.73054
#
# Poissons Ratio (x) = 0.02557 0.24692
# Poissons Ratio (y) = 0.02030 0.11222
# Poissons Ratio (z) = 1.38373 0.79219
#
# Static dielectric constant tensor:
#      x y z
#    x 3.779670 0.000000 0.000000 
#    y 0.000000 3.680550 0.000000 
#    z 0.000000 0.000000 2.874950 
# 
# 
# High freq. dielectric constant tensor:
#      x y z
#    x 1.753350 0.000000 0.000000 
#    y 0.000000 1.763720 0.000000 
#    z 0.000000 0.000000 1.658950 
# 
# From -- ./inp_files/14621.got.cif
#   From: 2010.03.12/outbox.cif.g09.slc.cpg/sg49_8_cif.got.tgz:14621.got - 2010.04.14 03:58:27.
