data_PCOD8202099
_publ_section_title
;
Structure prediction by ZEFSAII (Michael W. Deem and Ramdas Pophale) SiO2 
 PCOD8202099
Probable space group: P N N N
;
_chemical_formula_sum "Si O2"
_cell_formula_units_Z 24
_cell_length_a 4.837872
_cell_length_b 25.569720
_cell_length_c 8.884086
_cell_angle_alpha 90.000000
_cell_angle_beta 90.000000
_cell_angle_gamma 90.000000
_cell_volume 1098.988379
_symmetry_space_group_name_H-M "P N N N"
_symmetry_group_IT_number 48
_space_group.IT_coordinate_system_code '2'
_symmetry_cell_setting 'orthorhombic'
loop_
_space_group_symop_operation_xyz
x,y,z
1/2-x,1/2-y,z
x,1/2-y,1/2-z
1/2-x,y,1/2-z
-x,-y,-z
1/2+x,1/2+y,-z
-x,1/2+y,1/2+z
1/2+x,-y,1/2+z
loop_
_atom_site_type_symbol
_atom_site_label
_atom_site_fract_x
_atom_site_fract_y
_atom_site_fract_z
Si Si1 0.286327 0.310770 0.922971
Si Si2 0.524419 0.465783 0.147520
Si Si3 0.277565 0.646850 0.585034
O O1 0.250000 0.250000 0.955866
O O2 0.250000 0.325684 0.750000
O O3 0.601820 0.321642 0.963759
O O4 0.092498 0.347951 0.026563
O O5 0.250000 0.457224 0.250000
O O6 0.666237 0.412014 0.094813
O O7 0.750000 0.495677 0.250000
O O8 0.500000 0.500000 0.000000
O O9 0.250000 0.672996 0.750000
#
# Coordination Sequence:
#
# PCOD8202099 Si02
#       3
#     8   8   8
#     4  11  24  41  62  91 125 162 208 259 313 377
#     4  11  24  43  65  94 129 167 214 264 316 380
#     4  11  23  41  63  91 125 162 207 260 313 373
#
# _framework density 21.838266000000001
#
# number of rings (size 3 to 8) (size 9 to 14) (size 15 to 20)
#    0.000    1.000    0.000    8.000    0.000   10.667 
#    0.000    0.000    0.000    0.000    0.000    0.000 
#    0.000    0.000    0.000    0.000    0.000    0.000 
#
# Total GULP energy -297499.455668 kJ/mol
# GULP energy per Si atom -12395.810653 kJ/mol
# Density = 2.178856 g / cm^3
# Si number density = 21.838266 Si / 1000 Ang^3
#
#
#
# Elastic Constant Matrix: (Units=GPa)
#
#
# Indices 1 2 3 4 5 6 
#
# 1 97.7286 20.6773 34.7540 0.0000 0.0000 0.0000
# 2 20.6773 75.0402 51.0188 0.0000 0.0000 0.0000
# 3 34.7540 51.0188 152.3648 0.0000 0.0000 0.0000
# 4 0.0000 0.0000 0.0000 32.3946 0.0000 0.0000
# 5 0.0000 0.0000 0.0000 0.0000 52.1818 0.0000
# 6 0.0000 0.0000 0.0000 0.0000 0.0000 27.0275
#
#
#
# Elastic Compliance Matrix: (Units=1/GPa)
#
#
# Indices 1 2 3 4 5 6 
#
# 1 0.011313 -0.001765 -0.001990 0.000000 0.000000 0.000000
# 2 -0.001765 0.017530 -0.005467 0.000000 0.000000 0.000000
# 3 -0.001990 -0.005467 0.008848 0.000000 0.000000 0.000000
# 4 0.000000 0.000000 0.000000 0.030869 0.000000 0.000000
# 5 0.000000 0.000000 0.000000 0.000000 0.019164 0.000000
# 6 0.000000 0.000000 0.000000 0.000000 0.000000 0.036999
#
#
# Mechanical properties :
#
#
# Convention : Reuss Voigt Hill
#
# Bulk Modulus (GPa) = 51.95460 59.78153 55.86806
# Shear Modulus (GPa) = 33.42650 36.89966 35.16308
#
# Velocity S-wave (km/s) = 3.91658 4.11503 4.01703
# Velocity P-wave (km/s) = 6.65546 7.07192 6.86685
#
# Compressibility (1/GPa) = 0.01924757
#
# Stress axis : x y z
#
# Youngs Moduli (GPa) = 88.39123 57.04664 113.02371
#
# Poissons Ratio (x) = 0.10067 0.22488
# Poissons Ratio (y) = 0.15598 0.61792
# Poissons Ratio (z) = 0.17587 0.31188
#
# Static dielectric constant tensor:
#      x y z
#    x 4.449900 0.000000 0.000000 
#    y 0.000000 3.669090 0.000000 
#    z 0.000000 0.000000 4.280940 
# 
# 
# High freq. dielectric constant tensor:
#      x y z
#    x 1.879940 0.000000 0.000000 
#    y 0.000000 1.845290 0.000000 
#    z 0.000000 0.000000 1.879620 
# 
# From -- ./inp_files/693.got.cif
#   From: 2010.06.25/outbox.cif.g09.slc.cpg/sg48_1_cif.got.tgz:693.got - 2010.06.26 18:06:46.
