data_PCOD8202966
_publ_section_title
;
Structure prediction by ZEFSAII (Michael W. Deem and Ramdas Pophale) SiO2 
 PCOD8202966
Probable space group: P C C M
;
_chemical_formula_sum "Si O2"
_cell_formula_units_Z 56
_cell_length_a 14.918933
_cell_length_b 22.720382
_cell_length_c 8.679709
_cell_angle_alpha 90.000000
_cell_angle_beta 90.000000
_cell_angle_gamma 90.000000
_cell_volume 2942.107638
_symmetry_space_group_name_H-M "P C C M"
_symmetry_group_IT_number 49
_symmetry_cell_setting 'orthorhombic'
loop_
_space_group_symop_operation_xyz
x,y,z
-x,-y,z
x,-y,1/2-z
-x,y,1/2-z
-x,-y,-z
x,y,-z
-x,y,1/2+z
x,-y,1/2+z
loop_
_atom_site_type_symbol
_atom_site_label
_atom_site_fract_x
_atom_site_fract_y
_atom_site_fract_z
Si Si1 0.774567 0.939962 0.182275
Si Si2 0.906497 0.846516 0.317698
Si Si3 0.407712 0.233256 0.681354
Si Si4 0.596042 0.562970 0.316380
Si Si5 0.278003 0.332694 0.682980
Si Si6 0.092170 0.288489 0.318508
Si Si7 0.405454 0.900994 0.182919
O O1 0.825723 0.883769 0.248665
O O2 0.671738 0.938576 0.237003
O O3 0.817579 0.000000 0.250000
O O4 0.781461 0.940404 0.000000
O O5 0.906438 0.853619 0.500000
O O6 0.892162 0.778929 0.266358
O O7 0.000000 0.870452 0.250000
O O8 0.500000 0.257247 0.750000
O O9 0.415296 0.237832 0.500000
O O10 0.329167 0.274926 0.745570
O O11 0.389096 0.166613 0.732830
O O12 0.624505 0.500000 0.250000
O O13 0.500000 0.582946 0.250000
O O14 0.589101 0.560071 0.500000
O O15 0.672313 0.608460 0.258877
O O16 0.278778 0.331561 0.500000
O O17 0.175231 0.328394 0.742382
O O18 0.084502 0.291861 0.500000
O O19 0.000000 0.314053 0.250000
O O20 0.500000 0.923350 0.250000
O O21 0.402881 0.909690 0.000000
#
# Coordination Sequence:
#
# PCOD8202966 Si02
#       7
#     8   8   8   8   8   8   8
#     4  12  25  40  57  78 103 134 175 218 260 309
#     4  10  20  37  60  84 110 138 167 206 258 316
#     4   9  17  30  49  74 103 132 163 201 250 306
#     4  10  19  32  50  72 103 141 180 217 255 298
#     4   9  17  30  50  74 102 138 172 207 254 305
#     4   9  18  34  55  79 106 134 167 207 255 308
#     4  10  20  36  56  78 105 137 171 211 260 314
#
# _framework density 19.033973
#
# number of rings (size 3 to 8) (size 9 to 14) (size 15 to 20)
#    0.000    2.143    0.000    4.286    0.000    4.000 
#    0.000    5.714    0.000    0.429    0.000    3.000 
#    0.000    0.000    0.000    0.000    0.000    0.000 
#
# Total GULP energy -694413.077268 kJ/mol
# GULP energy per Si atom -12400.233523 kJ/mol
# Density = 1.899065 g / cm^3
# Si number density = 19.033973 Si / 1000 Ang^3
#
#
#
# Elastic Constant Matrix: (Units=GPa)
#
#
# Indices 1 2 3 4 5 6 
#
# 1 140.9765 56.2059 29.4628 0.0000 0.0000 0.0000
# 2 56.2059 78.2064 25.3413 0.0000 0.0000 0.0000
# 3 29.4628 25.3413 67.1435 0.0000 0.0000 0.0000
# 4 0.0000 0.0000 0.0000 18.9539 0.0000 0.0000
# 5 0.0000 0.0000 0.0000 0.0000 32.9611 0.0000
# 6 0.0000 0.0000 0.0000 0.0000 0.0000 25.9966
#
#
#
# Elastic Compliance Matrix: (Units=1/GPa)
#
#
# Indices 1 2 3 4 5 6 
#
# 1 0.010159 -0.006673 -0.001939 0.000000 0.000000 0.000000
# 2 -0.006673 0.018951 -0.004225 0.000000 0.000000 0.000000
# 3 -0.001939 -0.004225 0.017339 0.000000 0.000000 0.000000
# 4 0.000000 0.000000 0.000000 0.052760 0.000000 0.000000
# 5 0.000000 0.000000 0.000000 0.000000 0.030339 0.000000
# 6 0.000000 0.000000 0.000000 0.000000 0.000000 0.038467
#
#
# Mechanical properties :
#
#
# Convention : Reuss Voigt Hill
#
# Bulk Modulus (GPa) = 48.13294 56.48293 52.30793
# Shear Modulus (GPa) = 24.92365 27.27008 26.09687
#
# Velocity S-wave (km/s) = 3.62253 3.78922 3.70681
# Velocity P-wave (km/s) = 6.54521 6.99167 6.77212
#
# Compressibility (1/GPa) = 0.02077579
#
# Stress axis : x y z
#
# Youngs Moduli (GPa) = 98.43439 52.76724 57.67378
#
# Poissons Ratio (x) = 0.35210 0.11185
# Poissons Ratio (y) = 0.65683 0.24364
# Poissons Ratio (z) = 0.19090 0.22292
#
# Static dielectric constant tensor:
#      x y z
#    x 3.594950 0.000000 0.000000 
#    y 0.000000 3.542220 0.000000 
#    z 0.000000 0.000000 3.360760 
# 
# 
# High freq. dielectric constant tensor:
#      x y z
#    x 1.744540 0.000000 0.000000 
#    y 0.000000 1.726410 0.000000 
#    z 0.000000 0.000000 1.731240 
# 
# From -- ./inp_files/4095.got.cif
#   From: 2010.03.12/outbox.cif.g09.slc.cpg/sg49_3_cif.got.tgz:4095.got - 2010.04.14 03:58:27.
