data_PCOD8202756
_publ_section_title
;
Structure prediction by ZEFSAII (Michael W. Deem and Ramdas Pophale) SiO2 
 PCOD8202756
Probable space group: P C C M
;
_chemical_formula_sum "Si O2"
_cell_formula_units_Z 64
_cell_length_a 18.893813
_cell_length_b 23.457692
_cell_length_c 8.738711
_cell_angle_alpha 90.000000
_cell_angle_beta 90.000000
_cell_angle_gamma 90.000000
_cell_volume 3873.042559
_symmetry_space_group_name_H-M "P C C M"
_symmetry_group_IT_number 49
_symmetry_cell_setting 'orthorhombic'
loop_
_space_group_symop_operation_xyz
x,y,z
-x,-y,z
x,-y,1/2-z
-x,y,1/2-z
-x,-y,-z
x,y,-z
-x,y,1/2+z
x,-y,1/2+z
loop_
_atom_site_type_symbol
_atom_site_label
_atom_site_fract_x
_atom_site_fract_y
_atom_site_fract_z
Si Si1 0.850601 0.664114 0.320833
Si Si2 0.571818 0.247046 0.678615
Si Si3 0.075333 0.439471 0.181647
Si Si4 0.198414 0.165778 0.678074
Si Si5 0.710651 0.727409 0.324127
Si Si6 0.074954 0.772629 0.319265
Si Si7 0.573014 0.116871 0.680977
Si Si8 0.291678 0.940573 0.820744
O O1 0.866801 0.656769 0.500000
O O2 0.866048 0.606206 0.230483
O O3 0.768113 0.678187 0.291562
O O4 0.899962 0.714064 0.257463
O O5 0.500000 0.272558 0.750000
O O6 0.562961 0.250472 0.500000
O O7 0.639432 0.284531 0.728855
O O8 0.583581 0.182129 0.735678
O O9 0.098732 0.500000 0.250000
O O10 0.000000 0.420250 0.250000
O O11 0.069580 0.443846 0.000000
O O12 0.179003 0.174308 0.500000
O O13 0.257154 0.211953 0.726984
O O14 0.128374 0.175917 0.778422
O O15 0.228601 0.103558 0.714487
O O16 0.688537 0.729004 0.500000
O O17 0.070000 0.764225 0.500000
O O18 0.000000 0.790204 0.250000
O O19 0.500000 0.092795 0.750000
O O20 0.570607 0.111931 0.500000
O O21 0.635838 0.078455 0.743419
O O22 0.266372 0.000000 0.750000
O O23 0.305235 0.946317 0.000000
#
# Coordination Sequence:
#
# PCOD8202756 Si02
#       8
#     8   8   8   8   8   8   8   8
#     4  10  20  34  50  73 104 136 169 207 247 288
#     4  10  19  29  46  69  96 127 161 197 237 290
#     4  11  21  34  51  72 101 140 180 216 249 289
#     4   9  19  35  52  70  95 124 153 191 240 292
#     4   9  17  31  50  70  96 127 160 198 245 290
#     4  11  21  33  52  76 101 127 158 197 241 290
#     4  10  20  33  49  70  94 124 159 197 237 284
#     4  11  22  36  53  71  94 122 155 196 239 289
#
# _framework density 16.524476
#
# number of rings (size 3 to 8) (size 9 to 14) (size 15 to 20)
#    0.000    1.875    1.250    5.250    0.000    4.750 
#    0.000    1.250    0.000    0.375    0.000    2.625 
#    0.000    0.500    0.000    5.250    0.000    2.250 
#
# Total GULP energy -793792.431779 kJ/mol
# GULP energy per Si atom -12403.006747 kJ/mol
# Density = 1.648687 g / cm^3
# Si number density = 16.524476 Si / 1000 Ang^3
#
#
#
# Elastic Constant Matrix: (Units=GPa)
#
#
# Indices 1 2 3 4 5 6 
#
# 1 116.4173 46.0695 50.9969 0.0000 0.0000 0.0000
# 2 46.0695 75.9359 38.5220 0.0000 0.0000 0.0000
# 3 50.9969 38.5220 101.6252 0.0000 0.0000 0.0000
# 4 0.0000 0.0000 0.0000 21.8385 0.0000 0.0000
# 5 0.0000 0.0000 0.0000 0.0000 30.8631 0.0000
# 6 0.0000 0.0000 0.0000 0.0000 0.0000 20.7721
#
#
#
# Elastic Compliance Matrix: (Units=1/GPa)
#
#
# Indices 1 2 3 4 5 6 
#
# 1 0.012631 -0.005507 -0.004251 0.000000 0.000000 0.000000
# 2 -0.005507 0.018705 -0.004327 0.000000 0.000000 0.000000
# 3 -0.004251 -0.004327 0.013614 0.000000 0.000000 0.000000
# 4 0.000000 0.000000 0.000000 0.045791 0.000000 0.000000
# 5 0.000000 0.000000 0.000000 0.000000 0.032401 0.000000
# 6 0.000000 0.000000 0.000000 0.000000 0.000000 0.048142
#
#
# Mechanical properties :
#
#
# Convention : Reuss Voigt Hill
#
# Bulk Modulus (GPa) = 59.59439 62.79505 61.19472
# Shear Modulus (GPa) = 24.38481 25.25407 24.81944
#
# Velocity S-wave (km/s) = 3.84562 3.91357 3.87974
# Velocity P-wave (km/s) = 7.47402 7.64886 7.56195
#
# Compressibility (1/GPa) = 0.01678010
#
# Stress axis : x y z
#
# Youngs Moduli (GPa) = 79.16961 53.46215 73.45625
#
# Poissons Ratio (x) = 0.29439 0.31227
# Poissons Ratio (y) = 0.43595 0.31784
# Poissons Ratio (z) = 0.33656 0.23133
#
# Static dielectric constant tensor:
#      x y z
#    x 3.152330 0.000000 0.000000 
#    y 0.000000 2.948450 0.000000 
#    z 0.000000 0.000000 3.177690 
# 
# 
# High freq. dielectric constant tensor:
#      x y z
#    x 1.633750 0.000000 0.000000 
#    y 0.000000 1.602320 0.000000 
#    z 0.000000 0.000000 1.651990 
# 
# From -- ./inp_files/5285.got.cif
#   From: 2010.03.12/outbox.cif.g09.slc.cpg/sg49_3_cif.got.tgz:5285.got - 2010.04.14 03:58:27.
