data_PCOD8202432
_publ_section_title
;
Structure prediction by ZEFSAII (Michael W. Deem and Ramdas Pophale) SiO2 
 PCOD8202432
Probable space group: P C C M
;
_chemical_formula_sum "Si O2"
_cell_formula_units_Z 64
_cell_length_a 26.899384
_cell_length_b 18.130015
_cell_length_c 9.330769
_cell_angle_alpha 90.000000
_cell_angle_beta 90.000000
_cell_angle_gamma 90.000000
_cell_volume 4550.487607
_symmetry_space_group_name_H-M "P C C M"
_symmetry_group_IT_number 49
_symmetry_cell_setting 'orthorhombic'
loop_
_space_group_symop_operation_xyz
x,y,z
-x,-y,z
x,-y,1/2-z
-x,y,1/2-z
-x,-y,-z
x,y,-z
-x,y,1/2+z
x,-y,1/2+z
loop_
_atom_site_type_symbol
_atom_site_label
_atom_site_fract_x
_atom_site_fract_y
_atom_site_fract_z
Si Si1 0.754689 0.170725 0.665395
Si Si2 0.342824 0.923803 0.332877
Si Si3 0.549565 0.334516 0.168584
Si Si4 0.845799 0.075787 0.333890
Si Si5 0.293546 0.711586 0.158021
Si Si6 0.354452 0.424547 0.330462
Si Si7 0.955541 0.077319 0.667676
Si Si8 0.392915 0.806063 0.840988
O O1 0.759074 0.189768 0.500000
O O2 0.709956 0.114430 0.696209
O O3 0.805383 0.134011 0.723830
O O4 0.747067 0.249413 0.741736
O O5 0.352510 0.937473 0.500000
O O6 0.387404 0.872851 0.271500
O O7 0.342917 0.000000 0.250000
O O8 0.500000 0.358202 0.250000
O O9 0.592749 0.390553 0.217764
O O10 0.563954 0.250155 0.209693
O O11 0.540571 0.340769 0.000000
O O12 0.835795 0.057293 0.500000
O O13 0.900651 0.112618 0.314069
O O14 0.839679 0.000000 0.250000
O O15 0.309696 0.630860 0.214706
O O16 0.342618 0.760327 0.150943
O O17 0.269984 0.705112 0.000000
O O18 0.344475 0.500000 0.250000
O O19 0.353996 0.437291 0.500000
O O20 0.968794 0.067814 0.500000
O O21 0.000000 0.122804 0.750000
O O22 0.952840 0.000000 0.750000
O O23 0.404727 0.837745 0.000000
#
# Coordination Sequence:
#
# PCOD8202432 Si02
#       8
#     8   8   8   8   8   8   8   8
#     4   9  17  27  38  55  77  99 126 157 190 229
#     4  10  18  26  39  58  77  97 122 153 188 226
#     4   9  18  31  46  63  82 103 125 150 181 217
#     4   9  17  26  35  50  73  99 128 165 204 237
#     4   8  15  28  43  57  75 100 127 152 180 217
#     4   9  18  31  45  63  85 106 128 152 178 210
#     4   9  15  23  34  46  63  90 125 164 202 236
#     4   8  15  29  44  56  74  99 124 150 181 218
#
# _framework density 14.064427
#
# number of rings (size 3 to 8) (size 9 to 14) (size 15 to 20)
#    0.000    3.125    0.000    3.000    0.000    3.250 
#    0.000    3.750    0.000    0.375    0.000    2.625 
#    0.000    0.000    0.000    0.000    0.000    0.625 
#
# Total GULP energy -793070.748321 kJ/mol
# GULP energy per Si atom -12391.730443 kJ/mol
# Density = 1.403242 g / cm^3
# Si number density = 14.064427 Si / 1000 Ang^3
#
#
#
# Elastic Constant Matrix: (Units=GPa)
#
#
# Indices 1 2 3 4 5 6 
#
# 1 66.7157 45.5392 31.8191 0.0000 0.0000 0.0000
# 2 45.5392 88.3002 49.9999 0.0000 0.0000 0.0000
# 3 31.8191 49.9999 65.2387 0.0000 0.0000 0.0000
# 4 0.0000 0.0000 0.0000 23.5060 0.0000 0.0000
# 5 0.0000 0.0000 0.0000 0.0000 19.4113 0.0000
# 6 0.0000 0.0000 0.0000 0.0000 0.0000 11.3952
#
#
#
# Elastic Compliance Matrix: (Units=1/GPa)
#
#
# Indices 1 2 3 4 5 6 
#
# 1 0.023672 -0.010019 -0.003867 0.000000 0.000000 0.000000
# 2 -0.010019 0.024248 -0.013698 0.000000 0.000000 0.000000
# 3 -0.003867 -0.013698 0.027713 0.000000 0.000000 0.000000
# 4 0.000000 0.000000 0.000000 0.042542 0.000000 0.000000
# 5 0.000000 0.000000 0.000000 0.000000 0.051517 0.000000
# 6 0.000000 0.000000 0.000000 0.000000 0.000000 0.087756
#
#
# Mechanical properties :
#
#
# Convention : Reuss Voigt Hill
#
# Bulk Modulus (GPa) = 48.86229 52.77455 50.81842
# Shear Modulus (GPa) = 15.65255 17.05560 16.35407
#
# Velocity S-wave (km/s) = 3.33966 3.48613 3.41368
# Velocity P-wave (km/s) = 7.04899 7.33546 7.19365
#
# Compressibility (1/GPa) = 0.02046568
#
# Stress axis : x y z
#
# Youngs Moduli (GPa) = 42.24426 41.24006 36.08447
#
# Poissons Ratio (x) = 0.41316 0.13955
# Poissons Ratio (y) = 0.42322 0.49428
# Poissons Ratio (z) = 0.16337 0.56490
#
# Static dielectric constant tensor:
#      x y z
#    x 3.090270 0.000000 0.000000 
#    y 0.000000 2.641800 0.000000 
#    z 0.000000 0.000000 2.885290 
# 
# 
# High freq. dielectric constant tensor:
#      x y z
#    x 1.517000 0.000000 0.000000 
#    y 0.000000 1.504280 0.000000 
#    z 0.000000 0.000000 1.544380 
# 
# From -- ./inp_files/6787.got.cif
#   From: 2010.03.12/outbox.cif.g09.slc.cpg/sg49_4_cif.got.tgz:6787.got - 2010.04.14 03:58:27.
