data_PCOD8202134
_publ_section_title
;
Structure prediction by ZEFSAII (Michael W. Deem and Ramdas Pophale) SiO2 
 PCOD8202134
Probable space group: P N N N
;
_chemical_formula_sum "Si O2"
_cell_formula_units_Z 40
_cell_length_a 16.616800
_cell_length_b 10.154277
_cell_length_c 10.347987
_cell_angle_alpha 90.000000
_cell_angle_beta 90.000000
_cell_angle_gamma 90.000000
_cell_volume 1746.032300
_symmetry_space_group_name_H-M "P N N N"
_symmetry_group_IT_number 48
_space_group.IT_coordinate_system_code '2'
_symmetry_cell_setting 'orthorhombic'
loop_
_space_group_symop_operation_xyz
x,y,z
1/2-x,1/2-y,z
x,1/2-y,1/2-z
1/2-x,y,1/2-z
-x,-y,-z
1/2+x,1/2+y,-z
-x,1/2+y,1/2+z
1/2+x,-y,1/2+z
loop_
_atom_site_type_symbol
_atom_site_label
_atom_site_fract_x
_atom_site_fract_y
_atom_site_fract_z
Si Si1 0.163040 0.528669 0.466225
Si Si2 0.554956 0.241592 0.891276
Si Si3 0.920746 0.733387 0.603682
Si Si4 0.350697 0.500920 0.482790
Si Si5 0.655323 0.397302 0.245286
O O1 0.128868 0.656206 0.393932
O O2 0.133257 0.397034 0.397684
O O3 0.258946 0.540606 0.457611
O O4 0.130683 0.528287 0.614144
O O5 0.513130 0.250000 0.750000
O O6 0.589293 0.094709 0.904739
O O7 0.494234 0.279065 0.005162
O O8 0.953120 0.750000 0.750000
O O9 0.863411 0.852252 0.561103
O O10 0.374804 0.516150 0.633945
O O11 0.617364 0.250000 0.250000
O O12 0.750000 0.382304 0.250000
#
# Coordination Sequence:
#
# PCOD8202134 Si02
#       5
#     8   8   8   8   8
#     4  11  24  44  74 104 136 180 235 287 342 405
#     4  12  27  45  70 102 138 185 232 285 345 409
#     4  12  29  47  68 100 146 189 222 283 355 411
#     4  11  24  44  74 104 136 180 235 287 342 405
#     4   9  18  37  69 107 135 171 218 282 345 396
#
# _framework density 22.909085000000001
#
# number of rings (size 3 to 8) (size 9 to 14) (size 15 to 20)
#    0.000    1.000    2.000    3.600    5.600    4.800 
#    0.000    3.000    0.000    0.000    0.000    0.000 
#    0.000    0.000    0.000    0.000    0.000    0.000 
#
# Total GULP energy -496123.985831 kJ/mol
# GULP energy per Si atom -12403.099646 kJ/mol
# Density = 2.285694 g / cm^3
# Si number density = 22.909085 Si / 1000 Ang^3
#
#
#
# Elastic Constant Matrix: (Units=GPa)
#
#
# Indices 1 2 3 4 5 6 
#
# 1 52.5958 4.3251 25.4526 0.0000 0.0000 0.0000
# 2 4.3251 97.9766 8.0734 0.0000 0.0000 0.0000
# 3 25.4526 8.0734 164.2447 0.0000 0.0000 0.0000
# 4 0.0000 0.0000 0.0000 31.9435 0.0000 0.0000
# 5 0.0000 0.0000 0.0000 0.0000 31.6053 0.0000
# 6 0.0000 0.0000 0.0000 0.0000 0.0000 21.3780
#
#
#
# Elastic Compliance Matrix: (Units=1/GPa)
#
#
# Indices 1 2 3 4 5 6 
#
# 1 0.020595 -0.000649 -0.003160 0.000000 0.000000 0.000000
# 2 -0.000649 0.010268 -0.000404 0.000000 0.000000 0.000000
# 3 -0.003160 -0.000404 0.006598 0.000000 0.000000 0.000000
# 4 0.000000 0.000000 0.000000 0.031305 0.000000 0.000000
# 5 0.000000 0.000000 0.000000 0.000000 0.031640 0.000000
# 6 0.000000 0.000000 0.000000 0.000000 0.000000 0.046777
#
#
# Mechanical properties :
#
#
# Convention : Reuss Voigt Hill
#
# Bulk Modulus (GPa) = 34.43956 43.39104 38.91530
# Shear Modulus (GPa) = 30.25012 35.44977 32.84994
#
# Velocity S-wave (km/s) = 3.63773 3.93798 3.79083
# Velocity P-wave (km/s) = 5.71926 6.29751 6.01533
#
# Compressibility (1/GPa) = 0.02903638
#
# Stress axis : x y z
#
# Youngs Moduli (GPa) = 48.55464 97.38555 151.56108
#
# Poissons Ratio (x) = 0.06318 0.47889
# Poissons Ratio (y) = 0.03150 0.06126
# Poissons Ratio (z) = 0.15342 0.03936
#
# Static dielectric constant tensor:
#      x y z
#    x 3.866300 0.000000 0.000000 
#    y 0.000000 4.041850 0.000000 
#    z 0.000000 0.000000 4.556610 
# 
# 
# High freq. dielectric constant tensor:
#      x y z
#    x 1.894990 0.000000 0.000000 
#    y 0.000000 1.905860 0.000000 
#    z 0.000000 0.000000 1.921040 
# 
# From -- ./inp_files/21914.got.cif
#   From: 2010.06.25/outbox.cif.g09.slc.cpg/sg48_11_cif.got.tgz:21914.got - 2010.06.26 18:06:46.
