data_PCOD8202452
_publ_section_title
;
Structure prediction by ZEFSAII (Michael W. Deem and Ramdas Pophale) SiO2 
 PCOD8202452
Probable space group: P C C M
;
_chemical_formula_sum "Si O2"
_cell_formula_units_Z 56
_cell_length_a 18.489838
_cell_length_b 21.506846
_cell_length_c 8.806547
_cell_angle_alpha 90.000000
_cell_angle_beta 90.000000
_cell_angle_gamma 90.000000
_cell_volume 3501.994734
_symmetry_space_group_name_H-M "P C C M"
_symmetry_group_IT_number 49
_symmetry_cell_setting 'orthorhombic'
loop_
_space_group_symop_operation_xyz
x,y,z
-x,-y,z
x,-y,1/2-z
-x,y,1/2-z
-x,-y,-z
x,y,-z
-x,y,1/2+z
x,-y,1/2+z
loop_
_atom_site_type_symbol
_atom_site_label
_atom_site_fract_x
_atom_site_fract_y
_atom_site_fract_z
Si Si1 0.422850 0.189645 0.821479
Si Si2 0.295729 0.130950 0.673978
Si Si3 0.844745 0.064886 0.821154
Si Si4 0.074213 0.819802 0.674465
Si Si5 0.217302 0.761448 0.327207
Si Si6 0.578825 0.563589 0.181852
Si Si7 0.653975 0.685562 0.175064
O O1 0.500000 0.176528 0.750000
O O2 0.368648 0.133271 0.774520
O O3 0.390389 0.255160 0.758503
O O4 0.431114 0.190073 0.000000
O O5 0.319858 0.128100 0.500000
O O6 0.240985 0.074640 0.715611
O O7 0.248804 0.192336 0.702958
O O8 0.894283 0.118319 0.749853
O O9 0.869618 0.000000 0.750000
O O10 0.858597 0.064737 0.000000
O O11 0.059635 0.835198 0.500000
O O12 0.130395 0.761386 0.692482
O O13 0.000000 0.798126 0.750000
O O14 0.236585 0.784242 0.500000
O O15 0.258979 0.695633 0.300246
O O16 0.611822 0.500000 0.250000
O O17 0.500000 0.575124 0.250000
O O18 0.628795 0.620027 0.245268
O O19 0.575255 0.558983 0.000000
O O20 0.633751 0.681696 0.000000
#
# Coordination Sequence:
#
# PCOD8202452 Si02
#       7
#     8   8   8   8   8   8   8
#     4  10  18  28  43  63  85 109 139 176 218 261
#     4   9  17  29  44  63  85 108 135 172 214 255
#     4  10  20  33  49  67  87 112 145 176 206 247
#     4  10  19  31  48  68  93 118 140 168 207 253
#     4   8  15  29  46  63  83 111 142 172 209 253
#     4  10  18  28  40  56  83 117 151 184 215 250
#     4   8  15  27  43  61  82 110 145 180 212 250
#
# _framework density 15.990887000000001
#
# number of rings (size 3 to 8) (size 9 to 14) (size 15 to 20)
#    0.000    2.714    0.000    3.857    0.000    2.571 
#    0.000    7.857    0.000    0.429    0.000    3.000 
#    0.000    0.571    0.000    7.143    0.000    0.000 
#
# Total GULP energy -693766.759671 kJ/mol
# GULP energy per Si atom -12388.692137 kJ/mol
# Density = 1.595449 g / cm^3
# Si number density = 15.990887 Si / 1000 Ang^3
#
#
#
# Elastic Constant Matrix: (Units=GPa)
#
#
# Indices 1 2 3 4 5 6 
#
# 1 115.4656 33.3600 35.7544 0.0000 0.0000 0.0000
# 2 33.3600 50.3810 18.0432 0.0000 0.0000 0.0000
# 3 35.7544 18.0432 64.2288 0.0000 0.0000 0.0000
# 4 0.0000 0.0000 0.0000 15.2425 0.0000 0.0000
# 5 0.0000 0.0000 0.0000 0.0000 24.1137 0.0000
# 6 0.0000 0.0000 0.0000 0.0000 0.0000 21.7211
#
#
#
# Elastic Compliance Matrix: (Units=1/GPa)
#
#
# Indices 1 2 3 4 5 6 
#
# 1 0.011967 -0.006158 -0.004932 0.000000 0.000000 0.000000
# 2 -0.006158 0.025238 -0.003662 0.000000 0.000000 0.000000
# 3 -0.004932 -0.003662 0.019343 0.000000 0.000000 0.000000
# 4 0.000000 0.000000 0.000000 0.065606 0.000000 0.000000
# 5 0.000000 0.000000 0.000000 0.000000 0.041470 0.000000
# 6 0.000000 0.000000 0.000000 0.000000 0.000000 0.046038
#
#
# Mechanical properties :
#
#
# Convention : Reuss Voigt Hill
#
# Bulk Modulus (GPa) = 36.97536 44.93230 40.95383
# Shear Modulus (GPa) = 20.14666 21.74329 20.94498
#
# Velocity S-wave (km/s) = 3.55334 3.69145 3.62305
# Velocity P-wave (km/s) = 6.32518 6.80653 6.57026
#
# Compressibility (1/GPa) = 0.02704504
#
# Stress axis : x y z
#
# Youngs Moduli (GPa) = 83.56463 39.62352 51.69705
#
# Poissons Ratio (x) = 0.24399 0.25496
# Poissons Ratio (y) = 0.51456 0.18931
# Poissons Ratio (z) = 0.41212 0.14510
#
# Static dielectric constant tensor:
#      x y z
#    x 3.182880 0.000000 0.000000 
#    y 0.000000 3.021550 0.000000 
#    z 0.000000 0.000000 3.039980 
# 
# 
# High freq. dielectric constant tensor:
#      x y z
#    x 1.609210 0.000000 0.000000 
#    y 0.000000 1.574950 0.000000 
#    z 0.000000 0.000000 1.619600 
# 
# From -- ./inp_files/5206.got.cif
#   From: 2010.03.12/outbox.cif.g09.slc.cpg/sg49_3_cif.got.tgz:5206.got - 2010.04.14 03:58:27.
