data_PCOD8202145
_publ_section_title
;
Structure prediction by ZEFSAII (Michael W. Deem and Ramdas Pophale) SiO2 
 PCOD8202145
Probable space group: P N N N
;
_chemical_formula_sum "Si O2"
_cell_formula_units_Z 42
_cell_length_a 8.595257
_cell_length_b 14.646053
_cell_length_c 14.824869
_cell_angle_alpha 90.000000
_cell_angle_beta 90.000000
_cell_angle_gamma 90.000000
_cell_volume 1866.252199
_symmetry_space_group_name_H-M "P N N N"
_symmetry_group_IT_number 48
_space_group.IT_coordinate_system_code '2'
_symmetry_cell_setting 'orthorhombic'
loop_
_space_group_symop_operation_xyz
x,y,z
1/2-x,1/2-y,z
x,1/2-y,1/2-z
1/2-x,y,1/2-z
-x,-y,-z
1/2+x,1/2+y,-z
-x,1/2+y,1/2+z
1/2+x,-y,1/2+z
loop_
_atom_site_type_symbol
_atom_site_label
_atom_site_fract_x
_atom_site_fract_y
_atom_site_fract_z
Si Si1 0.426643 0.723711 0.978618
Si Si2 0.928558 0.021983 0.733688
Si Si3 0.250000 0.250000 0.750000
Si Si4 0.440319 0.089034 0.949294
Si Si5 0.926271 0.153109 0.218701
Si Si6 0.895656 0.885959 0.116852
O O1 0.250000 0.750000 0.989945
O O2 0.449773 0.663894 0.888501
O O3 0.523656 0.818206 0.994643
O O4 0.469835 0.649927 0.052865
O O5 0.750000 0.046378 0.750000
O O6 0.986029 0.085655 0.651255
O O7 0.033014 0.033134 0.824059
O O8 0.958728 0.913942 0.724567
O O9 0.138804 0.193563 0.813531
O O10 0.254227 0.081423 0.939376
O O11 0.500000 0.000000 0.000000
O O12 0.983224 0.250000 0.250000
O O13 0.750000 0.131119 0.250000
#
# Coordination Sequence:
#
# PCOD8202145 Si02
#       6
#     8   8   2   8   8   8
#     4  12  25  44  73 111 142 185 249 302 363 444
#     4  12  27  47  73 109 144 193 246 304 367 443
#     4  12  20  48  70 104 132 188 234 288 380 428
#     4  12  26  45  72 105 145 193 245 299 366 442
#     4  11  24  48  72 101 149 198 232 294 376 437
#     4  12  24  46  77 101 146 190 238 306 371 439
#
# _framework density 22.504998000000001
#
# number of rings (size 3 to 8) (size 9 to 14) (size 15 to 20)
#    0.000    0.190    5.714    3.429    5.333    1.143 
#    3.429    1.905    0.000    0.000    0.000    0.000 
#    0.000    0.000    0.000    0.000    0.000    0.000 
#
# Total GULP energy -520485.759796 kJ/mol
# GULP energy per Si atom -12392.518090 kJ/mol
# Density = 2.245378 g / cm^3
# Si number density = 22.504998 Si / 1000 Ang^3
#
#
#
# Elastic Constant Matrix: (Units=GPa)
#
#
# Indices 1 2 3 4 5 6 
#
# 1 75.7937 -10.5160 5.3416 0.0000 0.0000 0.0000
# 2 -10.5160 45.2965 1.0780 0.0000 0.0000 0.0000
# 3 5.3416 1.0780 102.8094 0.0000 0.0000 0.0000
# 4 0.0000 0.0000 0.0000 42.7797 0.0000 0.0000
# 5 0.0000 0.0000 0.0000 0.0000 42.7772 0.0000
# 6 0.0000 0.0000 0.0000 0.0000 0.0000 24.3895
#
#
#
# Elastic Compliance Matrix: (Units=1/GPa)
#
#
# Indices 1 2 3 4 5 6 
#
# 1 0.013690 0.003196 -0.000745 0.000000 0.000000 0.000000
# 2 0.003196 0.022828 -0.000405 0.000000 0.000000 0.000000
# 3 -0.000745 -0.000405 0.009770 0.000000 0.000000 0.000000
# 4 0.000000 0.000000 0.000000 0.023376 0.000000 0.000000
# 5 0.000000 0.000000 0.000000 0.000000 0.023377 0.000000
# 6 0.000000 0.000000 0.000000 0.000000 0.000000 0.041001
#
#
# Mechanical properties :
#
#
# Convention : Reuss Voigt Hill
#
# Bulk Modulus (GPa) = 19.84951 23.96743 21.90847
# Shear Modulus (GPa) = 34.07318 37.18901 35.63109
#
# Velocity S-wave (km/s) = 3.89527 4.06948 3.98333
# Velocity P-wave (km/s) = 5.39166 5.72309 5.55985
#
# Compressibility (1/GPa) = 0.05037907
#
# Stress axis : x y z
#
# Youngs Moduli (GPa) = 73.04812 43.80515 102.35746
#
# Poissons Ratio (x) = -0.14000 0.07623
# Poissons Ratio (y) = -0.23345 0.04150
# Poissons Ratio (z) = 0.05440 0.01776
#
# Static dielectric constant tensor:
#      x y z
#    x 3.902420 0.000000 0.000000 
#    y 0.000000 4.474680 0.000000 
#    z 0.000000 0.000000 3.601520 
# 
# 
# High freq. dielectric constant tensor:
#      x y z
#    x 1.881810 0.000000 0.000000 
#    y 0.000000 1.901200 0.000000 
#    z 0.000000 0.000000 1.902600 
# 
# From -- ./inp_files/25135.got.cif
#   From: 2010.06.25/outbox.cif.g09.slc.cpg/sg48_13_cif.got.tgz:25135.got - 2010.06.26 18:06:46.
