data_PCOD8202571
_publ_section_title
;
Structure prediction by ZEFSAII (Michael W. Deem and Ramdas Pophale) SiO2 
 PCOD8202571
Probable space group: P C C M
;
_chemical_formula_sum "Si O2"
_cell_formula_units_Z 48
_cell_length_a 10.037278
_cell_length_b 10.677663
_cell_length_c 24.084350
_cell_angle_alpha 90.000000
_cell_angle_beta 90.000000
_cell_angle_gamma 90.000000
_cell_volume 2581.232310
_symmetry_space_group_name_H-M "P C C M"
_symmetry_group_IT_number 49
_symmetry_cell_setting 'orthorhombic'
loop_
_space_group_symop_operation_xyz
x,y,z
-x,-y,z
x,-y,1/2-z
-x,y,1/2-z
-x,-y,-z
x,y,-z
-x,y,1/2+z
x,-y,1/2+z
loop_
_atom_site_type_symbol
_atom_site_label
_atom_site_fract_x
_atom_site_fract_y
_atom_site_fract_z
Si Si1 0.897030 0.103474 0.563823
Si Si2 0.647056 0.982564 0.612256
Si Si3 0.386260 0.246507 0.677592
Si Si4 0.832158 0.436523 0.189580
Si Si5 0.911431 0.686821 0.153476
Si Si6 0.666304 0.182749 0.297622
O O1 0.924763 0.135868 0.500000
O O2 0.751476 0.041134 0.569354
O O3 0.914749 0.233295 0.596838
O O4 0.000000 0.000000 0.586787
O O5 0.661284 0.050070 0.671822
O O6 0.500000 0.000000 0.586491
O O7 0.666520 0.834437 0.624882
O O8 0.314240 0.380585 0.679860
O O9 0.546409 0.268030 0.675756
O O10 0.354081 0.165177 0.732433
O O11 0.847615 0.500000 0.250000
O O12 0.856094 0.545370 0.143574
O O13 0.941672 0.325951 0.181003
O O14 0.810050 0.753103 0.195805
#
# Coordination Sequence:
#
# PCOD8202571 Si02
#       6
#     8   8   8   8   8   8
#     4  10  21  38  58  78  98 128 176 229 276 319
#     4   9  18  33  53  79 108 134 167 215 268 313
#     4  10  18  30  49  76 109 143 173 204 246 310
#     4  11  21  33  50  72 107 146 177 206 247 313
#     4  10  20  35  50  72 104 138 172 220 255 304
#     4   9  18  30  48  76 108 141 175 205 247 305
#
# _framework density 18.595770000000002
#
# number of rings (size 3 to 8) (size 9 to 14) (size 15 to 20)
#    0.000    2.167    1.667    2.500    0.000    3.000 
#    0.000    1.667    0.000    1.000    0.000   10.500 
#    0.000    0.000    0.000    0.000    0.000    0.000 
#
# Total GULP energy -594801.971599 kJ/mol
# GULP energy per Si atom -12391.707742 kJ/mol
# Density = 1.855345 g / cm^3
# Si number density = 18.595770 Si / 1000 Ang^3
#
#
#
# Elastic Constant Matrix: (Units=GPa)
#
#
# Indices 1 2 3 4 5 6 
#
# 1 98.5026 48.2145 19.8746 0.0000 0.0000 0.0000
# 2 48.2145 86.1744 35.2201 0.0000 0.0000 0.0000
# 3 19.8746 35.2201 55.7989 0.0000 0.0000 0.0000
# 4 0.0000 0.0000 0.0000 18.5311 0.0000 0.0000
# 5 0.0000 0.0000 0.0000 0.0000 15.9961 0.0000
# 6 0.0000 0.0000 0.0000 0.0000 0.0000 35.4423
#
#
#
# Elastic Compliance Matrix: (Units=1/GPa)
#
#
# Indices 1 2 3 4 5 6 
#
# 1 0.013981 -0.007799 -0.000057 0.000000 0.000000 0.000000
# 2 -0.007799 0.019989 -0.009839 0.000000 0.000000 0.000000
# 3 -0.000057 -0.009839 0.024152 0.000000 0.000000 0.000000
# 4 0.000000 0.000000 0.000000 0.053963 0.000000 0.000000
# 5 0.000000 0.000000 0.000000 0.000000 0.062515 0.000000
# 6 0.000000 0.000000 0.000000 0.000000 0.000000 0.028215
#
#
# Mechanical properties :
#
#
# Convention : Reuss Voigt Hill
#
# Bulk Modulus (GPa) = 43.99114 49.67715 46.83414
# Shear Modulus (GPa) = 20.34305 23.13834 21.74070
#
# Velocity S-wave (km/s) = 3.31110 3.53126 3.42295
# Velocity P-wave (km/s) = 6.19078 6.58776 6.39235
#
# Compressibility (1/GPa) = 0.02273185
#
# Stress axis : x y z
#
# Youngs Moduli (GPa) = 71.52595 50.02671 41.40377
#
# Poissons Ratio (x) = 0.39016 0.00236
# Poissons Ratio (y) = 0.55783 0.40739
# Poissons Ratio (z) = 0.00408 0.49223
#
# Static dielectric constant tensor:
#      x y z
#    x 3.721250 0.000000 0.000000 
#    y 0.000000 3.481820 0.000000 
#    z 0.000000 0.000000 2.954670 
# 
# 
# High freq. dielectric constant tensor:
#      x y z
#    x 1.739880 0.000000 0.000000 
#    y 0.000000 1.714970 0.000000 
#    z 0.000000 0.000000 1.673090 
# 
# From -- ./inp_files/22362.got.cif
#   From: 2010.03.12/outbox.cif.g09.slc.cpg/sg49_12_cif.got.tgz:22362.got - 2010.04.14 03:58:27.
