data_PCOD8202389
_publ_section_title
;
Structure prediction by ZEFSAII (Michael W. Deem and Ramdas Pophale) SiO2 
 PCOD8202389
Probable space group: P C C M
;
_chemical_formula_sum "Si O2"
_cell_formula_units_Z 40
_cell_length_a 26.016118
_cell_length_b 9.202876
_cell_length_c 8.564769
_cell_angle_alpha 90.000000
_cell_angle_beta 90.000000
_cell_angle_gamma 90.000000
_cell_volume 2050.603613
_symmetry_space_group_name_H-M "P C C M"
_symmetry_group_IT_number 49
_symmetry_cell_setting 'orthorhombic'
loop_
_space_group_symop_operation_xyz
x,y,z
-x,-y,z
x,-y,1/2-z
-x,y,1/2-z
-x,-y,-z
x,y,-z
-x,y,1/2+z
x,-y,1/2+z
loop_
_atom_site_type_symbol
_atom_site_label
_atom_site_fract_x
_atom_site_fract_y
_atom_site_fract_z
Si Si1 0.250466 0.339641 0.314626
Si Si2 0.051535 0.837818 0.184968
Si Si3 0.554051 0.658922 0.314694
Si Si4 0.156733 0.839177 0.684521
Si Si5 0.650602 0.159343 0.816087
O O1 0.256530 0.500000 0.250000
O O2 0.243481 0.340195 0.500000
O O3 0.201920 0.266023 0.234821
O O4 0.300883 0.252912 0.260414
O O5 0.104124 0.766714 0.248532
O O6 0.000000 0.757439 0.250000
O O7 0.051401 0.000000 0.250000
O O8 0.050944 0.836333 0.000000
O O9 0.566154 0.500000 0.250000
O O10 0.500000 0.718810 0.250000
O O11 0.551778 0.650739 0.500000
O O12 0.598497 0.766089 0.253608
O O13 0.152926 0.849759 0.500000
O O14 0.166879 0.000000 0.750000
O O15 0.656030 0.000000 0.750000
O O16 0.649020 0.149610 0.000000
#
# Coordination Sequence:
#
# PCOD8202389 Si02
#       5
#     8   8   8   8   8
#     4  11  23  40  59  82 109 144 185 229 279 336
#     4  10  17  28  47  75 109 145 183 227 275 328
#     4  10  20  36  57  84 113 148 187 227 271 325
#     4  11  21  35  55  82 113 147 185 231 279 330
#     4  10  23  39  58  83 113 145 184 228 278 330
#
# _framework density 19.506450000000001
#
# number of rings (size 3 to 8) (size 9 to 14) (size 15 to 20)
#    0.000    1.600    0.000    8.400    0.000    5.200 
#    0.000    2.000    0.000    0.600    0.000    4.200 
#    0.000    0.000    0.000    0.000    0.000    0.000 
#
# Total GULP energy -496018.508357 kJ/mol
# GULP energy per Si atom -12400.462709 kJ/mol
# Density = 1.946205 g / cm^3
# Si number density = 19.506450 Si / 1000 Ang^3
#
#
#
# Elastic Constant Matrix: (Units=GPa)
#
#
# Indices 1 2 3 4 5 6 
#
# 1 202.3761 86.2191 67.9011 0.0000 0.0000 0.0000
# 2 86.2191 111.9415 40.8382 0.0000 0.0000 0.0000
# 3 67.9011 40.8382 132.5019 0.0000 0.0000 0.0000
# 4 0.0000 0.0000 0.0000 29.2085 0.0000 0.0000
# 5 0.0000 0.0000 0.0000 0.0000 33.6638 0.0000
# 6 0.0000 0.0000 0.0000 0.0000 0.0000 21.4956
#
#
#
# Elastic Compliance Matrix: (Units=1/GPa)
#
#
# Indices 1 2 3 4 5 6 
#
# 1 0.008021 -0.005271 -0.002486 0.000000 0.000000 0.000000
# 2 -0.005271 0.013529 -0.001469 0.000000 0.000000 0.000000
# 3 -0.002486 -0.001469 0.009274 0.000000 0.000000 0.000000
# 4 0.000000 0.000000 0.000000 0.034237 0.000000 0.000000
# 5 0.000000 0.000000 0.000000 0.000000 0.029705 0.000000
# 6 0.000000 0.000000 0.000000 0.000000 0.000000 0.046521
#
#
# Mechanical properties :
#
#
# Convention : Reuss Voigt Hill
#
# Bulk Modulus (GPa) = 80.82382 92.97071 86.89726
# Shear Modulus (GPa) = 30.51360 33.66433 32.08896
#
# Velocity S-wave (km/s) = 3.95939 4.15879 4.06031
# Velocity P-wave (km/s) = 7.90106 8.41580 8.16249
#
# Compressibility (1/GPa) = 0.01237259
#
# Stress axis : x y z
#
# Youngs Moduli (GPa) = 124.67349 73.91645 107.83371
#
# Poissons Ratio (x) = 0.38961 0.26805
# Poissons Ratio (y) = 0.65715 0.15836
# Poissons Ratio (z) = 0.30991 0.10855
#
# Static dielectric constant tensor:
#      x y z
#    x 4.568730 0.000000 0.000000 
#    y 0.000000 3.257630 0.000000 
#    z 0.000000 0.000000 3.627470 
# 
# 
# High freq. dielectric constant tensor:
#      x y z
#    x 1.789340 0.000000 0.000000 
#    y 0.000000 1.729350 0.000000 
#    z 0.000000 0.000000 1.773860 
# 
# From -- ./inp_files/1692.got.cif
#   From: 2010.03.12/outbox.cif.g09.slc.cpg/sg49_1_cif.got.tgz:1692.got - 2010.04.14 03:58:27.
