data_PCOD8202792
_publ_section_title
;
Structure prediction by ZEFSAII (Michael W. Deem and Ramdas Pophale) SiO2 
 PCOD8202792
Probable space group: P C C M
;
_chemical_formula_sum "Si O2"
_cell_formula_units_Z 64
_cell_length_a 19.901799
_cell_length_b 19.922722
_cell_length_c 8.817009
_cell_angle_alpha 90.000000
_cell_angle_beta 90.000000
_cell_angle_gamma 90.000000
_cell_volume 3495.926512
_symmetry_space_group_name_H-M "P C C M"
_symmetry_group_IT_number 49
_symmetry_cell_setting 'orthorhombic'
loop_
_space_group_symop_operation_xyz
x,y,z
-x,-y,z
x,-y,1/2-z
-x,y,1/2-z
-x,-y,-z
x,y,-z
-x,y,1/2+z
x,-y,1/2+z
loop_
_atom_site_type_symbol
_atom_site_label
_atom_site_fract_x
_atom_site_fract_y
_atom_site_fract_z
Si Si1 0.248116 0.390766 0.675392
Si Si2 0.066502 0.291833 0.178512
Si Si3 0.429560 0.927746 0.180943
Si Si4 0.431698 0.712063 0.821257
Si Si5 0.101589 0.431916 0.677140
Si Si6 0.388662 0.565308 0.823979
Si Si7 0.339175 0.182191 0.822914
Si Si8 0.210870 0.744523 0.675128
O O1 0.262027 0.379202 0.500000
O O2 0.181479 0.433417 0.706733
O O3 0.312925 0.428222 0.744335
O O4 0.244062 0.316812 0.740264
O O5 0.070556 0.367592 0.240925
O O6 0.132424 0.247751 0.226282
O O7 0.000000 0.257366 0.250000
O O8 0.057679 0.295011 0.000000
O O9 0.500000 0.900679 0.250000
O O10 0.368227 0.879527 0.226629
O O11 0.412932 0.000000 0.250000
O O12 0.435613 0.931995 0.000000
O O13 0.500000 0.740910 0.750000
O O14 0.428841 0.632954 0.785651
O O15 0.371349 0.748837 0.735782
O O16 0.428478 0.727967 0.000000
O O17 0.071527 0.500000 0.750000
O O18 0.083766 0.428657 0.500000
O O19 0.423615 0.500000 0.750000
O O20 0.387695 0.551324 0.000000
O O21 0.257925 0.189734 0.796210
O O22 0.355183 0.171091 0.000000
O O23 0.211177 0.724993 0.500000
#
# Coordination Sequence:
#
# PCOD8202792 Si02
#       8
#     8   8   8   8   8   8   8   8
#     4   9  17  31  48  68  93 120 157 206 261 318
#     4  10  20  35  51  71  98 130 166 208 261 317
#     4  11  22  38  59  86 121 159 192 225 260 307
#     4  11  23  38  53  72  98 130 171 219 268 320
#     4  10  19  30  46  67  91 121 157 203 257 320
#     4  10  21  34  49  67  90 121 161 212 269 325
#     4  11  21  36  58  84 110 142 180 220 263 309
#     4   9  19  33  53  77 102 131 168 213 258 307
#
# _framework density 18.307020000000001
#
# number of rings (size 3 to 8) (size 9 to 14) (size 15 to 20)
#    0.000    1.875    1.250    3.750    0.000    3.500 
#    0.000    2.500    0.000    0.000    0.000    0.000 
#    0.000    0.500    0.000    5.750    0.000    1.750 
#
# Total GULP energy -793302.572736 kJ/mol
# GULP energy per Si atom -12395.352699 kJ/mol
# Density = 1.826535 g / cm^3
# Si number density = 18.307020 Si / 1000 Ang^3
#
#
#
# Elastic Constant Matrix: (Units=GPa)
#
#
# Indices 1 2 3 4 5 6 
#
# 1 107.9844 32.5567 37.7614 0.0000 0.0000 0.0000
# 2 32.5567 68.0115 33.9083 0.0000 0.0000 0.0000
# 3 37.7614 33.9083 77.6695 0.0000 0.0000 0.0000
# 4 0.0000 0.0000 0.0000 25.3450 0.0000 0.0000
# 5 0.0000 0.0000 0.0000 0.0000 22.7592 0.0000
# 6 0.0000 0.0000 0.0000 0.0000 0.0000 14.0549
#
#
#
# Elastic Compliance Matrix: (Units=1/GPa)
#
#
# Indices 1 2 3 4 5 6 
#
# 1 0.011796 -0.003563 -0.004180 0.000000 0.000000 0.000000
# 2 -0.003563 0.019870 -0.006943 0.000000 0.000000 0.000000
# 3 -0.004180 -0.006943 0.017938 0.000000 0.000000 0.000000
# 4 0.000000 0.000000 0.000000 0.039455 0.000000 0.000000
# 5 0.000000 0.000000 0.000000 0.000000 0.043938 0.000000
# 6 0.000000 0.000000 0.000000 0.000000 0.000000 0.071149
#
#
# Mechanical properties :
#
#
# Convention : Reuss Voigt Hill
#
# Bulk Modulus (GPa) = 49.42101 51.34647 50.38374
# Shear Modulus (GPa) = 20.81050 22.39442 21.60246
#
# Velocity S-wave (km/s) = 3.37523 3.50132 3.43885
# Velocity P-wave (km/s) = 6.49953 6.66738 6.58399
#
# Compressibility (1/GPa) = 0.02023431
#
# Stress axis : x y z
#
# Youngs Moduli (GPa) = 84.77134 50.32631 55.74744
#
# Poissons Ratio (x) = 0.17932 0.23301
# Poissons Ratio (y) = 0.30204 0.38703
# Poissons Ratio (z) = 0.35432 0.34939
#
# Static dielectric constant tensor:
#      x y z
#    x 3.756960 0.000000 0.000000 
#    y 0.000000 3.080610 0.000000 
#    z 0.000000 0.000000 3.458650 
# 
# 
# High freq. dielectric constant tensor:
#      x y z
#    x 1.716250 0.000000 0.000000 
#    y 0.000000 1.665910 0.000000 
#    z 0.000000 0.000000 1.718880 
# 
# From -- ./inp_files/6100.got.cif
#   From: 2010.03.12/outbox.cif.g09.slc.cpg/sg49_4_cif.got.tgz:6100.got - 2010.04.14 03:58:27.
