data_PCOD8202274
_publ_section_title
;
Structure prediction by ZEFSAII (Michael W. Deem and Ramdas Pophale) SiO2 
 PCOD8202274
Probable space group: P C C M
;
_chemical_formula_sum "Si O2"
_cell_formula_units_Z 64
_cell_length_a 26.337827
_cell_length_b 18.464774
_cell_length_c 8.754304
_cell_angle_alpha 90.000000
_cell_angle_beta 90.000000
_cell_angle_gamma 90.000000
_cell_volume 4257.410833
_symmetry_space_group_name_H-M "P C C M"
_symmetry_group_IT_number 49
_symmetry_cell_setting 'orthorhombic'
loop_
_space_group_symop_operation_xyz
x,y,z
-x,-y,z
x,-y,1/2-z
-x,y,1/2-z
-x,-y,-z
x,y,-z
-x,y,1/2+z
x,-y,1/2+z
loop_
_atom_site_type_symbol
_atom_site_label
_atom_site_fract_x
_atom_site_fract_y
_atom_site_fract_z
Si Si1 0.888624 0.289735 0.823305
Si Si2 0.200590 0.794662 0.324787
Si Si3 0.846280 0.077349 0.820441
Si Si4 0.449649 0.419675 0.182025
Si Si5 0.947843 0.845697 0.674525
Si Si6 0.743947 0.655366 0.176071
Si Si7 0.150074 0.578501 0.320795
Si Si8 0.652166 0.578603 0.679757
O O1 0.847824 0.253224 0.714201
O O2 0.939579 0.241282 0.805277
O O3 0.893420 0.371815 0.761084
O O4 0.870781 0.288667 0.000000
O O5 0.198260 0.818314 0.500000
O O6 0.199794 0.868223 0.225301
O O7 0.248674 0.741783 0.294539
O O8 0.899790 0.109693 0.757322
O O9 0.834998 0.000000 0.750000
O O10 0.847394 0.070470 0.000000
O O11 0.448683 0.500000 0.250000
O O12 0.500000 0.379851 0.250000
O O13 0.397530 0.383755 0.242827
O O14 0.451635 0.419988 0.000000
O O15 0.952874 0.867197 0.500000
O O16 0.000000 0.870679 0.750000
O O17 0.794465 0.610348 0.217388
O O18 0.699556 0.630197 0.287650
O O19 0.729127 0.640857 0.000000
O O20 0.145314 0.500000 0.250000
O O21 0.139283 0.575906 0.500000
O O22 0.663540 0.500000 0.750000
O O23 0.643385 0.570562 0.500000
#
# Coordination Sequence:
#
# PCOD8202274 Si02
#       8
#     8   8   8   8   8   8   8   8
#     4   9  17  30  45  62  83 106 134 164 196 239
#     4   9  17  30  47  64  83 109 138 166 199 240
#     4  10  20  33  48  68  91 113 138 165 195 231
#     4  10  17  27  40  53  72  99 136 179 221 262
#     4   9  19  32  47  66  86 109 134 162 196 236
#     4   9  18  30  42  59  82 107 136 168 206 249
#     4  10  19  29  43  62  82 106 134 167 208 249
#     4  11  20  28  39  56  79 108 142 180 222 258
#
# _framework density 15.03261
#
# number of rings (size 3 to 8) (size 9 to 14) (size 15 to 20)
#    0.000    2.375    0.000    6.750    0.000    7.250 
#    0.000    1.250    0.000    0.375    0.000    2.625 
#    0.000    0.000    0.000    0.000    0.000    0.625 
#
# Total GULP energy -793116.171146 kJ/mol
# GULP energy per Si atom -12392.440174 kJ/mol
# Density = 1.499840 g / cm^3
# Si number density = 15.032610 Si / 1000 Ang^3
#
#
#
# Elastic Constant Matrix: (Units=GPa)
#
#
# Indices 1 2 3 4 5 6 
#
# 1 41.7620 21.8082 26.2443 0.0000 0.0000 0.0000
# 2 21.8082 92.3910 29.1609 0.0000 0.0000 0.0000
# 3 26.2443 29.1609 81.5954 0.0000 0.0000 0.0000
# 4 0.0000 0.0000 0.0000 23.3189 0.0000 0.0000
# 5 0.0000 0.0000 0.0000 0.0000 22.9349 0.0000
# 6 0.0000 0.0000 0.0000 0.0000 0.0000 6.8525
#
#
#
# Elastic Compliance Matrix: (Units=1/GPa)
#
#
# Indices 1 2 3 4 5 6 
#
# 1 0.031811 -0.004823 -0.008508 0.000000 0.000000 0.000000
# 2 -0.004823 0.012931 -0.003070 0.000000 0.000000 0.000000
# 3 -0.008508 -0.003070 0.016089 0.000000 0.000000 0.000000
# 4 0.000000 0.000000 0.000000 0.042884 0.000000 0.000000
# 5 0.000000 0.000000 0.000000 0.000000 0.043602 0.000000
# 6 0.000000 0.000000 0.000000 0.000000 0.000000 0.145932
#
#
# Mechanical properties :
#
#
# Convention : Reuss Voigt Hill
#
# Bulk Modulus (GPa) = 35.67786 41.13058 38.40422
# Shear Modulus (GPa) = 14.90788 19.85692 17.38240
#
# Velocity S-wave (km/s) = 3.15255 3.63839 3.40415
# Velocity P-wave (km/s) = 6.08577 6.71348 6.40732
#
# Compressibility (1/GPa) = 0.02802859
#
# Stress axis : x y z
#
# Youngs Moduli (GPa) = 31.43616 77.33321 62.15360
#
# Poissons Ratio (x) = 0.37301 0.52879
# Poissons Ratio (y) = 0.15163 0.19081
# Poissons Ratio (z) = 0.26745 0.23741
#
# Static dielectric constant tensor:
#      x y z
#    x 3.095940 0.000000 0.000000 
#    y 0.000000 2.935730 0.000000 
#    z 0.000000 0.000000 2.985890 
# 
# 
# High freq. dielectric constant tensor:
#      x y z
#    x 1.544450 0.000000 0.000000 
#    y 0.000000 1.549050 0.000000 
#    z 0.000000 0.000000 1.593130 
# 
# From -- ./inp_files/6797.got.cif
#   From: 2010.03.12/outbox.cif.g09.slc.cpg/sg49_4_cif.got.tgz:6797.got - 2010.04.14 03:58:27.
