data_PCOD8202187
_publ_section_title
;
Structure prediction by ZEFSAII (Michael W. Deem and Ramdas Pophale) SiO2 
 PCOD8202187
Probable space group: P C C M
;
_chemical_formula_sum "Si O2"
_cell_formula_units_Z 40
_cell_length_a 26.536830
_cell_length_b 9.717273
_cell_length_c 8.654142
_cell_angle_alpha 90.000000
_cell_angle_beta 90.000000
_cell_angle_gamma 90.000000
_cell_volume 2231.605707
_symmetry_space_group_name_H-M "P C C M"
_symmetry_group_IT_number 49
_symmetry_cell_setting 'orthorhombic'
loop_
_space_group_symop_operation_xyz
x,y,z
-x,-y,z
x,-y,1/2-z
-x,y,1/2-z
-x,-y,-z
x,y,-z
-x,y,1/2+z
x,-y,1/2+z
loop_
_atom_site_type_symbol
_atom_site_label
_atom_site_fract_x
_atom_site_fract_y
_atom_site_fract_z
Si Si1 0.449662 0.653275 0.683839
Si Si2 0.347303 0.651613 0.183974
Si Si3 0.149153 0.150553 0.319293
Si Si4 0.949807 0.846457 0.182341
Si Si5 0.259710 0.149879 0.319537
O O1 0.449460 0.500000 0.750000
O O2 0.500000 0.729054 0.750000
O O3 0.450476 0.653675 0.500000
O O4 0.398348 0.721907 0.747889
O O5 0.338683 0.500000 0.250000
O O6 0.301181 0.744584 0.244421
O O7 0.350845 0.644298 0.000000
O O8 0.137719 0.143650 0.500000
O O9 0.101991 0.229938 0.237576
O O10 0.204184 0.215667 0.283499
O O11 0.152219 0.000000 0.250000
O O12 0.000000 0.771773 0.250000
O O13 0.948018 0.000000 0.250000
O O14 0.953080 0.848819 0.000000
O O15 0.266414 0.130209 0.500000
O O16 0.267986 0.000000 0.250000
#
# Coordination Sequence:
#
# PCOD8202187 Si02
#       5
#     8   8   8   8   8
#     4  10  17  27  44  67  92 120 149 185 227 271
#     4  10  19  32  48  71  97 123 153 190 228 269
#     4   9  15  25  38  55  78 108 142 179 217 261
#     4  10  16  22  32  49  73 104 138 176 217 262
#     4   9  19  32  48  67  92 123 157 190 227 271
#
# _framework density 17.924313000000001
#
# number of rings (size 3 to 8) (size 9 to 14) (size 15 to 20)
#    0.000    2.400    0.000    8.400    0.000    2.400 
#    0.000    0.000    0.000    0.600    0.000    4.200 
#    0.000    0.800    0.000    9.200    0.000    5.800 
#
# Total GULP energy -495526.307793 kJ/mol
# GULP energy per Si atom -12388.157695 kJ/mol
# Density = 1.788352 g / cm^3
# Si number density = 17.924313 Si / 1000 Ang^3
#
#
#
# Elastic Constant Matrix: (Units=GPa)
#
#
# Indices 1 2 3 4 5 6 
#
# 1 224.3536 43.8648 75.8225 0.0000 0.0000 0.0000
# 2 43.8648 30.7785 18.0189 0.0000 0.0000 0.0000
# 3 75.8225 18.0189 129.4796 0.0000 0.0000 0.0000
# 4 0.0000 0.0000 0.0000 8.8423 0.0000 0.0000
# 5 0.0000 0.0000 0.0000 0.0000 38.0251 0.0000
# 6 0.0000 0.0000 0.0000 0.0000 0.0000 9.5394
#
#
#
# Elastic Compliance Matrix: (Units=1/GPa)
#
#
# Indices 1 2 3 4 5 6 
#
# 1 0.007107 -0.008375 -0.002997 0.000000 0.000000 0.000000
# 2 -0.008375 0.045241 -0.001392 0.000000 0.000000 0.000000
# 3 -0.002997 -0.001392 0.009672 0.000000 0.000000 0.000000
# 4 0.000000 0.000000 0.000000 0.113093 0.000000 0.000000
# 5 0.000000 0.000000 0.000000 0.000000 0.026298 0.000000
# 6 0.000000 0.000000 0.000000 0.000000 0.000000 0.104829
#
#
# Mechanical properties :
#
#
# Convention : Reuss Voigt Hill
#
# Bulk Modulus (GPa) = 27.40204 73.33601 50.36902
# Shear Modulus (GPa) = 14.53782 27.74173 21.13977
#
# Velocity S-wave (km/s) = 2.85101 3.93837 3.43795
# Velocity P-wave (km/s) = 5.11454 7.85392 6.62732
#
# Compressibility (1/GPa) = 0.03649364
#
# Stress axis : x y z
#
# Youngs Moduli (GPa) = 140.69806 22.10393 103.39502
#
# Poissons Ratio (x) = 0.18512 0.30983
# Poissons Ratio (y) = 1.17835 0.14388
# Poissons Ratio (z) = 0.42161 0.03076
#
# Static dielectric constant tensor:
#      x y z
#    x 5.624530 0.000000 0.000000 
#    y 0.000000 2.648280 0.000000 
#    z 0.000000 0.000000 3.349580 
# 
# 
# High freq. dielectric constant tensor:
#      x y z
#    x 1.737300 0.000000 0.000000 
#    y 0.000000 1.595330 0.000000 
#    z 0.000000 0.000000 1.710580 
# 
# From -- ./inp_files/6698.got.cif
#   From: 2010.03.12/outbox.cif.g09.slc.cpg/sg49_4_cif.got.tgz:6698.got - 2010.04.14 03:58:27.
