data_PCOD8202064
_publ_section_title
;
Structure prediction by ZEFSAII (Michael W. Deem and Ramdas Pophale) SiO2 
 PCOD8202064
Probable space group: P N N N
;
_chemical_formula_sum "Si O2"
_cell_formula_units_Z 38
_cell_length_a 8.071160
_cell_length_b 9.105176
_cell_length_c 25.229776
_cell_angle_alpha 90.000000
_cell_angle_beta 90.000000
_cell_angle_gamma 90.000000
_cell_volume 1854.119393
_symmetry_space_group_name_H-M "P N N N"
_symmetry_group_IT_number 48
_space_group.IT_coordinate_system_code '2'
_symmetry_cell_setting 'orthorhombic'
loop_
_space_group_symop_operation_xyz
x,y,z
1/2-x,1/2-y,z
x,1/2-y,1/2-z
1/2-x,y,1/2-z
-x,-y,-z
1/2+x,1/2+y,-z
-x,1/2+y,1/2+z
1/2+x,-y,1/2+z
loop_
_atom_site_type_symbol
_atom_site_label
_atom_site_fract_x
_atom_site_fract_y
_atom_site_fract_z
Si Si1 0.497778 0.764498 0.831737
Si Si2 0.750000 0.750000 0.750000
Si Si3 0.783838 0.486760 0.308809
Si Si4 0.912423 0.828386 0.945440
Si Si5 0.250000 0.250000 0.611499
Si Si6 0.081491 0.670225 0.448324
O O1 0.633995 0.837822 0.792071
O O2 0.338204 0.860539 0.826169
O O3 0.462600 0.595080 0.812560
O O4 0.551358 0.764572 0.892723
O O5 0.750000 0.548483 0.250000
O O6 0.758250 0.610786 0.351296
O O7 0.750000 0.750000 0.970220
O O8 0.893485 0.000632 0.932007
O O9 0.060198 0.814089 0.988152
O O10 0.419434 0.246572 0.577599
O O11 0.250000 0.750000 0.430232
#
# Coordination Sequence:
#
# PCOD8202064 Si02
#       6
#     8   2   8   8   4   8
#     4  11  22  38  67  96 127 167 223 272 322 387
#     4  12  20  36  64  98 130 154 220 282 322 382
#     4  11  23  43  64  94 128 177 218 270 333 395
#     4  11  24  43  67  99 130 175 227 272 329 395
#     4  12  25  45  66  96 141 177 216 276 342 406
#     4  11  27  45  65  99 138 175 222 274 339 405
#
# _framework density 20.494904999999999
#
# number of rings (size 3 to 8) (size 9 to 14) (size 15 to 20)
#    0.000    0.842    6.316    0.947    5.895    0.842 
#    0.000    0.000    0.000    2.526    0.000    0.000 
#    0.000    0.000    0.000    0.000    0.000    0.000 
#
# Total GULP energy -470774.342123 kJ/mol
# GULP energy per Si atom -12388.798477 kJ/mol
# Density = 2.044826 g / cm^3
# Si number density = 20.494905 Si / 1000 Ang^3
#
#
#
# Elastic Constant Matrix: (Units=GPa)
#
#
# Indices 1 2 3 4 5 6 
#
# 1 121.8153 43.0405 43.4042 0.0000 0.0000 0.0000
# 2 43.0405 81.3822 32.1130 0.0000 0.0000 0.0000
# 3 43.4042 32.1130 136.1565 0.0000 0.0000 0.0000
# 4 0.0000 0.0000 0.0000 35.1606 0.0000 0.0000
# 5 0.0000 0.0000 0.0000 0.0000 30.9090 0.0000
# 6 0.0000 0.0000 0.0000 0.0000 0.0000 11.4240
#
#
#
# Elastic Compliance Matrix: (Units=1/GPa)
#
#
# Indices 1 2 3 4 5 6 
#
# 1 0.010707 -0.004758 -0.002291 0.000000 0.000000 0.000000
# 2 -0.004758 0.015663 -0.002177 0.000000 0.000000 0.000000
# 3 -0.002291 -0.002177 0.008588 0.000000 0.000000 0.000000
# 4 0.000000 0.000000 0.000000 0.028441 0.000000 0.000000
# 5 0.000000 0.000000 0.000000 0.000000 0.032353 0.000000
# 6 0.000000 0.000000 0.000000 0.000000 0.000000 0.087535
#
#
# Mechanical properties :
#
#
# Convention : Reuss Voigt Hill
#
# Bulk Modulus (GPa) = 60.58708 64.05214 62.31961
# Shear Modulus (GPa) = 24.12634 30.21848 27.17241
#
# Velocity S-wave (km/s) = 3.43474 3.84401 3.64512
# Velocity P-wave (km/s) = 6.73469 7.14300 6.94185
#
# Compressibility (1/GPa) = 0.01650517
#
# Stress axis : x y z
#
# Youngs Moduli (GPa) = 93.39968 63.84272 116.43762
#
# Poissons Ratio (x) = 0.30379 0.26673
# Poissons Ratio (y) = 0.44444 0.25353
# Poissons Ratio (z) = 0.21396 0.13901
#
# Static dielectric constant tensor:
#      x y z
#    x 4.228860 0.000000 0.000000 
#    y 0.000000 3.411300 0.000000 
#    z 0.000000 0.000000 3.872350 
# 
# 
# High freq. dielectric constant tensor:
#      x y z
#    x 1.808560 0.000000 0.000000 
#    y 0.000000 1.776250 0.000000 
#    z 0.000000 0.000000 1.820040 
# 
# From -- ./inp_files/9044.got.cif
#   From: 2010.06.25/outbox.cif.g09.slc.cpg/sg48_5_cif.got.tgz:9044.got - 2010.06.26 18:06:46.
