data_PCOD8202901
_publ_section_title
;
Structure prediction by ZEFSAII (Michael W. Deem and Ramdas Pophale) SiO2 
 PCOD8202901
Probable space group: P C C M
;
_chemical_formula_sum "Si O2"
_cell_formula_units_Z 34
_cell_length_a 11.739339
_cell_length_b 12.089057
_cell_length_c 13.049272
_cell_angle_alpha 90.000000
_cell_angle_beta 90.000000
_cell_angle_gamma 90.000000
_cell_volume 1851.920559
_symmetry_space_group_name_H-M "P C C M"
_symmetry_group_IT_number 49
_symmetry_cell_setting 'orthorhombic'
loop_
_space_group_symop_operation_xyz
x,y,z
-x,-y,z
x,-y,1/2-z
-x,y,1/2-z
-x,-y,-z
x,y,-z
-x,y,1/2+z
x,-y,1/2+z
loop_
_atom_site_type_symbol
_atom_site_label
_atom_site_fract_x
_atom_site_fract_y
_atom_site_fract_z
Si Si1 0.816269 0.116747 0.116659
Si Si2 0.545148 0.378297 0.616225
Si Si3 0.350045 0.745808 0.773572
Si Si4 0.000000 0.000000 0.750000
Si Si5 0.617888 0.062188 0.613262
O O1 0.766481 0.231887 0.164682
O O2 0.720236 0.024095 0.124488
O O3 0.852697 0.140188 0.000000
O O4 0.926739 0.080407 0.178738
O O5 0.500000 0.500000 0.638386
O O6 0.583501 0.364048 0.500000
O O7 0.654189 0.355488 0.690709
O O8 0.450117 0.284983 0.644980
O O9 0.376373 0.854024 0.706513
O O10 0.626899 0.119184 0.500000
O O11 0.500000 0.000000 0.622573
#
# Coordination Sequence:
#
# PCOD8202901 Si02
#       5
#     8   8   8   2   8
#     4  11  23  37  55  79 109 149 191 230 270 323
#     4  10  21  34  51  80 116 148 180 223 279 343
#     4  11  18  32  51  75 104 145 181 220 268 327
#     4  12  22  44  54  74 110 160 190 242 272 314
#     4  10  19  31  50  78 111 144 179 219 269 333
#
# _framework density 18.35932
#
# number of rings (size 3 to 8) (size 9 to 14) (size 15 to 20)
#    0.000    1.412    2.353    6.000    0.000    2.824 
#    0.000    0.000    0.000    0.706    0.000    3.294 
#    0.000   11.294    0.000    0.000    0.000    0.000 
#
# Total GULP energy -421206.995162 kJ/mol
# GULP energy per Si atom -12388.441034 kJ/mol
# Density = 1.831753 g / cm^3
# Si number density = 18.359320 Si / 1000 Ang^3
#
#
#
# Elastic Constant Matrix: (Units=GPa)
#
#
# Indices 1 2 3 4 5 6 
#
# 1 91.1296 26.4587 49.9040 0.0000 0.0000 0.0000
# 2 26.4587 66.0455 46.9536 0.0000 0.0000 0.0000
# 3 49.9040 46.9536 161.5092 0.0000 0.0000 0.0000
# 4 0.0000 0.0000 0.0000 33.4730 0.0000 0.0000
# 5 0.0000 0.0000 0.0000 0.0000 45.0190 0.0000
# 6 0.0000 0.0000 0.0000 0.0000 0.0000 17.9450
#
#
#
# Elastic Compliance Matrix: (Units=1/GPa)
#
#
# Indices 1 2 3 4 5 6 
#
# 1 0.013702 -0.003125 -0.003325 0.000000 0.000000 0.000000
# 2 -0.003125 0.019799 -0.004790 0.000000 0.000000 0.000000
# 3 -0.003325 -0.004790 0.008612 0.000000 0.000000 0.000000
# 4 0.000000 0.000000 0.000000 0.029875 0.000000 0.000000
# 5 0.000000 0.000000 0.000000 0.000000 0.022213 0.000000
# 6 0.000000 0.000000 0.000000 0.000000 0.000000 0.055726
#
#
# Mechanical properties :
#
#
# Convention : Reuss Voigt Hill
#
# Bulk Modulus (GPa) = 50.93999 62.81299 56.87649
# Shear Modulus (GPa) = 27.94085 32.31194 30.12639
#
# Velocity S-wave (km/s) = 3.90537 4.19976 4.05524
# Velocity P-wave (km/s) = 6.93846 7.60294 7.27829
#
# Compressibility (1/GPa) = 0.01963094
#
# Stress axis : x y z
#
# Youngs Moduli (GPa) = 72.98409 50.50883 116.12282
#
# Poissons Ratio (x) = 0.15785 0.38612
# Poissons Ratio (y) = 0.22809 0.55624
# Poissons Ratio (z) = 0.24268 0.24194
#
# Static dielectric constant tensor:
#      x y z
#    x 3.107920 0.000000 0.000000 
#    y 0.000000 3.788820 0.000000 
#    z 0.000000 0.000000 4.213820 
# 
# 
# High freq. dielectric constant tensor:
#      x y z
#    x 1.659310 0.000000 0.000000 
#    y 0.000000 1.695540 0.000000 
#    z 0.000000 0.000000 1.754980 
# 
# From -- ./inp_files/12546.got.cif
#   From: 2010.03.12/outbox.cif.g09.slc.cpg/sg49_7_cif.got.tgz:12546.got - 2010.04.14 03:58:27.
