data_PCOD8202328
_publ_section_title
;
Structure prediction by ZEFSAII (Michael W. Deem and Ramdas Pophale) SiO2 
 PCOD8202328
Probable space group: P C C M
;
_chemical_formula_sum "Si O2"
_cell_formula_units_Z 48
_cell_length_a 30.764999
_cell_length_b 9.586972
_cell_length_c 8.646991
_cell_angle_alpha 90.000000
_cell_angle_beta 90.000000
_cell_angle_gamma 90.000000
_cell_volume 2550.371057
_symmetry_space_group_name_H-M "P C C M"
_symmetry_group_IT_number 49
_symmetry_cell_setting 'orthorhombic'
loop_
_space_group_symop_operation_xyz
x,y,z
-x,-y,z
x,-y,1/2-z
-x,y,1/2-z
-x,-y,-z
x,y,-z
-x,y,1/2+z
x,-y,1/2+z
loop_
_atom_site_type_symbol
_atom_site_label
_atom_site_fract_x
_atom_site_fract_y
_atom_site_fract_z
Si Si1 0.714106 0.146885 0.818348
Si Si2 0.455636 0.347073 0.817012
Si Si3 0.043362 0.844787 0.683687
Si Si4 0.615051 0.148123 0.182813
Si Si5 0.131761 0.846375 0.183347
Si Si6 0.211334 0.346886 0.317667
O O1 0.664724 0.181509 0.770382
O O2 0.745041 0.270341 0.755782
O O3 0.729675 0.000000 0.750000
O O4 0.718831 0.132106 0.000000
O O5 0.449952 0.500000 0.750000
O O6 0.500000 0.278802 0.750000
O O7 0.413925 0.262368 0.764957
O O8 0.458692 0.352649 0.000000
O O9 0.042313 0.844315 0.500000
O O10 0.087866 0.776196 0.746297
O O11 0.000000 0.767633 0.750000
O O12 0.043557 0.000000 0.750000
O O13 0.600691 0.000000 0.250000
O O14 0.607826 0.150473 0.000000
O O15 0.170380 0.744888 0.235808
O O16 0.140807 0.000000 0.250000
O O17 0.127377 0.858221 0.000000
O O18 0.208077 0.500000 0.250000
O O19 0.212642 0.360480 0.500000
#
# Coordination Sequence:
#
# PCOD8202328 Si02
#       6
#     8   8   8   8   8   8
#     4   9  19  36  57  81 108 139 176 218 263 314
#     4  11  22  38  58  81 110 145 184 224 269 318
#     4  10  17  27  45  71 102 133 167 209 257 304
#     4  10  20  36  57  83 113 143 179 222 269 319
#     4  10  19  32  51  76 104 135 173 214 258 308
#     4  10  22  37  53  76 106 139 176 217 260 309
#
# _framework density 18.820792000000001
#
# number of rings (size 3 to 8) (size 9 to 14) (size 15 to 20)
#    0.000    2.000    0.000    6.500    0.000    3.667 
#    0.000    3.333    0.000    0.500    0.000    3.500 
#    0.000    0.000    0.000    0.000    0.000    0.000 
#
# Total GULP energy -595150.498891 kJ/mol
# GULP energy per Si atom -12398.968727 kJ/mol
# Density = 1.877796 g / cm^3
# Si number density = 18.820792 Si / 1000 Ang^3
#
#
#
# Elastic Constant Matrix: (Units=GPa)
#
#
# Indices 1 2 3 4 5 6 
#
# 1 152.5298 80.9963 55.3491 0.0000 0.0000 0.0000
# 2 80.9963 103.7329 40.0510 0.0000 0.0000 0.0000
# 3 55.3491 40.0510 106.4115 0.0000 0.0000 0.0000
# 4 0.0000 0.0000 0.0000 30.8758 0.0000 0.0000
# 5 0.0000 0.0000 0.0000 0.0000 28.5665 0.0000
# 6 0.0000 0.0000 0.0000 0.0000 0.0000 2.2338
#
#
#
# Elastic Compliance Matrix: (Units=1/GPa)
#
#
# Indices 1 2 3 4 5 6 
#
# 1 0.012061 -0.008185 -0.003193 0.000000 0.000000 0.000000
# 2 -0.008185 0.016833 -0.002079 0.000000 0.000000 0.000000
# 3 -0.003193 -0.002079 0.011841 0.000000 0.000000 0.000000
# 4 0.000000 0.000000 0.000000 0.032388 0.000000 0.000000
# 5 0.000000 0.000000 0.000000 0.000000 0.035006 0.000000
# 6 0.000000 0.000000 0.000000 0.000000 0.000000 0.447658
#
#
# Mechanical properties :
#
#
# Convention : Reuss Voigt Hill
#
# Bulk Modulus (GPa) = 72.34454 79.49633 75.92044
# Shear Modulus (GPa) = 8.51345 24.75374 16.63359
#
# Velocity S-wave (km/s) = 2.12914 3.63055 2.97608
# Velocity P-wave (km/s) = 6.67581 7.73982 7.22742
#
# Compressibility (1/GPa) = 0.01382274
#
# Stress axis : x y z
#
# Youngs Moduli (GPa) = 82.91274 59.40600 84.45552
#
# Poissons Ratio (x) = 0.48621 0.26966
# Poissons Ratio (y) = 0.67860 0.17555
# Poissons Ratio (z) = 0.26473 0.12348
#
# Static dielectric constant tensor:
#      x y z
#    x 4.228770 0.000000 0.000000 
#    y 0.000000 3.380360 0.000000 
#    z 0.000000 0.000000 3.509970 
# 
# 
# High freq. dielectric constant tensor:
#      x y z
#    x 1.754290 0.000000 0.000000 
#    y 0.000000 1.700220 0.000000 
#    z 0.000000 0.000000 1.741320 
# 
# From -- ./inp_files/6884.got.cif
#   From: 2010.03.12/outbox.cif.g09.slc.cpg/sg49_4_cif.got.tgz:6884.got - 2010.04.14 03:58:27.
