data_PCOD8202886
_publ_section_title
;
Structure prediction by ZEFSAII (Michael W. Deem and Ramdas Pophale) SiO2 
 PCOD8202886
Probable space group: P C C M
;
_chemical_formula_sum "Si O2"
_cell_formula_units_Z 64
_cell_length_a 20.786462
_cell_length_b 17.383191
_cell_length_c 8.940898
_cell_angle_alpha 90.000000
_cell_angle_beta 90.000000
_cell_angle_gamma 90.000000
_cell_volume 3230.659729
_symmetry_space_group_name_H-M "P C C M"
_symmetry_group_IT_number 49
_symmetry_cell_setting 'orthorhombic'
loop_
_space_group_symop_operation_xyz
x,y,z
-x,-y,z
x,-y,1/2-z
-x,y,1/2-z
-x,-y,-z
x,y,-z
-x,y,1/2+z
x,-y,1/2+z
loop_
_atom_site_type_symbol
_atom_site_label
_atom_site_fract_x
_atom_site_fract_y
_atom_site_fract_z
Si Si1 0.709622 0.578231 0.821738
Si Si2 0.643460 0.926949 0.831110
Si Si3 0.204094 0.711251 0.175382
Si Si4 0.086183 0.921310 0.672491
Si Si5 0.437589 0.790387 0.323955
Si Si6 0.224140 0.134774 0.832698
Si Si7 0.937352 0.760017 0.322979
Si Si8 0.565573 0.617950 0.176298
O O1 0.737455 0.500000 0.750000
O O2 0.754343 0.647582 0.762722
O O3 0.633852 0.581471 0.773717
O O4 0.715704 0.577299 0.000000
O O5 0.619792 0.844838 0.768790
O O6 0.719464 0.926231 0.807935
O O7 0.612603 0.000000 0.750000
O O8 0.620779 0.935378 0.000000
O O9 0.230240 0.795677 0.215560
O O10 0.127709 0.712702 0.220537
O O11 0.212640 0.696205 0.000000
O O12 0.063325 0.919522 0.500000
O O13 0.162624 0.918485 0.687267
O O14 0.060627 0.846667 0.758957
O O15 0.061130 0.000000 0.750000
O O16 0.500000 0.827476 0.250000
O O17 0.445086 0.787265 0.500000
O O18 0.426619 0.704704 0.263497
O O19 0.227122 0.171200 0.000000
O O20 0.944466 0.764047 0.500000
O O21 0.000000 0.717703 0.250000
O O22 0.500000 0.581541 0.250000
O O23 0.556172 0.611198 0.000000
#
# Coordination Sequence:
#
# PCOD8202886 Si02
#       8
#     8   8   8   8   8   8   8   8
#     4  11  23  39  60  87 120 153 184 220 266 321
#     4  10  20  32  46  66  94 128 170 221 274 324
#     4  10  21  37  59  86 113 143 182 227 272 325
#     4  10  19  31  49  74 107 145 183 226 278 331
#     4   9  18  33  50  67  90 124 168 215 263 315
#     4   9  18  33  52  73 100 136 176 220 271 326
#     4  10  21  37  57  82 111 144 187 234 280 333
#     4   9  19  36  58  82 110 146 185 225 268 319
#
# _framework density 19.810195
#
# number of rings (size 3 to 8) (size 9 to 14) (size 15 to 20)
#    0.000    2.250    0.000    2.625    0.000    6.750 
#    0.000    6.250    0.000    0.375    0.000    2.625 
#    0.000    0.000    0.000    0.000    0.000    0.000 
#
# Total GULP energy -793061.102311 kJ/mol
# GULP energy per Si atom -12391.579724 kJ/mol
# Density = 1.976511 g / cm^3
# Si number density = 19.810195 Si / 1000 Ang^3
#
#
#
# Elastic Constant Matrix: (Units=GPa)
#
#
# Indices 1 2 3 4 5 6 
#
# 1 97.3888 31.8751 42.8563 0.0000 0.0000 0.0000
# 2 31.8751 77.7097 37.6651 0.0000 0.0000 0.0000
# 3 42.8563 37.6651 75.7396 0.0000 0.0000 0.0000
# 4 0.0000 0.0000 0.0000 28.1340 0.0000 0.0000
# 5 0.0000 0.0000 0.0000 0.0000 31.6034 0.0000
# 6 0.0000 0.0000 0.0000 0.0000 0.0000 6.3114
#
#
#
# Elastic Compliance Matrix: (Units=1/GPa)
#
#
# Indices 1 2 3 4 5 6 
#
# 1 0.014036 -0.002514 -0.006692 0.000000 0.000000 0.000000
# 2 -0.002514 0.017405 -0.007233 0.000000 0.000000 0.000000
# 3 -0.006692 -0.007233 0.020587 0.000000 0.000000 0.000000
# 4 0.000000 0.000000 0.000000 0.035544 0.000000 0.000000
# 5 0.000000 0.000000 0.000000 0.000000 0.031642 0.000000
# 6 0.000000 0.000000 0.000000 0.000000 0.000000 0.158444
#
#
# Mechanical properties :
#
#
# Convention : Reuss Voigt Hill
#
# Bulk Modulus (GPa) = 52.21915 52.84792 52.53354
# Shear Modulus (GPa) = 15.77689 22.43920 19.10805
#
# Velocity S-wave (km/s) = 2.82512 3.36923 3.10910
# Velocity P-wave (km/s) = 6.08759 6.47075 6.28209
#
# Compressibility (1/GPa) = 0.01915006
#
# Stress axis : x y z
#
# Youngs Moduli (GPa) = 71.24737 57.45342 48.57499
#
# Poissons Ratio (x) = 0.14442 0.32506
# Poissons Ratio (y) = 0.17909 0.35136
# Poissons Ratio (z) = 0.47677 0.41558
#
# Static dielectric constant tensor:
#      x y z
#    x 3.927610 0.000000 0.000000 
#    y 0.000000 3.417880 0.000000 
#    z 0.000000 0.000000 3.595150 
# 
# 
# High freq. dielectric constant tensor:
#      x y z
#    x 1.783320 0.000000 0.000000 
#    y 0.000000 1.750970 0.000000 
#    z 0.000000 0.000000 1.770230 
# 
# From -- ./inp_files/5992.got.cif
#   From: 2010.03.12/outbox.cif.g09.slc.cpg/sg49_3_cif.got.tgz:5992.got - 2010.04.14 03:58:27.
