data_PCOD8202123
_publ_section_title
;
Structure prediction by ZEFSAII (Michael W. Deem and Ramdas Pophale) SiO2 
 PCOD8202123
Probable space group: P N N N
;
_chemical_formula_sum "Si O2"
_cell_formula_units_Z 56
_cell_length_a 14.350997
_cell_length_b 16.776415
_cell_length_c 11.107779
_cell_angle_alpha 90.000000
_cell_angle_beta 90.000000
_cell_angle_gamma 90.000000
_cell_volume 2674.289781
_symmetry_space_group_name_H-M "P N N N"
_symmetry_group_IT_number 48
_space_group.IT_coordinate_system_code '2'
_symmetry_cell_setting 'orthorhombic'
loop_
_space_group_symop_operation_xyz
x,y,z
1/2-x,1/2-y,z
x,1/2-y,1/2-z
1/2-x,y,1/2-z
-x,-y,-z
1/2+x,1/2+y,-z
-x,1/2+y,1/2+z
1/2+x,-y,1/2+z
loop_
_atom_site_type_symbol
_atom_site_label
_atom_site_fract_x
_atom_site_fract_y
_atom_site_fract_z
Si Si1 0.610448 0.582832 0.582750
Si Si2 0.071676 0.925838 0.978790
Si Si3 0.650076 0.157708 0.719767
Si Si4 0.790916 0.667841 0.494671
Si Si5 0.057642 0.327621 0.315339
Si Si6 0.508992 0.074400 0.872607
Si Si7 0.152313 0.456347 0.685537
O O1 0.715097 0.603817 0.542413
O O2 0.589701 0.608258 0.717952
O O3 0.584640 0.489397 0.578125
O O4 0.541759 0.620561 0.482391
O O5 0.115826 0.879183 0.092039
O O6 0.023219 0.859062 0.899528
O O7 0.153555 0.965892 0.900267
O O8 0.000000 0.000000 0.000000
O O9 0.663707 0.250000 0.750000
O O10 0.750000 0.116347 0.750000
O O11 0.568439 0.141403 0.811533
O O12 0.750000 0.750000 0.439554
O O13 0.852478 0.696364 0.606966
O O14 0.855311 0.624412 0.395052
O O15 0.017932 0.250000 0.250000
O O16 0.432532 0.038201 0.779983
O O17 0.250000 0.453597 0.750000
#
# Coordination Sequence:
#
# PCOD8202123 Si02
#       7
#     8   8   8   8   8   8   8
#     4  11  24  39  64 100 138 180 228 284 350 421
#     4  12  24  48  74 101 139 193 242 292 355 433
#     4  11  27  47  72 104 136 181 244 301 360 421
#     4  12  25  40  64 104 146 181 227 295 365 436
#     4  12  24  41  67 103 145 185 234 290 362 430
#     4  11  24  44  67  98 136 183 233 291 346 425
#     4  12  25  46  68 103 139 185 242 286 358 431
#
# _framework density 20.940138999999999
#
# number of rings (size 3 to 8) (size 9 to 14) (size 15 to 20)
#    0.000    0.429    7.143    0.429    4.000    1.429 
#    0.000    0.000    0.000    0.000    0.000    0.000 
#    0.000    0.000    0.000    0.000    0.000    0.000 
#
# Total GULP energy -693906.814873 kJ/mol
# GULP energy per Si atom -12391.193123 kJ/mol
# Density = 2.089248 g / cm^3
# Si number density = 20.940139 Si / 1000 Ang^3
#
#
#
# Elastic Constant Matrix: (Units=GPa)
#
#
# Indices 1 2 3 4 5 6 
#
# 1 88.4201 38.1856 39.3770 0.0000 0.0000 0.0000
# 2 38.1856 84.4299 29.6527 0.0000 0.0000 0.0000
# 3 39.3770 29.6527 104.2757 0.0000 0.0000 0.0000
# 4 0.0000 0.0000 0.0000 33.2962 0.0000 0.0000
# 5 0.0000 0.0000 0.0000 0.0000 34.7242 0.0000
# 6 0.0000 0.0000 0.0000 0.0000 0.0000 28.4981
#
#
#
# Elastic Compliance Matrix: (Units=1/GPa)
#
#
# Indices 1 2 3 4 5 6 
#
# 1 0.015633 -0.005552 -0.004325 0.000000 0.000000 0.000000
# 2 -0.005552 0.015130 -0.002206 0.000000 0.000000 0.000000
# 3 -0.004325 -0.002206 0.011850 0.000000 0.000000 0.000000
# 4 0.000000 0.000000 0.000000 0.030033 0.000000 0.000000
# 5 0.000000 0.000000 0.000000 0.000000 0.028798 0.000000
# 6 0.000000 0.000000 0.000000 0.000000 0.000000 0.035090
#
#
# Mechanical properties :
#
#
# Convention : Reuss Voigt Hill
#
# Bulk Modulus (GPa) = 54.20459 54.61735 54.41097
# Shear Modulus (GPa) = 29.96712 30.63107 30.29909
#
# Velocity S-wave (km/s) = 3.78707 3.82880 3.80799
# Velocity P-wave (km/s) = 6.71299 6.75910 6.73609
#
# Compressibility (1/GPa) = 0.01844862
#
# Stress axis : x y z
#
# Youngs Moduli (GPa) = 63.96644 66.09480 84.38522
#
# Poissons Ratio (x) = 0.36693 0.36495
# Poissons Ratio (y) = 0.35512 0.18615
# Poissons Ratio (z) = 0.27664 0.14581
#
# Static dielectric constant tensor:
#      x y z
#    x 4.036760 0.000000 0.000000 
#    y 0.000000 3.722620 0.000000 
#    z 0.000000 0.000000 4.613980 
# 
# 
# High freq. dielectric constant tensor:
#      x y z
#    x 1.824350 0.000000 0.000000 
#    y 0.000000 1.811700 0.000000 
#    z 0.000000 0.000000 1.838500 
# 
# From -- ./inp_files/21343.got.cif
#   From: 2010.06.25/outbox.cif.g09.slc.cpg/sg48_11_cif.got.tgz:21343.got - 2010.06.26 18:06:46.
