data_PCOD8202462
_publ_section_title
;
Structure prediction by ZEFSAII (Michael W. Deem and Ramdas Pophale) SiO2 
 PCOD8202462
Probable space group: P C C M
;
_chemical_formula_sum "Si O2"
_cell_formula_units_Z 56
_cell_length_a 29.758106
_cell_length_b 13.443401
_cell_length_c 8.896641
_cell_angle_alpha 90.000000
_cell_angle_beta 90.000000
_cell_angle_gamma 90.000000
_cell_volume 3559.102584
_symmetry_space_group_name_H-M "P C C M"
_symmetry_group_IT_number 49
_symmetry_cell_setting 'orthorhombic'
loop_
_space_group_symop_operation_xyz
x,y,z
-x,-y,z
x,-y,1/2-z
-x,y,1/2-z
-x,-y,-z
x,y,-z
-x,y,1/2+z
x,-y,1/2+z
loop_
_atom_site_type_symbol
_atom_site_label
_atom_site_fract_x
_atom_site_fract_y
_atom_site_fract_z
Si Si1 0.180574 0.200313 0.324251
Si Si2 0.736381 0.108639 0.322707
Si Si3 0.542863 0.891267 0.176852
Si Si4 0.869891 0.600124 0.324238
Si Si5 0.098145 0.100032 0.824169
Si Si6 0.361241 0.104635 0.826573
Si Si7 0.952364 0.700646 0.823861
O O1 0.182278 0.177048 0.500000
O O2 0.229158 0.185556 0.251002
O O3 0.165903 0.313222 0.291135
O O4 0.146067 0.123720 0.249377
O O5 0.745426 0.099458 0.500000
O O6 0.686598 0.156724 0.288422
O O7 0.741971 0.000000 0.250000
O O8 0.500000 0.832847 0.250000
O O9 0.591580 0.838178 0.214160
O O10 0.544434 0.000000 0.250000
O O11 0.534694 0.898996 0.000000
O O12 0.850365 0.500000 0.250000
O O13 0.877650 0.584862 0.500000
O O14 0.917447 0.624421 0.248547
O O15 0.062580 0.186601 0.789096
O O16 0.078520 0.000000 0.750000
O O17 0.105378 0.084527 0.000000
O O18 0.360762 0.000000 0.750000
O O19 0.362679 0.079382 0.000000
O O20 0.000000 0.680483 0.750000
O O21 0.954952 0.679604 0.000000
#
# Coordination Sequence:
#
# PCOD8202462 Si02
#       7
#     8   8   8   8   8   8   8
#     4  10  20  33  48  67  89 112 139 173 210 250
#     4  10  18  28  42  60  84 114 145 178 214 252
#     4   9  14  20  29  42  61  88 126 170 212 249
#     4  10  21  37  56  74  92 112 137 170 208 249
#     4  10  20  33  49  68  91 120 149 177 206 242
#     4   8  15  24  33  47  69  98 133 172 211 248
#     4  10  21  36  53  73  96 119 145 174 206 243
#
# _framework density 15.734304
#
# number of rings (size 3 to 8) (size 9 to 14) (size 15 to 20)
#    0.000    2.429    0.000    3.429    0.000    5.143 
#    0.000    2.857    0.000    0.000    0.000    0.000 
#    0.000    0.000    0.000    0.000    0.000    0.714 
#
# Total GULP energy -693903.252307 kJ/mol
# GULP energy per Si atom -12391.129505 kJ/mol
# Density = 1.569849 g / cm^3
# Si number density = 15.734304 Si / 1000 Ang^3
#
#
#
# Elastic Constant Matrix: (Units=GPa)
#
#
# Indices 1 2 3 4 5 6 
#
# 1 135.5148 25.4261 49.2292 0.0000 0.0000 0.0000
# 2 25.4261 57.2679 29.5701 0.0000 0.0000 0.0000
# 3 49.2292 29.5701 83.6407 0.0000 0.0000 0.0000
# 4 0.0000 0.0000 0.0000 21.6669 0.0000 0.0000
# 5 0.0000 0.0000 0.0000 0.0000 25.1595 0.0000
# 6 0.0000 0.0000 0.0000 0.0000 0.0000 9.3374
#
#
#
# Elastic Compliance Matrix: (Units=1/GPa)
#
#
# Indices 1 2 3 4 5 6 
#
# 1 0.009509 -0.001629 -0.005021 0.000000 0.000000 0.000000
# 2 -0.001629 0.021640 -0.006692 0.000000 0.000000 0.000000
# 3 -0.005021 -0.006692 0.017277 0.000000 0.000000 0.000000
# 4 0.000000 0.000000 0.000000 0.046153 0.000000 0.000000
# 5 0.000000 0.000000 0.000000 0.000000 0.039746 0.000000
# 6 0.000000 0.000000 0.000000 0.000000 0.000000 0.107096
#
#
# Mechanical properties :
#
#
# Convention : Reuss Voigt Hill
#
# Bulk Modulus (GPa) = 45.99276 53.87491 49.93384
# Shear Modulus (GPa) = 18.15854 22.71264 20.43559
#
# Velocity S-wave (km/s) = 3.40085 3.80348 3.60779
# Velocity P-wave (km/s) = 6.68696 7.32143 7.01137
#
# Compressibility (1/GPa) = 0.02174255
#
# Stress axis : x y z
#
# Youngs Moduli (GPa) = 105.16492 46.20982 57.88133
#
# Poissons Ratio (x) = 0.07529 0.29060
# Poissons Ratio (y) = 0.17135 0.38732
# Poissons Ratio (z) = 0.52800 0.30922
#
# Static dielectric constant tensor:
#      x y z
#    x 3.704090 0.000000 0.000000 
#    y 0.000000 2.765480 0.000000 
#    z 0.000000 0.000000 3.043100 
# 
# 
# High freq. dielectric constant tensor:
#      x y z
#    x 1.616180 0.000000 0.000000 
#    y 0.000000 1.544980 0.000000 
#    z 0.000000 0.000000 1.625770 
# 
# From -- ./inp_files/7030.got.cif
#   From: 2010.03.12/outbox.cif.g09.slc.cpg/sg49_4_cif.got.tgz:7030.got - 2010.04.14 03:58:27.
