data_PCOD8202811
_publ_section_title
;
Structure prediction by ZEFSAII (Michael W. Deem and Ramdas Pophale) SiO2 
 PCOD8202811
Probable space group: P C C M
;
_chemical_formula_sum "Si O2"
_cell_formula_units_Z 52
_cell_length_a 17.133952
_cell_length_b 15.360908
_cell_length_c 9.083211
_cell_angle_alpha 90.000000
_cell_angle_beta 90.000000
_cell_angle_gamma 90.000000
_cell_volume 2390.638101
_symmetry_space_group_name_H-M "P C C M"
_symmetry_group_IT_number 49
_symmetry_cell_setting 'orthorhombic'
loop_
_space_group_symop_operation_xyz
x,y,z
-x,-y,z
x,-y,1/2-z
-x,y,1/2-z
-x,-y,-z
x,y,-z
-x,y,1/2+z
x,-y,1/2+z
loop_
_atom_site_type_symbol
_atom_site_label
_atom_site_fract_x
_atom_site_fract_y
_atom_site_fract_z
Si Si1 0.574854 0.735915 0.172568
Si Si2 0.612351 0.085336 0.167700
Si Si3 0.070975 0.112816 0.162861
Si Si4 0.000000 0.281295 0.250000
Si Si5 0.126694 0.416046 0.666015
Si Si6 0.255750 0.315926 0.828141
Si Si7 0.217746 0.859310 0.833097
O O1 0.500000 0.690133 0.250000
O O2 0.583379 0.830523 0.245681
O O3 0.650946 0.675761 0.200957
O O4 0.560090 0.748507 0.000000
O O5 0.706271 0.080422 0.167901
O O6 0.579661 0.000000 0.250000
O O7 0.581073 0.088191 0.000000
O O8 0.052528 0.217342 0.147453
O O9 0.146099 0.089097 0.261193
O O10 0.000000 0.066824 0.250000
O O11 0.081834 0.073533 0.000000
O O12 0.061267 0.340957 0.337654
O O13 0.092438 0.500000 0.750000
O O14 0.146907 0.442051 0.500000
O O15 0.208181 0.390105 0.743547
O O16 0.229213 0.223444 0.769265
O O17 0.236287 0.321658 0.000000
O O18 0.197096 0.829915 0.000000
#
# Coordination Sequence:
#
# PCOD8202811 Si02
#       7
#     8   8   8   4   8   8   8
#     4  10  21  37  60  90 118 148 185 229 277 333
#     4  10  21  36  55  81 115 151 185 225 272 332
#     4  10  19  30  50  75 102 135 179 229 278 326
#     4  10  23  34  54  78 111 146 190 226 283 326
#     4  12  25  39  56  79 114 152 190 233 284 339
#     4  10  20  36  58  81 109 145 189 231 275 329
#     4  10  19  32  52  77 105 140 183 228 277 326
#
# _framework density 21.751514
#
# number of rings (size 3 to 8) (size 9 to 14) (size 15 to 20)
#    0.462    1.231    1.538    3.462    0.000    6.462 
#    0.000    1.538    0.000    0.923    0.000    6.462 
#    0.000    0.000    0.000    0.000    0.000    0.000 
#
# Total GULP energy -644583.151304 kJ/mol
# GULP energy per Si atom -12395.829833 kJ/mol
# Density = 2.170201 g / cm^3
# Si number density = 21.751514 Si / 1000 Ang^3
#
#
#
# Elastic Constant Matrix: (Units=GPa)
#
#
# Indices 1 2 3 4 5 6 
#
# 1 117.1691 -0.6343 54.6765 0.0000 0.0000 0.0000
# 2 -0.6343 57.4104 20.9494 0.0000 0.0000 0.0000
# 3 54.6765 20.9494 170.6925 0.0000 0.0000 0.0000
# 4 0.0000 0.0000 0.0000 25.5921 0.0000 0.0000
# 5 0.0000 0.0000 0.0000 0.0000 33.2485 0.0000
# 6 0.0000 0.0000 0.0000 0.0000 0.0000 325.4643
#
#
#
# Elastic Compliance Matrix: (Units=1/GPa)
#
#
# Indices 1 2 3 4 5 6 
#
# 1 0.010135 0.001357 -0.003413 0.000000 0.000000 0.000000
# 2 0.001357 0.018417 -0.002695 0.000000 0.000000 0.000000
# 3 -0.003413 -0.002695 0.007283 0.000000 0.000000 0.000000
# 4 0.000000 0.000000 0.000000 0.039075 0.000000 0.000000
# 5 0.000000 0.000000 0.000000 0.000000 0.030077 0.000000
# 6 0.000000 0.000000 0.000000 0.000000 0.000000 0.003073
#
#
# Mechanical properties :
#
#
# Convention : Reuss Voigt Hill
#
# Bulk Modulus (GPa) = 37.97562 55.02835 46.50199
# Shear Modulus (GPa) = 39.57677 94.87967 67.22822
#
# Velocity S-wave (km/s) = 4.27018 6.61169 5.56547
# Velocity P-wave (km/s) = 6.46601 9.14547 7.91988
#
# Compressibility (1/GPa) = 0.02633269
#
# Stress axis : x y z
#
# Youngs Moduli (GPa) = 98.67126 54.29785 137.31529
#
# Poissons Ratio (x) = -0.07370 0.46865
# Poissons Ratio (y) = -0.13393 0.37008
# Poissons Ratio (z) = 0.33676 0.14634
#
# Static dielectric constant tensor:
#      x y z
#    x 4.281590 0.000000 0.000000 
#    y 0.000000 3.476530 0.000000 
#    z 0.000000 0.000000 3.898750 
# 
# 
# High freq. dielectric constant tensor:
#      x y z
#    x 1.867150 0.000000 0.000000 
#    y 0.000000 1.818190 0.000000 
#    z 0.000000 0.000000 1.864690 
# 
# From -- ./inp_files/5027.got.cif
#   From: 2010.03.12/outbox.cif.g09.slc.cpg/sg49_3_cif.got.tgz:5027.got - 2010.04.14 03:58:27.
