data_PCOD8202265
_publ_section_title
;
Structure prediction by ZEFSAII (Michael W. Deem and Ramdas Pophale) SiO2 
 PCOD8202265
Probable space group: P C C M
;
_chemical_formula_sum "Si O2"
_cell_formula_units_Z 64
_cell_length_a 15.462871
_cell_length_b 13.268762
_cell_length_c 17.996498
_cell_angle_alpha 90.000000
_cell_angle_beta 90.000000
_cell_angle_gamma 90.000000
_cell_volume 3692.398276
_symmetry_space_group_name_H-M "P C C M"
_symmetry_group_IT_number 49
_symmetry_cell_setting 'orthorhombic'
loop_
_space_group_symop_operation_xyz
x,y,z
-x,-y,z
x,-y,1/2-z
-x,y,1/2-z
-x,-y,-z
x,y,-z
-x,y,1/2+z
x,-y,1/2+z
loop_
_atom_site_type_symbol
_atom_site_label
_atom_site_fract_x
_atom_site_fract_y
_atom_site_fract_z
Si Si1 0.742157 0.198116 0.317245
Si Si2 0.408172 0.445268 0.418190
Si Si3 0.655822 0.346036 0.411813
Si Si4 0.625390 0.098317 0.201206
Si Si5 0.730175 0.016117 0.417851
Si Si6 0.484381 0.277795 0.332884
Si Si7 0.096883 0.881343 0.764728
Si Si8 0.914894 0.936241 0.580875
O O1 0.733122 0.305288 0.358749
O O2 0.675274 0.181726 0.250120
O O3 0.712351 0.123038 0.381978
O O4 0.839074 0.183925 0.286038
O O5 0.500000 0.500000 0.418338
O O6 0.385768 0.404104 0.500000
O O7 0.342067 0.534043 0.395173
O O8 0.406878 0.348899 0.363969
O O9 0.668779 0.325283 0.500000
O O10 0.567643 0.290148 0.385558
O O11 0.542088 0.158516 0.169193
O O12 0.599075 0.000000 0.250000
O O13 0.688243 0.069880 0.133516
O O14 0.688230 0.009708 0.500000
O O15 0.833502 0.009685 0.424252
O O16 0.500000 0.317747 0.250000
O O17 0.107466 0.858111 0.853077
O O18 0.000000 0.847750 0.750000
O O19 0.116067 0.000000 0.750000
O O20 0.929654 0.883375 0.500000
O O21 0.000000 0.000000 0.603958
#
# Coordination Sequence:
#
# PCOD8202265 Si02
#       8
#     8   8   8   8   8   8   8   8
#     4  11  18  33  47  69 101 138 172 212 266 324
#     4   8  17  34  54  74  99 125 159 219 276 309
#     4  10  21  36  53  75 103 133 171 226 278 323
#     4  10  21  35  48  67 104 138 172 215 256 304
#     4  10  19  30  45  64  92 136 176 212 252 302
#     4  11  20  34  53  78  96 136 177 213 266 323
#     4  11  17  29  48  70  97 140 183 223 266 315
#     4  10  17  26  42  66  94 128 175 219 258 306
#
# _framework density 17.332908
#
# number of rings (size 3 to 8) (size 9 to 14) (size 15 to 20)
#    0.000    1.875    5.000    1.875    0.000    3.500 
#    0.000    0.625    0.000    2.250    0.000    0.000 
#    0.000    2.000    0.000    2.750    3.500    0.000 
#
# Total GULP energy -792888.665940 kJ/mol
# GULP energy per Si atom -12388.885405 kJ/mol
# Density = 1.729346 g / cm^3
# Si number density = 17.332908 Si / 1000 Ang^3
#
#
#
# Elastic Constant Matrix: (Units=GPa)
#
#
# Indices 1 2 3 4 5 6 
#
# 1 59.0168 31.1172 30.7681 0.0000 0.0000 0.0000
# 2 31.1172 78.1675 48.7143 0.0000 0.0000 0.0000
# 3 30.7681 48.7143 140.1082 0.0000 0.0000 0.0000
# 4 0.0000 0.0000 0.0000 17.6250 0.0000 0.0000
# 5 0.0000 0.0000 0.0000 0.0000 26.8540 0.0000
# 6 0.0000 0.0000 0.0000 0.0000 0.0000 18.2422
#
#
#
# Elastic Compliance Matrix: (Units=1/GPa)
#
#
# Indices 1 2 3 4 5 6 
#
# 1 0.022002 -0.007337 -0.002281 0.000000 0.000000 0.000000
# 2 -0.007337 0.018779 -0.004918 0.000000 0.000000 0.000000
# 3 -0.002281 -0.004918 0.009348 0.000000 0.000000 0.000000
# 4 0.000000 0.000000 0.000000 0.056737 0.000000 0.000000
# 5 0.000000 0.000000 0.000000 0.000000 0.037238 0.000000
# 6 0.000000 0.000000 0.000000 0.000000 0.000000 0.054818
#
#
# Mechanical properties :
#
#
# Convention : Reuss Voigt Hill
#
# Bulk Modulus (GPa) = 47.48978 55.38799 51.43889
# Shear Modulus (GPa) = 21.27538 23.65711 22.46625
#
# Velocity S-wave (km/s) = 3.50731 3.69842 3.60413
# Velocity P-wave (km/s) = 6.62267 7.08960 6.86011
#
# Compressibility (1/GPa) = 0.02105716
#
# Stress axis : x y z
#
# Youngs Moduli (GPa) = 45.45046 53.25163 106.97409
#
# Poissons Ratio (x) = 0.39073 0.24396
# Poissons Ratio (y) = 0.33349 0.52609
# Poissons Ratio (z) = 0.10365 0.26189
#
# Static dielectric constant tensor:
#      x y z
#    x 3.089700 0.000000 0.000000 
#    y 0.000000 3.128990 0.000000 
#    z 0.000000 0.000000 3.723710 
# 
# 
# High freq. dielectric constant tensor:
#      x y z
#    x 1.645750 0.000000 0.000000 
#    y 0.000000 1.621060 0.000000 
#    z 0.000000 0.000000 1.696270 
# 
# From -- ./inp_files/18230.got.cif
#   From: 2010.03.12/outbox.cif.g09.slc.cpg/sg49_10_cif.got.tgz:18230.got - 2010.04.14 03:58:27.
