data_PCOD8202387
_publ_section_title
;
Structure prediction by ZEFSAII (Michael W. Deem and Ramdas Pophale) SiO2 
 PCOD8202387
Probable space group: P C C M
;
_chemical_formula_sum "Si O2"
_cell_formula_units_Z 32
_cell_length_a 9.341988
_cell_length_b 20.702087
_cell_length_c 8.587743
_cell_angle_alpha 90.000000
_cell_angle_beta 90.000000
_cell_angle_gamma 90.000000
_cell_volume 1660.857888
_symmetry_space_group_name_H-M "P C C M"
_symmetry_group_IT_number 49
_symmetry_cell_setting 'orthorhombic'
loop_
_space_group_symop_operation_xyz
x,y,z
-x,-y,z
x,-y,1/2-z
-x,y,1/2-z
-x,-y,-z
x,y,-z
-x,y,1/2+z
x,-y,1/2+z
loop_
_atom_site_type_symbol
_atom_site_label
_atom_site_fract_x
_atom_site_fract_y
_atom_site_fract_z
Si Si1 0.157802 0.803753 0.816317
Si Si2 0.840355 0.064657 0.315576
Si Si3 0.342353 0.689324 0.316485
Si Si4 0.847389 0.432027 0.681956
O O1 0.230437 0.869114 0.746384
O O2 0.258886 0.745342 0.771218
O O3 0.000000 0.790913 0.750000
O O4 0.146119 0.810757 0.000000
O O5 0.839453 0.063179 0.500000
O O6 0.000000 0.064995 0.250000
O O7 0.761329 0.000000 0.250000
O O8 0.500000 0.686217 0.250000
O O9 0.342268 0.703070 0.500000
O O10 0.268594 0.621627 0.274654
O O11 0.793423 0.500000 0.750000
O O12 0.866934 0.440128 0.500000
O O13 0.000000 0.410845 0.750000
#
# Coordination Sequence:
#
# PCOD8202387 Si02
#       4
#     8   8   8   8
#     4  11  21  35  56  82 111 146 186 231 278 330
#     4  10  17  28  47  75 109 142 179 226 277 329
#     4  11  24  40  57  81 111 148 187 229 277 329
#     4  10  21  37  60  86 113 143 181 224 273 326
#
# _framework density 19.267151999999999
#
# number of rings (size 3 to 8) (size 9 to 14) (size 15 to 20)
#    0.000    1.500    0.000    9.750    0.000    6.500 
#    0.000    2.500    0.000    0.750    0.000    5.250 
#    0.000    0.000    0.000    0.000    0.000    0.000 
#
# Total GULP energy -396801.608453 kJ/mol
# GULP energy per Si atom -12400.050264 kJ/mol
# Density = 1.922330 g / cm^3
# Si number density = 19.267152 Si / 1000 Ang^3
#
#
#
# Elastic Constant Matrix: (Units=GPa)
#
#
# Indices 1 2 3 4 5 6 
#
# 1 92.3793 71.0070 48.4278 0.0000 0.0000 0.0000
# 2 71.0070 159.5541 83.4071 0.0000 0.0000 0.0000
# 3 48.4278 83.4071 173.5368 0.0000 0.0000 0.0000
# 4 0.0000 0.0000 0.0000 40.3036 0.0000 0.0000
# 5 0.0000 0.0000 0.0000 0.0000 21.0238 0.0000
# 6 0.0000 0.0000 0.0000 0.0000 0.0000 -9.3575
#
#
#
# Elastic Compliance Matrix: (Units=1/GPa)
#
#
# Indices 1 2 3 4 5 6 
#
# 1 0.016724 -0.006682 -0.001456 0.000000 0.000000 0.000000
# 2 -0.006682 0.011040 -0.003442 0.000000 0.000000 0.000000
# 3 -0.001456 -0.003442 0.007823 0.000000 0.000000 0.000000
# 4 0.000000 0.000000 0.000000 0.024812 0.000000 0.000000
# 5 0.000000 0.000000 0.000000 0.000000 0.047565 0.000000
# 6 0.000000 0.000000 0.000000 0.000000 0.000000 -0.106866
#
#
# Mechanical properties :
#
#
# Convention : Reuss Voigt Hill
#
# Bulk Modulus (GPa) = 80.45717 92.35043 86.40380
# Shear Modulus (GPa) = 176.06160 25.23585 100.64872
#
# Velocity S-wave (km/s) = 9.56961 3.62302 7.23546
# Velocity P-wave (km/s) = 12.80440 8.09551 10.71191
#
# Compressibility (1/GPa) = 0.01242897
#
# Stress axis : x y z
#
# Youngs Moduli (GPa) = 59.79456 90.57801 127.83148
#
# Poissons Ratio (x) = 0.60523 0.18606
# Poissons Ratio (y) = 0.39954 0.43995
# Poissons Ratio (z) = 0.08703 0.31173
#
# Static dielectric constant tensor:
#      x y z
#    x 3.204980 0.000000 0.000000 
#    y 0.000000 4.781490 0.000000 
#    z 0.000000 0.000000 3.708120 
# 
# 
# High freq. dielectric constant tensor:
#      x y z
#    x 1.706470 0.000000 0.000000 
#    y 0.000000 1.778540 0.000000 
#    z 0.000000 0.000000 1.773760 
# 
# From -- ./inp_files/1398.got.cif
#   From: 2010.03.12/outbox.cif.g09.slc.cpg/sg49_1_cif.got.tgz:1398.got - 2010.04.14 03:58:27.
