data_PCOD8202489
_publ_section_title
;
Structure prediction by ZEFSAII (Michael W. Deem and Ramdas Pophale) SiO2 
 PCOD8202489
Probable space group: P C C M
;
_chemical_formula_sum "Si O2"
_cell_formula_units_Z 64
_cell_length_a 18.420121
_cell_length_b 26.632158
_cell_length_c 8.651420
_cell_angle_alpha 90.000000
_cell_angle_beta 90.000000
_cell_angle_gamma 90.000000
_cell_volume 4244.106111
_symmetry_space_group_name_H-M "P C C M"
_symmetry_group_IT_number 49
_symmetry_cell_setting 'orthorhombic'
loop_
_space_group_symop_operation_xyz
x,y,z
-x,-y,z
x,-y,1/2-z
-x,y,1/2-z
-x,-y,-z
x,y,-z
-x,y,1/2+z
x,-y,1/2+z
loop_
_atom_site_type_symbol
_atom_site_label
_atom_site_fract_x
_atom_site_fract_y
_atom_site_fract_z
Si Si1 0.420950 0.048141 0.321634
Si Si2 0.076854 0.650362 0.317012
Si Si3 0.578048 0.344485 0.814868
Si Si4 0.148107 0.552875 0.814573
Si Si5 0.419794 0.159067 0.318614
Si Si6 0.289025 0.400718 0.668337
Si Si7 0.658800 0.749045 0.182124
Si Si8 0.793404 0.296693 0.171108
O O1 0.500000 0.049488 0.250000
O O2 0.428141 0.037505 0.500000
O O3 0.386533 0.103076 0.290122
O O4 0.377171 0.000000 0.250000
O O5 0.074447 0.645817 0.500000
O O6 0.095386 0.595921 0.246790
O O7 0.133645 0.693532 0.268255
O O8 0.000000 0.667619 0.250000
O O9 0.500000 0.358863 0.750000
O O10 0.633933 0.387851 0.749594
O O11 0.602286 0.289987 0.757124
O O12 0.578317 0.344060 0.000000
O O13 0.119791 0.500000 0.750000
O O14 0.231165 0.562062 0.748958
O O15 0.147265 0.553990 0.000000
O O16 0.500000 0.164922 0.250000
O O17 0.423141 0.171943 0.500000
O O18 0.365225 0.195622 0.230627
O O19 0.306355 0.423479 0.500000
O O20 0.248619 0.348221 0.650740
O O21 0.741368 0.742103 0.239743
O O22 0.655869 0.741931 0.000000
O O23 0.812606 0.275593 0.000000
#
# Coordination Sequence:
#
# PCOD8202489 Si02
#       8
#     8   8   8   8   8   8   8   8
#     4   9  16  25  38  52  70  98 136 179 224 267
#     4  11  21  34  51  72  94 117 142 168 197 235
#     4  10  18  29  43  60  81 106 134 171 214 256
#     4  10  19  33  50  69  89 112 139 170 207 246
#     4  10  19  29  39  55  79 109 143 184 228 267
#     4   7  14  28  45  60  79 105 132 161 199 243
#     4  11  20  29  42  61  83 110 141 174 211 256
#     4   9  17  32  49  65  86 112 138 168 202 242
#
# _framework density 15.079736
#
# number of rings (size 3 to 8) (size 9 to 14) (size 15 to 20)
#    0.000    2.375    0.000    6.375    0.000    1.750 
#    0.000    3.125    0.000    0.375    0.000    2.625 
#    0.000    0.000    0.000    0.000    0.000    0.625 
#
# Total GULP energy -792943.362733 kJ/mol
# GULP energy per Si atom -12389.740043 kJ/mol
# Density = 1.504541 g / cm^3
# Si number density = 15.079736 Si / 1000 Ang^3
#
#
#
# Elastic Constant Matrix: (Units=GPa)
#
#
# Indices 1 2 3 4 5 6 
#
# 1 92.5810 28.8433 32.9940 0.0000 0.0000 0.0000
# 2 28.8433 52.4066 24.5367 0.0000 0.0000 0.0000
# 3 32.9940 24.5367 96.9369 0.0000 0.0000 0.0000
# 4 0.0000 0.0000 0.0000 19.9445 0.0000 0.0000
# 5 0.0000 0.0000 0.0000 0.0000 21.8907 0.0000
# 6 0.0000 0.0000 0.0000 0.0000 0.0000 19.8513
#
#
#
# Elastic Compliance Matrix: (Units=1/GPa)
#
#
# Indices 1 2 3 4 5 6 
#
# 1 0.013839 -0.006139 -0.003156 0.000000 0.000000 0.000000
# 2 -0.006139 0.024370 -0.004079 0.000000 0.000000 0.000000
# 3 -0.003156 -0.004079 0.012423 0.000000 0.000000 0.000000
# 4 0.000000 0.000000 0.000000 0.050139 0.000000 0.000000
# 5 0.000000 0.000000 0.000000 0.000000 0.045681 0.000000
# 6 0.000000 0.000000 0.000000 0.000000 0.000000 0.050375
#
#
# Mechanical properties :
#
#
# Convention : Reuss Voigt Hill
#
# Bulk Modulus (GPa) = 41.87060 46.07473 43.97266
# Shear Modulus (GPa) = 21.59490 22.70734 22.15112
#
# Velocity S-wave (km/s) = 3.78835 3.88470 3.83682
# Velocity P-wave (km/s) = 6.85287 7.12331 6.98940
#
# Compressibility (1/GPa) = 0.02388311
#
# Stress axis : x y z
#
# Youngs Moduli (GPa) = 72.26105 41.03401 80.49695
#
# Poissons Ratio (x) = 0.25189 0.25408
# Poissons Ratio (y) = 0.44359 0.32836
# Poissons Ratio (z) = 0.22808 0.16738
#
# Static dielectric constant tensor:
#      x y z
#    x 2.968530 0.000000 0.000000 
#    y 0.000000 3.198690 0.000000 
#    z 0.000000 0.000000 3.002860 
# 
# 
# High freq. dielectric constant tensor:
#      x y z
#    x 1.551730 0.000000 0.000000 
#    y 0.000000 1.551050 0.000000 
#    z 0.000000 0.000000 1.590070 
# 
# From -- ./inp_files/5411.got.cif
#   From: 2010.03.12/outbox.cif.g09.slc.cpg/sg49_3_cif.got.tgz:5411.got - 2010.04.14 03:58:27.
