data_PCOD8202591
_publ_section_title
;
Structure prediction by ZEFSAII (Michael W. Deem and Ramdas Pophale) SiO2 
 PCOD8202591
Probable space group: P C C M
;
_chemical_formula_sum "Si O2"
_cell_formula_units_Z 64
_cell_length_a 22.688292
_cell_length_b 18.015070
_cell_length_c 9.074637
_cell_angle_alpha 90.000000
_cell_angle_beta 90.000000
_cell_angle_gamma 90.000000
_cell_volume 3709.086985
_symmetry_space_group_name_H-M "P C C M"
_symmetry_group_IT_number 49
_symmetry_cell_setting 'orthorhombic'
loop_
_space_group_symop_operation_xyz
x,y,z
-x,-y,z
x,-y,1/2-z
-x,y,1/2-z
-x,-y,-z
x,y,-z
-x,y,1/2+z
x,-y,1/2+z
loop_
_atom_site_type_symbol
_atom_site_label
_atom_site_fract_x
_atom_site_fract_y
_atom_site_fract_z
Si Si1 0.937280 0.577063 0.321449
Si Si2 0.840154 0.308717 0.162289
Si Si3 0.238639 0.209126 0.838042
Si Si4 0.554774 0.277696 0.162648
Si Si5 0.741379 0.568295 0.662927
Si Si6 0.336092 0.666658 0.663093
Si Si7 0.319630 0.924800 0.322514
Si Si8 0.443236 0.103976 0.334664
O O1 0.913730 0.500000 0.250000
O O2 0.940005 0.569160 0.500000
O O3 0.895363 0.645399 0.271400
O O4 0.000000 0.595671 0.250000
O O5 0.820327 0.234758 0.250677
O O6 0.786304 0.364882 0.153469
O O7 0.857061 0.280390 0.000000
O O8 0.281139 0.278970 0.848089
O O9 0.274744 0.139973 0.768045
O O10 0.216866 0.185711 0.000000
O O11 0.500000 0.313742 0.250000
O O12 0.613676 0.291272 0.250858
O O13 0.546042 0.190620 0.148162
O O14 0.558332 0.313691 0.000000
O O15 0.770876 0.500000 0.750000
O O16 0.723430 0.541891 0.500000
O O17 0.682451 0.592776 0.749485
O O18 0.358076 0.644804 0.500000
O O19 0.322512 0.928202 0.500000
O O20 0.385154 0.912091 0.260592
O O21 0.294429 0.000000 0.250000
O O22 0.500000 0.069338 0.250000
O O23 0.437017 0.069365 0.500000
#
# Coordination Sequence:
#
# PCOD8202591 Si02
#       8
#     8   8   8   8   8   8   8   8
#     4  10  19  31  47  72 105 144 180 212 243 282
#     4   9  19  32  49  71  98 130 168 206 241 278
#     4   9  19  33  50  70  94 122 159 200 241 286
#     4  10  19  30  47  69  90 114 147 187 232 282
#     4  10  19  31  46  68  94 122 155 194 236 281
#     4  10  18  31  49  68  90 117 148 190 236 281
#     4  11  22  36  51  71  97 127 161 199 245 300
#     4  10  20  33  50  70  93 123 156 196 241 292
#
# _framework density 17.254922000000001
#
# number of rings (size 3 to 8) (size 9 to 14) (size 15 to 20)
#    0.000    2.125    1.250    3.000    0.000    4.250 
#    0.000    1.250    0.000    0.375    0.000    2.625 
#    0.000    0.500    0.000    5.500    0.000    4.000 
#
# Total GULP energy -793162.608681 kJ/mol
# GULP energy per Si atom -12393.165761 kJ/mol
# Density = 1.721565 g / cm^3
# Si number density = 17.254922 Si / 1000 Ang^3
#
#
#
# Elastic Constant Matrix: (Units=GPa)
#
#
# Indices 1 2 3 4 5 6 
#
# 1 74.0556 34.4756 40.5161 0.0000 0.0000 0.0000
# 2 34.4756 62.1283 34.3500 0.0000 0.0000 0.0000
# 3 40.5161 34.3500 127.0861 0.0000 0.0000 0.0000
# 4 0.0000 0.0000 0.0000 20.9487 0.0000 0.0000
# 5 0.0000 0.0000 0.0000 0.0000 16.8368 0.0000
# 6 0.0000 0.0000 0.0000 0.0000 0.0000 4.0121
#
#
#
# Elastic Compliance Matrix: (Units=1/GPa)
#
#
# Indices 1 2 3 4 5 6 
#
# 1 0.019737 -0.008786 -0.003917 0.000000 0.000000 0.000000
# 2 -0.008786 0.022835 -0.003371 0.000000 0.000000 0.000000
# 3 -0.003917 -0.003371 0.010029 0.000000 0.000000 0.000000
# 4 0.000000 0.000000 0.000000 0.047736 0.000000 0.000000
# 5 0.000000 0.000000 0.000000 0.000000 0.059394 0.000000
# 6 0.000000 0.000000 0.000000 0.000000 0.000000 0.249244
#
#
# Mechanical properties :
#
#
# Convention : Reuss Voigt Hill
#
# Bulk Modulus (GPa) = 48.89649 53.55039 51.22344
# Shear Modulus (GPa) = 11.16219 18.62143 14.89181
#
# Velocity S-wave (km/s) = 2.54618 3.28868 2.94095
# Velocity P-wave (km/s) = 6.08632 6.74705 6.42518
#
# Compressibility (1/GPa) = 0.02045137
#
# Stress axis : x y z
#
# Youngs Moduli (GPa) = 50.66638 43.79226 99.71361
#
# Poissons Ratio (x) = 0.38477 0.39062
# Poissons Ratio (y) = 0.44517 0.33613
# Poissons Ratio (z) = 0.19848 0.14762
#
# Static dielectric constant tensor:
#      x y z
#    x 3.071880 0.000000 0.000000 
#    y 0.000000 3.137510 0.000000 
#    z 0.000000 0.000000 3.790570 
# 
# 
# High freq. dielectric constant tensor:
#      x y z
#    x 1.636900 0.000000 0.000000 
#    y 0.000000 1.639730 0.000000 
#    z 0.000000 0.000000 1.685640 
# 
# From -- ./inp_files/6091.got.cif
#   From: 2010.03.12/outbox.cif.g09.slc.cpg/sg49_4_cif.got.tgz:6091.got - 2010.04.14 03:58:27.
