data_PCOD8202750
_publ_section_title
;
Structure prediction by ZEFSAII (Michael W. Deem and Ramdas Pophale) SiO2 
 PCOD8202750
Probable space group: P C C M
;
_chemical_formula_sum "Si O2"
_cell_formula_units_Z 64
_cell_length_a 11.007921
_cell_length_b 17.272829
_cell_length_c 19.950030
_cell_angle_alpha 90.000000
_cell_angle_beta 90.000000
_cell_angle_gamma 90.000000
_cell_volume 3793.257549
_symmetry_space_group_name_H-M "P C C M"
_symmetry_group_IT_number 49
_symmetry_cell_setting 'orthorhombic'
loop_
_space_group_symop_operation_xyz
x,y,z
-x,-y,z
x,-y,1/2-z
-x,y,1/2-z
-x,-y,-z
x,y,-z
-x,y,1/2+z
x,-y,1/2+z
loop_
_atom_site_type_symbol
_atom_site_label
_atom_site_fract_x
_atom_site_fract_y
_atom_site_fract_z
Si Si1 0.986865 0.334815 0.322793
Si Si2 0.177489 0.409017 0.924352
Si Si3 0.628857 0.531295 0.420137
Si Si4 0.810562 0.212009 0.165333
Si Si5 0.796949 0.802430 0.183563
Si Si6 0.997672 0.086617 0.329816
Si Si7 0.630592 0.704352 0.423520
Si Si8 0.351370 0.262091 0.073476
O O1 0.943490 0.396673 0.378862
O O2 0.883949 0.270732 0.317201
O O3 0.000000 0.376118 0.250000
O O4 0.111594 0.291151 0.340788
O O5 0.257640 0.479686 0.895079
O O6 0.264604 0.335577 0.923528
O O7 0.131915 0.425736 0.000000
O O8 0.500000 0.500000 0.390532
O O9 0.619806 0.527982 0.500000
O O10 0.658289 0.618274 0.395487
O O11 0.757487 0.190468 0.238825
O O12 0.891107 0.138247 0.141041
O O13 0.696035 0.227230 0.117590
O O14 0.681937 0.794925 0.134450
O O15 0.868349 0.875683 0.152513
O O16 0.000000 0.086988 0.250000
O O17 0.000000 0.000000 0.359873
O O18 0.673683 0.712669 0.500000
O O19 0.487669 0.712245 0.415922
O O20 0.336025 0.222210 0.000000
#
# Coordination Sequence:
#
# PCOD8202750 Si02
#       8
#     8   8   8   8   8   8   8   8
#     4   8  15  28  44  62  89 124 150 181 231 284
#     4   9  15  25  46  70  87 112 158 204 233 267
#     4   9  15  27  45  66  90 115 153 202 243 273
#     4   9  17  29  45  68  95 122 152 185 231 281
#     4   8  15  28  48  71  91 115 152 189 226 274
#     4   8  14  28  52  76  95 116 148 190 231 274
#     4  10  19  29  44  67  95 126 156 193 239 276
#     4   9  16  27  45  69  92 119 155 192 231 272
#
# _framework density 16.872042
#
# number of rings (size 3 to 8) (size 9 to 14) (size 15 to 20)
#    0.000    3.250    1.250    1.500    0.000    1.000 
#    0.000    2.500    0.000   15.750    0.000    5.250 
#    0.000    0.000    0.000    0.000    0.000    0.125 
#
# Total GULP energy -792949.555072 kJ/mol
# GULP energy per Si atom -12389.836798 kJ/mol
# Density = 1.683364 g / cm^3
# Si number density = 16.872042 Si / 1000 Ang^3
#
#
#
# Elastic Constant Matrix: (Units=GPa)
#
#
# Indices 1 2 3 4 5 6 
#
# 1 45.4566 22.3483 38.8964 0.0000 0.0000 0.0000
# 2 22.3483 75.2962 34.1566 0.0000 0.0000 0.0000
# 3 38.8964 34.1566 75.3403 0.0000 0.0000 0.0000
# 4 0.0000 0.0000 0.0000 13.3738 0.0000 0.0000
# 5 0.0000 0.0000 0.0000 0.0000 28.6324 0.0000
# 6 0.0000 0.0000 0.0000 0.0000 0.0000 18.9013
#
#
#
# Elastic Compliance Matrix: (Units=1/GPa)
#
#
# Indices 1 2 3 4 5 6 
#
# 1 0.039994 -0.003152 -0.019219 0.000000 0.000000 0.000000
# 2 -0.003152 0.016968 -0.006065 0.000000 0.000000 0.000000
# 3 -0.019219 -0.006065 0.025945 0.000000 0.000000 0.000000
# 4 0.000000 0.000000 0.000000 0.074773 0.000000 0.000000
# 5 0.000000 0.000000 0.000000 0.000000 0.034925 0.000000
# 6 0.000000 0.000000 0.000000 0.000000 0.000000 0.052906
#
#
# Mechanical properties :
#
#
# Convention : Reuss Voigt Hill
#
# Bulk Modulus (GPa) = 38.41069 42.98840 40.69954
# Shear Modulus (GPa) = 16.07394 18.89428 17.48411
#
# Velocity S-wave (km/s) = 3.08993 3.35006 3.22262
# Velocity P-wave (km/s) = 5.96200 6.36382 6.16619
#
# Compressibility (1/GPa) = 0.02603442
#
# Stress axis : x y z
#
# Youngs Moduli (GPa) = 25.00375 58.93505 38.54299
#
# Poissons Ratio (x) = 0.18578 0.74075
# Poissons Ratio (y) = 0.07882 0.23377
# Poissons Ratio (z) = 0.48054 0.35745
#
# Static dielectric constant tensor:
#      x y z
#    x 3.129230 0.000000 0.000000 
#    y 0.000000 3.186260 0.000000 
#    z 0.000000 0.000000 3.247440 
# 
# 
# High freq. dielectric constant tensor:
#      x y z
#    x 1.642230 0.000000 0.000000 
#    y 0.000000 1.622910 0.000000 
#    z 0.000000 0.000000 1.627780 
# 
# From -- ./inp_files/22582.got.cif
#   From: 2010.03.12/outbox.cif.g09.slc.cpg/sg49_12_cif.got.tgz:22582.got - 2010.04.14 03:58:27.
