data_PCOD8202162
_publ_section_title
;
Structure prediction by ZEFSAII (Michael W. Deem and Ramdas Pophale) SiO2 
 PCOD8202162
Probable space group: P N N N
;
_chemical_formula_sum "Si O2"
_cell_formula_units_Z 48
_cell_length_a 14.283913
_cell_length_b 5.131482
_cell_length_c 27.690868
_cell_angle_alpha 90.000000
_cell_angle_beta 90.000000
_cell_angle_gamma 90.000000
_cell_volume 2029.675342
_symmetry_space_group_name_H-M "P N N N"
_symmetry_group_IT_number 48
_space_group.IT_coordinate_system_code '2'
_symmetry_cell_setting 'orthorhombic'
loop_
_space_group_symop_operation_xyz
x,y,z
1/2-x,1/2-y,z
x,1/2-y,1/2-z
1/2-x,y,1/2-z
-x,-y,-z
1/2+x,1/2+y,-z
-x,1/2+y,1/2+z
1/2+x,-y,1/2+z
loop_
_atom_site_type_symbol
_atom_site_label
_atom_site_fract_x
_atom_site_fract_y
_atom_site_fract_z
Si Si1 0.354522 0.214760 0.837175
Si Si2 0.897550 0.871952 0.608642
Si Si3 0.366815 0.382360 0.203871
Si Si4 0.250000 0.750000 0.360688
Si Si5 0.517253 0.750000 0.250000
Si Si6 0.896112 0.230333 0.102882
Si Si7 0.750000 0.250000 0.477264
Si Si8 0.250000 0.250000 0.040118
O O1 0.250000 0.250000 0.817466
O O2 0.418193 0.129775 0.792007
O O3 0.398779 0.466663 0.864817
O O4 0.342550 0.965875 0.871529
O O5 0.909815 0.818293 0.665509
O O6 0.836358 0.672024 0.576024
O O7 0.002433 0.852419 0.588237
O O8 0.838031 0.145929 0.606659
O O9 0.318559 0.250000 0.250000
O O10 0.284471 0.527548 0.175632
O O11 0.453929 0.539979 0.223992
O O12 0.840347 0.168195 0.053947
O O13 0.722668 0.500836 0.508705
#
# Coordination Sequence:
#
# PCOD8202162 Si02
#       8
#     8   8   8   4   4   8   4   4
#     4  12  24  47  75 113 157 205 254 320 378 462
#     4  12  27  47  76 109 156 200 253 321 392 456
#     4  12  25  44  66 105 151 202 254 305 361 462
#     4  12  25  47  69 104 152 214 255 314 379 455
#     4  12  27  41  70 114 154 202 270 301 377 462
#     4  12  26  49  82 111 151 203 258 321 399 464
#     4  12  27  52  81 113 147 198 259 332 397 488
#     4  12  28  50  79 112 156 191 260 328 400 476
#
# _framework density 23.649101999999999
#
# number of rings (size 3 to 8) (size 9 to 14) (size 15 to 20)
#    0.000    0.000    5.000    4.750    0.000    6.333 
#    0.000    1.667    0.000    0.000    0.000    0.000 
#    0.000    0.000    0.000    0.000    0.000    0.000 
#
# Total GULP energy -594896.367379 kJ/mol
# GULP energy per Si atom -12393.674320 kJ/mol
# Density = 2.359528 g / cm^3
# Si number density = 23.649102 Si / 1000 Ang^3
#
#
#
# Elastic Constant Matrix: (Units=GPa)
#
#
# Indices 1 2 3 4 5 6 
#
# 1 148.8380 3.5575 40.0619 0.0000 0.0000 0.0000
# 2 3.5575 94.7319 25.4763 0.0000 0.0000 0.0000
# 3 40.0619 25.4763 119.8526 0.0000 0.0000 0.0000
# 4 0.0000 0.0000 0.0000 34.2479 0.0000 0.0000
# 5 0.0000 0.0000 0.0000 0.0000 2.9462 0.0000
# 6 0.0000 0.0000 0.0000 0.0000 0.0000 -58.6931
#
#
#
# Elastic Compliance Matrix: (Units=1/GPa)
#
#
# Indices 1 2 3 4 5 6 
#
# 1 0.007398 0.000411 -0.002560 0.000000 0.000000 0.000000
# 2 0.000411 0.011219 -0.002522 0.000000 0.000000 0.000000
# 3 -0.002560 -0.002522 0.009735 0.000000 0.000000 0.000000
# 4 0.000000 0.000000 0.000000 0.029199 0.000000 0.000000
# 5 0.000000 0.000000 0.000000 0.000000 0.339420 0.000000
# 6 0.000000 0.000000 0.000000 0.000000 0.000000 -0.017038
#
#
# Mechanical properties :
#
#
# Convention : Reuss Voigt Hill
#
# Bulk Modulus (GPa) = 52.60556 55.73488 54.17022
# Shear Modulus (GPa) = 12.63861 15.32198 13.98029
#
# Velocity S-wave (km/s) = 2.31427 2.54813 2.43401
# Velocity P-wave (km/s) = 5.42527 5.68119 5.55470
#
# Compressibility (1/GPa) = 0.01900940
#
# Stress axis : x y z
#
# Youngs Moduli (GPa) = 135.17169 89.13507 102.71762
#
# Poissons Ratio (x) = -0.03661 0.26297
# Poissons Ratio (y) = -0.05551 0.25905
# Poissons Ratio (z) = 0.34606 0.22480
#
# Static dielectric constant tensor:
#      x y z
#    x 4.324900 0.000000 0.000000 
#    y 0.000000 4.312970 0.000000 
#    z 0.000000 0.000000 7.297990 
# 
# 
# High freq. dielectric constant tensor:
#      x y z
#    x 1.953000 0.000000 0.000000 
#    y 0.000000 1.934180 0.000000 
#    z 0.000000 0.000000 1.939090 
# 
# From -- ./inp_files/37932.got.cif
#   From: 2010.06.25/outbox.cif.g09.slc.cpg/sg48_19_cif.got.tgz:37932.got - 2010.06.26 18:06:46.
