data_PCOD8202190
_publ_section_title
;
Structure prediction by ZEFSAII (Michael W. Deem and Ramdas Pophale) SiO2 
 PCOD8202190
Probable space group: P C C M
;
_chemical_formula_sum "Si O2"
_cell_formula_units_Z 48
_cell_length_a 31.176095
_cell_length_b 9.274501
_cell_length_c 8.668919
_cell_angle_alpha 90.000000
_cell_angle_beta 90.000000
_cell_angle_gamma 90.000000
_cell_volume 2506.554856
_symmetry_space_group_name_H-M "P C C M"
_symmetry_group_IT_number 49
_symmetry_cell_setting 'orthorhombic'
loop_
_space_group_symop_operation_xyz
x,y,z
-x,-y,z
x,-y,1/2-z
-x,y,1/2-z
-x,-y,-z
x,y,-z
-x,y,1/2+z
x,-y,1/2+z
loop_
_atom_site_type_symbol
_atom_site_label
_atom_site_fract_x
_atom_site_fract_y
_atom_site_fract_z
Si Si1 0.957309 0.160804 0.682130
Si Si2 0.220853 0.842649 0.819638
Si Si3 0.619155 0.156496 0.817362
Si Si4 0.546665 0.651584 0.816586
Si Si5 0.873201 0.157470 0.180104
Si Si6 0.298933 0.656745 0.181414
O O1 0.960144 0.158361 0.500000
O O2 0.913210 0.240619 0.737398
O O3 0.000000 0.239001 0.750000
O O4 0.955709 0.000000 0.750000
O O5 0.173575 0.772481 0.786802
O O6 0.256528 0.735117 0.750465
O O7 0.226654 0.000000 0.750000
O O8 0.227958 0.862885 0.000000
O O9 0.577204 0.220226 0.736633
O O10 0.659638 0.252731 0.769866
O O11 0.627958 0.000000 0.750000
O O12 0.612203 0.150148 0.000000
O O13 0.564129 0.500000 0.750000
O O14 0.500000 0.685749 0.750000
O O15 0.544633 0.642107 0.000000
O O16 0.870013 0.000000 0.250000
O O17 0.883423 0.148605 0.000000
O O18 0.303361 0.500000 0.250000
O O19 0.295110 0.642040 0.000000
#
# Coordination Sequence:
#
# PCOD8202190 Si02
#       6
#     8   8   8   8   8   8
#     4  10  16  22  32  49  77 113 154 194 237 289
#     4   9  18  32  50  73 100 131 168 210 256 307
#     4  11  23  39  59  85 115 147 185 227 273 322
#     4  11  22  39  62  88 118 152 190 229 272 320
#     4   9  15  24  38  57  84 117 154 196 243 293
#     4  10  22  38  56  79 107 139 176 217 262 314
#
# _framework density 19.149792000000001
#
# number of rings (size 3 to 8) (size 9 to 14) (size 15 to 20)
#    0.000    2.000    0.000    7.000    0.000    4.333 
#    0.000    1.667    0.000    0.000    0.000    0.000 
#    0.000    0.667    0.000    7.667    0.000    4.833 
#
# Total GULP energy -594979.508145 kJ/mol
# GULP energy per Si atom -12395.406420 kJ/mol
# Density = 1.910621 g / cm^3
# Si number density = 19.149792 Si / 1000 Ang^3
#
#
#
# Elastic Constant Matrix: (Units=GPa)
#
#
# Indices 1 2 3 4 5 6 
#
# 1 158.8591 67.7978 64.9606 0.0000 0.0000 0.0000
# 2 67.7978 98.1807 38.7401 0.0000 0.0000 0.0000
# 3 64.9606 38.7401 119.1284 0.0000 0.0000 0.0000
# 4 0.0000 0.0000 0.0000 23.2498 0.0000 0.0000
# 5 0.0000 0.0000 0.0000 0.0000 24.4284 0.0000
# 6 0.0000 0.0000 0.0000 0.0000 0.0000 8.6507
#
#
#
# Elastic Compliance Matrix: (Units=1/GPa)
#
#
# Indices 1 2 3 4 5 6 
#
# 1 0.010206 -0.005566 -0.003755 0.000000 0.000000 0.000000
# 2 -0.005566 0.014720 -0.001752 0.000000 0.000000 0.000000
# 3 -0.003755 -0.001752 0.011012 0.000000 0.000000 0.000000
# 4 0.000000 0.000000 0.000000 0.043011 0.000000 0.000000
# 5 0.000000 0.000000 0.000000 0.000000 0.040936 0.000000
# 6 0.000000 0.000000 0.000000 0.000000 0.000000 0.115597
#
#
# Mechanical properties :
#
#
# Convention : Reuss Voigt Hill
#
# Bulk Modulus (GPa) = 72.50730 79.90726 76.20728
# Shear Modulus (GPa) = 19.06757 24.91042 21.98900
#
# Velocity S-wave (km/s) = 3.15891 3.61060 3.39228
# Velocity P-wave (km/s) = 7.15893 7.69415 7.43136
#
# Compressibility (1/GPa) = 0.01379171
#
# Stress axis : x y z
#
# Youngs Moduli (GPa) = 97.98294 67.93494 90.81222
#
# Poissons Ratio (x) = 0.37811 0.34102
# Poissons Ratio (y) = 0.54536 0.15909
# Poissons Ratio (z) = 0.36795 0.11901
#
# Static dielectric constant tensor:
#      x y z
#    x 4.677210 0.000000 0.000000 
#    y 0.000000 2.947830 0.000000 
#    z 0.000000 0.000000 3.227290 
# 
# 
# High freq. dielectric constant tensor:
#      x y z
#    x 1.777840 0.000000 0.000000 
#    y 0.000000 1.690780 0.000000 
#    z 0.000000 0.000000 1.754400 
# 
# From -- ./inp_files/6875.got.cif
#   From: 2010.03.12/outbox.cif.g09.slc.cpg/sg49_4_cif.got.tgz:6875.got - 2010.04.14 03:58:27.
