data_PCOD8202572
_publ_section_title
;
Structure prediction by ZEFSAII (Michael W. Deem and Ramdas Pophale) SiO2 
 PCOD8202572
Probable space group: P C C M
;
_chemical_formula_sum "Si O2"
_cell_formula_units_Z 48
_cell_length_a 18.412260
_cell_length_b 16.794827
_cell_length_c 8.914326
_cell_angle_alpha 90.000000
_cell_angle_beta 90.000000
_cell_angle_gamma 90.000000
_cell_volume 2756.583460
_symmetry_space_group_name_H-M "P C C M"
_symmetry_group_IT_number 49
_symmetry_cell_setting 'orthorhombic'
loop_
_space_group_symop_operation_xyz
x,y,z
-x,-y,z
x,-y,1/2-z
-x,y,1/2-z
-x,-y,-z
x,y,-z
-x,y,1/2+z
x,-y,1/2+z
loop_
_atom_site_type_symbol
_atom_site_label
_atom_site_fract_x
_atom_site_fract_y
_atom_site_fract_z
Si Si1 0.324606 0.418346 0.321621
Si Si2 0.078398 0.761091 0.821621
Si Si3 0.424944 0.272252 0.329720
Si Si4 0.714020 0.810212 0.328890
Si Si5 0.163182 0.918844 0.829714
Si Si6 0.796631 0.325387 0.323526
O O1 0.353689 0.500000 0.250000
O O2 0.318396 0.425078 0.500000
O O3 0.381906 0.350189 0.271774
O O4 0.245092 0.399722 0.252376
O O5 0.114723 0.845012 0.772173
O O6 0.124932 0.687862 0.753589
O O7 0.000000 0.756741 0.750000
O O8 0.074539 0.752539 0.000000
O O9 0.500000 0.256185 0.250000
O O10 0.445851 0.286040 0.500000
O O11 0.373241 0.193739 0.308022
O O12 0.732936 0.779860 0.500000
O O13 0.750677 0.897098 0.306887
O O14 0.748864 0.752728 0.206469
O O15 0.142213 0.000000 0.750000
O O16 0.144504 0.935519 0.000000
O O17 0.805906 0.340359 0.500000
#
# Coordination Sequence:
#
# PCOD8202572 Si02
#       6
#     8   8   8   8   8   8
#     4  10  20  34  50  71  99 130 161 198 239 283
#     4  10  20  34  50  71  99 130 161 198 239 283
#     4   9  18  31  48  69  96 126 159 198 242 287
#     4   8  16  32  48  65  92 127 161 198 239 282
#     4   9  18  31  48  69  96 126 159 198 242 287
#     4  10  18  30  50  73  94 123 162 200 236 282
#
# _framework density 17.412859000000001
#
# number of rings (size 3 to 8) (size 9 to 14) (size 15 to 20)
#    0.000    2.667    0.000    4.500    0.000    7.333 
#    0.000    3.333    0.000    1.000    0.000    7.000 
#    0.000    0.000    0.000    0.000    0.000    0.000 
#
# Total GULP energy -594763.160386 kJ/mol
# GULP energy per Si atom -12390.899175 kJ/mol
# Density = 1.737323 g / cm^3
# Si number density = 17.412859 Si / 1000 Ang^3
#
#
#
# Elastic Constant Matrix: (Units=GPa)
#
#
# Indices 1 2 3 4 5 6 
#
# 1 124.5684 12.3525 35.5433 0.0000 0.0000 0.0000
# 2 12.3525 5.0036 3.7976 0.0000 0.0000 0.0000
# 3 35.5433 3.7976 70.1762 0.0000 0.0000 0.0000
# 4 0.0000 0.0000 0.0000 22.5547 0.0000 0.0000
# 5 0.0000 0.0000 0.0000 0.0000 32.1531 0.0000
# 6 0.0000 0.0000 0.0000 0.0000 0.0000 16.7907
#
#
#
# Elastic Compliance Matrix: (Units=1/GPa)
#
#
# Indices 1 2 3 4 5 6 
#
# 1 0.011919 -0.025908 -0.004635 0.000000 0.000000 0.000000
# 2 -0.025908 0.264731 -0.001204 0.000000 0.000000 0.000000
# 3 -0.004635 -0.001204 0.016663 0.000000 0.000000 0.000000
# 4 0.000000 0.000000 0.000000 0.044337 0.000000 0.000000
# 5 0.000000 0.000000 0.000000 0.000000 0.031101 0.000000
# 6 0.000000 0.000000 0.000000 0.000000 0.000000 0.059557
#
#
# Mechanical properties :
#
#
# Convention : Reuss Voigt Hill
#
# Bulk Modulus (GPa) = 4.35124 33.68167 19.01645
# Shear Modulus (GPa) = 8.79650 24.17004 16.48327
#
# Velocity S-wave (km/s) = 2.25004 3.72971 3.08005
# Velocity P-wave (km/s) = 3.04213 6.15894 4.85732
#
# Compressibility (1/GPa) = 0.22981973
#
# Stress axis : x y z
#
# Youngs Moduli (GPa) = 83.89764 3.77741 60.01484
#
# Poissons Ratio (x) = 0.09786 0.27817
# Poissons Ratio (y) = 2.17360 0.07226
# Poissons Ratio (z) = 0.38886 0.00455
#
# Static dielectric constant tensor:
#      x y z
#    x 3.343000 0.000000 0.000000 
#    y 0.000000 3.119340 0.000000 
#    z 0.000000 0.000000 3.198990 
# 
# 
# High freq. dielectric constant tensor:
#      x y z
#    x 1.668110 0.000000 0.000000 
#    y 0.000000 1.640510 0.000000 
#    z 0.000000 0.000000 1.677610 
# 
# From -- ./inp_files/3712.got.cif
#   From: 2010.03.12/outbox.cif.g09.slc.cpg/sg49_2_cif.got.tgz:3712.got - 2010.04.14 03:58:27.
