data_PCOD8202876
_publ_section_title
;
Structure prediction by ZEFSAII (Michael W. Deem and Ramdas Pophale) SiO2 
 PCOD8202876
Probable space group: P C C M
;
_chemical_formula_sum "Si O2"
_cell_formula_units_Z 48
_cell_length_a 9.193132
_cell_length_b 31.509130
_cell_length_c 8.832827
_cell_angle_alpha 90.000000
_cell_angle_beta 90.000000
_cell_angle_gamma 90.000000
_cell_volume 2558.583721
_symmetry_space_group_name_H-M "P C C M"
_symmetry_group_IT_number 49
_symmetry_cell_setting 'orthorhombic'
loop_
_space_group_symop_operation_xyz
x,y,z
-x,-y,z
x,-y,1/2-z
-x,y,1/2-z
-x,-y,-z
x,y,-z
-x,y,1/2+z
x,-y,1/2+z
loop_
_atom_site_type_symbol
_atom_site_label
_atom_site_fract_x
_atom_site_fract_y
_atom_site_fract_z
Si Si1 0.342646 0.203436 0.678738
Si Si2 0.156758 0.124061 0.321941
Si Si3 0.157867 0.367610 0.822469
Si Si4 0.654743 0.043956 0.179456
Si Si5 0.841758 0.540420 0.176626
Si Si6 0.841043 0.284432 0.820889
O O1 0.500000 0.203342 0.750000
O O2 0.359810 0.201641 0.500000
O O3 0.254653 0.162695 0.739477
O O4 0.258189 0.245459 0.731521
O O5 0.138405 0.127626 0.500000
O O6 0.230935 0.079942 0.274462
O O7 0.000000 0.127011 0.250000
O O8 0.235737 0.413605 0.793307
O O9 0.236894 0.327653 0.742033
O O10 0.000000 0.369942 0.750000
O O11 0.144645 0.358425 0.000000
O O12 0.500000 0.056385 0.250000
O O13 0.712530 0.000000 0.250000
O O14 0.637439 0.039326 0.000000
O O15 0.755317 0.500000 0.250000
O O16 0.000000 0.541988 0.250000
O O17 0.857735 0.532150 0.000000
O O18 0.000000 0.278328 0.750000
O O19 0.855852 0.286993 0.000000
#
# Coordination Sequence:
#
# PCOD8202876 Si02
#       6
#     8   8   8   8   8   8
#     4  10  22  38  55  77 102 130 167 207 250 301
#     4  10  22  38  56  80 108 138 173 212 255 303
#     4   9  16  25  38  58  85 119 157 195 239 289
#     4  10  20  35  56  81 109 142 179 216 256 302
#     4   9  15  21  31  49  76 112 152 191 232 281
#     4  10  19  31  49  72  97 126 162 202 245 295
#
# _framework density 18.760380000000001
#
# number of rings (size 3 to 8) (size 9 to 14) (size 15 to 20)
#    0.000    2.333    0.000    5.000    0.000    5.667 
#    0.000    1.667    0.000    0.000    0.000    0.000 
#    0.000    0.667    0.000    7.333    0.000    8.167 
#
# Total GULP energy -594860.318656 kJ/mol
# GULP energy per Si atom -12392.923305 kJ/mol
# Density = 1.871768 g / cm^3
# Si number density = 18.760380 Si / 1000 Ang^3
#
#
#
# Elastic Constant Matrix: (Units=GPa)
#
#
# Indices 1 2 3 4 5 6 
#
# 1 92.0492 81.5340 35.2762 0.0000 0.0000 0.0000
# 2 81.5340 208.0251 67.1021 0.0000 0.0000 0.0000
# 3 35.2762 67.1021 81.0885 0.0000 0.0000 0.0000
# 4 0.0000 0.0000 0.0000 34.1812 0.0000 0.0000
# 5 0.0000 0.0000 0.0000 0.0000 23.4088 0.0000
# 6 0.0000 0.0000 0.0000 0.0000 0.0000 8.3383
#
#
#
# Elastic Compliance Matrix: (Units=1/GPa)
#
#
# Indices 1 2 3 4 5 6 
#
# 1 0.017025 -0.005844 -0.002571 0.000000 0.000000 0.000000
# 2 -0.005844 0.008563 -0.004544 0.000000 0.000000 0.000000
# 3 -0.002571 -0.004544 0.017211 0.000000 0.000000 0.000000
# 4 0.000000 0.000000 0.000000 0.029256 0.000000 0.000000
# 5 0.000000 0.000000 0.000000 0.000000 0.042719 0.000000
# 6 0.000000 0.000000 0.000000 0.000000 0.000000 0.119928
#
#
# Mechanical properties :
#
#
# Convention : Reuss Voigt Hill
#
# Bulk Modulus (GPa) = 59.23382 83.22083 71.22732
# Shear Modulus (GPa) = 18.77960 26.33570 22.55765
#
# Velocity S-wave (km/s) = 3.16733 3.75079 3.47134
# Velocity P-wave (km/s) = 6.70958 7.95073 7.35637
#
# Compressibility (1/GPa) = 0.01688225
#
# Stress axis : x y z
#
# Youngs Moduli (GPa) = 58.73712 116.77839 58.10279
#
# Poissons Ratio (x) = 0.68240 0.14937
# Poissons Ratio (y) = 0.34324 0.26402
# Poissons Ratio (z) = 0.15100 0.53065
#
# Static dielectric constant tensor:
#      x y z
#    x 2.933690 0.000000 0.000000 
#    y 0.000000 4.580490 0.000000 
#    z 0.000000 0.000000 3.503930 
# 
# 
# High freq. dielectric constant tensor:
#      x y z
#    x 1.672410 0.000000 0.000000 
#    y 0.000000 1.764010 0.000000 
#    z 0.000000 0.000000 1.736930 
# 
# From -- ./inp_files/2118.got.cif
#   From: 2010.03.12/outbox.cif.g09.slc.cpg/sg49_2_cif.got.tgz:2118.got - 2010.04.14 03:58:27.
