data_PCOD8202682
_publ_section_title
;
Structure prediction by ZEFSAII (Michael W. Deem and Ramdas Pophale) SiO2 
 PCOD8202682
Probable space group: P C C M
;
_chemical_formula_sum "Si O2"
_cell_formula_units_Z 40
_cell_length_a 13.086070
_cell_length_b 17.619594
_cell_length_c 9.850809
_cell_angle_alpha 90.000000
_cell_angle_beta 90.000000
_cell_angle_gamma 90.000000
_cell_volume 2271.313251
_symmetry_space_group_name_H-M "P C C M"
_symmetry_group_IT_number 49
_symmetry_cell_setting 'orthorhombic'
loop_
_space_group_symop_operation_xyz
x,y,z
-x,-y,z
x,-y,1/2-z
-x,y,1/2-z
-x,-y,-z
x,y,-z
-x,y,1/2+z
x,-y,1/2+z
loop_
_atom_site_type_symbol
_atom_site_label
_atom_site_fract_x
_atom_site_fract_y
_atom_site_fract_z
Si Si1 0.115018 0.822003 0.745724
Si Si2 0.608764 0.825590 0.000000
Si Si3 0.810908 0.905383 0.500000
Si Si4 0.803277 0.084489 0.500000
Si Si5 0.603821 0.571991 0.833441
Si Si6 0.619734 0.802732 0.500000
Si Si7 0.308970 0.726932 0.736983
O O1 0.127940 0.875160 0.873549
O O2 0.138932 0.878507 0.624713
O O3 0.189231 0.748850 0.744028
O O4 0.000000 0.789923 0.750000
O O5 0.681025 0.899614 0.000000
O O6 0.489217 0.845174 0.000000
O O7 0.631034 0.777046 0.131060
O O8 0.695850 0.873775 0.500000
O O9 0.813435 0.995211 0.500000
O O10 0.649580 0.500000 0.750000
O O11 0.500000 0.591736 0.750000
O O12 0.683555 0.639635 0.808424
O O13 0.588587 0.559088 0.000000
O O14 0.634673 0.744791 0.623211
#
# Coordination Sequence:
#
# PCOD8202682 Si02
#       7
#     8   4   4   4   8   4   8
#     4  10  21  37  55  76 101 137 181 226 275 314
#     4  10  18  34  50  76  99 147 175 216 261 314
#     4  10  21  35  48  82 103 137 174 228 271 326
#     4  10  21  33  54  74 109 131 180 222 275 328
#     4  11  22  35  55  85 117 147 176 208 257 311
#     4  10  20  32  52  72 109 139 185 212 261 316
#     4  10  21  34  53  77 105 140 180 219 256 314
#
# _framework density 17.610959000000001
#
# number of rings (size 3 to 8) (size 9 to 14) (size 15 to 20)
#    0.000    1.800    1.000    4.200    2.800    2.800 
#    0.000    0.000    0.000    7.800    0.000    1.400 
#    0.000    0.000    0.000    0.000    0.000    0.000 
#
# Total GULP energy -495634.219890 kJ/mol
# GULP energy per Si atom -12390.855497 kJ/mol
# Density = 1.757088 g / cm^3
# Si number density = 17.610959 Si / 1000 Ang^3
#
#
#
# Elastic Constant Matrix: (Units=GPa)
#
#
# Indices 1 2 3 4 5 6 
#
# 1 130.0805 39.2511 35.5308 0.0000 0.0000 0.0000
# 2 39.2511 112.0126 37.3686 0.0000 0.0000 0.0000
# 3 35.5308 37.3686 154.1060 0.0000 0.0000 0.0000
# 4 0.0000 0.0000 0.0000 41.1542 0.0000 0.0000
# 5 0.0000 0.0000 0.0000 0.0000 34.8637 0.0000
# 6 0.0000 0.0000 0.0000 0.0000 0.0000 16.4394
#
#
#
# Elastic Compliance Matrix: (Units=1/GPa)
#
#
# Indices 1 2 3 4 5 6 
#
# 1 0.008867 -0.002639 -0.001405 0.000000 0.000000 0.000000
# 2 -0.002639 0.010499 -0.001937 0.000000 0.000000 0.000000
# 3 -0.001405 -0.001937 0.007283 0.000000 0.000000 0.000000
# 4 0.000000 0.000000 0.000000 0.024299 0.000000 0.000000
# 5 0.000000 0.000000 0.000000 0.000000 0.028683 0.000000
# 6 0.000000 0.000000 0.000000 0.000000 0.000000 0.060829
#
#
# Mechanical properties :
#
#
# Convention : Reuss Voigt Hill
#
# Bulk Modulus (GPa) = 68.08627 68.94443 68.51535
# Shear Modulus (GPa) = 31.78292 37.42804 34.60548
#
# Velocity S-wave (km/s) = 4.25281 4.61507 4.43764
# Velocity P-wave (km/s) = 7.92846 8.22387 8.07752
#
# Compressibility (1/GPa) = 0.01468725
#
# Stress axis : x y z
#
# Youngs Moduli (GPa) = 112.77230 95.25137 137.31214
#
# Poissons Ratio (x) = 0.25134 0.19287
# Poissons Ratio (y) = 0.29757 0.26602
# Poissons Ratio (z) = 0.15840 0.18454
#
# Static dielectric constant tensor:
#      x y z
#    x 3.290340 0.000000 0.000000 
#    y 0.000000 3.206480 0.000000 
#    z 0.000000 0.000000 3.694660 
# 
# 
# High freq. dielectric constant tensor:
#      x y z
#    x 1.669580 0.000000 0.000000 
#    y 0.000000 1.664460 0.000000 
#    z 0.000000 0.000000 1.712340 
# 
# From -- ./inp_files/3597.got.cif
#   From: 2010.03.12/outbox.cif.g09.slc.cpg/sg49_2_cif.got.tgz:3597.got - 2010.04.14 03:58:27.
