data_PCOD8202315
_publ_section_title
;
Structure prediction by ZEFSAII (Michael W. Deem and Ramdas Pophale) SiO2 
 PCOD8202315
Probable space group: P C C M
;
_chemical_formula_sum "Si O2"
_cell_formula_units_Z 48
_cell_length_a 15.673263
_cell_length_b 19.309838
_cell_length_c 8.744277
_cell_angle_alpha 90.000000
_cell_angle_beta 90.000000
_cell_angle_gamma 90.000000
_cell_volume 2646.439427
_symmetry_space_group_name_H-M "P C C M"
_symmetry_group_IT_number 49
_symmetry_cell_setting 'orthorhombic'
loop_
_space_group_symop_operation_xyz
x,y,z
-x,-y,z
x,-y,1/2-z
-x,y,1/2-z
-x,-y,-z
x,y,-z
-x,y,1/2+z
x,-y,1/2+z
loop_
_atom_site_type_symbol
_atom_site_label
_atom_site_fract_x
_atom_site_fract_y
_atom_site_fract_z
Si Si1 0.912625 0.670541 0.179704
Si Si2 0.756768 0.575812 0.182196
Si Si3 0.911653 0.171861 0.319416
Si Si4 0.769681 0.924296 0.321106
Si Si5 0.418800 0.924923 0.823061
Si Si6 0.584723 0.423118 0.817474
O O1 0.834688 0.623567 0.236253
O O2 0.896668 0.749164 0.234551
O O3 0.000000 0.640940 0.250000
O O4 0.921966 0.666833 0.000000
O O5 0.772881 0.500000 0.250000
O O6 0.671672 0.611430 0.254429
O O7 0.747421 0.571445 0.000000
O O8 0.916141 0.165037 0.500000
O O9 0.834136 0.127417 0.257858
O O10 0.000000 0.143324 0.250000
O O11 0.789537 0.930106 0.500000
O O12 0.674623 0.892112 0.292383
O O13 0.779768 0.000000 0.250000
O O14 0.500000 0.883002 0.750000
O O15 0.416553 0.000000 0.750000
O O16 0.437358 0.931799 0.000000
O O17 0.585638 0.500000 0.750000
O O18 0.500000 0.384962 0.750000
O O19 0.582472 0.423323 0.000000
#
# Coordination Sequence:
#
# PCOD8202315 Si02
#       6
#     8   8   8   8   8   8
#     4   9  20  36  54  73  97 129 165 202 244 294
#     4  10  19  32  49  74 103 130 163 204 246 290
#     4  10  20  36  55  74  96 128 165 203 246 295
#     4  10  20  33  50  76 104 131 163 204 246 289
#     4   9  16  26  43  67  97 128 160 194 234 280
#     4  10  17  27  44  68  97 130 163 199 242 290
#
# _framework density 18.137577
#
# number of rings (size 3 to 8) (size 9 to 14) (size 15 to 20)
#    0.000    2.333    0.000    5.500    0.000    4.667 
#    0.000    3.333    0.000    1.000    0.000    2.333 
#    0.000    0.000    0.000    0.000    0.000    0.000 
#
# Total GULP energy -594902.046526 kJ/mol
# GULP energy per Si atom -12393.792636 kJ/mol
# Density = 1.809630 g / cm^3
# Si number density = 18.137577 Si / 1000 Ang^3
#
#
#
# Elastic Constant Matrix: (Units=GPa)
#
#
# Indices 1 2 3 4 5 6 
#
# 1 202.2468 62.3201 74.5208 0.0000 0.0000 0.0000
# 2 62.3201 49.5311 29.7944 0.0000 0.0000 0.0000
# 3 74.5208 29.7944 111.4695 0.0000 0.0000 0.0000
# 4 0.0000 0.0000 0.0000 15.0310 0.0000 0.0000
# 5 0.0000 0.0000 0.0000 0.0000 37.1202 0.0000
# 6 0.0000 0.0000 0.0000 0.0000 0.0000 -4.4107
#
#
#
# Elastic Compliance Matrix: (Units=1/GPa)
#
#
# Indices 1 2 3 4 5 6 
#
# 1 0.009160 -0.009343 -0.003626 0.000000 0.000000 0.000000
# 2 -0.009343 0.033588 -0.002731 0.000000 0.000000 0.000000
# 3 -0.003626 -0.002731 0.012125 0.000000 0.000000 0.000000
# 4 0.000000 0.000000 0.000000 0.066529 0.000000 0.000000
# 5 0.000000 0.000000 0.000000 0.000000 0.026939 0.000000
# 6 0.000000 0.000000 0.000000 0.000000 0.000000 -0.226720
#
#
# Mechanical properties :
#
#
# Convention : Reuss Voigt Hill
#
# Bulk Modulus (GPa) = 42.60506 77.39088 59.99797
# Shear Modulus (GPa) = -127.70429 22.65558 -52.52436
#
# Velocity S-wave (km/s) = -8.40009 3.53809 -5.38718
# Velocity P-wave (km/s) = 8.39888 7.71053 2.35467
#
# Compressibility (1/GPa) = 0.02347139
#
# Stress axis : x y z
#
# Youngs Moduli (GPa) = 109.17483 29.77230 82.47227
#
# Poissons Ratio (x) = 0.27818 0.29905
# Poissons Ratio (y) = 1.02007 0.22526
# Poissons Ratio (z) = 0.39588 0.08132
#
# Static dielectric constant tensor:
#      x y z
#    x 4.482840 0.000000 0.000000 
#    y 0.000000 2.976740 0.000000 
#    z 0.000000 0.000000 3.452800 
# 
# 
# High freq. dielectric constant tensor:
#      x y z
#    x 1.732260 0.000000 0.000000 
#    y 0.000000 1.645860 0.000000 
#    z 0.000000 0.000000 1.719300 
# 
# From -- ./inp_files/3866.got.cif
#   From: 2010.03.12/outbox.cif.g09.slc.cpg/sg49_2_cif.got.tgz:3866.got - 2010.04.14 03:58:27.
