data_PCOD8202017
_publ_section_title
;
Structure prediction by ZEFSAII (Michael W. Deem and Ramdas Pophale) SiO2 
 PCOD8202017
Probable space group: P N N N
;
_chemical_formula_sum "Si O2"
_cell_formula_units_Z 40
_cell_length_a 38.558762
_cell_length_b 11.622804
_cell_length_c 5.016503
_cell_angle_alpha 90.000000
_cell_angle_beta 90.000000
_cell_angle_gamma 90.000000
_cell_volume 2248.200666
_symmetry_space_group_name_H-M "P N N N"
_symmetry_group_IT_number 48
_space_group.IT_coordinate_system_code '2'
_symmetry_cell_setting 'orthorhombic'
loop_
_space_group_symop_operation_xyz
x,y,z
1/2-x,1/2-y,z
x,1/2-y,1/2-z
1/2-x,y,1/2-z
-x,-y,-z
1/2+x,1/2+y,-z
-x,1/2+y,1/2+z
1/2+x,-y,1/2+z
loop_
_atom_site_type_symbol
_atom_site_label
_atom_site_fract_x
_atom_site_fract_y
_atom_site_fract_z
Si Si1 0.830730 0.386739 0.749014
Si Si2 0.015105 0.321042 0.498683
Si Si3 0.091526 0.882246 0.341184
Si Si4 0.551155 0.459023 0.140341
Si Si5 0.211013 0.887326 0.743869
O O1 0.831157 0.250000 0.750000
O O2 0.869540 0.430542 0.806047
O O3 0.813950 0.434101 0.477490
O O4 0.805752 0.435085 0.976127
O O5 0.032300 0.250000 0.250000
O O6 0.042143 0.405453 0.652241
O O7 0.984063 0.386439 0.347446
O O8 0.999937 0.250000 0.750000
O O9 0.089503 0.750000 0.250000
O O10 0.077920 0.908351 0.640499
O O11 0.067305 0.953846 0.150652
O O12 0.212285 0.750000 0.750000
O O13 0.250000 0.937148 0.750000
#
# Coordination Sequence:
#
# PCOD8202017 Si02
#       5
#     8   8   8   8   8
#     4   9  17  26  38  58  83 115 152 191 228 260
#     4  11  22  37  53  71  94 117 153 200 240 287
#     4  11  20  32  48  68  96 124 158 199 236 279
#     4  11  22  34  52  72  90 122 157 190 244 291
#     4   9  15  24  37  54  79 113 155 194 222 254
#
# _framework density 17.792007999999999
#
# number of rings (size 3 to 8) (size 9 to 14) (size 15 to 20)
#    0.000    1.800    0.000    6.600    0.000    8.800 
#    0.000    0.000    0.000    0.000    0.000    0.000 
#    0.000    0.000    0.000    0.000    0.000  210.000 
#
# Total GULP energy -495660.455428 kJ/mol
# GULP energy per Si atom -12391.511386 kJ/mol
# Density = 1.775151 g / cm^3
# Si number density = 17.792008 Si / 1000 Ang^3
#
#
#
# Elastic Constant Matrix: (Units=GPa)
#
#
# Indices 1 2 3 4 5 6 
#
# 1 97.2556 21.5066 18.0954 0.0000 0.0000 0.0000
# 2 21.5066 48.4213 21.4316 0.0000 0.0000 0.0000
# 3 18.0954 21.4316 95.8663 0.0000 0.0000 0.0000
# 4 0.0000 0.0000 0.0000 19.2254 0.0000 0.0000
# 5 0.0000 0.0000 0.0000 0.0000 191.7273 0.0000
# 6 0.0000 0.0000 0.0000 0.0000 0.0000 19.9527
#
#
#
# Elastic Compliance Matrix: (Units=1/GPa)
#
#
# Indices 1 2 3 4 5 6 
#
# 1 0.011514 -0.004608 -0.001143 0.000000 0.000000 0.000000
# 2 -0.004608 0.024764 -0.004666 0.000000 0.000000 0.000000
# 3 -0.001143 -0.004666 0.011690 0.000000 0.000000 0.000000
# 4 0.000000 0.000000 0.000000 0.052015 0.000000 0.000000
# 5 0.000000 0.000000 0.000000 0.000000 0.005216 0.000000
# 6 0.000000 0.000000 0.000000 0.000000 0.000000 0.050119
#
#
# Mechanical properties :
#
#
# Convention : Reuss Voigt Hill
#
# Bulk Modulus (GPa) = 36.85544 40.40117 38.62830
# Shear Modulus (GPa) = 26.99834 58.21503 42.60668
#
# Velocity S-wave (km/s) = 3.89966 5.72632 4.89889
# Velocity P-wave (km/s) = 6.40594 8.15339 7.33191
#
# Compressibility (1/GPa) = 0.02713304
#
# Stress axis : x y z
#
# Youngs Moduli (GPa) = 86.85172 40.38104 85.54184
#
# Poissons Ratio (x) = 0.18608 0.09779
# Poissons Ratio (y) = 0.40021 0.39917
# Poissons Ratio (z) = 0.09929 0.18843
#
# Static dielectric constant tensor:
#      x y z
#    x 3.448040 0.000000 0.000000 
#    y 0.000000 2.925010 0.000000 
#    z 0.000000 0.000000 3.469530 
# 
# 
# High freq. dielectric constant tensor:
#      x y z
#    x 1.689530 0.000000 0.000000 
#    y 0.000000 1.617900 0.000000 
#    z 0.000000 0.000000 1.712650 
# 
# From -- ./inp_files/6932.got.cif
#   From: 2010.06.25/outbox.cif.g09.slc.cpg/sg48_4_cif.got.tgz:6932.got - 2010.06.26 18:06:46.
