data_PCOD8202482
_publ_section_title
;
Structure prediction by ZEFSAII (Michael W. Deem and Ramdas Pophale) SiO2 
 PCOD8202482
Probable space group: P C C M
;
_chemical_formula_sum "Si O2"
_cell_formula_units_Z 56
_cell_length_a 21.337823
_cell_length_b 18.395793
_cell_length_c 8.944770
_cell_angle_alpha 90.000000
_cell_angle_beta 90.000000
_cell_angle_gamma 90.000000
_cell_volume 3511.056354
_symmetry_space_group_name_H-M "P C C M"
_symmetry_group_IT_number 49
_symmetry_cell_setting 'orthorhombic'
loop_
_space_group_symop_operation_xyz
x,y,z
-x,-y,z
x,-y,1/2-z
-x,y,1/2-z
-x,-y,-z
x,y,-z
-x,y,1/2+z
x,-y,1/2+z
loop_
_atom_site_type_symbol
_atom_site_label
_atom_site_fract_x
_atom_site_fract_y
_atom_site_fract_z
Si Si1 0.197821 0.925940 0.830164
Si Si2 0.858980 0.782066 0.670229
Si Si3 0.747982 0.707303 0.824670
Si Si4 0.191669 0.422397 0.677554
Si Si5 0.315480 0.832219 0.175301
Si Si6 0.435716 0.076232 0.676724
Si Si7 0.062988 0.652575 0.829878
O O1 0.138912 0.869590 0.810879
O O2 0.261409 0.888197 0.769032
O O3 0.180339 0.000000 0.750000
O O4 0.208724 0.947635 0.000000
O O5 0.835164 0.763605 0.500000
O O6 0.810641 0.752345 0.791262
O O7 0.924671 0.739710 0.694919
O O8 0.753565 0.629671 0.741717
O O9 0.690099 0.755017 0.760672
O O10 0.739201 0.694580 0.000000
O O11 0.201974 0.500000 0.750000
O O12 0.197525 0.426897 0.500000
O O13 0.123474 0.391893 0.727937
O O14 0.382799 0.865090 0.214786
O O15 0.307136 0.817773 0.000000
O O16 0.500000 0.104837 0.750000
O O17 0.444251 0.065302 0.500000
O O18 0.415933 0.000000 0.750000
O O19 0.000000 0.627353 0.750000
O O20 0.051042 0.633435 0.000000
#
# Coordination Sequence:
#
# PCOD8202482 Si02
#       7
#     8   8   8   8   8   8   8
#     4   9  16  26  41  60  82 106 138 179 224 268
#     4   8  16  31  44  57  83 115 140 172 221 268
#     4  10  18  28  46  69  88 111 145 183 219 260
#     4  10  20  34  49  67  94 122 144 172 213 260
#     4   9  18  31  44  60  87 122 152 184 225 267
#     4  10  19  30  44  62  90 127 164 199 235 270
#     4   9  18  31  47  64  84 112 145 179 213 254
#
# _framework density 15.949616000000001
#
# number of rings (size 3 to 8) (size 9 to 14) (size 15 to 20)
#    0.000    2.714    0.000    4.714    0.000    6.571 
#    0.000    1.429    0.000    0.429    0.000    3.000 
#    0.000    0.571    0.000    6.000    0.000    3.286 
#
# Total GULP energy -693942.907364 kJ/mol
# GULP energy per Si atom -12391.837632 kJ/mol
# Density = 1.591331 g / cm^3
# Si number density = 15.949616 Si / 1000 Ang^3
#
#
#
# Elastic Constant Matrix: (Units=GPa)
#
#
# Indices 1 2 3 4 5 6 
#
# 1 53.9792 39.1541 28.4840 0.0000 0.0000 0.0000
# 2 39.1541 124.6520 48.6728 0.0000 0.0000 0.0000
# 3 28.4840 48.6728 75.3587 0.0000 0.0000 0.0000
# 4 0.0000 0.0000 0.0000 28.8471 0.0000 0.0000
# 5 0.0000 0.0000 0.0000 0.0000 17.1704 0.0000
# 6 0.0000 0.0000 0.0000 0.0000 0.0000 20.1661
#
#
#
# Elastic Compliance Matrix: (Units=1/GPa)
#
#
# Indices 1 2 3 4 5 6 
#
# 1 0.025913 -0.005770 -0.006068 0.000000 0.000000 0.000000
# 2 -0.005770 0.012013 -0.005578 0.000000 0.000000 0.000000
# 3 -0.006068 -0.005578 0.019166 0.000000 0.000000 0.000000
# 4 0.000000 0.000000 0.000000 0.034666 0.000000 0.000000
# 5 0.000000 0.000000 0.000000 0.000000 0.058240 0.000000
# 6 0.000000 0.000000 0.000000 0.000000 0.000000 0.049588
#
#
# Mechanical properties :
#
#
# Convention : Reuss Voigt Hill
#
# Bulk Modulus (GPa) = 44.92313 54.06797 49.49555
# Shear Modulus (GPa) = 20.67513 22.41532 21.54523
#
# Velocity S-wave (km/s) = 3.60429 3.75291 3.67935
# Velocity P-wave (km/s) = 6.74893 7.26305 7.01070
#
# Compressibility (1/GPa) = 0.02226025
#
# Stress axis : x y z
#
# Youngs Moduli (GPa) = 38.59081 83.24485 52.17598
#
# Poissons Ratio (x) = 0.48034 0.31659
# Poissons Ratio (y) = 0.22268 0.29103
# Poissons Ratio (z) = 0.23416 0.46432
#
# Static dielectric constant tensor:
#      x y z
#    x 2.847090 0.000000 0.000000 
#    y 0.000000 3.134600 0.000000 
#    z 0.000000 0.000000 2.996130 
# 
# 
# High freq. dielectric constant tensor:
#      x y z
#    x 1.573080 0.000000 0.000000 
#    y 0.000000 1.608140 0.000000 
#    z 0.000000 0.000000 1.617630 
# 
# From -- ./inp_files/5887.got.cif
#   From: 2010.03.12/outbox.cif.g09.slc.cpg/sg49_3_cif.got.tgz:5887.got - 2010.04.14 03:58:27.
