data_PCOD8202189
_publ_section_title
;
Structure prediction by ZEFSAII (Michael W. Deem and Ramdas Pophale) SiO2 
 PCOD8202189
Probable space group: P C C M
;
_chemical_formula_sum "Si O2"
_cell_formula_units_Z 40
_cell_length_a 26.199532
_cell_length_b 9.431950
_cell_length_c 8.749853
_cell_angle_alpha 90.000000
_cell_angle_beta 90.000000
_cell_angle_gamma 90.000000
_cell_volume 2162.199588
_symmetry_space_group_name_H-M "P C C M"
_symmetry_group_IT_number 49
_symmetry_cell_setting 'orthorhombic'
loop_
_space_group_symop_operation_xyz
x,y,z
-x,-y,z
x,-y,1/2-z
-x,y,1/2-z
-x,-y,-z
x,y,-z
-x,y,1/2+z
x,-y,1/2+z
loop_
_atom_site_type_symbol
_atom_site_label
_atom_site_fract_x
_atom_site_fract_y
_atom_site_fract_z
Si Si1 0.762158 0.346305 0.678124
Si Si2 0.053424 0.651111 0.319111
Si Si3 0.650026 0.653789 0.821716
Si Si4 0.449389 0.342226 0.681216
Si Si5 0.146979 0.846026 0.680162
O O1 0.769078 0.500000 0.750000
O O2 0.771395 0.369115 0.500000
O O3 0.705778 0.276955 0.707535
O O4 0.803973 0.238535 0.745967
O O5 0.069145 0.500000 0.250000
O O6 0.048345 0.635552 0.500000
O O7 0.095987 0.763926 0.270542
O O8 0.000000 0.704770 0.250000
O O9 0.654416 0.500000 0.750000
O O10 0.602958 0.736067 0.737476
O O11 0.636962 0.643154 0.000000
O O12 0.447436 0.500000 0.750000
O O13 0.500000 0.265460 0.750000
O O14 0.452635 0.344618 0.500000
O O15 0.151047 0.860463 0.500000
O O16 0.145523 0.000000 0.750000
#
# Coordination Sequence:
#
# PCOD8202189 Si02
#       5
#     8   8   8   8   8
#     4   9  18  32  50  71  95 124 162 203 245 291
#     4  10  20  35  56  80 105 132 167 204 243 289
#     4   9  15  24  38  57  82 112 147 189 233 280
#     4  10  16  22  32  49  77 112 149 186 228 280
#     4  10  22  37  52  74 102 133 166 203 245 292
#
# _framework density 18.499680000000001
#
# number of rings (size 3 to 8) (size 9 to 14) (size 15 to 20)
#    0.000    2.400    0.000    6.000    0.000    3.600 
#    0.000    2.000    0.000    0.000    0.000    0.000 
#    0.000    0.800    0.000    9.200    0.000    5.800 
#
# Total GULP energy -495688.755955 kJ/mol
# GULP energy per Si atom -12392.218899 kJ/mol
# Density = 1.845757 g / cm^3
# Si number density = 18.499680 Si / 1000 Ang^3
#
#
#
# Elastic Constant Matrix: (Units=GPa)
#
#
# Indices 1 2 3 4 5 6 
#
# 1 200.0424 77.6192 69.3819 0.0000 0.0000 0.0000
# 2 77.6192 77.7510 31.5641 0.0000 0.0000 0.0000
# 3 69.3819 31.5641 101.0548 0.0000 0.0000 0.0000
# 4 0.0000 0.0000 0.0000 20.7393 0.0000 0.0000
# 5 0.0000 0.0000 0.0000 0.0000 28.4153 0.0000
# 6 0.0000 0.0000 0.0000 0.0000 0.0000 3.7249
#
#
#
# Elastic Compliance Matrix: (Units=1/GPa)
#
#
# Indices 1 2 3 4 5 6 
#
# 1 0.009407 -0.007752 -0.004037 0.000000 0.000000 0.000000
# 2 -0.007752 0.021118 -0.001274 0.000000 0.000000 0.000000
# 3 -0.004037 -0.001274 0.013065 0.000000 0.000000 0.000000
# 4 0.000000 0.000000 0.000000 0.048218 0.000000 0.000000
# 5 0.000000 0.000000 0.000000 0.000000 0.035192 0.000000
# 6 0.000000 0.000000 0.000000 0.000000 0.000000 0.268460
#
#
# Mechanical properties :
#
#
# Convention : Reuss Voigt Hill
#
# Bulk Modulus (GPa) = 57.26075 81.77539 69.51807
# Shear Modulus (GPa) = 11.69842 23.92813 17.81327
#
# Velocity S-wave (km/s) = 2.51740 3.60034 3.10642
# Velocity P-wave (km/s) = 6.28245 7.84748 7.10817
#
# Compressibility (1/GPa) = 0.01746397
#
# Stress axis : x y z
#
# Youngs Moduli (GPa) = 106.30110 47.35368 76.53811
#
# Poissons Ratio (x) = 0.36710 0.30902
# Poissons Ratio (y) = 0.82407 0.09747
# Poissons Ratio (z) = 0.42918 0.06031
#
# Static dielectric constant tensor:
#      x y z
#    x 4.824630 0.000000 0.000000 
#    y 0.000000 2.905220 0.000000 
#    z 0.000000 0.000000 3.433270 
# 
# 
# High freq. dielectric constant tensor:
#      x y z
#    x 1.754620 0.000000 0.000000 
#    y 0.000000 1.647410 0.000000 
#    z 0.000000 0.000000 1.725400 
# 
# From -- ./inp_files/1906.got.cif
#   From: 2010.03.12/outbox.cif.g09.slc.cpg/sg49_1_cif.got.tgz:1906.got - 2010.04.14 03:58:27.
