data_PCOD8202436
_publ_section_title
;
Structure prediction by ZEFSAII (Michael W. Deem and Ramdas Pophale) SiO2 
 PCOD8202436
Probable space group: P C C M
;
_chemical_formula_sum "Si O2"
_cell_formula_units_Z 64
_cell_length_a 18.709438
_cell_length_b 21.339709
_cell_length_c 8.862691
_cell_angle_alpha 90.000000
_cell_angle_beta 90.000000
_cell_angle_gamma 90.000000
_cell_volume 3538.464500
_symmetry_space_group_name_H-M "P C C M"
_symmetry_group_IT_number 49
_symmetry_cell_setting 'orthorhombic'
loop_
_space_group_symop_operation_xyz
x,y,z
-x,-y,z
x,-y,1/2-z
-x,y,1/2-z
-x,-y,-z
x,y,-z
-x,y,1/2+z
x,-y,1/2+z
loop_
_atom_site_type_symbol
_atom_site_label
_atom_site_fract_x
_atom_site_fract_y
_atom_site_fract_z
Si Si1 0.569458 0.607204 0.674468
Si Si2 0.785332 0.259079 0.678610
Si Si3 0.926437 0.303970 0.178949
Si Si4 0.275779 0.619209 0.177858
Si Si5 0.437040 0.737402 0.332450
Si Si6 0.322045 0.159208 0.166946
Si Si7 0.128933 0.562927 0.824522
Si Si8 0.574296 0.067169 0.179048
O O1 0.500000 0.573247 0.750000
O O2 0.558088 0.596959 0.500000
O O3 0.649349 0.584277 0.723221
O O4 0.572075 0.679736 0.718919
O O5 0.793851 0.266840 0.500000
O O6 0.862375 0.261711 0.757623
O O7 0.733729 0.314633 0.737067
O O8 0.753839 0.189180 0.718462
O O9 0.915152 0.376285 0.229487
O O10 0.000000 0.279296 0.250000
O O11 0.928006 0.297151 0.000000
O O12 0.211779 0.572502 0.222288
O O13 0.273951 0.634788 0.000000
O O14 0.500000 0.777910 0.250000
O O15 0.459053 0.713790 0.500000
O O16 0.367570 0.778124 0.345508
O O17 0.357501 0.110894 0.283396
O O18 0.317103 0.127689 0.000000
O O19 0.098214 0.500000 0.750000
O O20 0.120179 0.553594 0.000000
O O21 0.500000 0.093140 0.250000
O O22 0.591329 0.000000 0.250000
O O23 0.565343 0.062230 0.000000
#
# Coordination Sequence:
#
# PCOD8202436 Si02
#       8
#     8   8   8   8   8   8   8   8
#     4  10  18  27  41  60  86 117 151 193 240 291
#     4  10  19  32  51  75 101 129 162 201 245 296
#     4  10  21  37  55  77 106 136 164 195 237 293
#     4   9  18  32  47  65  94 127 158 199 249 301
#     4  10  18  27  38  59  89 120 154 194 238 285
#     4  10  20  32  47  70  99 129 168 212 251 299
#     4   9  19  34  51  73  97 124 162 203 243 290
#     4  11  22  36  53  70  97 138 184 229 270 308
#
# _framework density 18.086939999999998
#
# number of rings (size 3 to 8) (size 9 to 14) (size 15 to 20)
#    0.000    2.125    1.250    4.875    0.000    6.250 
#    0.000    1.250    0.000    0.375    0.000    2.625 
#    0.000    0.500    0.000    5.250    0.000    2.250 
#
# Total GULP energy -792936.723375 kJ/mol
# GULP energy per Si atom -12389.636303 kJ/mol
# Density = 1.804577 g / cm^3
# Si number density = 18.086940 Si / 1000 Ang^3
#
#
#
# Elastic Constant Matrix: (Units=GPa)
#
#
# Indices 1 2 3 4 5 6 
#
# 1 114.8661 19.7790 41.5191 0.0000 0.0000 0.0000
# 2 19.7790 53.6262 25.7091 0.0000 0.0000 0.0000
# 3 41.5191 25.7091 84.3993 0.0000 0.0000 0.0000
# 4 0.0000 0.0000 0.0000 19.9470 0.0000 0.0000
# 5 0.0000 0.0000 0.0000 0.0000 24.6624 0.0000
# 6 0.0000 0.0000 0.0000 0.0000 0.0000 15.1642
#
#
#
# Elastic Compliance Matrix: (Units=1/GPa)
#
#
# Indices 1 2 3 4 5 6 
#
# 1 0.010715 -0.001669 -0.004763 0.000000 0.000000 0.000000
# 2 -0.001669 0.022096 -0.005910 0.000000 0.000000 0.000000
# 3 -0.004763 -0.005910 0.015992 0.000000 0.000000 0.000000
# 4 0.000000 0.000000 0.000000 0.050133 0.000000 0.000000
# 5 0.000000 0.000000 0.000000 0.000000 0.040548 0.000000
# 6 0.000000 0.000000 0.000000 0.000000 0.000000 0.065945
#
#
# Mechanical properties :
#
#
# Convention : Reuss Voigt Hill
#
# Bulk Modulus (GPa) = 41.45914 47.43399 44.44656
# Shear Modulus (GPa) = 20.99516 23.01368 22.00442
#
# Velocity S-wave (km/s) = 3.41073 3.57093 3.49175
# Velocity P-wave (km/s) = 6.20344 6.57910 6.39403
#
# Compressibility (1/GPa) = 0.02412013
#
# Stress axis : x y z
#
# Youngs Moduli (GPa) = 93.33075 45.25632 62.53287
#
# Poissons Ratio (x) = 0.07552 0.29782
# Poissons Ratio (y) = 0.15573 0.36957
# Poissons Ratio (z) = 0.44450 0.26746
#
# Static dielectric constant tensor:
#      x y z
#    x 3.726760 0.000000 0.000000 
#    y 0.000000 2.982640 0.000000 
#    z 0.000000 0.000000 3.470530 
# 
# 
# High freq. dielectric constant tensor:
#      x y z
#    x 1.699550 0.000000 0.000000 
#    y 0.000000 1.653210 0.000000 
#    z 0.000000 0.000000 1.709510 
# 
# From -- ./inp_files/5326.got.cif
#   From: 2010.03.12/outbox.cif.g09.slc.cpg/sg49_3_cif.got.tgz:5326.got - 2010.04.14 03:58:27.
