data_PCOD8202367
_publ_section_title
;
Structure prediction by ZEFSAII (Michael W. Deem and Ramdas Pophale) SiO2 
 PCOD8202367
Probable space group: P C C M
;
_chemical_formula_sum "Si O2"
_cell_formula_units_Z 40
_cell_length_a 10.034261
_cell_length_b 25.282043
_cell_length_c 8.580175
_cell_angle_alpha 90.000000
_cell_angle_beta 90.000000
_cell_angle_gamma 90.000000
_cell_volume 2176.675578
_symmetry_space_group_name_H-M "P C C M"
_symmetry_group_IT_number 49
_symmetry_cell_setting 'orthorhombic'
loop_
_space_group_symop_operation_xyz
x,y,z
-x,-y,z
x,-y,1/2-z
-x,y,1/2-z
-x,-y,-z
x,y,-z
-x,y,1/2+z
x,-y,1/2+z
loop_
_atom_site_type_symbol
_atom_site_label
_atom_site_fract_x
_atom_site_fract_y
_atom_site_fract_z
Si Si1 0.351332 0.053000 0.184719
Si Si2 0.858251 0.759214 0.815235
Si Si3 0.861355 0.361548 0.316802
Si Si4 0.647605 0.838935 0.684315
Si Si5 0.643737 0.443717 0.685043
O O1 0.500000 0.053002 0.250000
O O2 0.285423 0.107096 0.247631
O O3 0.277730 0.000000 0.250000
O O4 0.350091 0.052210 0.000000
O O5 0.834940 0.698589 0.763866
O O6 0.739931 0.790859 0.734740
O O7 0.000000 0.779382 0.750000
O O8 0.854022 0.767117 0.000000
O O9 0.870033 0.365192 0.500000
O O10 0.743993 0.398801 0.253181
O O11 0.000000 0.382954 0.250000
O O12 0.500000 0.829160 0.750000
O O13 0.638826 0.843233 0.500000
O O14 0.692468 0.500000 0.750000
O O15 0.500000 0.428310 0.750000
O O16 0.637557 0.446586 0.500000
#
# Coordination Sequence:
#
# PCOD8202367 Si02
#       5
#     8   8   8   8   8
#     4  10  17  28  46  71 102 136 171 213 260 310
#     4  10  20  37  56  77 104 138 175 215 261 314
#     4   9  20  36  55  77 103 133 172 213 255 304
#     4  11  21  34  52  78 107 138 175 219 263 310
#     4  10  20  35  53  77 105 137 171 209 254 306
#
# _framework density 18.376646000000001
#
# number of rings (size 3 to 8) (size 9 to 14) (size 15 to 20)
#    0.000    2.000    0.000    7.200    0.000    3.600 
#    0.000    4.000    0.000    0.600    0.000    4.200 
#    0.000    0.000    0.000    0.000    0.000    0.000 
#
# Total GULP energy -495972.551365 kJ/mol
# GULP energy per Si atom -12399.313784 kJ/mol
# Density = 1.833482 g / cm^3
# Si number density = 18.376646 Si / 1000 Ang^3
#
#
#
# Elastic Constant Matrix: (Units=GPa)
#
#
# Indices 1 2 3 4 5 6 
#
# 1 102.8266 83.0590 43.4393 0.0000 0.0000 0.0000
# 2 83.0590 128.7888 49.2754 0.0000 0.0000 0.0000
# 3 43.4393 49.2754 123.7704 0.0000 0.0000 0.0000
# 4 0.0000 0.0000 0.0000 31.8093 0.0000 0.0000
# 5 0.0000 0.0000 0.0000 0.0000 27.7991 0.0000
# 6 0.0000 0.0000 0.0000 0.0000 0.0000 12.4774
#
#
#
# Elastic Compliance Matrix: (Units=1/GPa)
#
#
# Indices 1 2 3 4 5 6 
#
# 1 0.020849 -0.012559 -0.002317 0.000000 0.000000 0.000000
# 2 -0.012559 0.016726 -0.002251 0.000000 0.000000 0.000000
# 3 -0.002317 -0.002251 0.009789 0.000000 0.000000 0.000000
# 4 0.000000 0.000000 0.000000 0.031437 0.000000 0.000000
# 5 0.000000 0.000000 0.000000 0.000000 0.035972 0.000000
# 6 0.000000 0.000000 0.000000 0.000000 0.000000 0.080145
#
#
# Mechanical properties :
#
#
# Convention : Reuss Voigt Hill
#
# Bulk Modulus (GPa) = 76.28582 78.54813 77.41697
# Shear Modulus (GPa) = 21.40938 26.39132 23.90035
#
# Velocity S-wave (km/s) = 3.41696 3.79375 3.61027
# Velocity P-wave (km/s) = 7.56108 7.87568 7.71998
#
# Compressibility (1/GPa) = 0.01310860
#
# Stress axis : x y z
#
# Youngs Moduli (GPa) = 47.96397 59.78809 102.15720
#
# Poissons Ratio (x) = 0.75091 0.23671
# Poissons Ratio (y) = 0.60240 0.22994
# Poissons Ratio (z) = 0.11114 0.13458
#
# Static dielectric constant tensor:
#      x y z
#    x 3.061290 0.000000 0.000000 
#    y 0.000000 4.111700 0.000000 
#    z 0.000000 0.000000 3.453910 
# 
# 
# High freq. dielectric constant tensor:
#      x y z
#    x 1.684330 0.000000 0.000000 
#    y 0.000000 1.726940 0.000000 
#    z 0.000000 0.000000 1.728720 
# 
# From -- ./inp_files/1693.got.cif
#   From: 2010.03.12/outbox.cif.g09.slc.cpg/sg49_1_cif.got.tgz:1693.got - 2010.04.14 03:58:27.
