data_PCOD8202348
_publ_section_title
;
Structure prediction by ZEFSAII (Michael W. Deem and Ramdas Pophale) SiO2 
 PCOD8202348
Probable space group: P C C M
;
_chemical_formula_sum "Si O2"
_cell_formula_units_Z 64
_cell_length_a 30.703011
_cell_length_b 15.211141
_cell_length_c 8.685378
_cell_angle_alpha 90.000000
_cell_angle_beta 90.000000
_cell_angle_gamma 90.000000
_cell_volume 4056.313235
_symmetry_space_group_name_H-M "P C C M"
_symmetry_group_IT_number 49
_symmetry_cell_setting 'orthorhombic'
loop_
_space_group_symop_operation_xyz
x,y,z
-x,-y,z
x,-y,1/2-z
-x,y,1/2-z
-x,-y,-z
x,y,-z
-x,y,1/2+z
x,-y,1/2+z
loop_
_atom_site_type_symbol
_atom_site_label
_atom_site_fract_x
_atom_site_fract_y
_atom_site_fract_z
Si Si1 0.958463 0.095393 0.177276
Si Si2 0.543415 0.097806 0.816887
Si Si3 0.199013 0.587341 0.828006
Si Si4 0.701386 0.776977 0.316249
Si Si5 0.137891 0.902877 0.819066
Si Si6 0.368763 0.096325 0.817905
Si Si7 0.302235 0.584867 0.831617
Si Si8 0.204947 0.768742 0.680993
O O1 0.910812 0.137552 0.206022
O O2 0.000000 0.148590 0.250000
O O3 0.956984 0.000000 0.250000
O O4 0.968385 0.085917 0.000000
O O5 0.500000 0.145994 0.750000
O O6 0.587952 0.142245 0.755399
O O7 0.544051 0.000000 0.750000
O O8 0.542169 0.097681 0.000000
O O9 0.178620 0.500000 0.750000
O O10 0.250568 0.575938 0.837318
O O11 0.186796 0.672954 0.728750
O O12 0.179744 0.597895 0.000000
O O13 0.696291 0.786257 0.500000
O O14 0.672786 0.846836 0.226230
O O15 0.686425 0.679661 0.257119
O O16 0.751400 0.793021 0.273127
O O17 0.169708 0.840932 0.724552
O O18 0.142109 0.000000 0.750000
O O19 0.149774 0.905041 0.000000
O O20 0.361223 0.000000 0.750000
O O21 0.374142 0.089946 0.000000
O O22 0.323291 0.500000 0.750000
O O23 0.322725 0.583327 0.000000
O O24 0.214462 0.769963 0.500000
#
# Coordination Sequence:
#
# PCOD8202348 Si02
#       8
#     8   8   8   8   8   8   8   8
#     4   9  16  26  43  63  84 108 138 176 221 265
#     4  10  17  28  45  65  87 112 142 180 223 266
#     4   9  16  28  45  65  87 112 142 181 224 267
#     4  10  20  34  47  63  88 119 152 188 223 260
#     4  10  20  33  46  63  87 118 152 187 222 261
#     4  11  21  33  47  65  88 118 153 188 223 264
#     4   8  15  26  43  63  84 108 137 174 218 260
#     4  11  21  32  46  65  88 119 154 188 223 263
#
# _framework density 15.777873
#
# number of rings (size 3 to 8) (size 9 to 14) (size 15 to 20)
#    0.000    2.250    0.000    7.125    0.000    5.500 
#    0.000    2.500    0.000    0.000    0.000    0.000 
#    0.000    1.000    0.000   10.500    0.000    6.000 
#
# Total GULP energy -793059.118691 kJ/mol
# GULP energy per Si atom -12391.548730 kJ/mol
# Density = 1.574196 g / cm^3
# Si number density = 15.777873 Si / 1000 Ang^3
#
#
#
# Elastic Constant Matrix: (Units=GPa)
#
#
# Indices 1 2 3 4 5 6 
#
# 1 72.1430 38.9611 28.2365 0.0000 0.0000 0.0000
# 2 38.9611 76.0353 31.2788 0.0000 0.0000 0.0000
# 3 28.2365 31.2788 109.9073 0.0000 0.0000 0.0000
# 4 0.0000 0.0000 0.0000 24.1109 0.0000 0.0000
# 5 0.0000 0.0000 0.0000 0.0000 23.8061 0.0000
# 6 0.0000 0.0000 0.0000 0.0000 0.0000 -1.1917
#
#
#
# Elastic Compliance Matrix: (Units=1/GPa)
#
#
# Indices 1 2 3 4 5 6 
#
# 1 0.019746 -0.009096 -0.002484 0.000000 0.000000 0.000000
# 2 -0.009096 0.019086 -0.003095 0.000000 0.000000 0.000000
# 3 -0.002484 -0.003095 0.010618 0.000000 0.000000 0.000000
# 4 0.000000 0.000000 0.000000 0.041475 0.000000 0.000000
# 5 0.000000 0.000000 0.000000 0.000000 0.042006 0.000000
# 6 0.000000 0.000000 0.000000 0.000000 0.000000 -0.839121
#
#
# Mechanical properties :
#
#
# Convention : Reuss Voigt Hill
#
# Bulk Modulus (GPa) = 49.75351 50.55983 50.15667
# Shear Modulus (GPa) = -7.46112 19.98567 6.26227
#
# Velocity S-wave (km/s) = -2.17695 3.56292 1.99440
# Velocity P-wave (km/s) = 5.02826 7.00287 6.09605
#
# Compressibility (1/GPa) = 0.02009909
#
# Stress axis : x y z
#
# Youngs Moduli (GPa) = 50.64291 52.39492 94.18342
#
# Poissons Ratio (x) = 0.47659 0.23398
# Poissons Ratio (y) = 0.46065 0.29148
# Poissons Ratio (z) = 0.12581 0.16215
#
# Static dielectric constant tensor:
#      x y z
#    x 3.422060 0.000000 0.000000 
#    y 0.000000 2.893600 0.000000 
#    z 0.000000 0.000000 3.237820 
# 
# 
# High freq. dielectric constant tensor:
#      x y z
#    x 1.583750 0.000000 0.000000 
#    y 0.000000 1.573150 0.000000 
#    z 0.000000 0.000000 1.627150 
# 
# From -- ./inp_files/7064.got.cif
#   From: 2010.03.12/outbox.cif.g09.slc.cpg/sg49_4_cif.got.tgz:7064.got - 2010.04.14 03:58:27.
