data_PCOD8202454
_publ_section_title
;
Structure prediction by ZEFSAII (Michael W. Deem and Ramdas Pophale) SiO2 
 PCOD8202454
Probable space group: P C C M
;
_chemical_formula_sum "Si O2"
_cell_formula_units_Z 56
_cell_length_a 18.339387
_cell_length_b 21.286311
_cell_length_c 9.068144
_cell_angle_alpha 90.000000
_cell_angle_beta 90.000000
_cell_angle_gamma 90.000000
_cell_volume 3540.002968
_symmetry_space_group_name_H-M "P C C M"
_symmetry_group_IT_number 49
_symmetry_cell_setting 'orthorhombic'
loop_
_space_group_symop_operation_xyz
x,y,z
-x,-y,z
x,-y,1/2-z
-x,y,1/2-z
-x,-y,-z
x,y,-z
-x,y,1/2+z
x,-y,1/2+z
loop_
_atom_site_type_symbol
_atom_site_label
_atom_site_fract_x
_atom_site_fract_y
_atom_site_fract_z
Si Si1 0.714846 0.621881 0.662726
Si Si2 0.800950 0.248855 0.836018
Si Si3 0.577329 0.936517 0.676577
Si Si4 0.076690 0.687687 0.672928
Si Si5 0.575382 0.307536 0.174091
Si Si6 0.838439 0.562229 0.172104
Si Si7 0.340112 0.812732 0.825533
O O1 0.715640 0.590605 0.500000
O O2 0.756088 0.687436 0.654662
O O3 0.632194 0.636482 0.713932
O O4 0.755565 0.575444 0.775251
O O5 0.869867 0.256830 0.728398
O O6 0.743831 0.197010 0.771172
O O7 0.829053 0.230419 0.000000
O O8 0.500000 0.920738 0.750000
O O9 0.568946 0.943625 0.500000
O O10 0.632577 0.881289 0.721846
O O11 0.608786 0.000000 0.750000
O O12 0.066686 0.694908 0.500000
O O13 0.109009 0.619715 0.716093
O O14 0.000000 0.696299 0.750000
O O15 0.500000 0.324899 0.250000
O O16 0.605546 0.240902 0.237466
O O17 0.563477 0.303306 0.000000
O O18 0.869739 0.500000 0.250000
O O19 0.837418 0.550351 0.000000
O O20 0.339219 0.804572 0.000000
#
# Coordination Sequence:
#
# PCOD8202454 Si02
#       7
#     8   8   8   8   8   8   8
#     4   8  15  28  44  60  81 107 135 168 210 254
#     4   8  14  28  47  63  81 109 141 174 211 251
#     4  10  18  28  40  57  85 121 158 191 222 256
#     4  10  20  32  46  67  92 116 138 165 202 246
#     4   9  16  26  41  62  84 107 136 173 216 259
#     4  10  20  32  47  65  84 108 141 172 201 240
#     4   8  15  27  43  61  83 113 148 181 215 255
#
# _framework density 15.819196
#
# number of rings (size 3 to 8) (size 9 to 14) (size 15 to 20)
#    0.000    3.000    0.000    3.857    0.000    2.571 
#    0.000    5.714    0.000    0.429    0.000    3.000 
#    0.000    0.571    0.000    6.571    0.000    2.000 
#
# Total GULP energy -694060.613525 kJ/mol
# GULP energy per Si atom -12393.939527 kJ/mol
# Density = 1.578319 g / cm^3
# Si number density = 15.819196 Si / 1000 Ang^3
#
#
#
# Elastic Constant Matrix: (Units=GPa)
#
#
# Indices 1 2 3 4 5 6 
#
# 1 118.5087 37.1289 41.3973 0.0000 0.0000 0.0000
# 2 37.1289 53.5721 22.8193 0.0000 0.0000 0.0000
# 3 41.3973 22.8193 55.9281 0.0000 0.0000 0.0000
# 4 0.0000 0.0000 0.0000 14.5877 0.0000 0.0000
# 5 0.0000 0.0000 0.0000 0.0000 24.1603 0.0000
# 6 0.0000 0.0000 0.0000 0.0000 0.0000 18.9355
#
#
#
# Elastic Compliance Matrix: (Units=1/GPa)
#
#
# Indices 1 2 3 4 5 6 
#
# 1 0.012721 -0.005816 -0.007042 0.000000 0.000000 0.000000
# 2 -0.005816 0.025253 -0.005998 0.000000 0.000000 0.000000
# 3 -0.007042 -0.005998 0.025540 0.000000 0.000000 0.000000
# 4 0.000000 0.000000 0.000000 0.068551 0.000000 0.000000
# 5 0.000000 0.000000 0.000000 0.000000 0.041390 0.000000
# 6 0.000000 0.000000 0.000000 0.000000 0.000000 0.052811
#
#
# Mechanical properties :
#
#
# Convention : Reuss Voigt Hill
#
# Bulk Modulus (GPa) = 38.76072 47.85555 43.30814
# Shear Modulus (GPa) = 18.34334 19.98094 19.16214
#
# Velocity S-wave (km/s) = 3.40893 3.55784 3.48418
# Velocity P-wave (km/s) = 6.32850 6.86985 6.60473
#
# Compressibility (1/GPa) = 0.02579931
#
# Stress axis : x y z
#
# Youngs Moduli (GPa) = 78.61308 39.60003 39.15415
#
# Poissons Ratio (x) = 0.23033 0.27574
# Poissons Ratio (y) = 0.45725 0.23485
# Poissons Ratio (z) = 0.55363 0.23752
#
# Static dielectric constant tensor:
#      x y z
#    x 3.117570 0.000000 0.000000 
#    y 0.000000 2.995700 0.000000 
#    z 0.000000 0.000000 2.975890 
# 
# 
# High freq. dielectric constant tensor:
#      x y z
#    x 1.598810 0.000000 0.000000 
#    y 0.000000 1.576110 0.000000 
#    z 0.000000 0.000000 1.602520 
# 
# From -- ./inp_files/5211.got.cif
#   From: 2010.03.12/outbox.cif.g09.slc.cpg/sg49_3_cif.got.tgz:5211.got - 2010.04.14 03:58:27.
