data_PCOD8202641
_publ_section_title
;
Structure prediction by ZEFSAII (Michael W. Deem and Ramdas Pophale) SiO2 
 PCOD8202641
Probable space group: P C C M
;
_chemical_formula_sum "Si O2"
_cell_formula_units_Z 64
_cell_length_a 24.402434
_cell_length_b 15.366934
_cell_length_c 8.818462
_cell_angle_alpha 90.000000
_cell_angle_beta 90.000000
_cell_angle_gamma 90.000000
_cell_volume 3306.840292
_symmetry_space_group_name_H-M "P C C M"
_symmetry_group_IT_number 49
_symmetry_cell_setting 'orthorhombic'
loop_
_space_group_symop_operation_xyz
x,y,z
-x,-y,z
x,-y,1/2-z
-x,y,1/2-z
-x,-y,-z
x,y,-z
-x,y,1/2+z
x,-y,1/2+z
loop_
_atom_site_type_symbol
_atom_site_label
_atom_site_fract_x
_atom_site_fract_y
_atom_site_fract_z
Si Si1 0.278222 0.631405 0.674680
Si Si2 0.557047 0.768360 0.820541
Si Si3 0.139694 0.221832 0.325085
Si Si4 0.168238 0.414016 0.677689
Si Si5 0.599668 0.585891 0.174689
Si Si6 0.645578 0.088735 0.679568
Si Si7 0.264449 0.809614 0.175952
Si Si8 0.941142 0.090089 0.320357
O O1 0.259670 0.628796 0.500000
O O2 0.231928 0.586059 0.775904
O O3 0.335198 0.582932 0.701125
O O4 0.287011 0.730393 0.724641
O O5 0.500000 0.799177 0.750000
O O6 0.573400 0.673343 0.754659
O O7 0.603426 0.836366 0.771541
O O8 0.551799 0.766006 0.000000
O O9 0.121103 0.214839 0.500000
O O10 0.139749 0.323376 0.271732
O O11 0.199393 0.179744 0.302726
O O12 0.098362 0.169985 0.218651
O O13 0.139526 0.500000 0.750000
O O14 0.164718 0.423562 0.500000
O O15 0.573625 0.500000 0.250000
O O16 0.584704 0.583013 0.000000
O O17 0.652756 0.081200 0.500000
O O18 0.704620 0.106241 0.758207
O O19 0.622289 0.000000 0.750000
O O20 0.278422 0.793970 0.000000
O O21 0.946090 0.079824 0.500000
O O22 0.000000 0.111312 0.250000
O O23 0.918024 0.000000 0.250000
#
# Coordination Sequence:
#
# PCOD8202641 Si02
#       8
#     8   8   8   8   8   8   8   8
#     4  10  18  32  53  77 112 150 186 231 279 332
#     4  10  23  43  61  80 108 141 181 231 284 337
#     4   9  20  37  56  84 121 156 196 241 283 339
#     4  10  20  33  51  80 118 158 199 242 286 338
#     4  10  21  36  54  80 110 142 180 224 275 331
#     4  11  23  41  62  85 114 144 183 230 281 344
#     4  10  20  35  57  85 117 152 189 228 280 338
#     4  11  22  38  62  88 117 154 196 243 294 344
#
# _framework density 19.353822999999998
#
# number of rings (size 3 to 8) (size 9 to 14) (size 15 to 20)
#    0.000    1.875    1.250    4.125    0.000    7.500 
#    0.000    2.500    0.000    0.375    0.000    2.625 
#    0.000    0.000    0.000    0.000    0.000    0.000 
#
# Total GULP energy -793641.171987 kJ/mol
# GULP energy per Si atom -12400.643312 kJ/mol
# Density = 1.930977 g / cm^3
# Si number density = 19.353823 Si / 1000 Ang^3
#
#
#
# Elastic Constant Matrix: (Units=GPa)
#
#
# Indices 1 2 3 4 5 6 
#
# 1 70.1571 57.6061 45.1573 0.0000 0.0000 0.0000
# 2 57.6061 139.2554 44.2427 0.0000 0.0000 0.0000
# 3 45.1573 44.2427 74.2225 0.0000 0.0000 0.0000
# 4 0.0000 0.0000 0.0000 35.2181 0.0000 0.0000
# 5 0.0000 0.0000 0.0000 0.0000 28.6158 0.0000
# 6 0.0000 0.0000 0.0000 0.0000 0.0000 13.8182
#
#
#
# Elastic Compliance Matrix: (Units=1/GPa)
#
#
# Indices 1 2 3 4 5 6 
#
# 1 0.029120 -0.007917 -0.012998 0.000000 0.000000 0.000000
# 2 -0.007917 0.011011 -0.001747 0.000000 0.000000 0.000000
# 3 -0.012998 -0.001747 0.022422 0.000000 0.000000 0.000000
# 4 0.000000 0.000000 0.000000 0.028394 0.000000 0.000000
# 5 0.000000 0.000000 0.000000 0.000000 0.034946 0.000000
# 6 0.000000 0.000000 0.000000 0.000000 0.000000 0.072368
#
#
# Mechanical properties :
#
#
# Convention : Reuss Voigt Hill
#
# Bulk Modulus (GPa) = 58.03643 64.18301 61.10972
# Shear Modulus (GPa) = 20.05383 24.63901 22.34642
#
# Velocity S-wave (km/s) = 3.22245 3.57190 3.40166
# Velocity P-wave (km/s) = 6.62554 7.08846 6.86090
#
# Compressibility (1/GPa) = 0.01723056
#
# Stress axis : x y z
#
# Youngs Moduli (GPa) = 34.34008 90.81837 44.59845
#
# Poissons Ratio (x) = 0.71899 0.57969
# Poissons Ratio (y) = 0.27186 0.07791
# Poissons Ratio (z) = 0.44635 0.15865
#
# Static dielectric constant tensor:
#      x y z
#    x 3.289890 0.000000 0.000000 
#    y 0.000000 3.787360 0.000000 
#    z 0.000000 0.000000 3.484730 
# 
# 
# High freq. dielectric constant tensor:
#      x y z
#    x 1.727650 0.000000 0.000000 
#    y 0.000000 1.763410 0.000000 
#    z 0.000000 0.000000 1.757020 
# 
# From -- ./inp_files/6483.got.cif
#   From: 2010.03.12/outbox.cif.g09.slc.cpg/sg49_4_cif.got.tgz:6483.got - 2010.04.14 03:58:27.
