data_PCOD8202385
_publ_section_title
;
Structure prediction by ZEFSAII (Michael W. Deem and Ramdas Pophale) SiO2 
 PCOD8202385
Probable space group: P C C M
;
_chemical_formula_sum "Si O2"
_cell_formula_units_Z 48
_cell_length_a 30.858667
_cell_length_b 9.600727
_cell_length_c 8.587942
_cell_angle_alpha 90.000000
_cell_angle_beta 90.000000
_cell_angle_gamma 90.000000
_cell_volume 2544.312111
_symmetry_space_group_name_H-M "P C C M"
_symmetry_group_IT_number 49
_symmetry_cell_setting 'orthorhombic'
loop_
_space_group_symop_operation_xyz
x,y,z
-x,-y,z
x,-y,1/2-z
-x,y,1/2-z
-x,-y,-z
x,y,-z
-x,y,1/2+z
x,-y,1/2+z
loop_
_atom_site_type_symbol
_atom_site_label
_atom_site_fract_x
_atom_site_fract_y
_atom_site_fract_z
Si Si1 0.283796 0.646537 0.816974
Si Si2 0.544666 0.847447 0.315384
Si Si3 0.792640 0.154864 0.815351
Si Si4 0.619272 0.646285 0.315798
Si Si5 0.043385 0.344758 0.315171
Si Si6 0.867711 0.654499 0.184428
O O1 0.266677 0.500000 0.750000
O O2 0.252398 0.771774 0.766301
O O3 0.332189 0.681213 0.754391
O O4 0.284072 0.628923 0.000000
O O5 0.500000 0.781878 0.250000
O O6 0.542176 0.851165 0.500000
O O7 0.585551 0.760064 0.253440
O O8 0.551447 0.000000 0.250000
O O9 0.830559 0.241130 0.735640
O O10 0.792034 0.000000 0.750000
O O11 0.799440 0.153330 0.000000
O O12 0.603301 0.500000 0.250000
O O13 0.618692 0.640233 0.500000
O O14 0.042944 0.500000 0.250000
O O15 0.043138 0.342988 0.500000
O O16 0.087665 0.277508 0.250535
O O17 0.000000 0.267345 0.250000
O O18 0.858810 0.500000 0.250000
O O19 0.870326 0.644011 0.000000
#
# Coordination Sequence:
#
# PCOD8202385 Si02
#       6
#     8   8   8   8   8   8
#     4   9  19  36  57  79 105 135 172 214 261 314
#     4  10  20  34  52  74 103 137 176 215 257 306
#     4  11  23  38  55  78 107 140 177 220 266 317
#     4   9  19  35  54  78 105 135 170 213 260 312
#     4  10  17  28  47  75 108 140 176 220 267 314
#     4  11  21  35  55  80 109 143 181 222 267 317
#
# _framework density 18.865608999999999
#
# number of rings (size 3 to 8) (size 9 to 14) (size 15 to 20)
#    0.000    2.000    0.000    6.500    0.000    5.000 
#    0.000    1.667    0.000    0.500    0.000    3.500 
#    0.000    0.000    0.000    0.000    0.000    0.000 
#
# Total GULP energy -595101.995710 kJ/mol
# GULP energy per Si atom -12397.958244 kJ/mol
# Density = 1.882267 g / cm^3
# Si number density = 18.865609 Si / 1000 Ang^3
#
#
#
# Elastic Constant Matrix: (Units=GPa)
#
#
# Indices 1 2 3 4 5 6 
#
# 1 159.2678 82.6359 57.4500 0.0000 0.0000 0.0000
# 2 82.6359 104.0377 41.5000 0.0000 0.0000 0.0000
# 3 57.4500 41.5000 108.0662 0.0000 0.0000 0.0000
# 4 0.0000 0.0000 0.0000 27.7022 0.0000 0.0000
# 5 0.0000 0.0000 0.0000 0.0000 29.1975 0.0000
# 6 0.0000 0.0000 0.0000 0.0000 0.0000 -22.0917
#
#
#
# Elastic Compliance Matrix: (Units=1/GPa)
#
#
# Indices 1 2 3 4 5 6 
#
# 1 0.011484 -0.007896 -0.003073 0.000000 0.000000 0.000000
# 2 -0.007896 0.016779 -0.002246 0.000000 0.000000 0.000000
# 3 -0.003073 -0.002246 0.011750 0.000000 0.000000 0.000000
# 4 0.000000 0.000000 0.000000 0.036098 0.000000 0.000000
# 5 0.000000 0.000000 0.000000 0.000000 0.034250 0.000000
# 6 0.000000 0.000000 0.000000 0.000000 0.000000 -0.045266
#
#
# Mechanical properties :
#
#
# Convention : Reuss Voigt Hill
#
# Bulk Modulus (GPa) = 73.61906 81.61595 77.61750
# Shear Modulus (GPa) = 52.05506 19.61399 35.83453
#
# Velocity S-wave (km/s) = 5.25856 3.22789 4.36301
# Velocity P-wave (km/s) = 8.71651 7.56624 8.16167
#
# Compressibility (1/GPa) = 0.01358344
#
# Stress axis : x y z
#
# Youngs Moduli (GPa) = 87.07874 59.59692 85.10813
#
# Poissons Ratio (x) = 0.47056 0.26153
# Poissons Ratio (y) = 0.68755 0.19117
# Poissons Ratio (z) = 0.26758 0.13386
#
# Static dielectric constant tensor:
#      x y z
#    x 4.567300 0.000000 0.000000 
#    y 0.000000 3.244810 0.000000 
#    z 0.000000 0.000000 3.515300 
# 
# 
# High freq. dielectric constant tensor:
#      x y z
#    x 1.756590 0.000000 0.000000 
#    y 0.000000 1.701550 0.000000 
#    z 0.000000 0.000000 1.742620 
# 
# From -- ./inp_files/6871.got.cif
#   From: 2010.03.12/outbox.cif.g09.slc.cpg/sg49_4_cif.got.tgz:6871.got - 2010.04.14 03:58:27.
