data_PCOD8202864
_publ_section_title
;
Structure prediction by ZEFSAII (Michael W. Deem and Ramdas Pophale) SiO2 
 PCOD8202864
Probable space group: P C C M
;
_chemical_formula_sum "Si O2"
_cell_formula_units_Z 40
_cell_length_a 18.722043
_cell_length_b 13.517029
_cell_length_c 8.891511
_cell_angle_alpha 90.000000
_cell_angle_beta 90.000000
_cell_angle_gamma 90.000000
_cell_volume 2250.142663
_symmetry_space_group_name_H-M "P C C M"
_symmetry_group_IT_number 49
_symmetry_cell_setting 'orthorhombic'
loop_
_space_group_symop_operation_xyz
x,y,z
-x,-y,z
x,-y,1/2-z
-x,y,1/2-z
-x,-y,-z
x,y,-z
-x,y,1/2+z
x,-y,1/2+z
loop_
_atom_site_type_symbol
_atom_site_label
_atom_site_fract_x
_atom_site_fract_y
_atom_site_fract_z
Si Si1 0.346326 0.100305 0.824459
Si Si2 0.424179 0.700894 0.322364
Si Si3 0.072056 0.894957 0.176705
Si Si4 0.781488 0.200334 0.826524
Si Si5 0.706889 0.599908 0.676562
O O1 0.400557 0.187780 0.780089
O O2 0.266831 0.125748 0.769033
O O3 0.375155 0.000000 0.750000
O O4 0.342816 0.083138 0.000000
O O5 0.500000 0.678624 0.250000
O O6 0.427247 0.684689 0.500000
O O7 0.368933 0.623678 0.251997
O O8 0.135821 0.818682 0.211883
O O9 0.000000 0.850694 0.250000
O O10 0.090863 0.000000 0.250000
O O11 0.060441 0.909818 0.000000
O O12 0.763811 0.313889 0.786591
O O13 0.764516 0.177833 0.000000
O O14 0.737738 0.500000 0.750000
O O15 0.695747 0.585752 0.500000
#
# Coordination Sequence:
#
# PCOD8202864 Si02
#       5
#     8   8   8   8   8
#     4  10  20  32  49  72  99 131 168 204 243 291
#     4  10  21  36  52  73  99 129 164 204 248 296
#     4  10  19  31  48  74 105 137 168 199 237 283
#     4   9  19  34  52  73 100 131 165 205 247 290
#     4  10  20  36  56  77  99 125 160 205 252 299
#
# _framework density 17.776651999999999
#
# number of rings (size 3 to 8) (size 9 to 14) (size 15 to 20)
#    0.000    2.200    0.000    3.600    0.000    7.200 
#    0.000    4.000    0.000    0.600    0.000    4.200 
#    0.000    0.000    0.000    0.000    0.000    0.000 
#
# Total GULP energy -496118.913592 kJ/mol
# GULP energy per Si atom -12402.972840 kJ/mol
# Density = 1.773619 g / cm^3
# Si number density = 17.776652 Si / 1000 Ang^3
#
#
#
# Elastic Constant Matrix: (Units=GPa)
#
#
# Indices 1 2 3 4 5 6 
#
# 1 114.4538 36.9279 37.4652 0.0000 0.0000 0.0000
# 2 36.9279 90.1292 34.8686 0.0000 0.0000 0.0000
# 3 37.4652 34.8686 80.6419 0.0000 0.0000 0.0000
# 4 0.0000 0.0000 0.0000 30.9885 0.0000 0.0000
# 5 0.0000 0.0000 0.0000 0.0000 26.5949 0.0000
# 6 0.0000 0.0000 0.0000 0.0000 0.0000 18.7480
#
#
#
# Elastic Compliance Matrix: (Units=1/GPa)
#
#
# Indices 1 2 3 4 5 6 
#
# 1 0.010950 -0.003024 -0.003780 0.000000 0.000000 0.000000
# 2 -0.003024 0.014159 -0.004717 0.000000 0.000000 0.000000
# 3 -0.003780 -0.004717 0.016196 0.000000 0.000000 0.000000
# 4 0.000000 0.000000 0.000000 0.032270 0.000000 0.000000
# 5 0.000000 0.000000 0.000000 0.000000 0.037601 0.000000
# 6 0.000000 0.000000 0.000000 0.000000 0.000000 0.053339
#
#
# Mechanical properties :
#
#
# Convention : Reuss Voigt Hill
#
# Bulk Modulus (GPa) = 54.75482 55.97204 55.36343
# Shear Modulus (GPa) = 25.82034 26.99718 26.40876
#
# Velocity S-wave (km/s) = 3.81528 3.90126 3.85851
# Velocity P-wave (km/s) = 7.09062 7.20054 7.14579
#
# Compressibility (1/GPa) = 0.01826323
#
# Stress axis : x y z
#
# Youngs Moduli (GPa) = 91.32307 70.62509 61.74302
#
# Poissons Ratio (x) = 0.21359 0.23337
# Poissons Ratio (y) = 0.27618 0.29126
# Poissons Ratio (z) = 0.34517 0.33316
#
# Static dielectric constant tensor:
#      x y z
#    x 3.247320 0.000000 0.000000 
#    y 0.000000 3.310380 0.000000 
#    z 0.000000 0.000000 3.405010 
# 
# 
# High freq. dielectric constant tensor:
#      x y z
#    x 1.676540 0.000000 0.000000 
#    y 0.000000 1.680400 0.000000 
#    z 0.000000 0.000000 1.703770 
# 
# From -- ./inp_files/2671.got.cif
#   From: 2010.03.12/outbox.cif.g09.slc.cpg/sg49_2_cif.got.tgz:2671.got - 2010.04.14 03:58:27.
