data_PCOD8202248
_publ_section_title
;
Structure prediction by ZEFSAII (Michael W. Deem and Ramdas Pophale) SiO2 
 PCOD8202248
Probable space group: P C C M
;
_chemical_formula_sum "Si O2"
_cell_formula_units_Z 64
_cell_length_a 22.873973
_cell_length_b 18.892408
_cell_length_c 8.892548
_cell_angle_alpha 90.000000
_cell_angle_beta 90.000000
_cell_angle_gamma 90.000000
_cell_volume 3842.865091
_symmetry_space_group_name_H-M "P C C M"
_symmetry_group_IT_number 49
_symmetry_cell_setting 'orthorhombic'
loop_
_space_group_symop_operation_xyz
x,y,z
-x,-y,z
x,-y,1/2-z
-x,y,1/2-z
-x,-y,-z
x,y,-z
-x,y,1/2+z
x,-y,1/2+z
loop_
_atom_site_type_symbol
_atom_site_label
_atom_site_fract_x
_atom_site_fract_y
_atom_site_fract_z
Si Si1 0.666845 0.283442 0.325238
Si Si2 0.763624 0.644222 0.666703
Si Si3 0.878585 0.426410 0.820667
Si Si4 0.060831 0.292453 0.822670
Si Si5 0.842367 0.216786 0.834649
Si Si6 0.562318 0.216274 0.178228
Si Si7 0.622250 0.071614 0.828183
Si Si8 0.271504 0.842643 0.826533
O O1 0.653720 0.291542 0.500000
O O2 0.706139 0.350771 0.271645
O O3 0.605461 0.278207 0.236911
O O4 0.703579 0.213173 0.291962
O O5 0.741979 0.624272 0.500000
O O6 0.810544 0.586071 0.724854
O O7 0.798094 0.717806 0.663597
O O8 0.899726 0.500000 0.750000
O O9 0.919220 0.365636 0.751949
O O10 0.886752 0.425949 0.000000
O O11 0.106846 0.229049 0.787115
O O12 0.000000 0.269132 0.750000
O O13 0.055080 0.302032 0.000000
O O14 0.799008 0.149709 0.798391
O O15 0.871402 0.208148 0.000000
O O16 0.500000 0.230312 0.250000
O O17 0.586245 0.139489 0.232361
O O18 0.558469 0.220804 0.000000
O O19 0.692186 0.084752 0.802215
O O20 0.601633 0.000000 0.750000
O O21 0.606900 0.060207 0.000000
O O22 0.282929 0.816755 0.000000
#
# Coordination Sequence:
#
# PCOD8202248 Si02
#       8
#     8   8   8   8   8   8   8   8
#     4  10  17  25  42  65  84 105 137 175 215 256
#     4   8  15  28  44  61  84 111 136 169 215 259
#     4  10  20  33  47  64  87 116 149 182 216 251
#     4  11  21  32  45  62  86 115 148 181 214 253
#     4   8  14  27  45  62  81 106 137 174 217 258
#     4  10  20  33  45  59  83 114 148 182 218 256
#     4   9  18  30  43  60  84 115 147 179 212 249
#     4   8  15  28  43  59  82 110 137 170 216 260
#
# _framework density 16.654240999999999
#
# number of rings (size 3 to 8) (size 9 to 14) (size 15 to 20)
#    0.000    2.750    0.000    5.250    0.000    8.000 
#    0.000    2.500    0.000    0.000    0.000    0.000 
#    0.000    1.000    0.000   11.000    0.000    5.125 
#
# Total GULP energy -792937.785194 kJ/mol
# GULP energy per Si atom -12389.652894 kJ/mol
# Density = 1.661634 g / cm^3
# Si number density = 16.654241 Si / 1000 Ang^3
#
#
#
# Elastic Constant Matrix: (Units=GPa)
#
#
# Indices 1 2 3 4 5 6 
#
# 1 108.1412 14.1847 43.2491 0.0000 0.0000 0.0000
# 2 14.1847 4.2924 7.2502 0.0000 0.0000 0.0000
# 3 43.2491 7.2502 86.7929 0.0000 0.0000 0.0000
# 4 0.0000 0.0000 0.0000 11.7807 0.0000 0.0000
# 5 0.0000 0.0000 0.0000 0.0000 29.2494 0.0000
# 6 0.0000 0.0000 0.0000 0.0000 0.0000 16.1546
#
#
#
# Elastic Compliance Matrix: (Units=1/GPa)
#
#
# Indices 1 2 3 4 5 6 
#
# 1 0.017770 -0.050956 -0.004598 0.000000 0.000000 0.000000
# 2 -0.050956 0.417360 -0.009472 0.000000 0.000000 0.000000
# 3 -0.004598 -0.009472 0.014604 0.000000 0.000000 0.000000
# 4 0.000000 0.000000 0.000000 0.084885 0.000000 0.000000
# 5 0.000000 0.000000 0.000000 0.000000 0.034189 0.000000
# 6 0.000000 0.000000 0.000000 0.000000 0.000000 0.061902
#
#
# Mechanical properties :
#
#
# Convention : Reuss Voigt Hill
#
# Bulk Modulus (GPa) = 3.12812 36.51046 19.81929
# Shear Modulus (GPa) = 5.76487 20.40644 13.08566
#
# Velocity S-wave (km/s) = 1.86253 3.50423 2.80612
# Velocity P-wave (km/s) = 2.55102 6.19217 4.73554
#
# Compressibility (1/GPa) = 0.31968108
#
# Stress axis : x y z
#
# Youngs Moduli (GPa) = 56.27476 2.39601 68.47321
#
# Poissons Ratio (x) = 0.12209 0.31486
# Poissons Ratio (y) = 2.86754 0.64859
# Poissons Ratio (z) = 0.25877 0.02270
#
# Static dielectric constant tensor:
#      x y z
#    x 3.362660 0.000000 0.000000 
#    y 0.000000 2.894760 0.000000 
#    z 0.000000 0.000000 3.097540 
# 
# 
# High freq. dielectric constant tensor:
#      x y z
#    x 1.639740 0.000000 0.000000 
#    y 0.000000 1.582180 0.000000 
#    z 0.000000 0.000000 1.645810 
# 
# From -- ./inp_files/6104.got.cif
#   From: 2010.03.12/outbox.cif.g09.slc.cpg/sg49_4_cif.got.tgz:6104.got - 2010.04.14 03:58:27.
