data_PCOD8202781
_publ_section_title
;
Structure prediction by ZEFSAII (Michael W. Deem and Ramdas Pophale) SiO2 
 PCOD8202781
Probable space group: P C C M
;
_chemical_formula_sum "Si O2"
_cell_formula_units_Z 64
_cell_length_a 17.775944
_cell_length_b 22.967707
_cell_length_c 9.391746
_cell_angle_alpha 90.000000
_cell_angle_beta 90.000000
_cell_angle_gamma 90.000000
_cell_volume 3834.393248
_symmetry_space_group_name_H-M "P C C M"
_symmetry_group_IT_number 49
_symmetry_cell_setting 'orthorhombic'
loop_
_space_group_symop_operation_xyz
x,y,z
-x,-y,z
x,-y,1/2-z
-x,y,1/2-z
-x,-y,-z
x,y,-z
-x,y,1/2+z
x,-y,1/2+z
loop_
_atom_site_type_symbol
_atom_site_label
_atom_site_fract_x
_atom_site_fract_y
_atom_site_fract_z
Si Si1 0.849677 0.673596 0.339134
Si Si2 0.387116 0.554617 0.839386
Si Si3 0.936530 0.753763 0.843775
Si Si4 0.923908 0.938991 0.174038
Si Si5 0.574054 0.684497 0.329755
Si Si6 0.195301 0.843936 0.343698
Si Si7 0.791049 0.552499 0.339987
Si Si8 0.713240 0.762743 0.659979
O O1 0.879513 0.667468 0.500000
O O2 0.917120 0.694096 0.238181
O O3 0.821746 0.612529 0.276338
O O4 0.781292 0.718217 0.335655
O O5 0.420714 0.500000 0.750000
O O6 0.412101 0.617695 0.778959
O O7 0.298066 0.553486 0.832008
O O8 0.416129 0.546694 0.000000
O O9 0.863497 0.792256 0.857067
O O10 0.000000 0.786548 0.750000
O O11 0.968937 0.739788 0.000000
O O12 0.851657 0.899355 0.214513
O O13 0.000000 0.914176 0.250000
O O14 0.906490 0.000000 0.250000
O O15 0.934288 0.943008 0.000000
O O16 0.500000 0.707540 0.250000
O O17 0.565584 0.686634 0.500000
O O18 0.640629 0.728165 0.279401
O O19 0.228425 0.858354 0.500000
O O20 0.264993 0.821821 0.246725
O O21 0.825660 0.500000 0.250000
O O22 0.818972 0.544043 0.500000
O O23 0.696855 0.783800 0.500000
#
# Coordination Sequence:
#
# PCOD8202781 Si02
#       8
#     8   8   8   8   8   8   8   8
#     4   9  16  29  47  63  82 110 140 178 225 268
#     4   9  17  30  45  62  86 114 148 186 226 277
#     4  10  19  30  44  65  90 115 145 181 221 265
#     4  10  19  31  47  70 103 139 172 201 228 264
#     4  10  20  33  47  65  91 122 154 191 235 284
#     4   9  19  32  47  69  96 124 157 197 230 259
#     4   9  16  27  44  63  82 105 136 176 220 268
#     4   9  17  31  49  66  87 117 155 192 229 275
#
# _framework density 16.691037000000001
#
# number of rings (size 3 to 8) (size 9 to 14) (size 15 to 20)
#    0.000    2.625    1.250    1.500    0.000    3.250 
#    0.000    1.250    0.000    0.375    0.000    2.625 
#    0.000    0.500    0.000    5.500    0.000    4.000 
#
# Total GULP energy -792975.617911 kJ/mol
# GULP energy per Si atom -12390.244030 kJ/mol
# Density = 1.665305 g / cm^3
# Si number density = 16.691037 Si / 1000 Ang^3
#
#
#
# Elastic Constant Matrix: (Units=GPa)
#
#
# Indices 1 2 3 4 5 6 
#
# 1 52.7373 29.7394 32.8506 0.0000 0.0000 0.0000
# 2 29.7394 81.2371 37.4086 0.0000 0.0000 0.0000
# 3 32.8506 37.4086 80.0215 0.0000 0.0000 0.0000
# 4 0.0000 0.0000 0.0000 22.0867 0.0000 0.0000
# 5 0.0000 0.0000 0.0000 0.0000 25.0935 0.0000
# 6 0.0000 0.0000 0.0000 0.0000 0.0000 14.1632
#
#
#
# Elastic Compliance Matrix: (Units=1/GPa)
#
#
# Indices 1 2 3 4 5 6 
#
# 1 0.027773 -0.006266 -0.008472 0.000000 0.000000 0.000000
# 2 -0.006266 0.017100 -0.005422 0.000000 0.000000 0.000000
# 3 -0.008472 -0.005422 0.018509 0.000000 0.000000 0.000000
# 4 0.000000 0.000000 0.000000 0.045276 0.000000 0.000000
# 5 0.000000 0.000000 0.000000 0.000000 0.039851 0.000000
# 6 0.000000 0.000000 0.000000 0.000000 0.000000 0.070605
#
#
# Mechanical properties :
#
#
# Convention : Reuss Voigt Hill
#
# Bulk Modulus (GPa) = 43.36019 45.99924 44.67971
# Shear Modulus (GPa) = 18.71808 19.86850 19.29329
#
# Velocity S-wave (km/s) = 3.35243 3.45392 3.40355
# Velocity P-wave (km/s) = 6.40465 6.59736 6.50172
#
# Compressibility (1/GPa) = 0.02306263
#
# Stress axis : x y z
#
# Youngs Moduli (GPa) = 36.00658 58.47928 54.02708
#
# Poissons Ratio (x) = 0.36642 0.45773
# Poissons Ratio (y) = 0.22561 0.29292
# Poissons Ratio (z) = 0.30505 0.31706
#
# Static dielectric constant tensor:
#      x y z
#    x 2.954730 0.000000 0.000000 
#    y 0.000000 3.132120 0.000000 
#    z 0.000000 0.000000 3.557530 
# 
# 
# High freq. dielectric constant tensor:
#      x y z
#    x 1.615650 0.000000 0.000000 
#    y 0.000000 1.624080 0.000000 
#    z 0.000000 0.000000 1.646080 
# 
# From -- ./inp_files/5390.got.cif
#   From: 2010.03.12/outbox.cif.g09.slc.cpg/sg49_3_cif.got.tgz:5390.got - 2010.04.14 03:58:27.
