data_PCOD8202446
_publ_section_title
;
Structure prediction by ZEFSAII (Michael W. Deem and Ramdas Pophale) SiO2 
 PCOD8202446
Probable space group: P C C M
;
_chemical_formula_sum "Si O2"
_cell_formula_units_Z 64
_cell_length_a 5.129937
_cell_length_b 23.424008
_cell_length_c 31.714570
_cell_angle_alpha 90.000000
_cell_angle_beta 90.000000
_cell_angle_gamma 90.000000
_cell_volume 3810.939610
_symmetry_space_group_name_H-M "P C C M"
_symmetry_group_IT_number 49
_symmetry_cell_setting 'orthorhombic'
loop_
_space_group_symop_operation_xyz
x,y,z
-x,-y,z
x,-y,1/2-z
-x,y,1/2-z
-x,-y,-z
x,y,-z
-x,y,1/2+z
x,-y,1/2+z
loop_
_atom_site_type_symbol
_atom_site_label
_atom_site_fract_x
_atom_site_fract_y
_atom_site_fract_z
Si Si1 0.375890 0.742534 0.396184
Si Si2 0.875738 0.107059 0.090046
Si Si3 0.627639 0.144261 0.451240
Si Si4 0.245995 0.146946 0.277618
Si Si5 0.759631 0.963668 0.667383
Si Si6 0.033033 0.562061 0.952024
Si Si7 0.481988 0.633377 0.548240
Si Si8 0.125599 0.780558 0.854257
O O1 0.360267 0.795971 0.427268
O O2 0.390328 0.686585 0.424324
O O3 0.629193 0.742777 0.367150
O O4 0.131382 0.743026 0.363905
O O5 0.641576 0.111563 0.056789
O O6 0.839793 0.052327 0.119709
O O7 0.886490 0.162306 0.119012
O O8 0.144154 0.102024 0.064379
O O9 0.662061 0.158074 0.500000
O O10 0.500000 0.162540 0.250000
O O11 0.311653 0.092272 0.306014
O O12 0.160606 0.201877 0.305372
O O13 0.000000 0.129590 0.250000
O O14 0.500000 0.000000 0.666786
O O15 0.000000 0.000000 0.687081
O O16 0.259086 0.602759 0.932267
O O17 0.000000 0.500000 0.929614
O O18 0.751843 0.589448 0.949387
O O19 0.125518 0.552022 0.000000
O O20 0.533119 0.653796 0.500000
#
# Coordination Sequence:
#
# PCOD8202446 Si02
#       8
#     8   8   8   8   8   8   8   8
#     4  10  18  30  46  68  94 119 153 192 236 276
#     4   9  19  33  48  66  88 118 149 176 220 284
#     4  10  18  30  49  68  88 114 149 194 235 270
#     4  11  22  36  54  76  98 118 147 179 211 267
#     4  11  22  36  54  72  93 120 145 178 225 268
#     4   9  17  28  40  56  85 127 170 208 244 278
#     4  10  18  27  42  65  91 121 165 214 244 263
#     4   9  19  33  48  66  92 123 147 174 221 283
#
# _framework density 16.793758
#
# number of rings (size 3 to 8) (size 9 to 14) (size 15 to 20)
#    0.000    2.125    0.000    4.125    0.000    7.000 
#    0.000    3.750    0.000    7.500    0.000    0.000 
#    0.000    0.000    0.000    0.000    0.000  131.250 
#
# Total GULP energy -793445.907362 kJ/mol
# GULP energy per Si atom -12397.592303 kJ/mol
# Density = 1.675553 g / cm^3
# Si number density = 16.793758 Si / 1000 Ang^3
#
#
#
# Elastic Constant Matrix: (Units=GPa)
#
#
# Indices 1 2 3 4 5 6 
#
# 1 105.4703 23.4995 16.7821 0.0000 0.0000 0.0000
# 2 23.4995 65.2125 25.9512 0.0000 0.0000 0.0000
# 3 16.7821 25.9512 55.5324 0.0000 0.0000 0.0000
# 4 0.0000 0.0000 0.0000 8.8729 0.0000 0.0000
# 5 0.0000 0.0000 0.0000 0.0000 20.6877 0.0000
# 6 0.0000 0.0000 0.0000 0.0000 0.0000 24.4540
#
#
#
# Elastic Compliance Matrix: (Units=1/GPa)
#
#
# Indices 1 2 3 4 5 6 
#
# 1 0.010441 -0.003079 -0.001716 0.000000 0.000000 0.000000
# 2 -0.003079 0.019746 -0.008297 0.000000 0.000000 0.000000
# 3 -0.001716 -0.008297 0.022403 0.000000 0.000000 0.000000
# 4 0.000000 0.000000 0.000000 0.112703 0.000000 0.000000
# 5 0.000000 0.000000 0.000000 0.000000 0.048338 0.000000
# 6 0.000000 0.000000 0.000000 0.000000 0.000000 0.040893
#
#
# Mechanical properties :
#
#
# Convention : Reuss Voigt Hill
#
# Bulk Modulus (GPa) = 37.87173 39.85342 38.86257
# Shear Modulus (GPa) = 17.27052 21.46841 19.36946
#
# Velocity S-wave (km/s) = 3.21033 3.57929 3.39982
# Velocity P-wave (km/s) = 6.02840 6.39252 6.21313
#
# Compressibility (1/GPa) = 0.02640492
#
# Stress axis : x y z
#
# Youngs Moduli (GPa) = 95.78079 50.64348 44.63603
#
# Poissons Ratio (x) = 0.15595 0.07660
# Poissons Ratio (y) = 0.29494 0.37034
# Poissons Ratio (z) = 0.16437 0.42019
#
# Static dielectric constant tensor:
#      x y z
#    x 3.486230 0.000000 0.000000 
#    y 0.000000 3.025050 0.000000 
#    z 0.000000 0.000000 3.049670 
# 
# 
# High freq. dielectric constant tensor:
#      x y z
#    x 1.673600 0.000000 0.000000 
#    y 0.000000 1.622100 0.000000 
#    z 0.000000 0.000000 1.615290 
# 
# From -- ./inp_files/24119.got.cif
#   From: 2010.03.12/outbox.cif.g09.slc.cpg/sg49_13_cif.got.tgz:24119.got - 2010.04.14 03:58:27.
