data_PCOD8202000
_publ_section_title
;
Structure prediction by ZEFSAII (Michael W. Deem and Ramdas Pophale) SiO2 
 PCOD8202000
Probable space group: P N N N
;
_chemical_formula_sum "Si O2"
_cell_formula_units_Z 64
_cell_length_a 21.800825
_cell_length_b 9.572613
_cell_length_c 18.142799
_cell_angle_alpha 90.000000
_cell_angle_beta 90.000000
_cell_angle_gamma 90.000000
_cell_volume 3786.236341
_symmetry_space_group_name_H-M "P N N N"
_symmetry_group_IT_number 48
_space_group.IT_coordinate_system_code '2'
_symmetry_cell_setting 'orthorhombic'
loop_
_space_group_symop_operation_xyz
x,y,z
1/2-x,1/2-y,z
x,1/2-y,1/2-z
1/2-x,y,1/2-z
-x,-y,-z
1/2+x,1/2+y,-z
-x,1/2+y,1/2+z
1/2+x,-y,1/2+z
loop_
_atom_site_type_symbol
_atom_site_label
_atom_site_fract_x
_atom_site_fract_y
_atom_site_fract_z
Si Si1 0.197052 0.515452 0.349811
Si Si2 0.515719 0.306446 0.168159
Si Si3 0.064444 0.628505 0.951311
Si Si4 0.612927 0.229772 0.588361
Si Si5 0.878674 0.754645 0.626763
Si Si6 0.665616 0.465958 0.684936
Si Si7 0.931182 0.673426 0.019963
Si Si8 0.989359 0.928213 0.080349
O O1 0.168944 0.620373 0.410033
O O2 0.174853 0.357851 0.362319
O O3 0.270012 0.523123 0.358239
O O4 0.175950 0.571723 0.269946
O O5 0.523983 0.250000 0.250000
O O6 0.563289 0.206297 0.126184
O O7 0.444868 0.306235 0.145281
O O8 0.533822 0.465309 0.144332
O O9 0.085171 0.468581 0.936274
O O10 0.111556 0.701929 0.007486
O O11 0.996273 0.643525 0.982591
O O12 0.621588 0.351303 0.648718
O O13 0.551360 0.145650 0.607868
O O14 0.867114 0.884155 0.680893
O O15 0.878837 0.802269 0.541434
O O16 0.936660 0.809226 0.072363
O O17 0.000000 0.000000 0.000000
#
# Coordination Sequence:
#
# PCOD8202000 Si02
#       8
#     8   8   8   8   8   8   8   8
#     4  11  22  35  46  68 101 140 177 220 246 287
#     4  11  21  33  51  77 105 128 167 210 255 310
#     4   9  18  32  50  70  95 125 161 207 257 298
#     4  11  19  33  50  67  91 136 176 208 251 295
#     4  11  19  33  52  69  96 137 176 209 246 293
#     4  11  23  34  46  67 103 139 178 215 256 279
#     4   9  17  31  51  72  92 123 166 207 247 300
#     4  11  18  33  51  74  95 129 170 208 250 304
#
# _framework density 16.90333
#
# number of rings (size 3 to 8) (size 9 to 14) (size 15 to 20)
#    0.000    1.500    6.250    2.250    1.750    2.000 
#    0.000    0.625    0.000    0.000    0.000    0.000 
#    0.000    2.000    0.000    2.250    0.000    0.500 
#
# Total GULP energy -793291.822122 kJ/mol
# GULP energy per Si atom -12395.184721 kJ/mol
# Density = 1.686486 g / cm^3
# Si number density = 16.903330 Si / 1000 Ang^3
#
#
#
# Elastic Constant Matrix: (Units=GPa)
#
#
# Indices 1 2 3 4 5 6 
#
# 1 41.9646 18.6465 26.2556 0.0000 0.0000 0.0000
# 2 18.6465 132.4770 52.0186 0.0000 0.0000 0.0000
# 3 26.2556 52.0186 71.4453 0.0000 0.0000 0.0000
# 4 0.0000 0.0000 0.0000 30.9319 0.0000 0.0000
# 5 0.0000 0.0000 0.0000 0.0000 24.7463 0.0000
# 6 0.0000 0.0000 0.0000 0.0000 0.0000 19.9861
#
#
#
# Elastic Compliance Matrix: (Units=1/GPa)
#
#
# Indices 1 2 3 4 5 6 
#
# 1 0.030947 0.000154 -0.011485 0.000000 0.000000 0.000000
# 2 0.000154 0.010571 -0.007753 0.000000 0.000000 0.000000
# 3 -0.011485 -0.007753 0.023862 0.000000 0.000000 0.000000
# 4 0.000000 0.000000 0.000000 0.032329 0.000000 0.000000
# 5 0.000000 0.000000 0.000000 0.000000 0.040410 0.000000
# 6 0.000000 0.000000 0.000000 0.000000 0.000000 0.050035
#
#
# Mechanical properties :
#
#
# Convention : Reuss Voigt Hill
#
# Bulk Modulus (GPa) = 36.74855 48.85870 42.80363
# Shear Modulus (GPa) = 21.24103 25.06394 23.15248
#
# Velocity S-wave (km/s) = 3.54873 3.85487 3.70496
# Velocity P-wave (km/s) = 6.21119 6.98433 6.60908
#
# Compressibility (1/GPa) = 0.02721196
#
# Stress axis : x y z
#
# Youngs Moduli (GPa) = 32.31352 94.59599 41.90704
#
# Poissons Ratio (x) = -0.01454 0.48129
# Poissons Ratio (y) = -0.00497 0.32492
# Poissons Ratio (z) = 0.37111 0.73343
#
# Static dielectric constant tensor:
#      x y z
#    x 2.924120 0.000000 0.000000 
#    y 0.000000 3.628980 0.000000 
#    z 0.000000 0.000000 3.107200 
# 
# 
# High freq. dielectric constant tensor:
#      x y z
#    x 1.607270 0.000000 0.000000 
#    y 0.000000 1.682410 0.000000 
#    z 0.000000 0.000000 1.621870 
# 
# From -- ./inp_files/35002.got.cif
#   From: 2010.06.25/outbox.cif.g09.slc.cpg/sg48_18_cif.got.tgz:35002.got - 2010.06.26 18:06:46.
