data_PCOD8202373
_publ_section_title
;
Structure prediction by ZEFSAII (Michael W. Deem and Ramdas Pophale) SiO2 
 PCOD8202373
Probable space group: P C C M
;
_chemical_formula_sum "Si O2"
_cell_formula_units_Z 40
_cell_length_a 9.992241
_cell_length_b 24.891595
_cell_length_c 8.599764
_cell_angle_alpha 90.000000
_cell_angle_beta 90.000000
_cell_angle_gamma 90.000000
_cell_volume 2138.957520
_symmetry_space_group_name_H-M "P C C M"
_symmetry_group_IT_number 49
_symmetry_cell_setting 'orthorhombic'
loop_
_space_group_symop_operation_xyz
x,y,z
-x,-y,z
x,-y,1/2-z
-x,y,1/2-z
-x,-y,-z
x,y,-z
-x,y,1/2+z
x,-y,1/2+z
loop_
_atom_site_type_symbol
_atom_site_label
_atom_site_fract_x
_atom_site_fract_y
_atom_site_fract_z
Si Si1 0.859320 0.633122 0.320276
Si Si2 0.858747 0.759168 0.320034
Si Si3 0.350816 0.053733 0.315827
Si Si4 0.647274 0.837003 0.816803
Si Si5 0.644358 0.556385 0.817186
O O1 0.853982 0.616680 0.500000
O O2 0.838143 0.696133 0.295870
O O3 0.743439 0.603898 0.226730
O O4 0.000000 0.614255 0.250000
O O5 0.853227 0.775624 0.500000
O O6 0.739975 0.787186 0.226640
O O7 0.000000 0.778043 0.250000
O O8 0.500000 0.054183 0.250000
O O9 0.350160 0.052270 0.500000
O O10 0.284419 0.108863 0.254463
O O11 0.277011 0.000000 0.250000
O O12 0.500000 0.826274 0.750000
O O13 0.635837 0.843459 0.000000
O O14 0.697953 0.500000 0.750000
O O15 0.500000 0.571085 0.750000
O O16 0.632506 0.551021 0.000000
#
# Coordination Sequence:
#
# PCOD8202373 Si02
#       5
#     8   8   8   8   8
#     4  10  21  38  59  83 110 141 181 224 268 317
#     4  10  21  38  58  80 108 143 180 221 269 322
#     4  10  17  28  46  71 103 137 174 217 267 319
#     4  11  21  34  53  79 109 141 180 225 270 318
#     4  11  22  38  59  83 113 146 181 220 268 320
#
# _framework density 18.700697999999999
#
# number of rings (size 3 to 8) (size 9 to 14) (size 15 to 20)
#    0.000    1.600    0.000    9.000    0.000    3.600 
#    0.000    2.000    0.000    0.600    0.000    4.200 
#    0.000    0.000    0.000    0.000    0.000    0.000 
#
# Total GULP energy -496072.571274 kJ/mol
# GULP energy per Si atom -12401.814282 kJ/mol
# Density = 1.865813 g / cm^3
# Si number density = 18.700698 Si / 1000 Ang^3
#
#
#
# Elastic Constant Matrix: (Units=GPa)
#
#
# Indices 1 2 3 4 5 6 
#
# 1 88.6619 53.0832 49.8484 0.0000 0.0000 0.0000
# 2 53.0832 73.3769 50.3774 0.0000 0.0000 0.0000
# 3 49.8484 50.3774 184.3410 0.0000 0.0000 0.0000
# 4 0.0000 0.0000 0.0000 34.9859 0.0000 0.0000
# 5 0.0000 0.0000 0.0000 0.0000 31.8571 0.0000
# 6 0.0000 0.0000 0.0000 0.0000 0.0000 8.2758
#
#
#
# Elastic Compliance Matrix: (Units=1/GPa)
#
#
# Indices 1 2 3 4 5 6 
#
# 1 0.020383 -0.013493 -0.001824 0.000000 0.000000 0.000000
# 2 -0.013493 0.025708 -0.003377 0.000000 0.000000 0.000000
# 3 -0.001824 -0.003377 0.006841 0.000000 0.000000 0.000000
# 4 0.000000 0.000000 0.000000 0.028583 0.000000 0.000000
# 5 0.000000 0.000000 0.000000 0.000000 0.031390 0.000000
# 6 0.000000 0.000000 0.000000 0.000000 0.000000 0.120834
#
#
# Mechanical properties :
#
#
# Convention : Reuss Voigt Hill
#
# Bulk Modulus (GPa) = 64.33700 72.55532 68.44616
# Shear Modulus (GPa) = 18.09568 27.89515 22.99542
#
# Velocity S-wave (km/s) = 3.11408 3.86640 3.51045
# Velocity P-wave (km/s) = 6.88536 7.66906 7.28775
#
# Compressibility (1/GPa) = 0.01554316
#
# Stress axis : x y z
#
# Youngs Moduli (GPa) = 49.06008 38.89822 146.17939
#
# Poissons Ratio (x) = 0.52486 0.26669
# Poissons Ratio (y) = 0.66198 0.49362
# Poissons Ratio (z) = 0.08951 0.13135
#
# Static dielectric constant tensor:
#      x y z
#    x 3.197560 0.000000 0.000000 
#    y 0.000000 3.908210 0.000000 
#    z 0.000000 0.000000 3.624820 
# 
# 
# High freq. dielectric constant tensor:
#      x y z
#    x 1.697930 0.000000 0.000000 
#    y 0.000000 1.737580 0.000000 
#    z 0.000000 0.000000 1.751740 
# 
# From -- ./inp_files/1678.got.cif
#   From: 2010.03.12/outbox.cif.g09.slc.cpg/sg49_1_cif.got.tgz:1678.got - 2010.04.14 03:58:27.
