data_PCOD8202791
_publ_section_title
;
Structure prediction by ZEFSAII (Michael W. Deem and Ramdas Pophale) SiO2 
 PCOD8202791
Probable space group: P C C M
;
_chemical_formula_sum "Si O2"
_cell_formula_units_Z 56
_cell_length_a 22.665751
_cell_length_b 5.069253
_cell_length_c 26.999272
_cell_angle_alpha 90.000000
_cell_angle_beta 90.000000
_cell_angle_gamma 90.000000
_cell_volume 3102.173863
_symmetry_space_group_name_H-M "P C C M"
_symmetry_group_IT_number 49
_symmetry_cell_setting 'orthorhombic'
loop_
_space_group_symop_operation_xyz
x,y,z
-x,-y,z
x,-y,1/2-z
-x,y,1/2-z
-x,-y,-z
x,y,-z
-x,y,1/2+z
x,-y,1/2+z
loop_
_atom_site_type_symbol
_atom_site_label
_atom_site_fract_x
_atom_site_fract_y
_atom_site_fract_z
Si Si1 0.861627 0.465688 0.558532
Si Si2 0.376061 0.041144 0.303281
Si Si3 0.461159 0.245227 0.945252
Si Si4 0.760848 0.538582 0.866039
Si Si5 0.626170 0.531782 0.134833
Si Si6 0.065360 0.034393 0.558680
Si Si7 0.241420 0.060719 0.303348
O O1 0.850722 0.478219 0.500000
O O2 0.797894 0.478353 0.583689
O O3 0.904644 0.697427 0.577079
O O4 0.893225 0.201202 0.576503
O O5 0.403169 0.262866 0.341366
O O6 0.309478 0.136680 0.293664
O O7 0.408822 0.000000 0.250000
O O8 0.376663 0.747779 0.323098
O O9 0.500000 0.500000 0.951031
O O10 0.407356 0.337116 0.911195
O O11 0.500000 0.000000 0.923293
O O12 0.437302 0.161100 0.000000
O O13 0.693376 0.475487 0.881779
O O14 0.786680 0.321296 0.827847
O O15 0.766972 0.822427 0.841213
O O16 0.059689 0.034177 0.500000
O O17 0.000000 0.000000 0.581934
O O18 0.211436 0.000000 0.250000
#
# Coordination Sequence:
#
# PCOD8202791 Si02
#       7
#     8   8   8   8   8   8   8
#     4  10  19  30  45  69 103 133 156 194 241 286
#     4   9  17  30  50  75  99 125 157 192 240 300
#     4  10  21  37  55  73  94 126 172 217 245 273
#     4  10  19  30  47  74 103 128 157 193 245 304
#     4  10  19  32  52  74  98 130 161 197 246 296
#     4   9  17  30  47  65  90 130 172 201 230 274
#     4   9  17  30  47  68  97 129 161 199 237 281
#
# _framework density 18.051856999999998
#
# number of rings (size 3 to 8) (size 9 to 14) (size 15 to 20)
#    0.000    2.429    0.000    3.000    0.000    5.714 
#    0.000    0.000    0.000   16.714    0.000    0.000 
#    0.000   40.000    0.000    0.000    0.000    0.000 
#
# Total GULP energy -693953.951510 kJ/mol
# GULP energy per Si atom -12392.034848 kJ/mol
# Density = 1.801077 g / cm^3
# Si number density = 18.051857 Si / 1000 Ang^3
#
#
#
# Elastic Constant Matrix: (Units=GPa)
#
#
# Indices 1 2 3 4 5 6 
#
# 1 59.9461 6.6169 44.5223 0.0000 0.0000 0.0000
# 2 6.6169 79.4031 18.6422 0.0000 0.0000 0.0000
# 3 44.5223 18.6422 79.1474 0.0000 0.0000 0.0000
# 4 0.0000 0.0000 0.0000 23.8906 0.0000 0.0000
# 5 0.0000 0.0000 0.0000 0.0000 5.3721 0.0000
# 6 0.0000 0.0000 0.0000 0.0000 0.0000 16.8456
#
#
#
# Elastic Compliance Matrix: (Units=1/GPa)
#
#
# Indices 1 2 3 4 5 6 
#
# 1 0.028817 0.001487 -0.016561 0.000000 0.000000 0.000000
# 2 0.001487 0.013408 -0.003994 0.000000 0.000000 0.000000
# 3 -0.016561 -0.003994 0.022891 0.000000 0.000000 0.000000
# 4 0.000000 0.000000 0.000000 0.041857 0.000000 0.000000
# 5 0.000000 0.000000 0.000000 0.000000 0.186148 0.000000
# 6 0.000000 0.000000 0.000000 0.000000 0.000000 0.059363
#
#
# Mechanical properties :
#
#
# Convention : Reuss Voigt Hill
#
# Bulk Modulus (GPa) = 37.06478 39.78437 38.42458
# Shear Modulus (GPa) = 12.51207 19.13601 15.82404
#
# Velocity S-wave (km/s) = 2.63557 3.25939 2.96393
# Velocity P-wave (km/s) = 5.46247 6.02093 5.74849
#
# Compressibility (1/GPa) = 0.02697979
#
# Stress axis : x y z
#
# Youngs Moduli (GPa) = 34.70152 74.58311 43.68495
#
# Poissons Ratio (x) = -0.11088 0.72345
# Poissons Ratio (y) = -0.05159 0.17449
# Poissons Ratio (z) = 0.57468 0.29791
#
# Static dielectric constant tensor:
#      x y z
#    x 3.061550 0.000000 0.000000 
#    y 0.000000 3.621930 0.000000 
#    z 0.000000 0.000000 3.346870 
# 
# 
# High freq. dielectric constant tensor:
#      x y z
#    x 1.659310 0.000000 0.000000 
#    y 0.000000 1.725040 0.000000 
#    z 0.000000 0.000000 1.681450 
# 
# From -- ./inp_files/21881.got.cif
#   From: 2010.03.12/outbox.cif.g09.slc.cpg/sg49_11_cif.got.tgz:21881.got - 2010.04.14 03:58:27.
