data_PCOD8202929
_publ_section_title
;
Structure prediction by ZEFSAII (Michael W. Deem and Ramdas Pophale) SiO2 
 PCOD8202929
Probable space group: P C C M
;
_chemical_formula_sum "Si O2"
_cell_formula_units_Z 64
_cell_length_a 30.536679
_cell_length_b 15.276921
_cell_length_c 8.847077
_cell_angle_alpha 90.000000
_cell_angle_beta 90.000000
_cell_angle_gamma 90.000000
_cell_volume 4127.218331
_symmetry_space_group_name_H-M "P C C M"
_symmetry_group_IT_number 49
_symmetry_cell_setting 'orthorhombic'
loop_
_space_group_symop_operation_xyz
x,y,z
-x,-y,z
x,-y,1/2-z
-x,y,1/2-z
-x,-y,-z
x,y,-z
-x,y,1/2+z
x,-y,1/2+z
loop_
_atom_site_type_symbol
_atom_site_label
_atom_site_fract_x
_atom_site_fract_y
_atom_site_fract_z
Si Si1 0.213569 0.733504 0.321718
Si Si2 0.784911 0.912578 0.671379
Si Si3 0.045439 0.592489 0.320723
Si Si4 0.110831 0.085373 0.331508
Si Si5 0.636521 0.594697 0.822648
Si Si6 0.541581 0.404979 0.323941
Si Si7 0.887201 0.740191 0.175724
Si Si8 0.722793 0.403588 0.820268
O O1 0.221978 0.726597 0.500000
O O2 0.231106 0.827438 0.263670
O O3 0.162771 0.721381 0.278321
O O4 0.237560 0.655976 0.234628
O O5 0.767245 0.907108 0.500000
O O6 0.836975 0.916932 0.674019
O O7 0.765603 0.000000 0.750000
O O8 0.058718 0.500000 0.250000
O O9 0.040321 0.583471 0.500000
O O10 0.083723 0.658453 0.273404
O O11 0.000000 0.626431 0.250000
O O12 0.092628 0.084095 0.500000
O O13 0.093589 0.173563 0.254508
O O14 0.091321 0.000000 0.250000
O O15 0.633065 0.500000 0.750000
O O16 0.589060 0.642005 0.796110
O O17 0.677339 0.641657 0.739142
O O18 0.646970 0.586997 0.000000
O O19 0.543341 0.500000 0.250000
O O20 0.500000 0.352839 0.250000
O O21 0.532656 0.415138 0.500000
O O22 0.890716 0.758752 0.000000
O O23 0.728348 0.500000 0.750000
O O24 0.722714 0.409944 0.000000
#
# Coordination Sequence:
#
# PCOD8202929 Si02
#       8
#     8   8   8   8   8   8   8   8
#     4  10  19  32  47  65  89 115 143 178 214 251
#     4   9  16  27  43  65  89 114 142 173 209 250
#     4  10  20  35  53  72  91 113 141 174 211 254
#     4   9  16  26  44  68  94 120 144 169 201 242
#     4   9  16  26  38  52  70  98 135 173 212 255
#     4   9  15  21  32  49  69  91 121 164 212 255
#     4   9  19  33  49  69  92 115 141 173 210 249
#     4  11  21  32  44  58  79 111 148 184 218 257
#
# _framework density 15.506811000000001
#
# number of rings (size 3 to 8) (size 9 to 14) (size 15 to 20)
#    0.000    2.500    0.000    4.875    0.000    6.500 
#    0.000    1.250    0.000    0.375    0.000    2.625 
#    0.000    0.000    0.000    0.000    0.000    0.625 
#
# Total GULP energy -793160.359491 kJ/mol
# GULP energy per Si atom -12393.130617 kJ/mol
# Density = 1.547152 g / cm^3
# Si number density = 15.506811 Si / 1000 Ang^3
#
#
#
# Elastic Constant Matrix: (Units=GPa)
#
#
# Indices 1 2 3 4 5 6 
#
# 1 79.7650 54.1327 49.4816 0.0000 0.0000 0.0000
# 2 54.1327 87.9918 52.0535 0.0000 0.0000 0.0000
# 3 49.4816 52.0535 111.8459 0.0000 0.0000 0.0000
# 4 0.0000 0.0000 0.0000 25.9646 0.0000 0.0000
# 5 0.0000 0.0000 0.0000 0.0000 19.3839 0.0000
# 6 0.0000 0.0000 0.0000 0.0000 0.0000 0.2987
#
#
#
# Elastic Compliance Matrix: (Units=1/GPa)
#
#
# Indices 1 2 3 4 5 6 
#
# 1 0.023418 -0.011423 -0.005044 0.000000 0.000000 0.000000
# 2 -0.011423 0.021254 -0.004838 0.000000 0.000000 0.000000
# 3 -0.005044 -0.004838 0.013424 0.000000 0.000000 0.000000
# 4 0.000000 0.000000 0.000000 0.038514 0.000000 0.000000
# 5 0.000000 0.000000 0.000000 0.000000 0.051589 0.000000
# 6 0.000000 0.000000 0.000000 0.000000 0.000000 3.347597
#
#
# Mechanical properties :
#
#
# Convention : Reuss Voigt Hill
#
# Bulk Modulus (GPa) = 64.57426 65.65979 65.11703
# Shear Modulus (GPa) = 1.41101 17.39178 9.40139
#
# Velocity S-wave (km/s) = 0.95494 3.35260 2.46494
# Velocity P-wave (km/s) = 6.55353 7.57767 7.08413
#
# Compressibility (1/GPa) = 0.01548605
#
# Stress axis : x y z
#
# Youngs Moduli (GPa) = 42.70208 47.04948 74.49261
#
# Poissons Ratio (x) = 0.53744 0.37575
# Poissons Ratio (y) = 0.48778 0.36041
# Poissons Ratio (z) = 0.21539 0.22764
#
# Static dielectric constant tensor:
#      x y z
#    x 3.359360 0.000000 0.000000 
#    y 0.000000 2.792780 0.000000 
#    z 0.000000 0.000000 3.160950 
# 
# 
# High freq. dielectric constant tensor:
#      x y z
#    x 1.575510 0.000000 0.000000 
#    y 0.000000 1.558140 0.000000 
#    z 0.000000 0.000000 1.616500 
# 
# From -- ./inp_files/7068.got.cif
#   From: 2010.03.12/outbox.cif.g09.slc.cpg/sg49_4_cif.got.tgz:7068.got - 2010.04.14 03:58:27.
