data_PCOD8202772
_publ_section_title
;
Structure prediction by ZEFSAII (Michael W. Deem and Ramdas Pophale) SiO2 
 PCOD8202772
Probable space group: P C C M
;
_chemical_formula_sum "Si O2"
_cell_formula_units_Z 64
_cell_length_a 31.388812
_cell_length_b 14.365904
_cell_length_c 9.245564
_cell_angle_alpha 90.000000
_cell_angle_beta 90.000000
_cell_angle_gamma 90.000000
_cell_volume 4169.089784
_symmetry_space_group_name_H-M "P C C M"
_symmetry_group_IT_number 49
_symmetry_cell_setting 'orthorhombic'
loop_
_space_group_symop_operation_xyz
x,y,z
-x,-y,z
x,-y,1/2-z
-x,y,1/2-z
-x,-y,-z
x,y,-z
-x,y,1/2+z
x,-y,1/2+z
loop_
_atom_site_type_symbol
_atom_site_label
_atom_site_fract_x
_atom_site_fract_y
_atom_site_fract_z
Si Si1 0.039072 0.900387 0.670770
Si Si2 0.292772 0.211194 0.332063
Si Si3 0.421912 0.590226 0.169423
Si Si4 0.777083 0.901550 0.169584
Si Si5 0.623494 0.903958 0.331070
Si Si6 0.130172 0.906364 0.664553
Si Si7 0.542339 0.786653 0.329261
Si Si8 0.324270 0.588951 0.832280
O O1 0.029370 0.910239 0.500000
O O2 0.085649 0.850493 0.697462
O O3 0.000000 0.844688 0.750000
O O4 0.041357 0.000000 0.750000
O O5 0.281362 0.195916 0.500000
O O6 0.255541 0.172347 0.232635
O O7 0.336895 0.161499 0.292888
O O8 0.296927 0.320042 0.294319
O O9 0.440983 0.500000 0.250000
O O10 0.447978 0.680891 0.218490
O O11 0.372981 0.606548 0.215260
O O12 0.426198 0.573141 0.000000
O O13 0.824513 0.855867 0.195148
O O14 0.771698 0.000000 0.250000
O O15 0.767910 0.917517 0.000000
O O16 0.621332 0.924929 0.500000
O O17 0.580741 0.852801 0.278225
O O18 0.629466 0.000000 0.250000
O O19 0.128538 0.938360 0.500000
O O20 0.130817 0.000000 0.750000
O O21 0.500000 0.822006 0.250000
O O22 0.535886 0.793353 0.500000
O O23 0.304737 0.500000 0.750000
O O24 0.322013 0.566026 0.000000
#
# Coordination Sequence:
#
# PCOD8202772 Si02
#       8
#     8   8   8   8   8   8   8   8
#     4   9  14  20  30  45  65  93 131 175 219 258
#     4  10  19  33  51  69  91 116 141 175 217 256
#     4   9  17  32  52  72  94 118 139 165 202 245
#     4  10  19  30  43  62  87 116 150 186 222 261
#     4  10  21  37  53  68  89 115 143 176 213 250
#     4   8  15  25  35  48  72 104 137 176 220 259
#     4  10  21  37  53  69  92 118 142 170 207 249
#     4   9  17  31  51  72  93 116 139 168 207 250
#
# _framework density 15.351073
#
# number of rings (size 3 to 8) (size 9 to 14) (size 15 to 20)
#    0.000    2.625    1.250    1.500    0.000    4.500 
#    0.000    2.500    0.000    0.000    0.000    0.000 
#    0.000    0.000    0.000    0.000    0.000    0.625 
#
# Total GULP energy -792988.459688 kJ/mol
# GULP energy per Si atom -12390.444683 kJ/mol
# Density = 1.531613 g / cm^3
# Si number density = 15.351073 Si / 1000 Ang^3
#
#
#
# Elastic Constant Matrix: (Units=GPa)
#
#
# Indices 1 2 3 4 5 6 
#
# 1 124.0134 38.6231 50.9161 0.0000 0.0000 0.0000
# 2 38.6231 71.7103 34.8867 0.0000 0.0000 0.0000
# 3 50.9161 34.8867 57.7633 0.0000 0.0000 0.0000
# 4 0.0000 0.0000 0.0000 21.5030 0.0000 0.0000
# 5 0.0000 0.0000 0.0000 0.0000 23.4976 0.0000
# 6 0.0000 0.0000 0.0000 0.0000 0.0000 -3.8538
#
#
#
# Elastic Compliance Matrix: (Units=1/GPa)
#
#
# Indices 1 2 3 4 5 6 
#
# 1 0.012835 -0.001995 -0.010109 0.000000 0.000000 0.000000
# 2 -0.001995 0.020057 -0.010355 0.000000 0.000000 0.000000
# 3 -0.010109 -0.010355 0.032477 0.000000 0.000000 0.000000
# 4 0.000000 0.000000 0.000000 0.046505 0.000000 0.000000
# 5 0.000000 0.000000 0.000000 0.000000 0.042558 0.000000
# 6 0.000000 0.000000 0.000000 0.000000 0.000000 -0.259487
#
#
# Mechanical properties :
#
#
# Convention : Reuss Voigt Hill
#
# Bulk Modulus (GPa) = 48.89736 55.81542 52.35639
# Shear Modulus (GPa) = -93.77468 16.83344 -38.47062
#
# Velocity S-wave (km/s) = -7.82428 3.31503 -5.01148
# Velocity P-wave (km/s) = 7.05010 7.14778 0.83274
#
# Compressibility (1/GPa) = 0.02045100
#
# Stress axis : x y z
#
# Youngs Moduli (GPa) = 77.90921 49.85708 30.79132
#
# Poissons Ratio (x) = 0.09948 0.31127
# Poissons Ratio (y) = 0.15545 0.31885
# Poissons Ratio (z) = 0.78758 0.51627
#
# Static dielectric constant tensor:
#      x y z
#    x 3.563070 0.000000 0.000000 
#    y 0.000000 2.718600 0.000000 
#    z 0.000000 0.000000 2.935360 
# 
# 
# High freq. dielectric constant tensor:
#      x y z
#    x 1.593570 0.000000 0.000000 
#    y 0.000000 1.543620 0.000000 
#    z 0.000000 0.000000 1.594750 
# 
# From -- ./inp_files/4539.got.cif
#   From: 2010.03.12/outbox.cif.g09.slc.cpg/sg49_3_cif.got.tgz:4539.got - 2010.04.14 03:58:27.
