data_PCOD8202550
_publ_section_title
;
Structure prediction by ZEFSAII (Michael W. Deem and Ramdas Pophale) SiO2 
 PCOD8202550
Probable space group: P C C M
;
_chemical_formula_sum "Si O2"
_cell_formula_units_Z 64
_cell_length_a 18.334451
_cell_length_b 10.081445
_cell_length_c 19.136887
_cell_angle_alpha 90.000000
_cell_angle_beta 90.000000
_cell_angle_gamma 90.000000
_cell_volume 3537.219314
_symmetry_space_group_name_H-M "P C C M"
_symmetry_group_IT_number 49
_symmetry_cell_setting 'orthorhombic'
loop_
_space_group_symop_operation_xyz
x,y,z
-x,-y,z
x,-y,1/2-z
-x,y,1/2-z
-x,-y,-z
x,y,-z
-x,y,1/2+z
x,-y,1/2+z
loop_
_atom_site_type_symbol
_atom_site_label
_atom_site_fract_x
_atom_site_fract_y
_atom_site_fract_z
Si Si1 0.447847 0.876928 0.079067
Si Si2 0.694382 0.439226 0.579567
Si Si3 0.198512 0.196897 0.080277
Si Si4 0.084741 0.358731 0.669547
Si Si5 0.704528 0.959017 0.421867
Si Si6 0.919664 0.334708 0.669232
Si Si7 0.783948 0.683769 0.578203
Si Si8 0.459816 0.637303 0.420034
O O1 0.372653 0.925600 0.116892
O O2 0.490005 0.752417 0.115943
O O3 0.500000 0.000000 0.080065
O O4 0.426689 0.833231 0.000000
O O5 0.673012 0.474155 0.500000
O O6 0.754094 0.327513 0.585552
O O7 0.729229 0.573714 0.612846
O O8 0.619710 0.385713 0.616262
O O9 0.126429 0.227053 0.125572
O O10 0.245332 0.074114 0.113219
O O11 0.175558 0.166557 0.000000
O O12 0.092714 0.512828 0.648272
O O13 0.102164 0.325877 0.749768
O O14 0.143732 0.286475 0.622167
O O15 0.004279 0.302193 0.654202
O O16 0.687129 0.012946 0.500000
O O17 0.746885 0.823856 0.424440
O O18 0.805027 0.635151 0.500000
O O19 0.500000 0.500000 0.413620
O O20 0.447673 0.683393 0.500000
#
# Coordination Sequence:
#
# PCOD8202550 Si02
#       8
#     8   8   8   8   8   8   8   8
#     4   9  15  24  38  57  86 130 168 188 224 283
#     4   9  16  25  40  64  92 121 160 201 234 272
#     4  10  18  30  47  70  97 127 160 198 238 281
#     4   9  18  33  52  73  96 122 153 197 247 292
#     4   9  18  29  42  64 100 135 160 194 242 286
#     4   9  18  33  52  73  96 121 154 199 246 286
#     4  10  18  30  47  70  99 131 160 194 243 291
#     4   9  15  22  34  55  86 122 156 191 231 273
#
# _framework density 18.093306999999999
#
# number of rings (size 3 to 8) (size 9 to 14) (size 15 to 20)
#    0.000    2.750    1.250    2.250    0.000    6.500 
#    0.000    2.500    0.000    3.750    0.000    0.000 
#    0.000   15.000    0.000    0.000    0.000    0.000 
#
# Total GULP energy -792887.689681 kJ/mol
# GULP energy per Si atom -12388.870151 kJ/mol
# Density = 1.805213 g / cm^3
# Si number density = 18.093307 Si / 1000 Ang^3
#
#
#
# Elastic Constant Matrix: (Units=GPa)
#
#
# Indices 1 2 3 4 5 6 
#
# 1 130.9836 39.4595 39.3822 0.0000 0.0000 0.0000
# 2 39.4595 94.0109 16.4836 0.0000 0.0000 0.0000
# 3 39.3822 16.4836 29.8584 0.0000 0.0000 0.0000
# 4 0.0000 0.0000 0.0000 2.1412 0.0000 0.0000
# 5 0.0000 0.0000 0.0000 0.0000 0.6672 0.0000
# 6 0.0000 0.0000 0.0000 0.0000 0.0000 31.9333
#
#
#
# Elastic Compliance Matrix: (Units=1/GPa)
#
#
# Indices 1 2 3 4 5 6 
#
# 1 0.013273 -0.002770 -0.015977 0.000000 0.000000 0.000000
# 2 -0.002770 0.012355 -0.003168 0.000000 0.000000 0.000000
# 3 -0.015977 -0.003168 0.056314 0.000000 0.000000 0.000000
# 4 0.000000 0.000000 0.000000 0.467019 0.000000 0.000000
# 5 0.000000 0.000000 0.000000 0.000000 1.498727 0.000000
# 6 0.000000 0.000000 0.000000 0.000000 0.000000 0.031315
#
#
# Mechanical properties :
#
#
# Convention : Reuss Voigt Hill
#
# Bulk Modulus (GPa) = 26.23829 49.50041 37.86935
# Shear Modulus (GPa) = 2.34133 17.58353 9.96243
#
# Velocity S-wave (km/s) = 1.13879 3.12079 2.34906
# Velocity P-wave (km/s) = 4.03265 6.35638 5.32287
#
# Compressibility (1/GPa) = 0.03811224
#
# Stress axis : x y z
#
# Youngs Moduli (GPa) = 75.34257 80.93914 17.75768
#
# Poissons Ratio (x) = 0.22417 0.28372
# Poissons Ratio (y) = 0.20867 0.05625
# Poissons Ratio (z) = 1.20377 0.25639
#
# Static dielectric constant tensor:
#      x y z
#    x 3.656040 0.000000 0.000000 
#    y 0.000000 3.322930 0.000000 
#    z 0.000000 0.000000 2.857570 
# 
# 
# High freq. dielectric constant tensor:
#      x y z
#    x 1.719640 0.000000 0.000000 
#    y 0.000000 1.703190 0.000000 
#    z 0.000000 0.000000 1.620250 
# 
# From -- ./inp_files/21064.got.cif
#   From: 2010.03.12/outbox.cif.g09.slc.cpg/sg49_11_cif.got.tgz:21064.got - 2010.04.14 03:58:27.
