data_PCOD8202060
_publ_section_title
;
Structure prediction by ZEFSAII (Michael W. Deem and Ramdas Pophale) SiO2 
 PCOD8202060
Probable space group: P N N N
;
_chemical_formula_sum "Si O2"
_cell_formula_units_Z 48
_cell_length_a 24.735484
_cell_length_b 9.797375
_cell_length_c 10.111791
_cell_angle_alpha 90.000000
_cell_angle_beta 90.000000
_cell_angle_gamma 90.000000
_cell_volume 2450.519871
_symmetry_space_group_name_H-M "P N N N"
_symmetry_group_IT_number 48
_space_group.IT_coordinate_system_code '2'
_symmetry_cell_setting 'orthorhombic'
loop_
_space_group_symop_operation_xyz
x,y,z
1/2-x,1/2-y,z
x,1/2-y,1/2-z
1/2-x,y,1/2-z
-x,-y,-z
1/2+x,1/2+y,-z
-x,1/2+y,1/2+z
1/2+x,-y,1/2+z
loop_
_atom_site_type_symbol
_atom_site_label
_atom_site_fract_x
_atom_site_fract_y
_atom_site_fract_z
Si Si1 0.050346 0.089926 0.746637
Si Si2 0.875165 0.523106 0.015675
Si Si3 0.622002 0.023138 0.474978
Si Si4 0.923320 0.409835 0.749976
Si Si5 0.311643 0.272485 0.905518
Si Si6 0.690617 0.226886 0.096065
O O1 0.065736 0.250000 0.750000
O O2 0.074452 0.019754 0.615998
O O3 0.986918 0.066914 0.742705
O O4 0.073814 0.012378 0.874205
O O5 0.849655 0.673274 0.009570
O O6 0.827292 0.426836 0.067883
O O7 0.895000 0.481765 0.872342
O O8 0.598541 0.011648 0.621772
O O9 0.644075 0.176056 0.461063
O O10 0.672776 0.924986 0.447694
O O11 0.908782 0.250000 0.750000
O O12 0.250000 0.250000 0.944809
O O13 0.321723 0.250000 0.750000
O O14 0.750000 0.250000 0.030808
O O15 0.695641 0.250000 0.250000
#
# Coordination Sequence:
#
# PCOD8202060 Si02
#       6
#     8   8   8   8   8   8
#     4  11  22  43  66  93 123 167 213 259 308 367
#     4  12  21  43  63  95 125 165 208 257 312 368
#     4  12  21  43  63  95 125 165 208 257 312 368
#     4  11  26  41  62  91 135 169 203 253 318 375
#     4  11  22  41  70  96 123 162 211 263 312 366
#     4  11  22  37  64  94 123 162 213 259 302 366
#
# _framework density 19.587682000000001
#
# number of rings (size 3 to 8) (size 9 to 14) (size 15 to 20)
#    0.000    0.667    6.667    2.000    0.000    3.333 
#    0.000    6.667    0.000    0.000    0.000    0.000 
#    0.000    0.000    0.000    0.000    0.000    0.000 
#
# Total GULP energy -595431.262178 kJ/mol
# GULP energy per Si atom -12404.817962 kJ/mol
# Density = 1.954310 g / cm^3
# Si number density = 19.587682 Si / 1000 Ang^3
#
#
#
# Elastic Constant Matrix: (Units=GPa)
#
#
# Indices 1 2 3 4 5 6 
#
# 1 100.2399 15.7790 42.3259 0.0000 0.0000 0.0000
# 2 15.7790 53.1727 17.3813 0.0000 0.0000 0.0000
# 3 42.3259 17.3813 131.5994 0.0000 0.0000 0.0000
# 4 0.0000 0.0000 0.0000 30.8141 0.0000 0.0000
# 5 0.0000 0.0000 0.0000 0.0000 34.8747 0.0000
# 6 0.0000 0.0000 0.0000 0.0000 0.0000 28.1010
#
#
#
# Elastic Compliance Matrix: (Units=1/GPa)
#
#
# Indices 1 2 3 4 5 6 
#
# 1 0.011822 -0.002368 -0.003490 0.000000 0.000000 0.000000
# 2 -0.002368 0.020129 -0.001897 0.000000 0.000000 0.000000
# 3 -0.003490 -0.001897 0.008972 0.000000 0.000000 0.000000
# 4 0.000000 0.000000 0.000000 0.032453 0.000000 0.000000
# 5 0.000000 0.000000 0.000000 0.000000 0.028674 0.000000
# 6 0.000000 0.000000 0.000000 0.000000 0.000000 0.035586
#
#
# Mechanical properties :
#
#
# Convention : Reuss Voigt Hill
#
# Bulk Modulus (GPa) = 39.34739 48.44271 43.89505
# Shear Modulus (GPa) = 30.93748 32.72636 31.83192
#
# Velocity S-wave (km/s) = 3.97852 4.09193 4.03562
# Velocity P-wave (km/s) = 6.42155 6.86368 6.64629
#
# Compressibility (1/GPa) = 0.02541465
#
# Stress axis : x y z
#
# Youngs Moduli (GPa) = 84.58638 49.67865 111.46089
#
# Poissons Ratio (x) = 0.11762 0.38896
# Poissons Ratio (y) = 0.20026 0.21146
# Poissons Ratio (z) = 0.29518 0.09425
#
# Static dielectric constant tensor:
#      x y z
#    x 3.775430 0.000000 0.000000 
#    y 0.000000 4.166010 0.000000 
#    z 0.000000 0.000000 3.437510 
# 
# 
# High freq. dielectric constant tensor:
#      x y z
#    x 1.778640 0.000000 0.000000 
#    y 0.000000 1.769880 0.000000 
#    z 0.000000 0.000000 1.752450 
# 
# From -- ./inp_files/16822.got.cif
#   From: 2010.06.25/outbox.cif.g09.slc.cpg/sg48_9_cif.got.tgz:16822.got - 2010.06.26 18:06:46.
