data_PCOD8202647
_publ_section_title
;
Structure prediction by ZEFSAII (Michael W. Deem and Ramdas Pophale) SiO2 
 PCOD8202647
Probable space group: P C C M
;
_chemical_formula_sum "Si O2"
_cell_formula_units_Z 56
_cell_length_a 20.090433
_cell_length_b 15.152463
_cell_length_c 8.895135
_cell_angle_alpha 90.000000
_cell_angle_beta 90.000000
_cell_angle_gamma 90.000000
_cell_volume 2707.852929
_symmetry_space_group_name_H-M "P C C M"
_symmetry_group_IT_number 49
_symmetry_cell_setting 'orthorhombic'
loop_
_space_group_symop_operation_xyz
x,y,z
-x,-y,z
x,-y,1/2-z
-x,y,1/2-z
-x,-y,-z
x,y,-z
-x,y,1/2+z
x,-y,1/2+z
loop_
_atom_site_type_symbol
_atom_site_label
_atom_site_fract_x
_atom_site_fract_y
_atom_site_fract_z
Si Si1 0.331004 0.908832 0.822860
Si Si2 0.105880 0.414761 0.176826
Si Si3 0.933350 0.778368 0.823331
Si Si4 0.377595 0.413738 0.176140
Si Si5 0.196618 0.824664 0.829780
Si Si6 0.431375 0.776001 0.675843
Si Si7 0.760935 0.628015 0.673826
O O1 0.252128 0.897478 0.788446
O O2 0.371113 0.828712 0.750102
O O3 0.355322 0.000000 0.750000
O O4 0.344914 0.909485 0.000000
O O5 0.068829 0.500000 0.250000
O O6 0.073261 0.323154 0.233008
O O7 0.181740 0.418480 0.230893
O O8 0.101698 0.422562 0.000000
O O9 0.868560 0.834267 0.774293
O O10 0.000000 0.818717 0.750000
O O11 0.939754 0.784932 0.000000
O O12 0.413052 0.500000 0.250000
O O13 0.422331 0.327993 0.207193
O O14 0.307757 0.404308 0.259214
O O15 0.366036 0.428007 0.000000
O O16 0.233978 0.732599 0.805897
O O17 0.171413 0.835084 0.000000
O O18 0.500000 0.807549 0.750000
O O19 0.432870 0.797420 0.500000
O O20 0.767047 0.600051 0.500000
#
# Coordination Sequence:
#
# PCOD8202647 Si02
#       7
#     8   8   8   8   8   8   8
#     4  11  23  42  69 101 131 161 200 248 305 370
#     4  10  20  32  46  70 104 146 194 248 303 357
#     4  10  21  35  54  79 111 152 199 246 299 362
#     4  11  23  37  57  85 119 161 208 256 306 360
#     4   9  19  36  60  87 118 155 195 243 298 356
#     4  11  25  44  66  92 126 167 208 256 308 365
#     4  10  18  32  54  79 110 150 196 248 302 356
#
# _framework density 20.680591
#
# number of rings (size 3 to 8) (size 9 to 14) (size 15 to 20)
#    0.000    1.714    1.429    3.000    0.000    6.000 
#    0.000    4.286    0.000    0.429    0.000    3.000 
#    0.000    0.000    0.000    0.000    0.000    0.000 
#
# Total GULP energy -694469.553963 kJ/mol
# GULP energy per Si atom -12401.242035 kJ/mol
# Density = 2.063352 g / cm^3
# Si number density = 20.680591 Si / 1000 Ang^3
#
#
#
# Elastic Constant Matrix: (Units=GPa)
#
#
# Indices 1 2 3 4 5 6 
#
# 1 96.5493 20.1845 48.8176 0.0000 0.0000 0.0000
# 2 20.1845 67.7743 36.7742 0.0000 0.0000 0.0000
# 3 48.8176 36.7742 101.8871 0.0000 0.0000 0.0000
# 4 0.0000 0.0000 0.0000 26.2495 0.0000 0.0000
# 5 0.0000 0.0000 0.0000 0.0000 30.3356 0.0000
# 6 0.0000 0.0000 0.0000 0.0000 0.0000 6.0368
#
#
#
# Elastic Compliance Matrix: (Units=1/GPa)
#
#
# Indices 1 2 3 4 5 6 
#
# 1 0.013691 -0.000644 -0.006327 0.000000 0.000000 0.000000
# 2 -0.000644 0.018378 -0.006325 0.000000 0.000000 0.000000
# 3 -0.006327 -0.006325 0.015129 0.000000 0.000000 0.000000
# 4 0.000000 0.000000 0.000000 0.038096 0.000000 0.000000
# 5 0.000000 0.000000 0.000000 0.000000 0.032965 0.000000
# 6 0.000000 0.000000 0.000000 0.000000 0.000000 0.165650
#
#
# Mechanical properties :
#
#
# Convention : Reuss Voigt Hill
#
# Bulk Modulus (GPa) = 48.52886 53.08483 50.80684
# Shear Modulus (GPa) = 15.75440 23.22001 19.48720
#
# Velocity S-wave (km/s) = 2.76306 3.35444 3.07301
# Velocity P-wave (km/s) = 5.80484 6.38183 6.10016
#
# Compressibility (1/GPa) = 0.02060630
#
# Stress axis : x y z
#
# Youngs Moduli (GPa) = 73.03841 54.41144 66.09710
#
# Poissons Ratio (x) = 0.03506 0.41823
# Poissons Ratio (y) = 0.04706 0.41804
# Poissons Ratio (z) = 0.46215 0.34413
#
# Static dielectric constant tensor:
#      x y z
#    x 3.593400 0.000000 0.000000 
#    y 0.000000 -8.773120 0.000000 
#    z 0.000000 0.000000 3.744240 
# 
# 
# High freq. dielectric constant tensor:
#      x y z
#    x 1.803640 0.000000 0.000000 
#    y 0.000000 1.794790 0.000000 
#    z 0.000000 0.000000 1.817720 
# 
# From -- ./inp_files/4053.got.cif
#   From: 2010.03.12/outbox.cif.g09.slc.cpg/sg49_3_cif.got.tgz:4053.got - 2010.04.14 03:58:27.
