data_PCOD8202553
_publ_section_title
;
Structure prediction by ZEFSAII (Michael W. Deem and Ramdas Pophale) SiO2 
 PCOD8202553
Probable space group: P C C M
;
_chemical_formula_sum "Si O2"
_cell_formula_units_Z 64
_cell_length_a 14.285333
_cell_length_b 28.955759
_cell_length_c 8.955169
_cell_angle_alpha 90.000000
_cell_angle_beta 90.000000
_cell_angle_gamma 90.000000
_cell_volume 3704.239922
_symmetry_space_group_name_H-M "P C C M"
_symmetry_group_IT_number 49
_symmetry_cell_setting 'orthorhombic'
loop_
_space_group_symop_operation_xyz
x,y,z
-x,-y,z
x,-y,1/2-z
-x,y,1/2-z
-x,-y,-z
x,y,-z
-x,y,1/2+z
x,-y,1/2+z
loop_
_atom_site_type_symbol
_atom_site_label
_atom_site_fract_x
_atom_site_fract_y
_atom_site_fract_z
Si Si1 0.101961 0.319936 0.322060
Si Si2 0.584750 0.777356 0.660806
Si Si3 0.100158 0.957090 0.327496
Si Si4 0.401528 0.548142 0.677331
Si Si5 0.900187 0.144399 0.673833
Si Si6 0.791830 0.773390 0.678149
Si Si7 0.740509 0.629782 0.175229
Si Si8 0.416019 0.327453 0.662144
O O1 0.094298 0.323889 0.500000
O O2 0.153894 0.272810 0.270062
O O3 0.159386 0.364444 0.258106
O O4 0.000000 0.320310 0.250000
O O5 0.500000 0.802335 0.750000
O O6 0.591814 0.802474 0.500000
O O7 0.685782 0.776809 0.741670
O O8 0.554105 0.724775 0.634367
O O9 0.087747 0.968910 0.500000
O O10 0.147556 0.906541 0.306930
O O11 0.000000 0.954508 0.250000
O O12 0.156995 0.000000 0.250000
O O13 0.369965 0.500000 0.750000
O O14 0.500000 0.564193 0.750000
O O15 0.414818 0.543191 0.500000
O O16 0.316642 0.583253 0.715949
O O17 0.910763 0.157274 0.500000
O O18 0.839083 0.181559 0.757433
O O19 0.000000 0.144990 0.750000
O O20 0.790023 0.773990 0.500000
O O21 0.677782 0.671484 0.239523
O O22 0.756549 0.634955 0.000000
O O23 0.500000 0.353490 0.750000
O O24 0.400989 0.351581 0.500000
#
# Coordination Sequence:
#
# PCOD8202553 Si02
#       8
#     8   8   8   8   8   8   8   8
#     4  11  23  39  55  74 101 134 173 217 256 295
#     4   9  18  32  47  68  95 125 161 199 240 288
#     4   9  16  26  41  62  89 120 159 202 249 300
#     4  10  21  36  56  83 113 141 169 200 244 299
#     4  10  20  31  45  68  95 129 170 210 251 298
#     4  10  20  35  51  70  98 132 170 208 248 295
#     4  11  22  35  53  78 103 134 171 205 246 297
#     4  10  18  30  47  71 100 129 162 200 240 286
#
# _framework density 17.277498000000001
#
# number of rings (size 3 to 8) (size 9 to 14) (size 15 to 20)
#    0.000    2.000    1.250    3.750    0.000    7.500 
#    0.000    0.000    0.000    0.375    0.000    2.625 
#    0.000    0.500    0.000    5.500    0.000    4.000 
#
# Total GULP energy -792871.993578 kJ/mol
# GULP energy per Si atom -12388.624900 kJ/mol
# Density = 1.723817 g / cm^3
# Si number density = 17.277498 Si / 1000 Ang^3
#
#
#
# Elastic Constant Matrix: (Units=GPa)
#
#
# Indices 1 2 3 4 5 6 
#
# 1 128.1897 42.3912 42.8319 0.0000 0.0000 0.0000
# 2 42.3912 82.3708 32.9515 0.0000 0.0000 0.0000
# 3 42.8319 32.9515 70.8719 0.0000 0.0000 0.0000
# 4 0.0000 0.0000 0.0000 -208.6604 0.0000 0.0000
# 5 0.0000 0.0000 0.0000 0.0000 28.3793 0.0000
# 6 0.0000 0.0000 0.0000 0.0000 0.0000 14.5480
#
#
#
# Elastic Compliance Matrix: (Units=1/GPa)
#
#
# Indices 1 2 3 4 5 6 
#
# 1 0.010552 -0.003537 -0.004733 0.000000 0.000000 0.000000
# 2 -0.003537 0.016100 -0.005348 0.000000 0.000000 0.000000
# 3 -0.004733 -0.005348 0.019457 0.000000 0.000000 0.000000
# 4 0.000000 0.000000 0.000000 -0.004792 0.000000 0.000000
# 5 0.000000 0.000000 0.000000 0.000000 0.035237 0.000000
# 6 0.000000 0.000000 0.000000 0.000000 0.000000 0.068738
#
#
# Mechanical properties :
#
#
# Convention : Reuss Voigt Hill
#
# Bulk Modulus (GPa) = 52.98502 57.53129 55.25816
# Shear Modulus (GPa) = 27.96149 -22.26278 2.84936
#
# Velocity S-wave (km/s) = 4.02727 -3.59352 1.28559
# Velocity P-wave (km/s) = 7.23594 4.01906 5.85285
#
# Compressibility (1/GPa) = 0.01887326
#
# Stress axis : x y z
#
# Youngs Moduli (GPa) = 94.76924 62.11195 51.39659
#
# Poissons Ratio (x) = 0.21971 0.24324
# Poissons Ratio (y) = 0.33522 0.27486
# Poissons Ratio (z) = 0.44850 0.33216
#
# Static dielectric constant tensor:
#      x y z
#    x 3.124920 0.000000 0.000000 
#    y 0.000000 3.443610 0.000000 
#    z 0.000000 0.000000 3.640920 
# 
# 
# High freq. dielectric constant tensor:
#      x y z
#    x 1.641680 0.000000 0.000000 
#    y 0.000000 1.646300 0.000000 
#    z 0.000000 0.000000 1.683900 
# 
# From -- ./inp_files/4542.got.cif
#   From: 2010.03.12/outbox.cif.g09.slc.cpg/sg49_3_cif.got.tgz:4542.got - 2010.04.14 03:58:27.
