data_PCOD8202155
_publ_section_title
;
Structure prediction by ZEFSAII (Michael W. Deem and Ramdas Pophale) SiO2 
 PCOD8202155
Probable space group: P N N N
;
_chemical_formula_sum "Si O2"
_cell_formula_units_Z 32
_cell_length_a 12.195172
_cell_length_b 15.142170
_cell_length_c 7.147485
_cell_angle_alpha 90.000000
_cell_angle_beta 90.000000
_cell_angle_gamma 90.000000
_cell_volume 1319.864355
_symmetry_space_group_name_H-M "P N N N"
_symmetry_group_IT_number 48
_space_group.IT_coordinate_system_code '2'
_symmetry_cell_setting 'orthorhombic'
loop_
_space_group_symop_operation_xyz
x,y,z
1/2-x,1/2-y,z
x,1/2-y,1/2-z
1/2-x,y,1/2-z
-x,-y,-z
1/2+x,1/2+y,-z
-x,1/2+y,1/2+z
1/2+x,-y,1/2+z
loop_
_atom_site_type_symbol
_atom_site_label
_atom_site_fract_x
_atom_site_fract_y
_atom_site_fract_z
Si Si1 0.964025 0.921063 0.127444
Si Si2 0.750000 0.750000 0.250000
Si Si3 0.581333 0.762708 0.951411
Si Si4 0.104836 0.883481 0.473608
Si Si5 0.250000 0.750000 0.250000
Si Si6 0.250000 0.002271 0.750000
O O1 0.038498 0.935416 0.311981
O O2 0.833513 0.931503 0.150749
O O3 0.977756 0.824804 0.035267
O O4 0.000000 0.000000 0.000000
O O5 0.667757 0.697992 0.394113
O O6 0.639970 0.750000 0.750000
O O7 0.487678 0.834246 0.904790
O O8 0.179516 0.810177 0.383356
O O9 0.181007 0.944412 0.602079
#
# Coordination Sequence:
#
# PCOD8202155 Si02
#       6
#     8   2   8   8   2   4
#     4  12  25  51  70 113 159 198 257 327 392 463
#     4  12  22  52  72 106 148 192 254 320 378 444
#     4  12  26  48  79 110 148 203 266 316 383 476
#     4  12  26  49  75 113 154 207 265 322 377 480
#     4  12  22  42  76 106 148 206 264 324 370 442
#     4  12  29  45  81 109 164 210 248 328 416 448
#
# _framework density 24.244914999999999
#
# number of rings (size 3 to 8) (size 9 to 14) (size 15 to 20)
#    0.000    0.000    5.000    4.875    3.500    0.000 
#    4.500    0.000    0.000    0.000    0.000    0.000 
#    0.000    0.000    0.000    0.000    0.000    0.000 
#
# Total GULP energy -396567.191459 kJ/mol
# GULP energy per Si atom -12392.724733 kJ/mol
# Density = 2.418973 g / cm^3
# Si number density = 24.244915 Si / 1000 Ang^3
#
#
#
# Elastic Constant Matrix: (Units=GPa)
#
#
# Indices 1 2 3 4 5 6 
#
# 1 144.8352 29.0216 59.6597 0.0000 0.0000 0.0000
# 2 29.0216 92.1594 36.2139 0.0000 0.0000 0.0000
# 3 59.6597 36.2139 168.7733 0.0000 0.0000 0.0000
# 4 0.0000 0.0000 0.0000 33.1155 0.0000 0.0000
# 5 0.0000 0.0000 0.0000 0.0000 54.7616 0.0000
# 6 0.0000 0.0000 0.0000 0.0000 0.0000 48.8229
#
#
#
# Elastic Compliance Matrix: (Units=1/GPa)
#
#
# Indices 1 2 3 4 5 6 
#
# 1 0.008290 -0.001593 -0.002589 0.000000 0.000000 0.000000
# 2 -0.001593 0.012156 -0.002045 0.000000 0.000000 0.000000
# 3 -0.002589 -0.002045 0.007279 0.000000 0.000000 0.000000
# 4 0.000000 0.000000 0.000000 0.030197 0.000000 0.000000
# 5 0.000000 0.000000 0.000000 0.000000 0.018261 0.000000
# 6 0.000000 0.000000 0.000000 0.000000 0.000000 0.020482
#
#
# Mechanical properties :
#
#
# Convention : Reuss Voigt Hill
#
# Bulk Modulus (GPa) = 65.48369 72.83984 69.16176
# Shear Modulus (GPa) = 43.77905 46.06486 44.92195
#
# Velocity S-wave (km/s) = 4.25396 4.36360 4.30913
# Velocity P-wave (km/s) = 7.15515 7.44961 7.30386
#
# Compressibility (1/GPa) = 0.01527098
#
# Stress axis : x y z
#
# Youngs Moduli (GPa) = 120.62838 82.26284 137.38258
#
# Poissons Ratio (x) = 0.13108 0.35562
# Poissons Ratio (y) = 0.19221 0.28096
# Poissons Ratio (z) = 0.31225 0.16824
#
# Static dielectric constant tensor:
#      x y z
#    x 4.804740 0.000000 0.000000 
#    y 0.000000 4.104900 0.000000 
#    z 0.000000 0.000000 4.573640 
# 
# 
# High freq. dielectric constant tensor:
#      x y z
#    x 1.984560 0.000000 0.000000 
#    y 0.000000 1.968260 0.000000 
#    z 0.000000 0.000000 1.972630 
# 
# From -- ./inp_files/10373.got.cif
#   From: 2010.06.25/outbox.cif.g09.slc.cpg/sg48_6_cif.got.tgz:10373.got - 2010.06.26 18:06:46.
