data_PCOD8202552
_publ_section_title
;
Structure prediction by ZEFSAII (Michael W. Deem and Ramdas Pophale) SiO2 
 PCOD8202552
Probable space group: P C C M
;
_chemical_formula_sum "Si O2"
_cell_formula_units_Z 64
_cell_length_a 18.928749
_cell_length_b 23.470584
_cell_length_c 8.710415
_cell_angle_alpha 90.000000
_cell_angle_beta 90.000000
_cell_angle_gamma 90.000000
_cell_volume 3869.765562
_symmetry_space_group_name_H-M "P C C M"
_symmetry_group_IT_number 49
_symmetry_cell_setting 'orthorhombic'
loop_
_space_group_symop_operation_xyz
x,y,z
-x,-y,z
x,-y,1/2-z
-x,y,1/2-z
-x,-y,-z
x,y,-z
-x,y,1/2+z
x,-y,1/2+z
loop_
_atom_site_type_symbol
_atom_site_label
_atom_site_fract_x
_atom_site_fract_y
_atom_site_fract_z
Si Si1 0.301243 0.665481 0.677342
Si Si2 0.657574 0.839375 0.679519
Si Si3 0.219938 0.779473 0.324235
Si Si4 0.928263 0.737267 0.180369
Si Si5 0.073872 0.613903 0.817680
Si Si6 0.574548 0.939096 0.181498
Si Si7 0.790651 0.559282 0.182259
Si Si8 0.576013 0.272896 0.820282
O O1 0.322061 0.663130 0.500000
O O2 0.245633 0.715576 0.711149
O O3 0.266089 0.606847 0.732501
O O4 0.373168 0.675386 0.771290
O O5 0.649177 0.851280 0.500000
O O6 0.739214 0.824794 0.717634
O O7 0.635318 0.894947 0.773431
O O8 0.609017 0.786938 0.736973
O O9 0.235281 0.795929 0.500000
O O10 0.136121 0.781049 0.288362
O O11 0.911206 0.677834 0.261665
O O12 0.000000 0.764343 0.250000
O O13 0.937321 0.725451 0.000000
O O14 0.133907 0.572082 0.756778
O O15 0.000000 0.591458 0.750000
O O16 0.071609 0.612471 0.000000
O O17 0.500000 0.917846 0.250000
O O18 0.595764 0.000000 0.250000
O O19 0.567513 0.944006 0.000000
O O20 0.762228 0.500000 0.250000
O O21 0.798922 0.557026 0.000000
O O22 0.500000 0.282600 0.750000
O O23 0.568117 0.272350 0.000000
#
# Coordination Sequence:
#
# PCOD8202552 Si02
#       8
#     8   8   8   8   8   8   8   8
#     4   9  18  34  52  68  94 123 152 190 237 288
#     4  10  20  32  48  74 103 132 168 208 243 286
#     4   9  17  31  49  69  96 130 162 199 245 291
#     4  10  18  30  47  70  98 130 164 199 242 292
#     4  11  21  33  50  70  94 125 159 197 237 284
#     4  11  21  34  51  71 100 139 178 213 247 286
#     4  11  22  37  53  72  94 121 155 195 239 289
#     4  10  20  32  50  75 100 125 157 194 239 287
#
# _framework density 16.538468999999999
#
# number of rings (size 3 to 8) (size 9 to 14) (size 15 to 20)
#    0.000    1.875    1.250    5.250    0.000    4.750 
#    0.000    1.250    0.000    0.375    0.000    2.625 
#    0.000    0.500    0.000    5.250    0.000    2.875 
#
# Total GULP energy -793744.254050 kJ/mol
# GULP energy per Si atom -12402.253970 kJ/mol
# Density = 1.650083 g / cm^3
# Si number density = 16.538469 Si / 1000 Ang^3
#
#
#
# Elastic Constant Matrix: (Units=GPa)
#
#
# Indices 1 2 3 4 5 6 
#
# 1 110.1958 50.1007 42.2321 0.0000 0.0000 0.0000
# 2 50.1007 84.2373 39.9674 0.0000 0.0000 0.0000
# 3 42.2321 39.9674 97.5774 0.0000 0.0000 0.0000
# 4 0.0000 0.0000 0.0000 22.7824 0.0000 0.0000
# 5 0.0000 0.0000 0.0000 0.0000 28.8557 0.0000
# 6 0.0000 0.0000 0.0000 0.0000 0.0000 32.7004
#
#
#
# Elastic Compliance Matrix: (Units=1/GPa)
#
#
# Indices 1 2 3 4 5 6 
#
# 1 0.013147 -0.006354 -0.003087 0.000000 0.000000 0.000000
# 2 -0.006354 0.017806 -0.004543 0.000000 0.000000 0.000000
# 3 -0.003087 -0.004543 0.013445 0.000000 0.000000 0.000000
# 4 0.000000 0.000000 0.000000 0.043894 0.000000 0.000000
# 5 0.000000 0.000000 0.000000 0.000000 0.034655 0.000000
# 6 0.000000 0.000000 0.000000 0.000000 0.000000 0.030581
#
#
# Mechanical properties :
#
#
# Convention : Reuss Voigt Hill
#
# Bulk Modulus (GPa) = 60.86909 61.84565 61.35737
# Shear Modulus (GPa) = 26.74170 27.51504 27.12837
#
# Velocity S-wave (km/s) = 4.02548 4.08327 4.05448
# Velocity P-wave (km/s) = 7.64790 7.72703 7.68757
#
# Compressibility (1/GPa) = 0.01642870
#
# Stress axis : x y z
#
# Youngs Moduli (GPa) = 76.06272 56.16054 74.37523
#
# Poissons Ratio (x) = 0.35687 0.22962
# Poissons Ratio (y) = 0.48334 0.33789
# Poissons Ratio (z) = 0.23483 0.25514
#
# Static dielectric constant tensor:
#      x y z
#    x 3.268040 0.000000 0.000000 
#    y 0.000000 2.911610 0.000000 
#    z 0.000000 0.000000 3.200590 
# 
# 
# High freq. dielectric constant tensor:
#      x y z
#    x 1.633800 0.000000 0.000000 
#    y 0.000000 1.602670 0.000000 
#    z 0.000000 0.000000 1.651830 
# 
# From -- ./inp_files/5304.got.cif
#   From: 2010.03.12/outbox.cif.g09.slc.cpg/sg49_3_cif.got.tgz:5304.got - 2010.04.14 03:58:27.
