data_PCOD8202192
_publ_section_title
;
Structure prediction by ZEFSAII (Michael W. Deem and Ramdas Pophale) SiO2 
 PCOD8202192
Probable space group: P C C M
;
_chemical_formula_sum "Si O2"
_cell_formula_units_Z 48
_cell_length_a 31.215617
_cell_length_b 9.243903
_cell_length_c 8.580928
_cell_angle_alpha 90.000000
_cell_angle_beta 90.000000
_cell_angle_gamma 90.000000
_cell_volume 2476.062262
_symmetry_space_group_name_H-M "P C C M"
_symmetry_group_IT_number 49
_symmetry_cell_setting 'orthorhombic'
loop_
_space_group_symop_operation_xyz
x,y,z
-x,-y,z
x,-y,1/2-z
-x,y,1/2-z
-x,-y,-z
x,y,-z
-x,y,1/2+z
x,-y,1/2+z
loop_
_atom_site_type_symbol
_atom_site_label
_atom_site_fract_x
_atom_site_fract_y
_atom_site_fract_z
Si Si1 0.542818 0.838257 0.183263
Si Si2 0.953121 0.346745 0.185140
Si Si3 0.278899 0.158011 0.317694
Si Si4 0.627508 0.840562 0.682716
Si Si5 0.120712 0.841668 0.315211
Si Si6 0.198484 0.340232 0.685633
O O1 0.500000 0.759617 0.250000
O O2 0.586909 0.757707 0.237873
O O3 0.544240 0.000000 0.250000
O O4 0.540030 0.840707 0.000000
O O5 0.935833 0.500000 0.250000
O O6 0.922941 0.218084 0.241730
O O7 0.000000 0.313404 0.250000
O O8 0.954292 0.353971 0.000000
O O9 0.275226 0.137435 0.500000
O O10 0.325813 0.226994 0.275802
O O11 0.242511 0.266027 0.257042
O O12 0.271279 0.000000 0.250000
O O13 0.618995 0.844924 0.500000
O O14 0.629356 0.000000 0.750000
O O15 0.116557 0.845750 0.500000
O O16 0.159444 0.740894 0.264832
O O17 0.129707 0.000000 0.250000
O O18 0.199260 0.500000 0.750000
O O19 0.193015 0.338308 0.500000
#
# Coordination Sequence:
#
# PCOD8202192 Si02
#       6
#     8   8   8   8   8   8
#     4  10  16  22  32  50  78 116 157 199 243 297
#     4  11  22  40  64  92 123 159 197 237 280 329
#     4   9  19  33  52  75 103 135 173 216 266 320
#     4   9  15  25  39  59  86 120 158 202 250 304
#     4  12  25  42  62  88 118 152 190 234 281 331
#     4  11  23  40  59  83 111 145 184 227 275 328
#
# _framework density 19.385619999999999
#
# number of rings (size 3 to 8) (size 9 to 14) (size 15 to 20)
#    0.000    1.667    0.000    8.500    0.000    3.667 
#    0.000    1.667    0.000    0.000    0.000    0.000 
#    0.000    0.667    0.000    7.667    0.000    4.833 
#
# Total GULP energy -594990.583194 kJ/mol
# GULP energy per Si atom -12395.637150 kJ/mol
# Density = 1.934150 g / cm^3
# Si number density = 19.385620 Si / 1000 Ang^3
#
#
#
# Elastic Constant Matrix: (Units=GPa)
#
#
# Indices 1 2 3 4 5 6 
#
# 1 159.6657 59.7093 62.2960 0.0000 0.0000 0.0000
# 2 59.7093 89.0039 33.6784 0.0000 0.0000 0.0000
# 3 62.2960 33.6784 147.2848 0.0000 0.0000 0.0000
# 4 0.0000 0.0000 0.0000 23.7314 0.0000 0.0000
# 5 0.0000 0.0000 0.0000 0.0000 38.8797 0.0000
# 6 0.0000 0.0000 0.0000 0.0000 0.0000 9.3250
#
#
#
# Elastic Compliance Matrix: (Units=1/GPa)
#
#
# Indices 1 2 3 4 5 6 
#
# 1 0.009268 -0.005183 -0.002735 0.000000 0.000000 0.000000
# 2 -0.005183 0.015198 -0.001283 0.000000 0.000000 0.000000
# 3 -0.002735 -0.001283 0.008240 0.000000 0.000000 0.000000
# 4 0.000000 0.000000 0.000000 0.042138 0.000000 0.000000
# 5 0.000000 0.000000 0.000000 0.000000 0.025720 0.000000
# 6 0.000000 0.000000 0.000000 0.000000 0.000000 0.107238
#
#
# Mechanical properties :
#
#
# Convention : Reuss Voigt Hill
#
# Bulk Modulus (GPa) = 69.90960 78.59130 74.25045
# Shear Modulus (GPa) = 21.64756 30.40528 26.02642
#
# Velocity S-wave (km/s) = 3.34530 3.96466 3.66808
# Velocity P-wave (km/s) = 7.14579 7.84774 7.50498
#
# Compressibility (1/GPa) = 0.01430419
#
# Stress axis : x y z
#
# Youngs Moduli (GPa) = 107.89299 65.79824 121.36252
#
# Poissons Ratio (x) = 0.34103 0.33193
# Poissons Ratio (y) = 0.55920 0.15571
# Poissons Ratio (z) = 0.29509 0.08442
#
# Static dielectric constant tensor:
#      x y z
#    x 4.961260 0.000000 0.000000 
#    y 0.000000 3.042880 0.000000 
#    z 0.000000 0.000000 3.482150 
# 
# 
# High freq. dielectric constant tensor:
#      x y z
#    x 1.789200 0.000000 0.000000 
#    y 0.000000 1.701560 0.000000 
#    z 0.000000 0.000000 1.772370 
# 
# From -- ./inp_files/6856.got.cif
#   From: 2010.03.12/outbox.cif.g09.slc.cpg/sg49_4_cif.got.tgz:6856.got - 2010.04.14 03:58:27.
