data_PCOD8202992
_publ_section_title
;
Structure prediction by ZEFSAII (Michael W. Deem and Ramdas Pophale) SiO2 
 PCOD8202992
Probable space group: P C C M
;
_chemical_formula_sum "Si O2"
_cell_formula_units_Z 64
_cell_length_a 23.420211
_cell_length_b 18.928711
_cell_length_c 8.547626
_cell_angle_alpha 90.000000
_cell_angle_beta 90.000000
_cell_angle_gamma 90.000000
_cell_volume 3789.285739
_symmetry_space_group_name_H-M "P C C M"
_symmetry_group_IT_number 49
_symmetry_cell_setting 'orthorhombic'
loop_
_space_group_symop_operation_xyz
x,y,z
-x,-y,z
x,-y,1/2-z
-x,y,1/2-z
-x,-y,-z
x,y,-z
-x,y,1/2+z
x,-y,1/2+z
loop_
_atom_site_type_symbol
_atom_site_label
_atom_site_fract_x
_atom_site_fract_y
_atom_site_fract_z
Si Si1 0.060820 0.575272 0.817144
Si Si2 0.223702 0.784391 0.817788
Si Si3 0.559828 0.791289 0.816395
Si Si4 0.837152 0.656960 0.817801
Si Si5 0.660069 0.294985 0.818049
Si Si6 0.722652 0.577672 0.184651
Si Si7 0.258700 0.925380 0.684999
Si Si8 0.384093 0.073337 0.315137
O O1 0.080832 0.500000 0.750000
O O2 0.107089 0.634352 0.776671
O O3 0.000000 0.599267 0.750000
O O4 0.054606 0.566929 0.000000
O O5 0.177421 0.737425 0.726424
O O6 0.286919 0.756003 0.780885
O O7 0.218738 0.864183 0.755680
O O8 0.209524 0.780963 0.000000
O O9 0.500000 0.762836 0.750000
O O10 0.606671 0.731829 0.781460
O O11 0.573111 0.864231 0.727462
O O12 0.556487 0.805589 0.000000
O O13 0.784995 0.606242 0.767602
O O14 0.850334 0.651043 0.000000
O O15 0.674382 0.374296 0.764941
O O16 0.644106 0.293535 0.000000
O O17 0.714862 0.500000 0.250000
O O18 0.713949 0.579460 0.000000
O O19 0.254533 0.924701 0.500000
O O20 0.323475 0.911606 0.735982
O O21 0.236107 0.000000 0.750000
O O22 0.375074 0.068721 0.500000
O O23 0.409914 0.000000 0.250000
#
# Coordination Sequence:
#
# PCOD8202992 Si02
#       8
#     8   8   8   8   8   8   8   8
#     4  11  21  34  51  72 102 142 184 221 259 300
#     4  10  19  32  51  74 102 133 168 208 254 301
#     4  12  24  38  55  74  97 126 162 202 246 296
#     4  10  20  33  50  75 106 138 175 214 255 298
#     4  10  20  35  54  74  99 127 160 200 247 299
#     4  10  20  33  52  77 104 132 164 203 250 298
#     4  11  20  31  49  72 100 134 169 205 249 301
#     4  11  21  35  52  73  98 128 164 202 245 293
#
# _framework density 16.889727000000001
#
# number of rings (size 3 to 8) (size 9 to 14) (size 15 to 20)
#    0.000    1.375    1.250    7.500    0.000    3.750 
#    0.000    1.250    0.000    0.375    0.000    2.625 
#    0.000    0.500    0.000    5.000    0.000    3.000 
#
# Total GULP energy -793948.104835 kJ/mol
# GULP energy per Si atom -12405.439138 kJ/mol
# Density = 1.685129 g / cm^3
# Si number density = 16.889727 Si / 1000 Ang^3
#
#
#
# Elastic Constant Matrix: (Units=GPa)
#
#
# Indices 1 2 3 4 5 6 
#
# 1 72.6100 42.3046 22.5866 0.0000 0.0000 0.0000
# 2 42.3046 114.8404 26.3769 0.0000 0.0000 0.0000
# 3 22.5866 26.3769 78.8110 0.0000 0.0000 0.0000
# 4 0.0000 0.0000 0.0000 32.5771 0.0000 0.0000
# 5 0.0000 0.0000 0.0000 0.0000 25.1435 0.0000
# 6 0.0000 0.0000 0.0000 0.0000 0.0000 19.1515
#
#
#
# Elastic Compliance Matrix: (Units=1/GPa)
#
#
# Indices 1 2 3 4 5 6 
#
# 1 0.018265 -0.005986 -0.003231 0.000000 0.000000 0.000000
# 2 -0.005986 0.011395 -0.002098 0.000000 0.000000 0.000000
# 3 -0.003231 -0.002098 0.014317 0.000000 0.000000 0.000000
# 4 0.000000 0.000000 0.000000 0.030696 0.000000 0.000000
# 5 0.000000 0.000000 0.000000 0.000000 0.039772 0.000000
# 6 0.000000 0.000000 0.000000 0.000000 0.000000 0.052215
#
#
# Mechanical properties :
#
#
# Convention : Reuss Voigt Hill
#
# Bulk Modulus (GPa) = 46.84769 49.86640 48.35704
# Shear Modulus (GPa) = 25.45745 27.04064 26.24905
#
# Velocity S-wave (km/s) = 3.88657 4.00560 3.94654
# Velocity P-wave (km/s) = 6.92374 7.14016 7.03279
#
# Compressibility (1/GPa) = 0.02134577
#
# Stress axis : x y z
#
# Youngs Moduli (GPa) = 54.74924 87.75896 69.84807
#
# Poissons Ratio (x) = 0.52535 0.22569
# Poissons Ratio (y) = 0.32775 0.14655
# Poissons Ratio (z) = 0.17690 0.18412
#
# Static dielectric constant tensor:
#      x y z
#    x 2.947070 0.000000 0.000000 
#    y 0.000000 3.244590 0.000000 
#    z 0.000000 0.000000 3.300750 
# 
# 
# High freq. dielectric constant tensor:
#      x y z
#    x 1.615670 0.000000 0.000000 
#    y 0.000000 1.650150 0.000000 
#    z 0.000000 0.000000 1.675340 
# 
# From -- ./inp_files/5278.got.cif
#   From: 2010.03.12/outbox.cif.g09.slc.cpg/sg49_3_cif.got.tgz:5278.got - 2010.04.14 03:58:27.
