data_PCOD8202570
_publ_section_title
;
Structure prediction by ZEFSAII (Michael W. Deem and Ramdas Pophale) SiO2 
 PCOD8202570
Probable space group: P C C M
;
_chemical_formula_sum "Si O2"
_cell_formula_units_Z 56
_cell_length_a 18.777923
_cell_length_b 19.033600
_cell_length_c 8.637492
_cell_angle_alpha 90.000000
_cell_angle_beta 90.000000
_cell_angle_gamma 90.000000
_cell_volume 3087.138758
_symmetry_space_group_name_H-M "P C C M"
_symmetry_group_IT_number 49
_symmetry_cell_setting 'orthorhombic'
loop_
_space_group_symop_operation_xyz
x,y,z
-x,-y,z
x,-y,1/2-z
-x,y,1/2-z
-x,-y,-z
x,y,-z
-x,y,1/2+z
x,-y,1/2+z
loop_
_atom_site_type_symbol
_atom_site_label
_atom_site_fract_x
_atom_site_fract_y
_atom_site_fract_z
Si Si1 0.298517 0.928613 0.681132
Si Si2 0.424809 0.657388 0.818150
Si Si3 0.856116 0.925705 0.683701
Si Si4 0.208744 0.706912 0.318193
Si Si5 0.924910 0.210111 0.684243
Si Si6 0.650404 0.781293 0.180309
Si Si7 0.292864 0.575310 0.317572
O O1 0.282226 0.937855 0.500000
O O2 0.224735 0.911175 0.765105
O O3 0.354359 0.865083 0.710001
O O4 0.332612 0.000000 0.750000
O O5 0.500000 0.633380 0.750000
O O6 0.409958 0.738872 0.772910
O O7 0.365722 0.605276 0.751081
O O8 0.426597 0.649303 0.000000
O O9 0.861272 0.925692 0.500000
O O10 0.907735 0.867000 0.752660
O O11 0.882811 0.000000 0.750000
O O12 0.204475 0.715855 0.500000
O O13 0.133811 0.734250 0.250192
O O14 0.272663 0.756125 0.257571
O O15 0.226674 0.626399 0.272445
O O16 0.927151 0.207992 0.500000
O O17 0.000000 0.236167 0.750000
O O18 0.640910 0.762579 0.000000
O O19 0.273900 0.500000 0.250000
O O20 0.302761 0.570420 0.500000
#
# Coordination Sequence:
#
# PCOD8202570 Si02
#       7
#     8   8   8   8   8   8   8
#     4  10  18  30  49  74 104 137 175 223 273 316
#     4  11  22  36  55  82 113 146 178 214 253 309
#     4  11  21  33  49  72 101 138 178 223 270 324
#     4   8  16  33  55  74 103 137 171 211 261 311
#     4  11  21  36  53  75 103 139 178 222 273 322
#     4   9  17  33  54  75 102 141 178 219 267 313
#     4  10  20  37  59  86 112 142 174 211 257 308
#
# _framework density 18.139773000000002
#
# number of rings (size 3 to 8) (size 9 to 14) (size 15 to 20)
#    0.000    2.000    1.429    5.571    0.000    1.714 
#    0.000    5.000    0.000    0.857    0.000    6.000 
#    0.000    0.000    0.000    0.000    0.000    0.000 
#
# Total GULP energy -694284.666784 kJ/mol
# GULP energy per Si atom -12397.940478 kJ/mol
# Density = 1.809849 g / cm^3
# Si number density = 18.139773 Si / 1000 Ang^3
#
#
#
# Elastic Constant Matrix: (Units=GPa)
#
#
# Indices 1 2 3 4 5 6 
#
# 1 81.0435 45.4205 35.4900 0.0000 0.0000 0.0000
# 2 45.4205 121.4451 49.5033 0.0000 0.0000 0.0000
# 3 35.4900 49.5033 108.9361 0.0000 0.0000 0.0000
# 4 0.0000 0.0000 0.0000 23.2547 0.0000 0.0000
# 5 0.0000 0.0000 0.0000 0.0000 22.8671 0.0000
# 6 0.0000 0.0000 0.0000 0.0000 0.0000 21.6305
#
#
#
# Elastic Compliance Matrix: (Units=1/GPa)
#
#
# Indices 1 2 3 4 5 6 
#
# 1 0.016445 -0.004868 -0.003145 0.000000 0.000000 0.000000
# 2 -0.004868 0.011547 -0.003661 0.000000 0.000000 0.000000
# 3 -0.003145 -0.003661 0.011868 0.000000 0.000000 0.000000
# 4 0.000000 0.000000 0.000000 0.043002 0.000000 0.000000
# 5 0.000000 0.000000 0.000000 0.000000 0.043731 0.000000
# 6 0.000000 0.000000 0.000000 0.000000 0.000000 0.046231
#
#
# Mechanical properties :
#
#
# Convention : Reuss Voigt Hill
#
# Bulk Modulus (GPa) = 60.56739 63.58359 62.07549
# Shear Modulus (GPa) = 24.79203 25.61785 25.20494
#
# Velocity S-wave (km/s) = 3.70093 3.76207 3.73162
# Velocity P-wave (km/s) = 7.19196 7.34840 7.27060
#
# Compressibility (1/GPa) = 0.01651054
#
# Stress axis : x y z
#
# Youngs Moduli (GPa) = 60.80938 86.59975 84.25875
#
# Poissons Ratio (x) = 0.42160 0.26501
# Poissons Ratio (y) = 0.29604 0.30850
# Poissons Ratio (z) = 0.19126 0.31708
#
# Static dielectric constant tensor:
#      x y z
#    x 3.336530 0.000000 0.000000 
#    y 0.000000 3.848880 0.000000 
#    z 0.000000 0.000000 3.318770 
# 
# 
# High freq. dielectric constant tensor:
#      x y z
#    x 1.675710 0.000000 0.000000 
#    y 0.000000 1.703510 0.000000 
#    z 0.000000 0.000000 1.704580 
# 
# From -- ./inp_files/5181.got.cif
#   From: 2010.03.12/outbox.cif.g09.slc.cpg/sg49_3_cif.got.tgz:5181.got - 2010.04.14 03:58:27.
