data_PCOD8202908
_publ_section_title
;
Structure prediction by ZEFSAII (Michael W. Deem and Ramdas Pophale) SiO2 
 PCOD8202908
Probable space group: P C C M
;
_chemical_formula_sum "Si O2"
_cell_formula_units_Z 58
_cell_length_a 31.356028
_cell_length_b 5.279494
_cell_length_c 18.826400
_cell_angle_alpha 90.000000
_cell_angle_beta 90.000000
_cell_angle_gamma 90.000000
_cell_volume 3116.596840
_symmetry_space_group_name_H-M "P C C M"
_symmetry_group_IT_number 49
_symmetry_cell_setting 'orthorhombic'
loop_
_space_group_symop_operation_xyz
x,y,z
-x,-y,z
x,-y,1/2-z
-x,y,1/2-z
-x,-y,-z
x,y,-z
-x,y,1/2+z
x,-y,1/2+z
loop_
_atom_site_type_symbol
_atom_site_label
_atom_site_fract_x
_atom_site_fract_y
_atom_site_fract_z
Si Si1 0.000000 0.000000 0.750000
Si Si2 0.045218 0.394627 0.174342
Si Si3 0.403086 0.498927 0.084449
Si Si4 0.822635 0.957374 0.416003
Si Si5 0.452136 0.002200 0.415696
Si Si6 0.872666 0.457681 0.416353
Si Si7 0.683552 0.492225 0.168010
Si Si8 0.263614 0.993812 0.331871
O O1 0.033635 0.110834 0.806181
O O2 0.060727 0.500000 0.250000
O O3 0.080322 0.438805 0.115187
O O4 0.000000 0.500000 0.147122
O O5 0.429135 0.253043 0.110175
O O6 0.356940 0.480492 0.118333
O O7 0.427177 0.750230 0.112473
O O8 0.397901 0.503777 0.000000
O O9 0.815929 0.948743 0.500000
O O10 0.848642 0.710441 0.389568
O O11 0.846903 0.210497 0.391668
O O12 0.776911 0.960978 0.380418
O O13 0.454022 0.012573 0.500000
O O14 0.500000 0.000000 0.384355
O O15 0.878348 0.465373 0.500000
O O16 0.669333 0.500000 0.250000
O O17 0.715379 0.723209 0.149745
O O18 0.704341 0.221987 0.150552
O O19 0.249306 0.000000 0.250000
#
# Coordination Sequence:
#
# PCOD8202908 Si02
#       8
#     2   8   8   8   8   8   8   8
#     4   8  18  36  54  78 112 136 186 226 266 304
#     4   9  20  35  56  81 109 144 181 226 265 306
#     4  10  19  31  51  78 101 131 177 214 254 311
#     4  10  22  38  56  80 110 140 173 219 266 315
#     4   9  17  30  49  74 105 136 170 216 260 300
#     4  10  22  38  56  81 112 143 177 215 266 322
#     4  10  21  36  54  76 106 137 168 216 266 310
#     4  10  21  37  56  77 102 136 177 212 259 318
#
# _framework density 18.610043000000001
#
# number of rings (size 3 to 8) (size 9 to 14) (size 15 to 20)
#    0.000    2.483    0.000    2.069    3.862    4.138 
#    0.000    0.345    0.000    2.483    0.000    0.000 
#    0.000    0.000    0.000    0.000    0.000    0.000 
#
# Total GULP energy -718774.530439 kJ/mol
# GULP energy per Si atom -12392.664318 kJ/mol
# Density = 1.856769 g / cm^3
# Si number density = 18.610043 Si / 1000 Ang^3
#
#
#
# Elastic Constant Matrix: (Units=GPa)
#
#
# Indices 1 2 3 4 5 6 
#
# 1 116.8672 47.4506 39.8121 0.0000 0.0000 0.0000
# 2 47.4506 146.6466 25.4265 0.0000 0.0000 0.0000
# 3 39.8121 25.4265 28.3247 0.0000 0.0000 0.0000
# 4 0.0000 0.0000 0.0000 19.5599 0.0000 0.0000
# 5 0.0000 0.0000 0.0000 0.0000 -43.1326 0.0000
# 6 0.0000 0.0000 0.0000 0.0000 0.0000 47.3392
#
#
#
# Elastic Compliance Matrix: (Units=1/GPa)
#
#
# Indices 1 2 3 4 5 6 
#
# 1 0.016722 -0.001582 -0.022084 0.000000 0.000000 0.000000
# 2 -0.001582 0.008226 -0.005161 0.000000 0.000000 0.000000
# 3 -0.022084 -0.005161 0.070978 0.000000 0.000000 0.000000
# 4 0.000000 0.000000 0.000000 0.051125 0.000000 0.000000
# 5 0.000000 0.000000 0.000000 0.000000 -0.023184 0.000000
# 6 0.000000 0.000000 0.000000 0.000000 0.000000 0.021124
#
#
# Mechanical properties :
#
#
# Convention : Reuss Voigt Hill
#
# Bulk Modulus (GPa) = 26.12825 57.46855 41.79840
# Shear Modulus (GPa) = 23.21241 16.69659 19.95450
#
# Velocity S-wave (km/s) = 3.53555 2.99855 3.27807
# Velocity P-wave (km/s) = 5.54411 6.55254 6.06931
#
# Compressibility (1/GPa) = 0.03827276
#
# Stress axis : x y z
#
# Youngs Moduli (GPa) = 59.80096 121.56966 14.08881
#
# Poissons Ratio (x) = 0.19229 0.31114
# Poissons Ratio (y) = 0.09459 0.07271
# Poissons Ratio (z) = 1.32065 0.62741
#
# Static dielectric constant tensor:
#      x y z
#    x 3.257500 0.000000 0.000000 
#    y 0.000000 3.966080 0.000000 
#    z 0.000000 0.000000 3.046060 
# 
# 
# High freq. dielectric constant tensor:
#      x y z
#    x 1.728040 0.000000 0.000000 
#    y 0.000000 1.747100 0.000000 
#    z 0.000000 0.000000 1.694750 
# 
# From -- ./inp_files/18401.got.cif
#   From: 2010.03.12/outbox.cif.g09.slc.cpg/sg49_10_cif.got.tgz:18401.got - 2010.04.14 03:58:27.
