data_PCOD8202905
_publ_section_title
;
Structure prediction by ZEFSAII (Michael W. Deem and Ramdas Pophale) SiO2 
 PCOD8202905
Probable space group: P C C M
;
_chemical_formula_sum "Si O2"
_cell_formula_units_Z 56
_cell_length_a 28.743985
_cell_length_b 5.142915
_cell_length_c 19.023123
_cell_angle_alpha 90.000000
_cell_angle_beta 90.000000
_cell_angle_gamma 90.000000
_cell_volume 2812.147785
_symmetry_space_group_name_H-M "P C C M"
_symmetry_group_IT_number 49
_symmetry_cell_setting 'orthorhombic'
loop_
_space_group_symop_operation_xyz
x,y,z
-x,-y,z
x,-y,1/2-z
-x,y,1/2-z
-x,-y,-z
x,y,-z
-x,y,1/2+z
x,-y,1/2+z
loop_
_atom_site_type_symbol
_atom_site_label
_atom_site_fract_x
_atom_site_fract_y
_atom_site_fract_z
Si Si1 0.155048 0.326923 0.422036
Si Si2 0.948222 0.246482 0.718603
Si Si3 0.758083 0.501684 0.668229
Si Si4 0.551514 0.505533 0.918039
Si Si5 0.608324 0.017133 0.082176
Si Si6 0.700704 0.002277 0.832174
Si Si7 0.905715 0.833924 0.077962
O O1 0.175762 0.275900 0.500000
O O2 0.195357 0.417627 0.370800
O O3 0.119038 0.559507 0.425086
O O4 0.129185 0.062886 0.396564
O O5 0.922079 0.500000 0.750000
O O6 0.947452 0.213201 0.634054
O O7 0.000000 0.250157 0.750000
O O8 0.920795 0.000000 0.750000
O O9 0.770195 0.500000 0.750000
O O10 0.738679 0.217860 0.646850
O O11 0.719631 0.714617 0.647765
O O12 0.500000 0.500000 0.883558
O O13 0.584761 0.279348 0.887065
O O14 0.572581 0.785891 0.903101
O O15 0.546701 0.442933 0.000000
O O16 0.654768 0.950202 0.123774
O O17 0.620897 0.040779 0.000000
O O18 0.688365 0.000000 0.750000
O O19 0.925884 0.902125 0.000000
#
# Coordination Sequence:
#
# PCOD8202905 Si02
#       7
#     8   8   8   8   8   8   8
#     4  10  21  36  57  84 112 144 183 227 276 327
#     4  10  21  38  58  85 115 146 189 234 272 319
#     4  10  21  36  53  76 104 140 179 216 264 319
#     4   9  17  30  49  74 102 128 163 216 268 314
#     4  10  19  31  51  76  97 129 174 212 258 316
#     4  10  21  36  52  72 105 141 174 214 264 320
#     4  10  21  38  58  83 116 151 184 225 282 337
#
# _framework density 19.913605
#
# number of rings (size 3 to 8) (size 9 to 14) (size 15 to 20)
#    0.000    2.143    0.000    3.000    0.000    4.571 
#    0.000    2.857    0.000    2.571    0.000    0.000 
#    0.000    0.000    0.000    0.000    0.000    0.000 
#
# Total GULP energy -694065.766891 kJ/mol
# GULP energy per Si atom -12394.031552 kJ/mol
# Density = 1.986828 g / cm^3
# Si number density = 19.913605 Si / 1000 Ang^3
#
#
#
# Elastic Constant Matrix: (Units=GPa)
#
#
# Indices 1 2 3 4 5 6 
#
# 1 79.8576 8.0321 59.8760 0.0000 0.0000 0.0000
# 2 8.0321 111.9803 33.8326 0.0000 0.0000 0.0000
# 3 59.8760 33.8326 98.2161 0.0000 0.0000 0.0000
# 4 0.0000 0.0000 0.0000 45.9246 0.0000 0.0000
# 5 0.0000 0.0000 0.0000 0.0000 34.4657 0.0000
# 6 0.0000 0.0000 0.0000 0.0000 0.0000 9.2705
#
#
#
# Elastic Compliance Matrix: (Units=1/GPa)
#
#
# Indices 1 2 3 4 5 6 
#
# 1 0.023938 0.003005 -0.015629 0.000000 0.000000 0.000000
# 2 0.003005 0.010345 -0.005395 0.000000 0.000000 0.000000
# 3 -0.015629 -0.005395 0.021568 0.000000 0.000000 0.000000
# 4 0.000000 0.000000 0.000000 0.021775 0.000000 0.000000
# 5 0.000000 0.000000 0.000000 0.000000 0.029014 0.000000
# 6 0.000000 0.000000 0.000000 0.000000 0.000000 0.107869
#
#
# Mechanical properties :
#
#
# Convention : Reuss Voigt Hill
#
# Bulk Modulus (GPa) = 50.47294 54.83728 52.65511
# Shear Modulus (GPa) = 19.44381 30.48638 24.96510
#
# Velocity S-wave (km/s) = 3.12814 3.91696 3.54456
# Velocity P-wave (km/s) = 6.20065 6.93211 6.57655
#
# Compressibility (1/GPa) = 0.01981260
#
# Stress axis : x y z
#
# Youngs Moduli (GPa) = 41.77421 96.66793 46.36508
#
# Poissons Ratio (x) = -0.29047 0.72462
# Poissons Ratio (y) = -0.12553 0.25015
# Poissons Ratio (z) = 0.65288 0.52155
#
# Static dielectric constant tensor:
#      x y z
#    x 3.364620 0.000000 0.000000 
#    y 0.000000 3.338290 0.000000 
#    z 0.000000 0.000000 3.675830 
# 
# 
# High freq. dielectric constant tensor:
#      x y z
#    x 1.756630 0.000000 0.000000 
#    y 0.000000 1.808160 0.000000 
#    z 0.000000 0.000000 1.758820 
# 
# From -- ./inp_files/14612.got.cif
#   From: 2010.03.12/outbox.cif.g09.slc.cpg/sg49_8_cif.got.tgz:14612.got - 2010.04.14 03:58:27.
