data_PCOD8202997
_publ_section_title
;
Structure prediction by ZEFSAII (Michael W. Deem and Ramdas Pophale) SiO2 
 PCOD8202997
Probable space group: P C C M
;
_chemical_formula_sum "Si O2"
_cell_formula_units_Z 64
_cell_length_a 20.702628
_cell_length_b 19.432428
_cell_length_c 8.708464
_cell_angle_alpha 90.000000
_cell_angle_beta 90.000000
_cell_angle_gamma 90.000000
_cell_volume 3503.435341
_symmetry_space_group_name_H-M "P C C M"
_symmetry_group_IT_number 49
_symmetry_cell_setting 'orthorhombic'
loop_
_space_group_symop_operation_xyz
x,y,z
-x,-y,z
x,-y,1/2-z
-x,y,1/2-z
-x,-y,-z
x,y,-z
-x,y,1/2+z
x,-y,1/2+z
loop_
_atom_site_type_symbol
_atom_site_label
_atom_site_fract_x
_atom_site_fract_y
_atom_site_fract_z
Si Si1 0.934449 0.708094 0.180986
Si Si2 0.375261 0.929505 0.318815
Si Si3 0.744735 0.431387 0.322413
Si Si4 0.116511 0.428037 0.681934
Si Si5 0.764083 0.930857 0.678329
Si Si6 0.183182 0.214821 0.677171
Si Si7 0.433213 0.211933 0.819557
Si Si8 0.694803 0.285503 0.322431
O O1 0.927364 0.632818 0.254131
O O2 0.874920 0.757499 0.220330
O O3 0.000000 0.740858 0.250000
O O4 0.939568 0.701071 0.000000
O O5 0.372671 0.935736 0.500000
O O6 0.303413 0.914920 0.260045
O O7 0.420331 0.866465 0.265773
O O8 0.404131 0.000000 0.250000
O O9 0.712541 0.500000 0.250000
O O10 0.761978 0.444566 0.500000
O O11 0.810288 0.413803 0.233400
O O12 0.695867 0.367990 0.302459
O O13 0.090888 0.500000 0.750000
O O14 0.112158 0.429862 0.500000
O O15 0.749972 0.943086 0.500000
O O16 0.812164 0.867122 0.704884
O O17 0.795701 0.000000 0.750000
O O18 0.168943 0.232106 0.500000
O O19 0.249999 0.250547 0.722152
O O20 0.500000 0.239105 0.750000
O O21 0.374575 0.260017 0.761663
O O22 0.438922 0.217032 0.000000
O O23 0.705745 0.264361 0.500000
#
# Coordination Sequence:
#
# PCOD8202997 Si02
#       8
#     8   8   8   8   8   8   8   8
#     4  12  25  41  59  82 114 152 190 232 281 331
#     4  10  19  32  51  75 107 145 184 224 271 326
#     4  10  19  32  54  82 111 144 181 227 281 330
#     4  11  21  35  55  82 115 151 191 229 273 329
#     4  10  20  33  54  84 114 144 182 227 276 327
#     4  11  22  36  58  87 113 144 187 232 276 330
#     4  10  22  37  53  76 107 146 187 231 280 334
#     4  10  20  36  57  80 109 146 186 227 280 335
#
# _framework density 18.267783999999999
#
# number of rings (size 3 to 8) (size 9 to 14) (size 15 to 20)
#    0.000    1.500    2.500    5.250    0.000    4.000 
#    0.000    2.500    0.000    0.750    0.000    5.250 
#    0.000    0.000    0.000    0.000    0.000    0.000 
#
# Total GULP energy -793734.131534 kJ/mol
# GULP energy per Si atom -12402.095805 kJ/mol
# Density = 1.822621 g / cm^3
# Si number density = 18.267784 Si / 1000 Ang^3
#
#
#
# Elastic Constant Matrix: (Units=GPa)
#
#
# Indices 1 2 3 4 5 6 
#
# 1 101.8600 50.5980 36.0575 0.0000 0.0000 0.0000
# 2 50.5980 98.8270 45.6333 0.0000 0.0000 0.0000
# 3 36.0575 45.6333 115.8563 0.0000 0.0000 0.0000
# 4 0.0000 0.0000 0.0000 25.3904 0.0000 0.0000
# 5 0.0000 0.0000 0.0000 0.0000 27.8218 0.0000
# 6 0.0000 0.0000 0.0000 0.0000 0.0000 21.2628
#
#
#
# Elastic Compliance Matrix: (Units=1/GPa)
#
#
# Indices 1 2 3 4 5 6 
#
# 1 0.013467 -0.006062 -0.001804 0.000000 0.000000 0.000000
# 2 -0.006062 0.015097 -0.004060 0.000000 0.000000 0.000000
# 3 -0.001804 -0.004060 0.010792 0.000000 0.000000 0.000000
# 4 0.000000 0.000000 0.000000 0.039385 0.000000 0.000000
# 5 0.000000 0.000000 0.000000 0.000000 0.035943 0.000000
# 6 0.000000 0.000000 0.000000 0.000000 0.000000 0.047030
#
#
# Mechanical properties :
#
#
# Convention : Reuss Voigt Hill
#
# Bulk Modulus (GPa) = 64.49524 64.56899 64.53211
# Shear Modulus (GPa) = 26.21457 27.17863 26.69660
#
# Velocity S-wave (km/s) = 3.79227 3.86137 3.82698
# Velocity P-wave (km/s) = 7.38628 7.43659 7.41148
#
# Compressibility (1/GPa) = 0.01550502
#
# Stress axis : x y z
#
# Youngs Moduli (GPa) = 74.25452 66.23826 92.66368
#
# Poissons Ratio (x) = 0.40155 0.16712
# Poissons Ratio (y) = 0.45015 0.37618
# Poissons Ratio (z) = 0.13392 0.26891
#
# Static dielectric constant tensor:
#      x y z
#    x 3.203430 0.000000 0.000000 
#    y 0.000000 3.654940 0.000000 
#    z 0.000000 0.000000 3.453720 
# 
# 
# High freq. dielectric constant tensor:
#      x y z
#    x 1.679600 0.000000 0.000000 
#    y 0.000000 1.713660 0.000000 
#    z 0.000000 0.000000 1.722450 
# 
# From -- ./inp_files/5282.got.cif
#   From: 2010.03.12/outbox.cif.g09.slc.cpg/sg49_3_cif.got.tgz:5282.got - 2010.04.14 03:58:27.
