data_PCOD8202430
_publ_section_title
;
Structure prediction by ZEFSAII (Michael W. Deem and Ramdas Pophale) SiO2 
 PCOD8202430
Probable space group: P C C M
;
_chemical_formula_sum "Si O2"
_cell_formula_units_Z 64
_cell_length_a 8.961094
_cell_length_b 22.172057
_cell_length_c 15.864218
_cell_angle_alpha 90.000000
_cell_angle_beta 90.000000
_cell_angle_gamma 90.000000
_cell_volume 3151.996224
_symmetry_space_group_name_H-M "P C C M"
_symmetry_group_IT_number 49
_symmetry_cell_setting 'orthorhombic'
loop_
_space_group_symop_operation_xyz
x,y,z
-x,-y,z
x,-y,1/2-z
-x,y,1/2-z
-x,-y,-z
x,y,-z
-x,y,1/2+z
x,-y,1/2+z
loop_
_atom_site_type_symbol
_atom_site_label
_atom_site_fract_x
_atom_site_fract_y
_atom_site_fract_z
Si Si1 0.403303 0.356813 0.169227
Si Si2 0.668665 0.071310 0.246189
Si Si3 0.775938 0.259001 0.591705
Si Si4 0.172181 0.877427 0.593981
Si Si5 0.919804 0.266250 0.166236
Si Si6 0.163927 0.397363 0.278723
Si Si7 0.608643 0.552727 0.404443
Si Si8 0.824805 0.855825 0.597700
O O1 0.500000 0.347431 0.250000
O O2 0.344160 0.290488 0.150280
O O3 0.262233 0.399392 0.193388
O O4 0.506162 0.386989 0.097696
O O5 0.500000 0.095810 0.250000
O O6 0.759526 0.084841 0.330890
O O7 0.736010 0.099710 0.160318
O O8 0.671863 0.000000 0.250000
O O9 0.728011 0.279712 0.500000
O O10 0.759802 0.188478 0.605310
O O11 0.946382 0.281247 0.602319
O O12 0.213984 0.902573 0.500000
O O13 0.995019 0.876297 0.602611
O O14 0.833994 0.328563 0.185131
O O15 0.811033 0.214207 0.128912
O O16 0.000000 0.239857 0.250000
O O17 0.240913 0.441084 0.348082
O O18 0.000000 0.419603 0.250000
O O19 0.500000 0.500000 0.369699
O O20 0.659844 0.540168 0.500000
O O21 0.767193 0.860733 0.500000
#
# Coordination Sequence:
#
# PCOD8202430 Si02
#       8
#     8   8   8   8   8   8   8   8
#     4  10  20  35  58  85 120 163 202 238 294 361
#     4  11  25  42  60  83 118 165 208 255 310 365
#     4  10  18  32  56  86 119 153 189 240 302 361
#     4   9  20  38  62  89 118 156 202 253 310 365
#     4  10  17  33  60  89 124 154 191 250 309 365
#     4  10  20  37  62  93 119 155 206 257 304 356
#     4  10  23  43  62  84 124 170 206 251 306 361
#     4  10  21  38  62  93 122 158 203 254 315 374
#
# _framework density 20.304593000000001
#
# number of rings (size 3 to 8) (size 9 to 14) (size 15 to 20)
#    0.000    2.000    2.500    3.375    0.000    5.750 
#    2.250    3.750    0.000    1.500    0.000    0.000 
#    0.000    0.000    0.000    0.000    0.000    0.000 
#
# Total GULP energy -792997.724458 kJ/mol
# GULP energy per Si atom -12390.589445 kJ/mol
# Density = 2.025838 g / cm^3
# Si number density = 20.304593 Si / 1000 Ang^3
#
#
#
# Elastic Constant Matrix: (Units=GPa)
#
#
# Indices 1 2 3 4 5 6 
#
# 1 100.4298 35.6366 44.1507 0.0000 0.0000 0.0000
# 2 35.6366 68.8532 40.4301 0.0000 0.0000 0.0000
# 3 44.1507 40.4301 116.4932 0.0000 0.0000 0.0000
# 4 0.0000 0.0000 0.0000 26.5744 0.0000 0.0000
# 5 0.0000 0.0000 0.0000 0.0000 18.2989 0.0000
# 6 0.0000 0.0000 0.0000 0.0000 0.0000 34.8797
#
#
#
# Elastic Compliance Matrix: (Units=1/GPa)
#
#
# Indices 1 2 3 4 5 6 
#
# 1 0.013129 -0.004865 -0.003287 0.000000 0.000000 0.000000
# 2 -0.004865 0.020044 -0.005113 0.000000 0.000000 0.000000
# 3 -0.003287 -0.005113 0.011604 0.000000 0.000000 0.000000
# 4 0.000000 0.000000 0.000000 0.037630 0.000000 0.000000
# 5 0.000000 0.000000 0.000000 0.000000 0.054648 0.000000
# 6 0.000000 0.000000 0.000000 0.000000 0.000000 0.028670
#
#
# Mechanical properties :
#
#
# Convention : Reuss Voigt Hill
#
# Bulk Modulus (GPa) = 54.80262 58.46787 56.63525
# Shear Modulus (GPa) = 25.20967 26.98786 26.09877
#
# Velocity S-wave (km/s) = 3.52742 3.64971 3.58909
# Velocity P-wave (km/s) = 6.60599 6.82777 6.71779
#
# Compressibility (1/GPa) = 0.01824730
#
# Stress axis : x y z
#
# Youngs Moduli (GPa) = 76.16969 49.89132 86.17368
#
# Poissons Ratio (x) = 0.24271 0.28328
# Poissons Ratio (y) = 0.37054 0.44057
# Poissons Ratio (z) = 0.25040 0.25507
#
# Static dielectric constant tensor:
#      x y z
#    x 4.730190 0.000000 0.000000 
#    y 0.000000 3.565520 0.000000 
#    z 0.000000 0.000000 3.220800 
# 
# 
# High freq. dielectric constant tensor:
#      x y z
#    x 1.786210 0.000000 0.000000 
#    y 0.000000 1.778490 0.000000 
#    z 0.000000 0.000000 1.802610 
# 
# From -- ./inp_files/12110.got.cif
#   From: 2010.03.12/outbox.cif.g09.slc.cpg/sg49_7_cif.got.tgz:12110.got - 2010.04.14 03:58:27.
