data_PCOD8202825
_publ_section_title
;
Structure prediction by ZEFSAII (Michael W. Deem and Ramdas Pophale) SiO2 
 PCOD8202825
Probable space group: P C C M
;
_chemical_formula_sum "Si O2"
_cell_formula_units_Z 38
_cell_length_a 5.019452
_cell_length_b 16.837660
_cell_length_c 25.661829
_cell_angle_alpha 90.000000
_cell_angle_beta 90.000000
_cell_angle_gamma 90.000000
_cell_volume 2168.830679
_symmetry_space_group_name_H-M "P C C M"
_symmetry_group_IT_number 49
_symmetry_cell_setting 'orthorhombic'
loop_
_space_group_symop_operation_xyz
x,y,z
-x,-y,z
x,-y,1/2-z
-x,y,1/2-z
-x,-y,-z
x,y,-z
-x,y,1/2+z
x,-y,1/2+z
loop_
_atom_site_type_symbol
_atom_site_label
_atom_site_fract_x
_atom_site_fract_y
_atom_site_fract_z
Si Si1 0.021040 0.187878 0.439831
Si Si2 0.500000 0.500000 0.750000
Si Si3 0.154562 0.351060 0.896845
Si Si4 0.631516 0.421786 0.150730
Si Si5 0.494737 0.087192 0.059816
Si Si6 0.750268 0.556386 0.000000
O O1 0.053666 0.215942 0.500000
O O2 0.290666 0.148982 0.416485
O O3 0.949418 0.261966 0.403538
O O4 0.798253 0.121130 0.434222
O O5 0.325181 0.557806 0.787713
O O6 0.411690 0.352031 0.858183
O O7 0.916667 0.403950 0.873571
O O8 0.254859 0.384922 0.951294
O O9 0.500000 0.500000 0.122734
O O10 0.500000 0.000000 0.086862
O O11 0.582696 0.076664 0.000000
O O12 0.500000 0.500000 0.000000
O O13 0.000000 0.500000 0.000000
#
# Coordination Sequence:
#
# PCOD8202825 Si02
#       6
#     8   2   8   8   8   4
#     4  10  19  31  45  68 104 135 166 205 254 282
#     4   8  24  42  60  72  92 130 174 238 280 308
#     4  12  21  35  51  76 103 138 169 218 253 308
#     4  10  22  37  57  72  94 128 183 215 270 305
#     4   9  17  29  47  66  91 135 182 207 228 284
#     4  12  24  34  48  70 105 144 175 208 244 298
#
# _framework density 17.520961
#
# number of rings (size 3 to 8) (size 9 to 14) (size 15 to 20)
#    0.632    1.053    1.053    5.684    0.000    4.211 
#    0.000    0.000    0.000    0.000    0.000    0.000 
#    0.000    0.000    0.000   66.316    0.000    0.000 
#
# Total GULP energy -471006.409964 kJ/mol
# GULP energy per Si atom -12394.905525 kJ/mol
# Density = 1.748108 g / cm^3
# Si number density = 17.520961 Si / 1000 Ang^3
#
#
#
# Elastic Constant Matrix: (Units=GPa)
#
#
# Indices 1 2 3 4 5 6 
#
# 1 90.0048 4.9322 24.7995 0.0000 0.0000 0.0000
# 2 4.9322 74.8078 27.6697 0.0000 0.0000 0.0000
# 3 24.7995 27.6697 71.7066 0.0000 0.0000 0.0000
# 4 0.0000 0.0000 0.0000 9.9239 0.0000 0.0000
# 5 0.0000 0.0000 0.0000 0.0000 9.8425 0.0000
# 6 0.0000 0.0000 0.0000 0.0000 0.0000 32.1817
#
#
#
# Elastic Compliance Matrix: (Units=1/GPa)
#
#
# Indices 1 2 3 4 5 6 
#
# 1 0.012332 0.000892 -0.004609 0.000000 0.000000 0.000000
# 2 0.000892 0.015658 -0.006350 0.000000 0.000000 0.000000
# 3 -0.004609 -0.006350 0.017990 0.000000 0.000000 0.000000
# 4 0.000000 0.000000 0.000000 0.100766 0.000000 0.000000
# 5 0.000000 0.000000 0.000000 0.000000 0.101600 0.000000
# 6 0.000000 0.000000 0.000000 0.000000 0.000000 0.031074
#
#
# Mechanical properties :
#
#
# Convention : Reuss Voigt Hill
#
# Bulk Modulus (GPa) = 38.69321 39.03578 38.86450
# Shear Modulus (GPa) = 16.22487 22.33081 19.27784
#
# Velocity S-wave (km/s) = 3.04637 3.57391 3.32063
# Velocity P-wave (km/s) = 5.87416 6.27362 6.07717
#
# Compressibility (1/GPa) = 0.02584433
#
# Stress axis : x y z
#
# Youngs Moduli (GPa) = 81.09260 63.86671 55.58618
#
# Poissons Ratio (x) = -0.05695 0.25619
# Poissons Ratio (y) = -0.07231 0.35299
# Poissons Ratio (z) = 0.37375 0.40557
#
# Static dielectric constant tensor:
#      x y z
#    x 3.323220 0.000000 0.000000 
#    y 0.000000 3.291600 0.000000 
#    z 0.000000 0.000000 2.915000 
# 
# 
# High freq. dielectric constant tensor:
#      x y z
#    x 1.696140 0.000000 0.000000 
#    y 0.000000 1.674430 0.000000 
#    z 0.000000 0.000000 1.616530 
# 
# From -- ./inp_files/21749.got.cif
#   From: 2010.03.12/outbox.cif.g09.slc.cpg/sg49_11_cif.got.tgz:21749.got - 2010.04.14 03:58:27.
