data_PCOD8202035
_publ_section_title
;
Structure prediction by ZEFSAII (Michael W. Deem and Ramdas Pophale) SiO2 
 PCOD8202035
Probable space group: P N N N
;
_chemical_formula_sum "Si O2"
_cell_formula_units_Z 64
_cell_length_a 22.618017
_cell_length_b 15.395479
_cell_length_c 9.334171
_cell_angle_alpha 90.000000
_cell_angle_beta 90.000000
_cell_angle_gamma 90.000000
_cell_volume 3250.300275
_symmetry_space_group_name_H-M "P N N N"
_symmetry_group_IT_number 48
_space_group.IT_coordinate_system_code '2'
_symmetry_cell_setting 'orthorhombic'
loop_
_space_group_symop_operation_xyz
x,y,z
1/2-x,1/2-y,z
x,1/2-y,1/2-z
1/2-x,y,1/2-z
-x,-y,-z
1/2+x,1/2+y,-z
-x,1/2+y,1/2+z
1/2+x,-y,1/2+z
loop_
_atom_site_type_symbol
_atom_site_label
_atom_site_fract_x
_atom_site_fract_y
_atom_site_fract_z
Si Si1 0.982669 0.852529 0.756357
Si Si2 0.889702 0.596854 0.512243
Si Si3 0.686318 0.495110 0.770722
Si Si4 0.907276 0.021066 0.253691
Si Si5 0.308727 0.693341 0.133095
Si Si6 0.819297 0.757386 0.580680
Si Si7 0.817166 0.161925 0.192007
Si Si8 0.110376 0.077423 0.458652
O O1 0.996776 0.750000 0.750000
O O2 0.947396 0.877276 0.898963
O O3 0.946135 0.879774 0.616548
O O4 0.042373 0.907221 0.761791
O O5 0.846608 0.529652 0.590207
O O6 0.911487 0.552866 0.366887
O O7 0.851315 0.683420 0.487487
O O8 0.750000 0.544858 0.750000
O O9 0.702645 0.395691 0.786458
O O10 0.642797 0.504923 0.636484
O O11 0.845917 0.073610 0.249777
O O12 0.912797 0.968453 0.399949
O O13 0.250000 0.750000 0.108779
O O14 0.348135 0.750000 0.250000
O O15 0.332294 0.670428 0.976693
O O16 0.750000 0.750000 0.559113
O O17 0.837492 0.750000 0.750000
O O18 0.840992 0.847991 0.514668
O O19 0.847008 0.250000 0.250000
O O20 0.750000 0.157315 0.250000
#
# Coordination Sequence:
#
# PCOD8202035 Si02
#       8
#     8   8   8   8   8   8   8   8
#     4  11  22  49  70  89 121 173 225 273 329 396
#     4  11  22  42  66  94 131 164 217 278 328 390
#     4  11  21  36  62  95 127 171 220 257 313 391
#     4  12  27  39  67  98 130 169 214 269 345 400
#     4  11  21  36  59  83 127 175 209 257 306 380
#     4  11  20  40  70  99 130 176 222 269 331 396
#     4  11  24  40  57  88 135 174 210 261 332 394
#     4  11  24  41  67  96 131 165 220 280 323 400
#
# _framework density 19.690487000000001
#
# number of rings (size 3 to 8) (size 9 to 14) (size 15 to 20)
#    0.000    0.875    7.500    1.875    3.500    1.500 
#    0.000    0.625    0.000    0.000    0.000    0.000 
#    0.000    0.000    0.000    0.000    0.000    0.000 
#
# Total GULP energy -793118.734349 kJ/mol
# GULP energy per Si atom -12392.480224 kJ/mol
# Density = 1.964567 g / cm^3
# Si number density = 19.690487 Si / 1000 Ang^3
#
#
#
# Elastic Constant Matrix: (Units=GPa)
#
#
# Indices 1 2 3 4 5 6 
#
# 1 85.7938 45.9425 38.9082 0.0000 0.0000 0.0000
# 2 45.9425 140.0096 54.7715 0.0000 0.0000 0.0000
# 3 38.9082 54.7715 124.7848 0.0000 0.0000 0.0000
# 4 0.0000 0.0000 0.0000 7.8015 0.0000 0.0000
# 5 0.0000 0.0000 0.0000 0.0000 9.9891 0.0000
# 6 0.0000 0.0000 0.0000 0.0000 0.0000 29.8637
#
#
#
# Elastic Compliance Matrix: (Units=1/GPa)
#
#
# Indices 1 2 3 4 5 6 
#
# 1 0.015043 -0.003744 -0.003047 0.000000 0.000000 0.000000
# 2 -0.003744 0.009555 -0.003026 0.000000 0.000000 0.000000
# 3 -0.003047 -0.003026 0.010292 0.000000 0.000000 0.000000
# 4 0.000000 0.000000 0.000000 0.128181 0.000000 0.000000
# 5 0.000000 0.000000 0.000000 0.000000 0.100109 0.000000
# 6 0.000000 0.000000 0.000000 0.000000 0.000000 0.033485
#
#
# Mechanical properties :
#
#
# Convention : Reuss Voigt Hill
#
# Bulk Modulus (GPa) = 65.55350 69.98141 67.76745
# Shear Modulus (GPa) = 15.55767 23.59527 19.57647
#
# Velocity S-wave (km/s) = 2.81394 3.46541 3.15653
# Velocity P-wave (km/s) = 6.62736 7.18540 6.91202
#
# Compressibility (1/GPa) = 0.01525472
#
# Stress axis : x y z
#
# Youngs Moduli (GPa) = 66.47778 104.65828 97.16043
#
# Poissons Ratio (x) = 0.39185 0.29604
# Poissons Ratio (y) = 0.24890 0.29406
# Poissons Ratio (z) = 0.20255 0.31675
#
# Static dielectric constant tensor:
#      x y z
#    x 3.468130 0.000000 0.000000 
#    y 0.000000 3.798780 0.000000 
#    z 0.000000 0.000000 3.935690 
# 
# 
# High freq. dielectric constant tensor:
#      x y z
#    x 1.754930 0.000000 0.000000 
#    y 0.000000 1.790130 0.000000 
#    z 0.000000 0.000000 1.757160 
# 
# From -- ./inp_files/16058.got.cif
#   From: 2010.06.25/outbox.cif.g09.slc.cpg/sg48_9_cif.got.tgz:16058.got - 2010.06.26 18:06:46.
