data_PCOD8202980
_publ_section_title
;
Structure prediction by ZEFSAII (Michael W. Deem and Ramdas Pophale) SiO2 
 PCOD8202980
Probable space group: P C C M
;
_chemical_formula_sum "Si O2"
_cell_formula_units_Z 64
_cell_length_a 17.084171
_cell_length_b 20.612987
_cell_length_c 8.887250
_cell_angle_alpha 90.000000
_cell_angle_beta 90.000000
_cell_angle_gamma 90.000000
_cell_volume 3129.696587
_symmetry_space_group_name_H-M "P C C M"
_symmetry_group_IT_number 49
_symmetry_cell_setting 'orthorhombic'
loop_
_space_group_symop_operation_xyz
x,y,z
-x,-y,z
x,-y,1/2-z
-x,y,1/2-z
-x,-y,-z
x,y,-z
-x,y,1/2+z
x,-y,1/2+z
loop_
_atom_site_type_symbol
_atom_site_label
_atom_site_fract_x
_atom_site_fract_y
_atom_site_fract_z
Si Si1 0.920408 0.796085 0.320194
Si Si2 0.117067 0.067464 0.174127
Si Si3 0.698910 0.064115 0.670377
Si Si4 0.579066 0.586879 0.673481
Si Si5 0.367208 0.274225 0.333946
Si Si6 0.575399 0.861718 0.667589
Si Si7 0.256805 0.436777 0.177594
Si Si8 0.211576 0.293473 0.824087
O O1 0.923414 0.797038 0.500000
O O2 0.915106 0.870263 0.261685
O O3 0.850996 0.748673 0.267980
O O4 0.000000 0.766718 0.250000
O O5 0.209517 0.072739 0.188325
O O6 0.087445 0.000000 0.250000
O O7 0.090010 0.068699 0.000000
O O8 0.671764 0.061334 0.500000
O O9 0.656827 0.123265 0.751013
O O10 0.667752 0.000000 0.750000
O O11 0.500000 0.559274 0.750000
O O12 0.581944 0.564831 0.500000
O O13 0.578599 0.664032 0.693263
O O14 0.655192 0.561010 0.759092
O O15 0.327258 0.277767 0.500000
O O16 0.428498 0.215695 0.327193
O O17 0.298154 0.267153 0.211895
O O18 0.500000 0.891743 0.750000
O O19 0.576339 0.890013 0.500000
O O20 0.213274 0.500000 0.250000
O O21 0.210431 0.370320 0.221049
O O22 0.260067 0.444006 0.000000
O O23 0.194604 0.283296 0.000000
#
# Coordination Sequence:
#
# PCOD8202980 Si02
#       8
#     8   8   8   8   8   8   8   8
#     4  12  25  41  63  91 124 158 192 231 278 333
#     4  10  21  39  63  91 122 156 194 234 279 334
#     4  10  21  37  56  76 100 133 175 223 273 327
#     4  10  19  32  50  75 110 149 190 235 286 340
#     4   9  19  34  53  77 105 141 183 227 276 334
#     4  11  22  34  49  71 100 134 177 228 282 335
#     4  10  21  37  58  84 114 150 194 242 291 345
#     4  10  21  38  61  88 117 150 189 234 284 340
#
# _framework density 20.449266000000001
#
# number of rings (size 3 to 8) (size 9 to 14) (size 15 to 20)
#    0.000    1.750    0.000    4.500    0.000    7.250 
#    0.000    3.750    0.000    0.375    0.000    2.625 
#    0.000    0.000    0.000    0.000    0.000    0.000 
#
# Total GULP energy -793421.658058 kJ/mol
# GULP energy per Si atom -12397.213407 kJ/mol
# Density = 2.040272 g / cm^3
# Si number density = 20.449266 Si / 1000 Ang^3
#
#
#
# Elastic Constant Matrix: (Units=GPa)
#
#
# Indices 1 2 3 4 5 6 
#
# 1 59.2598 32.5435 50.0534 0.0000 0.0000 0.0000
# 2 32.5435 94.5141 47.7029 0.0000 0.0000 0.0000
# 3 50.0534 47.7029 152.0702 0.0000 0.0000 0.0000
# 4 0.0000 0.0000 0.0000 34.5819 0.0000 0.0000
# 5 0.0000 0.0000 0.0000 0.0000 30.3030 0.0000
# 6 0.0000 0.0000 0.0000 0.0000 0.0000 5.5674
#
#
#
# Elastic Compliance Matrix: (Units=1/GPa)
#
#
# Indices 1 2 3 4 5 6 
#
# 1 0.025498 -0.005398 -0.006699 0.000000 0.000000 0.000000
# 2 -0.005398 0.013714 -0.002525 0.000000 0.000000 0.000000
# 3 -0.006699 -0.002525 0.009573 0.000000 0.000000 0.000000
# 4 0.000000 0.000000 0.000000 0.028917 0.000000 0.000000
# 5 0.000000 0.000000 0.000000 0.000000 0.033000 0.000000
# 6 0.000000 0.000000 0.000000 0.000000 0.000000 0.179618
#
#
# Mechanical properties :
#
#
# Convention : Reuss Voigt Hill
#
# Bulk Modulus (GPa) = 51.17839 62.93820 57.05830
# Shear Modulus (GPa) = 15.33380 25.79341 20.56361
#
# Velocity S-wave (km/s) = 2.74130 3.55538 3.17455
# Velocity P-wave (km/s) = 5.92461 6.90644 6.43428
#
# Compressibility (1/GPa) = 0.01953950
#
# Stress axis : x y z
#
# Youngs Moduli (GPa) = 39.21906 72.92017 104.46090
#
# Poissons Ratio (x) = 0.39365 0.69980
# Poissons Ratio (y) = 0.21172 0.26376
# Poissons Ratio (z) = 0.26273 0.18412
#
# Static dielectric constant tensor:
#      x y z
#    x 3.515290 0.000000 0.000000 
#    y 0.000000 3.557790 0.000000 
#    z 0.000000 0.000000 3.875080 
# 
# 
# High freq. dielectric constant tensor:
#      x y z
#    x 1.774290 0.000000 0.000000 
#    y 0.000000 1.810230 0.000000 
#    z 0.000000 0.000000 1.813910 
# 
# From -- ./inp_files/5338.got.cif
#   From: 2010.03.12/outbox.cif.g09.slc.cpg/sg49_3_cif.got.tgz:5338.got - 2010.04.14 03:58:27.
