data_PCOD8202742
_publ_section_title
;
Structure prediction by ZEFSAII (Michael W. Deem and Ramdas Pophale) SiO2 
 PCOD8202742
Probable space group: P C C M
;
_chemical_formula_sum "Si O2"
_cell_formula_units_Z 48
_cell_length_a 23.940963
_cell_length_b 13.684244
_cell_length_c 8.878170
_cell_angle_alpha 90.000000
_cell_angle_beta 90.000000
_cell_angle_gamma 90.000000
_cell_volume 2908.612602
_symmetry_space_group_name_H-M "P C C M"
_symmetry_group_IT_number 49
_symmetry_cell_setting 'orthorhombic'
loop_
_space_group_symop_operation_xyz
x,y,z
-x,-y,z
x,-y,1/2-z
-x,y,1/2-z
-x,-y,-z
x,y,-z
-x,y,1/2+z
x,-y,1/2+z
loop_
_atom_site_type_symbol
_atom_site_label
_atom_site_fract_x
_atom_site_fract_y
_atom_site_fract_z
Si Si1 0.824040 0.105806 0.824334
Si Si2 0.615871 0.895577 0.823762
Si Si3 0.052217 0.895195 0.826216
Si Si4 0.333131 0.395716 0.323288
Si Si5 0.273544 0.220573 0.176164
Si Si6 0.443281 0.280221 0.676743
O O1 0.886403 0.151290 0.801822
O O2 0.783507 0.182464 0.746580
O O3 0.817293 0.000000 0.750000
O O4 0.809357 0.094481 0.000000
O O5 0.678216 0.858096 0.789838
O O6 0.570878 0.823813 0.750064
O O7 0.608122 0.000000 0.750000
O O8 0.603655 0.902036 0.000000
O O9 0.000000 0.835596 0.750000
O O10 0.054637 0.000000 0.750000
O O11 0.038273 0.906772 0.000000
O O12 0.324146 0.500000 0.250000
O O13 0.322784 0.402328 0.500000
O O14 0.287702 0.323085 0.253406
O O15 0.395303 0.358361 0.285255
O O16 0.265745 0.238248 0.000000
O O17 0.500000 0.321217 0.750000
O O18 0.451007 0.265690 0.500000
#
# Coordination Sequence:
#
# PCOD8202742 Si02
#       6
#     8   8   8   8   8   8
#     4  10  19  29  43  66  96 130 166 201 237 277
#     4  10  20  33  49  69  94 124 157 191 228 272
#     4   9  16  25  38  57  85 123 164 202 236 271
#     4  10  21  37  56  75  96 121 149 186 233 283
#     4  10  20  33  50  71  95 123 156 195 236 280
#     4  10  21  36  53  73  96 121 151 188 227 271
#
# _framework density 16.502713
#
# number of rings (size 3 to 8) (size 9 to 14) (size 15 to 20)
#    0.000    2.167    0.000    4.000    0.000    8.000 
#    0.000    3.333    0.000    0.000    0.000    0.000 
#    0.000    0.667    0.000    7.000    0.000    3.833 
#
# Total GULP energy -595157.120937 kJ/mol
# GULP energy per Si atom -12399.106686 kJ/mol
# Density = 1.646515 g / cm^3
# Si number density = 16.502713 Si / 1000 Ang^3
#
#
#
# Elastic Constant Matrix: (Units=GPa)
#
#
# Indices 1 2 3 4 5 6 
#
# 1 118.7475 43.4236 58.9305 0.0000 0.0000 0.0000
# 2 43.4236 95.2716 46.8921 0.0000 0.0000 0.0000
# 3 58.9305 46.8921 107.8247 0.0000 0.0000 0.0000
# 4 0.0000 0.0000 0.0000 26.5554 0.0000 0.0000
# 5 0.0000 0.0000 0.0000 0.0000 31.7666 0.0000
# 6 0.0000 0.0000 0.0000 0.0000 0.0000 13.7035
#
#
#
# Elastic Compliance Matrix: (Units=1/GPa)
#
#
# Indices 1 2 3 4 5 6 
#
# 1 0.012149 -0.002887 -0.005384 0.000000 0.000000 0.000000
# 2 -0.002887 0.014041 -0.004528 0.000000 0.000000 0.000000
# 3 -0.005384 -0.004528 0.014186 0.000000 0.000000 0.000000
# 4 0.000000 0.000000 0.000000 0.037657 0.000000 0.000000
# 5 0.000000 0.000000 0.000000 0.000000 0.031480 0.000000
# 6 0.000000 0.000000 0.000000 0.000000 0.000000 0.072974
#
#
# Mechanical properties :
#
#
# Convention : Reuss Voigt Hill
#
# Bulk Modulus (GPa) = 67.67398 68.92623 68.30010
# Shear Modulus (GPa) = 23.47279 25.91162 24.69221
#
# Velocity S-wave (km/s) = 3.77551 3.96680 3.87234
# Velocity P-wave (km/s) = 7.75260 7.92704 7.84030
#
# Compressibility (1/GPa) = 0.01477673
#
# Stress axis : x y z
#
# Youngs Moduli (GPa) = 82.31052 71.21938 70.49002
#
# Poissons Ratio (x) = 0.20563 0.37954
# Poissons Ratio (y) = 0.23765 0.31920
# Poissons Ratio (z) = 0.44319 0.32251
#
# Static dielectric constant tensor:
#      x y z
#    x 3.682820 0.000000 0.000000 
#    y 0.000000 2.798790 0.000000 
#    z 0.000000 0.000000 3.302170 
# 
# 
# High freq. dielectric constant tensor:
#      x y z
#    x 1.640090 0.000000 0.000000 
#    y 0.000000 1.595820 0.000000 
#    z 0.000000 0.000000 1.659860 
# 
# From -- ./inp_files/2878.got.cif
#   From: 2010.03.12/outbox.cif.g09.slc.cpg/sg49_2_cif.got.tgz:2878.got - 2010.04.14 03:58:27.
