data_PCOD8202316
_publ_section_title
;
Structure prediction by ZEFSAII (Michael W. Deem and Ramdas Pophale) SiO2 
 PCOD8202316
Probable space group: P C C M
;
_chemical_formula_sum "Si O2"
_cell_formula_units_Z 48
_cell_length_a 21.066918
_cell_length_b 15.208649
_cell_length_c 8.771904
_cell_angle_alpha 90.000000
_cell_angle_beta 90.000000
_cell_angle_gamma 90.000000
_cell_volume 2810.512440
_symmetry_space_group_name_H-M "P C C M"
_symmetry_group_IT_number 49
_symmetry_cell_setting 'orthorhombic'
loop_
_space_group_symop_operation_xyz
x,y,z
-x,-y,z
x,-y,1/2-z
-x,y,1/2-z
-x,-y,-z
x,y,-z
-x,y,1/2+z
x,-y,1/2+z
loop_
_atom_site_type_symbol
_atom_site_label
_atom_site_fract_x
_atom_site_fract_y
_atom_site_fract_z
Si Si1 0.690031 0.413857 0.323318
Si Si2 0.306996 0.781948 0.320574
Si Si3 0.062922 0.097499 0.318035
Si Si4 0.809702 0.904429 0.819363
Si Si5 0.437459 0.809443 0.832129
Si Si6 0.438866 0.603574 0.169076
O O1 0.725321 0.500000 0.250000
O O2 0.704711 0.418662 0.500000
O O3 0.709585 0.316936 0.258098
O O4 0.616025 0.422759 0.286172
O O5 0.317253 0.775685 0.500000
O O6 0.249012 0.843592 0.273814
O O7 0.371101 0.825707 0.254930
O O8 0.060690 0.097028 0.500000
O O9 0.127842 0.141309 0.256175
O O10 0.000000 0.145902 0.250000
O O11 0.063925 0.000000 0.250000
O O12 0.796630 0.000000 0.750000
O O13 0.819277 0.912191 0.000000
O O14 0.500000 0.850717 0.750000
O O15 0.447757 0.706672 0.847794
O O16 0.432406 0.852618 0.000000
O O17 0.500000 0.562158 0.250000
O O18 0.426826 0.563634 0.000000
#
# Coordination Sequence:
#
# PCOD8202316 Si02
#       6
#     8   8   8   8   8   8
#     4  10  19  31  44  60  82 111 144 181 222 267
#     4   9  19  33  48  65  90 120 151 187 231 276
#     4  10  17  27  44  68  98 130 158 184 214 257
#     4  10  19  32  49  71  97 126 156 188 223 264
#     4   9  16  26  43  63  84 110 145 186 232 279
#     4   9  16  26  39  57  79 105 135 172 216 269
#
# _framework density 17.078735000000002
#
# number of rings (size 3 to 8) (size 9 to 14) (size 15 to 20)
#    0.000    2.500    0.000    5.000    0.000    6.333 
#    0.000    1.667    0.000    0.500    0.000    3.500 
#    0.000    0.667    0.000    7.667    0.000    2.333 
#
# Total GULP energy -594645.368990 kJ/mol
# GULP energy per Si atom -12388.445187 kJ/mol
# Density = 1.703986 g / cm^3
# Si number density = 17.078735 Si / 1000 Ang^3
#
#
#
# Elastic Constant Matrix: (Units=GPa)
#
#
# Indices 1 2 3 4 5 6 
#
# 1 135.8075 46.8459 53.2706 0.0000 0.0000 0.0000
# 2 46.8459 54.7057 22.7454 0.0000 0.0000 0.0000
# 3 53.2706 22.7454 93.0136 0.0000 0.0000 0.0000
# 4 0.0000 0.0000 0.0000 13.7441 0.0000 0.0000
# 5 0.0000 0.0000 0.0000 0.0000 24.4078 0.0000
# 6 0.0000 0.0000 0.0000 0.0000 0.0000 -0.9368
#
#
#
# Elastic Compliance Matrix: (Units=1/GPa)
#
#
# Indices 1 2 3 4 5 6 
#
# 1 0.012191 -0.008390 -0.004931 0.000000 0.000000 0.000000
# 2 -0.008390 0.026122 -0.001583 0.000000 0.000000 0.000000
# 3 -0.004931 -0.001583 0.013962 0.000000 0.000000 0.000000
# 4 0.000000 0.000000 0.000000 0.072758 0.000000 0.000000
# 5 0.000000 0.000000 0.000000 0.000000 0.040971 0.000000
# 6 0.000000 0.000000 0.000000 0.000000 0.000000 -1.067431
#
#
# Mechanical properties :
#
#
# Convention : Reuss Voigt Hill
#
# Bulk Modulus (GPa) = 44.50573 58.80564 51.65569
# Shear Modulus (GPa) = -5.78616 18.15400 6.18392
#
# Velocity S-wave (km/s) = -1.84263 3.26384 1.90491
# Velocity P-wave (km/s) = 4.64636 6.97928 5.92870
#
# Compressibility (1/GPa) = 0.02246902
#
# Stress axis : x y z
#
# Youngs Moduli (GPa) = 82.02499 38.28171 71.62270
#
# Poissons Ratio (x) = 0.32117 0.35314
# Poissons Ratio (y) = 0.68817 0.11337
# Poissons Ratio (z) = 0.40443 0.06060
#
# Static dielectric constant tensor:
#      x y z
#    x 3.562360 0.000000 0.000000 
#    y 0.000000 3.117010 0.000000 
#    z 0.000000 0.000000 3.375020 
# 
# 
# High freq. dielectric constant tensor:
#      x y z
#    x 1.637580 0.000000 0.000000 
#    y 0.000000 1.621780 0.000000 
#    z 0.000000 0.000000 1.674770 
# 
# From -- ./inp_files/4971.got.cif
#   From: 2010.03.12/outbox.cif.g09.slc.cpg/sg49_3_cif.got.tgz:4971.got - 2010.04.14 03:58:27.
