data_PCOD8202567
_publ_section_title
;
Structure prediction by ZEFSAII (Michael W. Deem and Ramdas Pophale) SiO2 
 PCOD8202567
Probable space group: P C C M
;
_chemical_formula_sum "Si O2"
_cell_formula_units_Z 64
_cell_length_a 23.476976
_cell_length_b 18.896595
_cell_length_c 8.892548
_cell_angle_alpha 90.000000
_cell_angle_beta 90.000000
_cell_angle_gamma 90.000000
_cell_volume 3945.044708
_symmetry_space_group_name_H-M "P C C M"
_symmetry_group_IT_number 49
_symmetry_cell_setting 'orthorhombic'
loop_
_space_group_symop_operation_xyz
x,y,z
-x,-y,z
x,-y,1/2-z
-x,y,1/2-z
-x,-y,-z
x,y,-z
-x,y,1/2+z
x,-y,1/2+z
loop_
_atom_site_type_symbol
_atom_site_label
_atom_site_fract_x
_atom_site_fract_y
_atom_site_fract_z
Si Si1 0.167874 0.663531 0.324649
Si Si2 0.558415 0.791577 0.322553
Si Si3 0.224726 0.788317 0.175779
Si Si4 0.665555 0.301034 0.825661
Si Si5 0.256296 0.927440 0.323779
Si Si6 0.388076 0.072938 0.822777
Si Si7 0.941318 0.574417 0.822508
Si Si8 0.723207 0.424711 0.676147
O O1 0.174275 0.680661 0.500000
O O2 0.174929 0.736375 0.233485
O O3 0.106512 0.631960 0.284318
O O4 0.215796 0.607117 0.274244
O O5 0.500000 0.764025 0.250000
O O6 0.552324 0.802306 0.500000
O O7 0.605153 0.732487 0.283173
O O8 0.574475 0.865798 0.248903
O O9 0.285722 0.755056 0.218313
O O10 0.218980 0.863426 0.258111
O O11 0.217570 0.800819 0.000000
O O12 0.673101 0.372487 0.730485
O O13 0.669948 0.320960 0.000000
O O14 0.246538 0.932638 0.500000
O O15 0.322150 0.914221 0.281783
O O16 0.234445 0.000000 0.250000
O O17 0.409364 0.000000 0.750000
O O18 0.398272 0.070447 0.000000
O O19 0.923188 0.500000 0.750000
O O20 0.000000 0.601990 0.750000
O O21 0.948794 0.563687 0.000000
O O22 0.714285 0.500000 0.750000
O O23 0.718885 0.434542 0.500000
#
# Coordination Sequence:
#
# PCOD8202567 Si02
#       8
#     8   8   8   8   8   8   8   8
#     4   9  19  32  46  69  99 131 164 201 239 279
#     4  11  22  36  52  70  93 119 153 193 233 282
#     4  10  18  30  49  71  95 124 158 196 240 285
#     4   9  19  34  50  68  93 120 149 187 231 282
#     4  10  19  30  47  69  96 127 159 193 233 285
#     4  10  20  33  50  70  93 123 156 192 232 276
#     4  10  19  31  47  67  97 135 175 210 242 281
#     4  10  19  31  50  73  97 122 152 189 234 283
#
# _framework density 16.222881999999998
#
# number of rings (size 3 to 8) (size 9 to 14) (size 15 to 20)
#    0.000    2.125    1.250    3.000    0.000    4.250 
#    0.000    1.250    0.000    0.375    0.000    2.625 
#    0.000    0.500    0.000    5.250    0.000    2.875 
#
# Total GULP energy -793828.658292 kJ/mol
# GULP energy per Si atom -12403.572786 kJ/mol
# Density = 1.618596 g / cm^3
# Si number density = 16.222882 Si / 1000 Ang^3
#
#
#
# Elastic Constant Matrix: (Units=GPa)
#
#
# Indices 1 2 3 4 5 6 
#
# 1 84.8306 56.5406 42.3679 0.0000 0.0000 0.0000
# 2 56.5406 127.3309 58.4764 0.0000 0.0000 0.0000
# 3 42.3679 58.4764 80.9474 0.0000 0.0000 0.0000
# 4 0.0000 0.0000 0.0000 32.7254 0.0000 0.0000
# 5 0.0000 0.0000 0.0000 0.0000 22.9590 0.0000
# 6 0.0000 0.0000 0.0000 0.0000 0.0000 22.7225
#
#
#
# Elastic Compliance Matrix: (Units=1/GPa)
#
#
# Indices 1 2 3 4 5 6 
#
# 1 0.018265 -0.005567 -0.005538 0.000000 0.000000 0.000000
# 2 -0.005567 0.013449 -0.006802 0.000000 0.000000 0.000000
# 3 -0.005538 -0.006802 0.020166 0.000000 0.000000 0.000000
# 4 0.000000 0.000000 0.000000 0.030557 0.000000 0.000000
# 5 0.000000 0.000000 0.000000 0.000000 0.043556 0.000000
# 6 0.000000 0.000000 0.000000 0.000000 0.000000 0.044009
#
#
# Mechanical properties :
#
#
# Convention : Reuss Voigt Hill
#
# Bulk Modulus (GPa) = 62.24387 67.54206 64.89296
# Shear Modulus (GPa) = 23.67737 24.72966 24.20351
#
# Velocity S-wave (km/s) = 3.82449 3.90855 3.86675
# Velocity P-wave (km/s) = 7.61272 7.87993 7.74748
#
# Compressibility (1/GPa) = 0.01606584
#
# Stress axis : x y z
#
# Youngs Moduli (GPa) = 54.75074 74.35303 49.58798
#
# Poissons Ratio (x) = 0.41392 0.27463
# Poissons Ratio (y) = 0.30479 0.33730
# Poissons Ratio (z) = 0.30322 0.50576
#
# Static dielectric constant tensor:
#      x y z
#    x 2.906560 0.000000 0.000000 
#    y 0.000000 3.037820 0.000000 
#    z 0.000000 0.000000 3.145240 
# 
# 
# High freq. dielectric constant tensor:
#      x y z
#    x 1.591480 0.000000 0.000000 
#    y 0.000000 1.620630 0.000000 
#    z 0.000000 0.000000 1.640030 
# 
# From -- ./inp_files/5344.got.cif
#   From: 2010.03.12/outbox.cif.g09.slc.cpg/sg49_3_cif.got.tgz:5344.got - 2010.04.14 03:58:27.
