data_PCOD8202583
_publ_section_title
;
Structure prediction by ZEFSAII (Michael W. Deem and Ramdas Pophale) SiO2 
 PCOD8202583
Probable space group: P C C M
;
_chemical_formula_sum "Si O2"
_cell_formula_units_Z 48
_cell_length_a 8.853453
_cell_length_b 17.837922
_cell_length_c 14.921996
_cell_angle_alpha 90.000000
_cell_angle_beta 90.000000
_cell_angle_gamma 90.000000
_cell_volume 2356.589107
_symmetry_space_group_name_H-M "P C C M"
_symmetry_group_IT_number 49
_symmetry_cell_setting 'orthorhombic'
loop_
_space_group_symop_operation_xyz
x,y,z
-x,-y,z
x,-y,1/2-z
-x,y,1/2-z
-x,-y,-z
x,y,-z
-x,y,1/2+z
x,-y,1/2+z
loop_
_atom_site_type_symbol
_atom_site_label
_atom_site_fract_x
_atom_site_fract_y
_atom_site_fract_z
Si Si1 0.834572 0.641037 0.785514
Si Si2 0.127042 0.208378 0.104585
Si Si3 0.609069 0.564051 0.898387
Si Si4 0.177627 0.916483 0.259416
Si Si5 0.588764 0.694706 0.663802
Si Si6 0.779647 0.178097 0.097629
O O1 0.819768 0.717821 0.843046
O O2 0.767194 0.572250 0.844584
O O3 0.732245 0.647347 0.697486
O O4 0.000000 0.621204 0.750000
O O5 0.203564 0.133687 0.150249
O O6 0.946493 0.210481 0.115301
O O7 0.175907 0.210185 0.000000
O O8 0.500000 0.500000 0.856629
O O9 0.521007 0.642708 0.893919
O O10 0.650185 0.543352 0.000000
O O11 0.260079 0.879277 0.175273
O O12 0.000000 0.921513 0.250000
O O13 0.246423 0.000000 0.250000
O O14 0.500000 0.727941 0.750000
O O15 0.651068 0.758783 0.598874
O O16 0.774957 0.138852 0.000000
#
# Coordination Sequence:
#
# PCOD8202583 Si02
#       6
#     8   8   8   8   8   8
#     4  11  19  36  62  88 117 150 200 252 297 346
#     4  10  18  30  54  85 117 151 195 249 303 351
#     4  10  23  42  60  86 124 159 195 239 296 365
#     4   9  17  30  48  77 118 155 192 243 301 354
#     4  10  20  34  59  83 114 156 195 238 291 355
#     4  10  18  31  53  81 113 149 194 243 293 349
#
# _framework density 20.368421000000001
#
# number of rings (size 3 to 8) (size 9 to 14) (size 15 to 20)
#    0.000    2.000    3.333    1.500    0.000    3.667 
#    0.000    5.000    0.000    2.500    0.000    1.167 
#    0.000    0.000    0.000    0.000    0.000    0.000 
#
# Total GULP energy -594754.092052 kJ/mol
# GULP energy per Si atom -12390.710251 kJ/mol
# Density = 2.032206 g / cm^3
# Si number density = 20.368421 Si / 1000 Ang^3
#
#
#
# Elastic Constant Matrix: (Units=GPa)
#
#
# Indices 1 2 3 4 5 6 
#
# 1 88.3398 28.9503 30.7459 0.0000 0.0000 0.0000
# 2 28.9503 94.3597 36.0764 0.0000 0.0000 0.0000
# 3 30.7459 36.0764 102.9497 0.0000 0.0000 0.0000
# 4 0.0000 0.0000 0.0000 22.7208 0.0000 0.0000
# 5 0.0000 0.0000 0.0000 0.0000 24.2190 0.0000
# 6 0.0000 0.0000 0.0000 0.0000 0.0000 21.2316
#
#
#
# Elastic Compliance Matrix: (Units=1/GPa)
#
#
# Indices 1 2 3 4 5 6 
#
# 1 0.013313 -0.002961 -0.002938 0.000000 0.000000 0.000000
# 2 -0.002961 0.012896 -0.003635 0.000000 0.000000 0.000000
# 3 -0.002938 -0.003635 0.011865 0.000000 0.000000 0.000000
# 4 0.000000 0.000000 0.000000 0.044013 0.000000 0.000000
# 5 0.000000 0.000000 0.000000 0.000000 0.041290 0.000000
# 6 0.000000 0.000000 0.000000 0.000000 0.000000 0.047100
#
#
# Mechanical properties :
#
#
# Convention : Reuss Voigt Hill
#
# Bulk Modulus (GPa) = 52.61687 53.02162 52.81924
# Shear Modulus (GPa) = 25.52595 26.29270 25.90932
#
# Velocity S-wave (km/s) = 3.54391 3.59675 3.57043
# Velocity P-wave (km/s) = 6.52950 6.58305 6.55633
#
# Compressibility (1/GPa) = 0.01900531
#
# Stress axis : x y z
#
# Youngs Moduli (GPa) = 75.11471 77.54395 84.28362
#
# Poissons Ratio (x) = 0.22962 0.24765
# Poissons Ratio (y) = 0.22243 0.30635
# Poissons Ratio (z) = 0.22071 0.28185
#
# Static dielectric constant tensor:
#      x y z
#    x 3.609130 0.000000 0.000000 
#    y 0.000000 3.792260 0.000000 
#    z 0.000000 0.000000 3.774160 
# 
# 
# High freq. dielectric constant tensor:
#      x y z
#    x 1.778160 0.000000 0.000000 
#    y 0.000000 1.774930 0.000000 
#    z 0.000000 0.000000 1.801110 
# 
# From -- ./inp_files/11813.got.cif
#   From: 2010.03.12/outbox.cif.g09.slc.cpg/sg49_6_cif.got.tgz:11813.got - 2010.04.14 03:58:27.
