data_PCOD8202388
_publ_section_title
;
Structure prediction by ZEFSAII (Michael W. Deem and Ramdas Pophale) SiO2 
 PCOD8202388
Probable space group: P C C M
;
_chemical_formula_sum "Si O2"
_cell_formula_units_Z 48
_cell_length_a 9.147819
_cell_length_b 31.179914
_cell_length_c 8.592194
_cell_angle_alpha 90.000000
_cell_angle_beta 90.000000
_cell_angle_gamma 90.000000
_cell_volume 2450.736112
_symmetry_space_group_name_H-M "P C C M"
_symmetry_group_IT_number 49
_symmetry_cell_setting 'orthorhombic'
loop_
_space_group_symop_operation_xyz
x,y,z
-x,-y,z
x,-y,1/2-z
-x,y,1/2-z
-x,-y,-z
x,y,-z
-x,y,1/2+z
x,-y,1/2+z
loop_
_atom_site_type_symbol
_atom_site_label
_atom_site_fract_x
_atom_site_fract_y
_atom_site_fract_z
Si Si1 0.339433 0.291177 0.815463
Si Si2 0.339548 0.873454 0.315826
Si Si3 0.161559 0.369416 0.315924
Si Si4 0.160505 0.207596 0.816755
Si Si5 0.837000 0.457067 0.315404
Si Si6 0.159103 0.044963 0.184253
O O1 0.500000 0.284539 0.750000
O O2 0.268140 0.331745 0.733191
O O3 0.248117 0.249627 0.765127
O O4 0.341838 0.297953 0.000000
O O5 0.500000 0.869368 0.250000
O O6 0.347381 0.871383 0.500000
O O7 0.243083 0.834199 0.249808
O O8 0.268399 0.917967 0.259130
O O9 0.150359 0.372856 0.500000
O O10 0.234453 0.413193 0.248121
O O11 0.000000 0.360776 0.250000
O O12 0.000000 0.210162 0.750000
O O13 0.148664 0.204406 0.000000
O O14 0.756098 0.500000 0.250000
O O15 0.835731 0.457640 0.500000
O O16 0.000000 0.457142 0.250000
O O17 0.000000 0.055600 0.250000
O O18 0.219319 0.000000 0.250000
O O19 0.148535 0.042187 0.000000
#
# Coordination Sequence:
#
# PCOD8202388 Si02
#       6
#     8   8   8   8   8   8
#     4  11  23  39  58  82 111 145 183 226 276 332
#     4  10  22  38  56  82 113 147 184 226 274 330
#     4  11  21  35  55  81 112 147 187 232 278 329
#     4  10  22  39  60  85 112 142 182 226 274 328
#     4  10  17  28  47  75 109 144 183 229 279 329
#     4  10  20  35  56  81 110 144 187 231 277 327
#
# _framework density 19.585953
#
# number of rings (size 3 to 8) (size 9 to 14) (size 15 to 20)
#    0.000    1.667    0.000    7.500    0.000    5.000 
#    0.000    1.667    0.000    0.500    0.000    3.500 
#    0.000    0.000    0.000    0.000    0.000    0.000 
#
# Total GULP energy -595250.787962 kJ/mol
# GULP energy per Si atom -12401.058083 kJ/mol
# Density = 1.954137 g / cm^3
# Si number density = 19.585953 Si / 1000 Ang^3
#
#
#
# Elastic Constant Matrix: (Units=GPa)
#
#
# Indices 1 2 3 4 5 6 
#
# 1 130.4576 89.5751 40.5635 0.0000 0.0000 0.0000
# 2 89.5751 194.5574 64.9731 0.0000 0.0000 0.0000
# 3 40.5635 64.9731 109.3935 0.0000 0.0000 0.0000
# 4 0.0000 0.0000 0.0000 29.5955 0.0000 0.0000
# 5 0.0000 0.0000 0.0000 0.0000 30.9464 0.0000
# 6 0.0000 0.0000 0.0000 0.0000 0.0000 14.3314
#
#
#
# Elastic Compliance Matrix: (Units=1/GPa)
#
#
# Indices 1 2 3 4 5 6 
#
# 1 0.011374 -0.004775 -0.001381 0.000000 0.000000 0.000000
# 2 -0.004775 0.008416 -0.003228 0.000000 0.000000 0.000000
# 3 -0.001381 -0.003228 0.011571 0.000000 0.000000 0.000000
# 4 0.000000 0.000000 0.000000 0.033789 0.000000 0.000000
# 5 0.000000 0.000000 0.000000 0.000000 0.032314 0.000000
# 6 0.000000 0.000000 0.000000 0.000000 0.000000 0.069777
#
#
# Mechanical properties :
#
#
# Convention : Reuss Voigt Hill
#
# Bulk Modulus (GPa) = 79.41761 91.62577 85.52169
# Shear Modulus (GPa) = 26.28717 30.92778 28.60748
#
# Velocity S-wave (km/s) = 3.66750 3.97807 3.82594
# Velocity P-wave (km/s) = 7.65313 8.24518 7.95467
#
# Compressibility (1/GPa) = 0.01259167
#
# Stress axis : x y z
#
# Youngs Moduli (GPa) = 87.92354 118.81487 86.42425
#
# Poissons Ratio (x) = 0.56736 0.11937
# Poissons Ratio (y) = 0.41985 0.27900
# Poissons Ratio (z) = 0.12144 0.38356
#
# Static dielectric constant tensor:
#      x y z
#    x 3.457850 0.000000 0.000000 
#    y 0.000000 4.459610 0.000000 
#    z 0.000000 0.000000 3.601080 
# 
# 
# High freq. dielectric constant tensor:
#      x y z
#    x 1.740460 0.000000 0.000000 
#    y 0.000000 1.791540 0.000000 
#    z 0.000000 0.000000 1.771270 
# 
# From -- ./inp_files/2027.got.cif
#   From: 2010.03.12/outbox.cif.g09.slc.cpg/sg49_2_cif.got.tgz:2027.got - 2010.04.14 03:58:27.
