data_PCOD8202094
_publ_section_title
;
Structure prediction by ZEFSAII (Michael W. Deem and Ramdas Pophale) SiO2 
 PCOD8202094
Probable space group: P N N N
;
_chemical_formula_sum "Si O2"
_cell_formula_units_Z 48
_cell_length_a 15.519504
_cell_length_b 8.857771
_cell_length_c 15.223552
_cell_angle_alpha 90.000000
_cell_angle_beta 90.000000
_cell_angle_gamma 90.000000
_cell_volume 2092.754481
_symmetry_space_group_name_H-M "P N N N"
_symmetry_group_IT_number 48
_space_group.IT_coordinate_system_code '2'
_symmetry_cell_setting 'orthorhombic'
loop_
_space_group_symop_operation_xyz
x,y,z
1/2-x,1/2-y,z
x,1/2-y,1/2-z
1/2-x,y,1/2-z
-x,-y,-z
1/2+x,1/2+y,-z
-x,1/2+y,1/2+z
1/2+x,-y,1/2+z
loop_
_atom_site_type_symbol
_atom_site_label
_atom_site_fract_x
_atom_site_fract_y
_atom_site_fract_z
Si Si1 0.478754 0.051373 0.171115
Si Si2 0.250000 0.250000 0.750000
Si Si3 0.750000 0.750000 0.750000
Si Si4 0.666376 0.965190 0.113626
Si Si5 0.406010 0.741956 0.407675
Si Si6 0.250000 0.750000 0.541242
Si Si7 0.113196 0.052386 0.157931
Si Si8 0.422341 0.248763 0.015492
O O1 0.465875 0.089657 0.274258
O O2 0.445090 0.186566 0.111956
O O3 0.577937 0.038075 0.145702
O O4 0.416394 0.911366 0.146605
O O5 0.308803 0.145205 0.808832
O O6 0.802265 0.862619 0.811128
O O7 0.740270 0.095012 0.099071
O O8 0.650461 0.859291 0.027635
O O9 0.335949 0.735377 0.484267
O O10 0.499515 0.771142 0.449669
O O11 0.378352 0.871347 0.339776
O O12 0.105529 0.087039 0.051911
#
# Coordination Sequence:
#
# PCOD8202094 Si02
#       8
#     8   2   2   8   8   4   8   8
#     4  11  22  51  70 101 141 192 237 289 347 431
#     4  12  32  48  72 112 138 184 228 316 354 390
#     4  12  28  42  58 108 152 176 222 304 374 396
#     4  11  27  48  75 100 146 185 236 293 357 417
#     4  11  25  41  72 105 133 186 243 289 347 425
#     4  12  24  45  73 106 140 180 230 294 359 417
#     4  12  27  42  71 101 143 187 234 291 355 429
#     4  11  22  49  71 101 136 193 239 282 348 432
#
# _framework density 22.936278999999999
#
# number of rings (size 3 to 8) (size 9 to 14) (size 15 to 20)
#    0.000    0.667    5.000    2.000   11.667    1.667 
#    3.000    0.000    0.000    0.000    0.000    0.000 
#    0.000    0.000    0.000    0.000    0.000    0.000 
#
# Total GULP energy -594697.498913 kJ/mol
# GULP energy per Si atom -12389.531227 kJ/mol
# Density = 2.288408 g / cm^3
# Si number density = 22.936279 Si / 1000 Ang^3
#
#
#
# Elastic Constant Matrix: (Units=GPa)
#
#
# Indices 1 2 3 4 5 6 
#
# 1 72.9880 29.2472 20.1736 0.0000 0.0000 0.0000
# 2 29.2472 92.9380 28.2440 0.0000 0.0000 0.0000
# 3 20.1736 28.2440 106.8161 0.0000 0.0000 0.0000
# 4 0.0000 0.0000 0.0000 50.9804 0.0000 0.0000
# 5 0.0000 0.0000 0.0000 0.0000 15.8015 0.0000
# 6 0.0000 0.0000 0.0000 0.0000 0.0000 20.2143
#
#
#
# Elastic Compliance Matrix: (Units=1/GPa)
#
#
# Indices 1 2 3 4 5 6 
#
# 1 0.016003 -0.004477 -0.001839 0.000000 0.000000 0.000000
# 2 -0.004477 0.012953 -0.002579 0.000000 0.000000 0.000000
# 3 -0.001839 -0.002579 0.010391 0.000000 0.000000 0.000000
# 4 0.000000 0.000000 0.000000 0.019615 0.000000 0.000000
# 5 0.000000 0.000000 0.000000 0.000000 0.063285 0.000000
# 6 0.000000 0.000000 0.000000 0.000000 0.000000 0.049470
#
#
# Mechanical properties :
#
#
# Convention : Reuss Voigt Hill
#
# Bulk Modulus (GPa) = 46.38950 47.56352 46.97651
# Shear Modulus (GPa) = 25.42025 30.40439 27.91232
#
# Velocity S-wave (km/s) = 3.33272 3.64483 3.49227
# Velocity P-wave (km/s) = 5.92273 6.20446 6.06523
#
# Compressibility (1/GPa) = 0.02155660
#
# Stress axis : x y z
#
# Youngs Moduli (GPa) = 62.48755 77.20379 96.23599
#
# Poissons Ratio (x) = 0.34567 0.17693
# Poissons Ratio (y) = 0.27978 0.24822
# Poissons Ratio (z) = 0.11488 0.19913
#
# Static dielectric constant tensor:
#      x y z
#    x 4.191720 0.000000 0.000000 
#    y 0.000000 4.210770 0.000000 
#    z 0.000000 0.000000 4.236130 
# 
# 
# High freq. dielectric constant tensor:
#      x y z
#    x 1.888190 0.000000 0.000000 
#    y 0.000000 1.930370 0.000000 
#    z 0.000000 0.000000 1.913510 
# 
# From -- ./inp_files/27937.got.cif
#   From: 2010.06.25/outbox.cif.g09.slc.cpg/sg48_14_cif.got.tgz:27937.got - 2010.06.26 18:06:46.
