data_PCOD8202848
_publ_section_title
;
Structure prediction by ZEFSAII (Michael W. Deem and Ramdas Pophale) SiO2 
 PCOD8202848
Probable space group: P C C M
;
_chemical_formula_sum "Si O2"
_cell_formula_units_Z 48
_cell_length_a 13.662260
_cell_length_b 23.846310
_cell_length_c 8.849536
_cell_angle_alpha 90.000000
_cell_angle_beta 90.000000
_cell_angle_gamma 90.000000
_cell_volume 2883.130044
_symmetry_space_group_name_H-M "P C C M"
_symmetry_group_IT_number 49
_symmetry_cell_setting 'orthorhombic'
loop_
_space_group_symop_operation_xyz
x,y,z
-x,-y,z
x,-y,1/2-z
-x,y,1/2-z
-x,-y,-z
x,y,-z
-x,y,1/2+z
x,-y,1/2+z
loop_
_atom_site_type_symbol
_atom_site_label
_atom_site_fract_x
_atom_site_fract_y
_atom_site_fract_z
Si Si1 0.396891 0.774891 0.178494
Si Si2 0.100738 0.273127 0.825331
Si Si3 0.604413 0.443233 0.322167
Si Si4 0.219944 0.832847 0.322851
Si Si5 0.297769 0.328833 0.175725
Si Si6 0.103530 0.057714 0.821845
O O1 0.500000 0.791512 0.250000
O O2 0.319257 0.821550 0.232280
O O3 0.366226 0.712613 0.229502
O O4 0.405614 0.776233 0.000000
O O5 0.137626 0.211941 0.770939
O O6 0.183955 0.318804 0.784410
O O7 0.000000 0.291124 0.750000
O O8 0.078059 0.271748 0.000000
O O9 0.648460 0.500000 0.250000
O O10 0.500000 0.429165 0.250000
O O11 0.591202 0.451573 0.500000
O O12 0.677865 0.392777 0.282961
O O13 0.241768 0.825087 0.500000
O O14 0.182489 0.894728 0.283047
O O15 0.317960 0.315702 0.000000
O O16 0.000000 0.074688 0.750000
O O17 0.142882 0.000000 0.750000
O O18 0.089162 0.050430 0.000000
#
# Coordination Sequence:
#
# PCOD8202848 Si02
#       6
#     8   8   8   8   8   8
#     4  11  21  32  50  73  97 125 157 194 235 282
#     4   9  17  30  47  68  94 122 154 192 233 276
#     4  10  19  31  48  69  94 123 154 191 234 279
#     4   9  19  34  49  68  97 129 159 195 237 279
#     4   9  19  34  49  68  97 128 157 193 235 278
#     4  10  19  31  49  72 100 131 162 199 239 282
#
# _framework density 16.648572000000001
#
# number of rings (size 3 to 8) (size 9 to 14) (size 15 to 20)
#    0.000    2.333    0.000    5.500    0.000    6.667 
#    0.000    0.000    0.000    1.000    0.000    7.000 
#    0.000    0.000    0.000    0.000    0.000    0.000 
#
# Total GULP energy -595215.885845 kJ/mol
# GULP energy per Si atom -12400.330955 kJ/mol
# Density = 1.661068 g / cm^3
# Si number density = 16.648572 Si / 1000 Ang^3
#
#
#
# Elastic Constant Matrix: (Units=GPa)
#
#
# Indices 1 2 3 4 5 6 
#
# 1 123.7805 73.2723 59.0866 0.0000 0.0000 0.0000
# 2 73.2723 135.6581 57.4182 0.0000 0.0000 0.0000
# 3 59.0866 57.4182 96.5591 0.0000 0.0000 0.0000
# 4 0.0000 0.0000 0.0000 -32.2133 0.0000 0.0000
# 5 0.0000 0.0000 0.0000 0.0000 26.8787 0.0000
# 6 0.0000 0.0000 0.0000 0.0000 0.0000 23.1247
#
#
#
# Elastic Compliance Matrix: (Units=1/GPa)
#
#
# Indices 1 2 3 4 5 6 
#
# 1 0.013643 -0.005125 -0.005301 0.000000 0.000000 0.000000
# 2 -0.005125 0.011776 -0.003866 0.000000 0.000000 0.000000
# 3 -0.005301 -0.003866 0.015899 0.000000 0.000000 0.000000
# 4 0.000000 0.000000 0.000000 -0.031043 0.000000 0.000000
# 5 0.000000 0.000000 0.000000 0.000000 0.037204 0.000000
# 6 0.000000 0.000000 0.000000 0.000000 0.000000 0.043244
#
#
# Mechanical properties :
#
#
# Convention : Reuss Voigt Hill
#
# Bulk Modulus (GPa) = 78.53285 81.72798 80.13041
# Shear Modulus (GPa) = 40.46850 14.63939 27.55395
#
# Velocity S-wave (km/s) = 4.93561 2.96855 4.07262
# Velocity P-wave (km/s) = 8.93049 7.80681 8.38749
#
# Compressibility (1/GPa) = 0.01273353
#
# Stress axis : x y z
#
# Youngs Moduli (GPa) = 73.29695 84.91632 62.89673
#
# Poissons Ratio (x) = 0.43523 0.33340
# Poissons Ratio (y) = 0.37568 0.24318
# Poissons Ratio (z) = 0.38853 0.32832
#
# Static dielectric constant tensor:
#      x y z
#    x 3.092410 0.000000 0.000000 
#    y 0.000000 3.177740 0.000000 
#    z 0.000000 0.000000 3.157310 
# 
# 
# High freq. dielectric constant tensor:
#      x y z
#    x 1.630400 0.000000 0.000000 
#    y 0.000000 1.634540 0.000000 
#    z 0.000000 0.000000 1.649260 
# 
# From -- ./inp_files/4153.got.cif
#   From: 2010.03.12/outbox.cif.g09.slc.cpg/sg49_3_cif.got.tgz:4153.got - 2010.04.14 03:58:27.
