data_PCOD8202170
_publ_section_title
;
Structure prediction by ZEFSAII (Michael W. Deem and Ramdas Pophale) SiO2 
 PCOD8202170
Probable space group: P N N N
;
_chemical_formula_sum "Si O2"
_cell_formula_units_Z 26
_cell_length_a 5.302968
_cell_length_b 7.358534
_cell_length_c 30.630331
_cell_angle_alpha 90.000000
_cell_angle_beta 90.000000
_cell_angle_gamma 90.000000
_cell_volume 1195.258930
_symmetry_space_group_name_H-M "P N N N"
_symmetry_group_IT_number 48
_space_group.IT_coordinate_system_code '2'
_symmetry_cell_setting 'orthorhombic'
loop_
_space_group_symop_operation_xyz
x,y,z
1/2-x,1/2-y,z
x,1/2-y,1/2-z
1/2-x,y,1/2-z
-x,-y,-z
1/2+x,1/2+y,-z
-x,1/2+y,1/2+z
1/2+x,-y,1/2+z
loop_
_atom_site_type_symbol
_atom_site_label
_atom_site_fract_x
_atom_site_fract_y
_atom_site_fract_z
Si Si1 0.503020 0.130995 0.040812
Si Si2 0.515788 0.536450 0.365903
Si Si3 0.750000 0.250000 0.750000
Si Si4 0.019006 0.568048 0.329520
O O1 0.750000 0.250000 0.035897
O O2 0.250000 0.250000 0.042975
O O3 0.536114 0.009239 0.083630
O O4 0.500000 0.000000 0.000000
O O5 0.258820 0.449344 0.345781
O O6 0.499705 0.753085 0.359893
O O7 0.757800 0.459715 0.338105
O O8 0.936139 0.374241 0.720766
#
# Coordination Sequence:
#
# PCOD8202170 Si02
#       4
#     8   8   2   8
#     4  12  27  42  64  90 122 169 219 267 312 379
#     4   9  19  34  53  81 118 157 192 244 313 346
#     4   8  16  30  52 102 122 146 204 246 330 334
#     4   9  18  31  60  85 122 157 191 263 287 381
#
# _framework density 21.752609
#
# number of rings (size 3 to 8) (size 9 to 14) (size 15 to 20)
#    0.000    2.462    0.000    2.769    8.615    9.846 
#    0.000    0.000    0.000    0.000    0.000  112.000 
#    0.000    0.000    0.000    0.000    0.000    0.000 
#
# Total GULP energy -322121.154794 kJ/mol
# GULP energy per Si atom -12389.275184 kJ/mol
# Density = 2.170310 g / cm^3
# Si number density = 21.752609 Si / 1000 Ang^3
#
#
#
# Elastic Constant Matrix: (Units=GPa)
#
#
# Indices 1 2 3 4 5 6 
#
# 1 250.7216 25.6031 81.0543 0.0000 0.0000 0.0000
# 2 25.6031 53.1138 50.5995 0.0000 0.0000 0.0000
# 3 81.0543 50.5995 213.7078 0.0000 0.0000 0.0000
# 4 0.0000 0.0000 0.0000 34.0735 0.0000 0.0000
# 5 0.0000 0.0000 0.0000 0.0000 37.1753 0.0000
# 6 0.0000 0.0000 0.0000 0.0000 0.0000 21.0807
#
#
#
# Elastic Compliance Matrix: (Units=1/GPa)
#
#
# Indices 1 2 3 4 5 6 
#
# 1 0.004567 -0.000712 -0.001563 0.000000 0.000000 0.000000
# 2 -0.000712 0.024422 -0.005512 0.000000 0.000000 0.000000
# 3 -0.001563 -0.005512 0.006577 0.000000 0.000000 0.000000
# 4 0.000000 0.000000 0.000000 0.029348 0.000000 0.000000
# 5 0.000000 0.000000 0.000000 0.000000 0.026900 0.000000
# 6 0.000000 0.000000 0.000000 0.000000 0.000000 0.047437
#
#
# Mechanical properties :
#
#
# Convention : Reuss Voigt Hill
#
# Bulk Modulus (GPa) = 50.02323 92.45078 71.23701
# Shear Modulus (GPa) = 30.96167 42.48497 36.72332
#
# Velocity S-wave (km/s) = 3.77683 4.42418 4.11326
# Velocity P-wave (km/s) = 6.48580 8.28801 7.44166
#
# Compressibility (1/GPa) = 0.01999071
#
# Stress axis : x y z
#
# Youngs Moduli (GPa) = 218.98005 40.94647 152.03469
#
# Poissons Ratio (x) = 0.02915 0.23770
# Poissons Ratio (y) = 0.15588 0.83808
# Poissons Ratio (z) = 0.34237 0.22571
#
# Static dielectric constant tensor:
#      x y z
#    x 6.424870 0.000000 0.000000 
#    y 0.000000 2.213660 0.000000 
#    z 0.000000 0.000000 4.149140 
# 
# 
# High freq. dielectric constant tensor:
#      x y z
#    x 1.899090 0.000000 0.000000 
#    y 0.000000 1.806990 0.000000 
#    z 0.000000 0.000000 1.854920 
# 
# From -- ./inp_files/38156.got.cif
#   From: 2010.06.25/outbox.cif.g09.slc.cpg/sg48_20_cif.got.tgz:38156.got - 2010.06.26 18:06:46.
