data_PCOD8202907
_publ_section_title
;
Structure prediction by ZEFSAII (Michael W. Deem and Ramdas Pophale) SiO2 
 PCOD8202907
Probable space group: P C C M
;
_chemical_formula_sum "Si O2"
_cell_formula_units_Z 40
_cell_length_a 21.417238
_cell_length_b 4.996046
_cell_length_c 18.950776
_cell_angle_alpha 90.000000
_cell_angle_beta 90.000000
_cell_angle_gamma 90.000000
_cell_volume 2027.761576
_symmetry_space_group_name_H-M "P C C M"
_symmetry_group_IT_number 49
_symmetry_cell_setting 'orthorhombic'
loop_
_space_group_symop_operation_xyz
x,y,z
-x,-y,z
x,-y,1/2-z
-x,y,1/2-z
-x,-y,-z
x,y,-z
-x,y,1/2+z
x,-y,1/2+z
loop_
_atom_site_type_symbol
_atom_site_label
_atom_site_fract_x
_atom_site_fract_y
_atom_site_fract_z
Si Si1 0.152423 0.989052 0.831910
Si Si2 0.352338 0.477139 0.581257
Si Si3 0.041543 0.253258 0.422659
Si Si4 0.568654 0.006919 0.418773
Si Si5 0.769456 0.497206 0.667546
O O1 0.094458 0.854940 0.870958
O O2 0.209980 0.796895 0.850818
O O3 0.134316 0.000000 0.750000
O O4 0.175076 0.287104 0.854006
O O5 0.331533 0.442109 0.500000
O O6 0.405286 0.698270 0.590087
O O7 0.292304 0.570827 0.624601
O O8 0.382651 0.207308 0.614076
O O9 0.068295 0.344443 0.500000
O O10 0.000000 0.500000 0.390371
O O11 0.000000 0.000000 0.436172
O O12 0.561095 0.919300 0.500000
O O13 0.500000 0.000000 0.382576
O O14 0.753913 0.500000 0.750000
#
# Coordination Sequence:
#
# PCOD8202907 Si02
#       5
#     8   8   8   8   8
#     4  10  21  37  55  77 104 139 179 213 254 311
#     4  10  19  31  51  77 100 130 174 214 255 311
#     4  10  21  37  57  82 111 140 171 214 268 317
#     4   9  17  30  49  74 103 132 166 213 262 307
#     4  10  21  36  53  74 105 139 171 214 263 306
#
# _framework density 19.726186999999999
#
# number of rings (size 3 to 8) (size 9 to 14) (size 15 to 20)
#    0.000    2.200    0.000    3.000    0.000    4.400 
#    0.000    1.000    0.000    3.600    0.000    0.000 
#    0.000    0.000    0.000    0.000    0.000    0.000 
#
# Total GULP energy -495693.753518 kJ/mol
# GULP energy per Si atom -12392.343838 kJ/mol
# Density = 1.968129 g / cm^3
# Si number density = 19.726187 Si / 1000 Ang^3
#
#
#
# Elastic Constant Matrix: (Units=GPa)
#
#
# Indices 1 2 3 4 5 6 
#
# 1 113.1911 27.3374 54.4867 0.0000 0.0000 0.0000
# 2 27.3374 105.4994 28.7845 0.0000 0.0000 0.0000
# 3 54.4867 28.7845 54.3521 0.0000 0.0000 0.0000
# 4 0.0000 0.0000 0.0000 18.5132 0.0000 0.0000
# 5 0.0000 0.0000 0.0000 0.0000 84.1540 0.0000
# 6 0.0000 0.0000 0.0000 0.0000 0.0000 38.0628
#
#
#
# Elastic Compliance Matrix: (Units=1/GPa)
#
#
# Indices 1 2 3 4 5 6 
#
# 1 0.017081 0.000287 -0.017276 0.000000 0.000000 0.000000
# 2 0.000287 0.011085 -0.006158 0.000000 0.000000 0.000000
# 3 -0.017276 -0.006158 0.038978 0.000000 0.000000 0.000000
# 4 0.000000 0.000000 0.000000 0.054016 0.000000 0.000000
# 5 0.000000 0.000000 0.000000 0.000000 0.011883 0.000000
# 6 0.000000 0.000000 0.000000 0.000000 0.000000 0.026272
#
#
# Mechanical properties :
#
#
# Convention : Reuss Voigt Hill
#
# Bulk Modulus (GPa) = 47.95981 54.91776 51.43878
# Shear Modulus (GPa) = 23.52293 38.97493 31.24893
#
# Velocity S-wave (km/s) = 3.45697 4.44982 3.98444
# Velocity P-wave (km/s) = 6.34820 7.36896 6.87755
#
# Compressibility (1/GPa) = 0.02085079
#
# Stress axis : x y z
#
# Youngs Moduli (GPa) = 58.54402 90.21596 25.65523
#
# Poissons Ratio (x) = -0.02593 0.44321
# Poissons Ratio (y) = -0.01682 0.15799
# Poissons Ratio (z) = 1.01139 0.55558
#
# Static dielectric constant tensor:
#      x y z
#    x 3.381220 0.000000 0.000000 
#    y 0.000000 3.903210 0.000000 
#    z 0.000000 0.000000 3.420470 
# 
# 
# High freq. dielectric constant tensor:
#      x y z
#    x 1.768080 0.000000 0.000000 
#    y 0.000000 1.792710 0.000000 
#    z 0.000000 0.000000 1.731140 
# 
# From -- ./inp_files/15275.got.cif
#   From: 2010.03.12/outbox.cif.g09.slc.cpg/sg49_8_cif.got.tgz:15275.got - 2010.04.14 03:58:27.
