data_PCOD8202398
_publ_section_title
;
Structure prediction by ZEFSAII (Michael W. Deem and Ramdas Pophale) SiO2 
 PCOD8202398
Probable space group: P C C M
;
_chemical_formula_sum "Si O2"
_cell_formula_units_Z 48
_cell_length_a 9.141812
_cell_length_b 31.242705
_cell_length_c 8.521552
_cell_angle_alpha 90.000000
_cell_angle_beta 90.000000
_cell_angle_gamma 90.000000
_cell_volume 2433.882525
_symmetry_space_group_name_H-M "P C C M"
_symmetry_group_IT_number 49
_symmetry_cell_setting 'orthorhombic'
loop_
_space_group_symop_operation_xyz
x,y,z
-x,-y,z
x,-y,1/2-z
-x,y,1/2-z
-x,-y,-z
x,y,-z
-x,y,1/2+z
x,-y,1/2+z
loop_
_atom_site_type_symbol
_atom_site_label
_atom_site_fract_x
_atom_site_fract_y
_atom_site_fract_z
Si Si1 0.336685 0.636003 0.315065
Si Si2 0.339046 0.208737 0.184756
Si Si3 0.162049 0.713025 0.184876
Si Si4 0.838418 0.869546 0.315522
Si Si5 0.836544 0.042963 0.314829
Si Si6 0.339406 0.541567 0.681098
O O1 0.500000 0.640814 0.250000
O O2 0.336749 0.646856 0.500000
O O3 0.231781 0.667128 0.219501
O O4 0.270478 0.588268 0.283284
O O5 0.500000 0.215220 0.250000
O O6 0.251072 0.251411 0.221775
O O7 0.266491 0.168949 0.271495
O O8 0.341209 0.200235 0.000000
O O9 0.000000 0.713539 0.250000
O O10 0.164064 0.722708 0.000000
O O11 0.851228 0.874320 0.500000
O O12 0.764493 0.912998 0.246302
O O13 0.000000 0.860617 0.250000
O O14 0.835312 0.041905 0.500000
O O15 0.000000 0.043197 0.250000
O O16 0.755753 0.000000 0.250000
O O17 0.251616 0.500000 0.750000
O O18 0.500000 0.542195 0.750000
O O19 0.351865 0.533545 0.500000
#
# Coordination Sequence:
#
# PCOD8202398 Si02
#       6
#     8   8   8   8   8   8
#     4  10  20  35  55  83 115 150 188 231 278 330
#     4  12  25  43  63  86 114 147 185 229 278 334
#     4  12  25  42  62  85 112 146 184 229 279 334
#     4  11  21  36  57  85 117 152 191 235 282 333
#     4  10  17  28  47  76 111 149 189 234 281 329
#     4   9  16  26  45  73 108 144 183 226 272 320
#
# _framework density 19.721575999999999
#
# number of rings (size 3 to 8) (size 9 to 14) (size 15 to 20)
#    0.000    1.333    0.000   10.000    0.000    2.000 
#    0.000    0.000    0.000    1.000    0.000    7.000 
#    0.000    0.000    0.000    0.000    0.000    0.000 
#
# Total GULP energy -595035.157617 kJ/mol
# GULP energy per Si atom -12396.565784 kJ/mol
# Density = 1.967669 g / cm^3
# Si number density = 19.721576 Si / 1000 Ang^3
#
#
#
# Elastic Constant Matrix: (Units=GPa)
#
#
# Indices 1 2 3 4 5 6 
#
# 1 80.1836 41.9604 19.4941 0.0000 0.0000 0.0000
# 2 41.9604 152.6147 36.5162 0.0000 0.0000 0.0000
# 3 19.4941 36.5162 138.9274 0.0000 0.0000 0.0000
# 4 0.0000 0.0000 0.0000 41.4340 0.0000 0.0000
# 5 0.0000 0.0000 0.0000 0.0000 25.3541 0.0000
# 6 0.0000 0.0000 0.0000 0.0000 0.0000 22.9835
#
#
#
# Elastic Compliance Matrix: (Units=1/GPa)
#
#
# Indices 1 2 3 4 5 6 
#
# 1 0.014714 -0.003790 -0.001069 0.000000 0.000000 0.000000
# 2 -0.003790 0.007968 -0.001563 0.000000 0.000000 0.000000
# 3 -0.001069 -0.001563 0.007759 0.000000 0.000000 0.000000
# 4 0.000000 0.000000 0.000000 0.024135 0.000000 0.000000
# 5 0.000000 0.000000 0.000000 0.000000 0.039441 0.000000
# 6 0.000000 0.000000 0.000000 0.000000 0.000000 0.043510
#
#
# Mechanical properties :
#
#
# Convention : Reuss Voigt Hill
#
# Bulk Modulus (GPa) = 56.82073 63.07410 59.94742
# Shear Modulus (GPa) = 32.00291 36.20465 34.10378
#
# Velocity S-wave (km/s) = 4.03269 4.28926 4.16295
# Velocity P-wave (km/s) = 7.11038 7.52210 7.31914
#
# Compressibility (1/GPa) = 0.01759921
#
# Stress axis : x y z
#
# Youngs Moduli (GPa) = 67.96038 125.49620 128.88807
#
# Poissons Ratio (x) = 0.47563 0.13772
# Poissons Ratio (y) = 0.25757 0.20140
# Poissons Ratio (z) = 0.07262 0.19610
#
# Static dielectric constant tensor:
#      x y z
#    x 3.098520 0.000000 0.000000 
#    y 0.000000 4.984780 0.000000 
#    z 0.000000 0.000000 3.744930 
# 
# 
# High freq. dielectric constant tensor:
#      x y z
#    x 1.716870 0.000000 0.000000 
#    y 0.000000 1.803230 0.000000 
#    z 0.000000 0.000000 1.793480 
# 
# From -- ./inp_files/2077.got.cif
#   From: 2010.03.12/outbox.cif.g09.slc.cpg/sg49_2_cif.got.tgz:2077.got - 2010.04.14 03:58:27.
