data_PCOD8202016
_publ_section_title
;
Structure prediction by ZEFSAII (Michael W. Deem and Ramdas Pophale) SiO2 
 PCOD8202016
Probable space group: P N N N
;
_chemical_formula_sum "Si O2"
_cell_formula_units_Z 64
_cell_length_a 21.047090
_cell_length_b 19.744263
_cell_length_c 8.798325
_cell_angle_alpha 90.000000
_cell_angle_beta 90.000000
_cell_angle_gamma 90.000000
_cell_volume 3656.225605
_symmetry_space_group_name_H-M "P N N N"
_symmetry_group_IT_number 48
_space_group.IT_coordinate_system_code '2'
_symmetry_cell_setting 'orthorhombic'
loop_
_space_group_symop_operation_xyz
x,y,z
1/2-x,1/2-y,z
x,1/2-y,1/2-z
1/2-x,y,1/2-z
-x,-y,-z
1/2+x,1/2+y,-z
-x,1/2+y,1/2+z
1/2+x,-y,1/2+z
loop_
_atom_site_type_symbol
_atom_site_label
_atom_site_fract_x
_atom_site_fract_y
_atom_site_fract_z
Si Si1 0.680283 0.461206 0.430925
Si Si2 0.626405 0.323203 0.430488
Si Si3 0.981489 0.826234 0.572597
Si Si4 0.819717 0.038794 0.069075
Si Si5 0.941671 0.541172 0.429626
Si Si6 0.518511 0.673766 0.927403
Si Si7 0.058329 0.458828 0.929626
Si Si8 0.626405 0.323203 0.069512
O O1 0.668345 0.384937 0.494403
O O2 0.678847 0.459675 0.250000
O O3 0.750000 0.485110 0.488920
O O4 0.625035 0.510629 0.490776
O O5 0.553916 0.334048 0.481944
O O6 0.628484 0.322025 0.250000
O O7 0.651239 0.250000 0.492022
O O8 0.974947 0.842951 0.750000
O O9 0.956879 0.750000 0.538084
O O10 0.940686 0.880346 0.478325
O O11 0.831655 0.115063 0.005597
O O12 0.874965 0.989371 0.009224
O O13 0.940686 0.619654 0.478325
O O14 0.946777 0.534279 0.250000
O O15 0.000000 0.500000 0.500000
O O16 0.446084 0.665952 0.981944
O O17 0.000000 0.500000 0.000000
#
# Coordination Sequence:
#
# PCOD8202016 Si02
#       8
#     8   8   8   8   8   8   8   8
#     4   9  17  28  43  67  98 129 162 202 243 282
#     4   8  13  23  41  66  95 124 154 189 231 280
#     4   9  17  31  51  74  99 125 159 205 251 290
#     4   9  17  28  43  67  98 129 162 202 243 282
#     4  11  20  31  50  74 100 130 166 204 243 290
#     4   9  17  31  51  74  99 125 159 205 251 290
#     4  11  20  31  50  74 100 130 166 204 243 290
#     4   8  13  23  41  66  95 124 154 189 231 280
#
# _framework density 17.504390999999998
#
# number of rings (size 3 to 8) (size 9 to 14) (size 15 to 20)
#    0.000    2.750    2.500    2.250    0.000    1.000 
#    0.000    2.500    0.000    3.750    0.000    5.250 
#    0.000    4.000    0.000    0.000    0.000    0.000 
#
# Total GULP energy -793070.493608 kJ/mol
# GULP energy per Si atom -12391.726463 kJ/mol
# Density = 1.746455 g / cm^3
# Si number density = 17.504391 Si / 1000 Ang^3
#
#
#
# Elastic Constant Matrix: (Units=GPa)
#
#
# Indices 1 2 3 4 5 6 
#
# 1 129.2675 73.9825 22.9106 0.0000 0.0000 0.0000
# 2 73.9825 127.4354 24.6728 0.0000 0.0000 0.0000
# 3 22.9106 24.6728 29.6416 0.0000 0.0000 0.0000
# 4 0.0000 0.0000 0.0000 26.4033 0.0000 0.0000
# 5 0.0000 0.0000 0.0000 0.0000 14.9967 0.0000
# 6 0.0000 0.0000 0.0000 0.0000 0.0000 26.2266
#
#
#
# Elastic Compliance Matrix: (Units=1/GPa)
#
#
# Indices 1 2 3 4 5 6 
#
# 1 0.011997 -0.006163 -0.004143 0.000000 0.000000 0.000000
# 2 -0.006163 0.012520 -0.005658 0.000000 0.000000 0.000000
# 3 -0.004143 -0.005658 0.041648 0.000000 0.000000 0.000000
# 4 0.000000 0.000000 0.000000 0.037874 0.000000 0.000000
# 5 0.000000 0.000000 0.000000 0.000000 0.066681 0.000000
# 6 0.000000 0.000000 0.000000 0.000000 0.000000 0.038129
#
#
# Mechanical properties :
#
#
# Convention : Reuss Voigt Hill
#
# Bulk Modulus (GPa) = 29.20763 58.83071 44.01917
# Shear Modulus (GPa) = 19.82614 24.51055 22.16834
#
# Velocity S-wave (km/s) = 3.36912 3.74605 3.56257
# Velocity P-wave (km/s) = 5.64418 7.23827 6.49035
#
# Compressibility (1/GPa) = 0.03423763
#
# Stress axis : x y z
#
# Youngs Moduli (GPa) = 83.35154 79.86912 24.01049
#
# Poissons Ratio (x) = 0.49223 0.09948
# Poissons Ratio (y) = 0.51369 0.13586
# Poissons Ratio (z) = 0.34534 0.45192
#
# Static dielectric constant tensor:
#      x y z
#    x 3.314300 0.000000 0.000000 
#    y 0.000000 3.635640 0.000000 
#    z 0.000000 0.000000 2.788800 
# 
# 
# High freq. dielectric constant tensor:
#      x y z
#    x 1.653900 0.000000 0.000000 
#    y 0.000000 1.688130 0.000000 
#    z 0.000000 0.000000 1.627050 
# 
# From -- ./inp_files/14581.got.cif
#   From: 2010.06.25/outbox.cif.g09.slc.cpg/sg48_8_cif.got.tgz:14581.got - 2010.06.26 18:06:46.
