data_PCOD8202484
_publ_section_title
;
Structure prediction by ZEFSAII (Michael W. Deem and Ramdas Pophale) SiO2 
 PCOD8202484
Probable space group: P C C M
;
_chemical_formula_sum "Si O2"
_cell_formula_units_Z 52
_cell_length_a 11.873635
_cell_length_b 9.689092
_cell_length_c 27.314496
_cell_angle_alpha 90.000000
_cell_angle_beta 90.000000
_cell_angle_gamma 90.000000
_cell_volume 3142.389142
_symmetry_space_group_name_H-M "P C C M"
_symmetry_group_IT_number 49
_symmetry_cell_setting 'orthorhombic'
loop_
_space_group_symop_operation_xyz
x,y,z
-x,-y,z
x,-y,1/2-z
-x,y,1/2-z
-x,-y,-z
x,y,-z
-x,y,1/2+z
x,-y,1/2+z
loop_
_atom_site_type_symbol
_atom_site_label
_atom_site_fract_x
_atom_site_fract_y
_atom_site_fract_z
Si Si1 0.872774 0.985695 0.129876
Si Si2 0.864019 0.235895 0.199834
Si Si3 0.115590 0.724078 0.310344
Si Si4 0.500000 0.500000 0.876425
Si Si5 0.711718 0.516282 0.306336
Si Si6 0.495206 0.769860 0.556895
Si Si7 0.677730 0.001794 0.943641
O O1 0.850150 0.089056 0.174494
O O2 0.847049 0.832390 0.148572
O O3 0.793024 0.019303 0.084955
O O4 0.000000 0.000000 0.110692
O O5 0.858709 0.209484 0.257666
O O6 0.760348 0.331816 0.183553
O O7 0.982403 0.308533 0.185294
O O8 0.186306 0.586482 0.318605
O O9 0.391632 0.490026 0.842044
O O10 0.502483 0.365602 0.910247
O O11 0.672100 0.500000 0.250000
O O12 0.485814 0.726637 0.500000
O O13 0.388824 0.863783 0.572658
O O14 0.605781 0.860990 0.565926
O O15 0.709463 0.988834 0.000000
#
# Coordination Sequence:
#
# PCOD8202484 Si02
#       7
#     8   8   8   4   8   8   8
#     4  10  18  28  46  72  95 115 145 184 225 264
#     4   9  17  30  47  66  90 121 155 186 213 250
#     4   9  17  30  47  66  90 121 155 186 213 250
#     4  12  20  30  48  70  94 114 144 190 232 262
#     4  10  20  31  44  65  94 125 151 177 219 270
#     4   9  19  34  52  68  84 113 153 191 222 261
#     4   9  18  34  50  66  90 118 147 180 224 273
#
# _framework density 16.547919
#
# number of rings (size 3 to 8) (size 9 to 14) (size 15 to 20)
#    0.000    2.462    0.000    4.154    0.000    4.000 
#    0.000    0.000    0.000    0.000    0.000   12.923 
#    0.000   22.154    0.000    0.000    0.000    0.000 
#
# Total GULP energy -644741.665366 kJ/mol
# GULP energy per Si atom -12398.878180 kJ/mol
# Density = 1.651025 g / cm^3
# Si number density = 16.547919 Si / 1000 Ang^3
#
#
#
# Elastic Constant Matrix: (Units=GPa)
#
#
# Indices 1 2 3 4 5 6 
#
# 1 78.7993 24.4924 48.2969 0.0000 0.0000 0.0000
# 2 24.4924 67.8315 34.1734 0.0000 0.0000 0.0000
# 3 48.2969 34.1734 69.1031 0.0000 0.0000 0.0000
# 4 0.0000 0.0000 0.0000 24.2938 0.0000 0.0000
# 5 0.0000 0.0000 0.0000 0.0000 31.3005 0.0000
# 6 0.0000 0.0000 0.0000 0.0000 0.0000 16.2698
#
#
#
# Elastic Compliance Matrix: (Units=1/GPa)
#
#
# Indices 1 2 3 4 5 6 
#
# 1 0.022204 -0.000265 -0.015388 0.000000 0.000000 0.000000
# 2 -0.000265 0.019637 -0.009526 0.000000 0.000000 0.000000
# 3 -0.015388 -0.009526 0.029936 0.000000 0.000000 0.000000
# 4 0.000000 0.000000 0.000000 0.041163 0.000000 0.000000
# 5 0.000000 0.000000 0.000000 0.000000 0.031948 0.000000
# 6 0.000000 0.000000 0.000000 0.000000 0.000000 0.061464
#
#
# Mechanical properties :
#
#
# Convention : Reuss Voigt Hill
#
# Bulk Modulus (GPa) = 46.68385 47.73992 47.21188
# Shear Modulus (GPa) = 18.95016 21.62422 20.28719
#
# Velocity S-wave (km/s) = 3.38771 3.61884 3.50518
# Velocity P-wave (km/s) = 6.60111 6.80981 6.70627
#
# Compressibility (1/GPa) = 0.02142069
#
# Stress axis : x y z
#
# Youngs Moduli (GPa) = 45.03676 50.92361 33.40412
#
# Poissons Ratio (x) = 0.01350 0.51401
# Poissons Ratio (y) = 0.01194 0.31820
# Poissons Ratio (z) = 0.69300 0.48509
#
# Static dielectric constant tensor:
#      x y z
#    x 3.102500 0.000000 0.000000 
#    y 0.000000 3.077530 0.000000 
#    z 0.000000 0.000000 2.971130 
# 
# 
# High freq. dielectric constant tensor:
#      x y z
#    x 1.636240 0.000000 0.000000 
#    y 0.000000 1.642070 0.000000 
#    z 0.000000 0.000000 1.627230 
# 
# From -- ./inp_files/24800.got.cif
#   From: 2010.03.12/outbox.cif.g09.slc.cpg/sg49_13_cif.got.tgz:24800.got - 2010.04.14 03:58:27.
