data_PCOD8202407
_publ_section_title
;
Structure prediction by ZEFSAII (Michael W. Deem and Ramdas Pophale) SiO2 
 PCOD8202407
Probable space group: P C C M
;
_chemical_formula_sum "Si O2"
_cell_formula_units_Z 56
_cell_length_a 13.851439
_cell_length_b 23.307849
_cell_length_c 8.776269
_cell_angle_alpha 90.000000
_cell_angle_beta 90.000000
_cell_angle_gamma 90.000000
_cell_volume 2833.394300
_symmetry_space_group_name_H-M "P C C M"
_symmetry_group_IT_number 49
_symmetry_cell_setting 'orthorhombic'
loop_
_space_group_symop_operation_xyz
x,y,z
-x,-y,z
x,-y,1/2-z
-x,y,1/2-z
-x,-y,-z
x,y,-z
-x,y,1/2+z
x,-y,1/2+z
loop_
_atom_site_type_symbol
_atom_site_label
_atom_site_fract_x
_atom_site_fract_y
_atom_site_fract_z
Si Si1 0.905245 0.936526 0.319015
Si Si2 0.286406 0.939580 0.675723
Si Si3 0.276147 0.267153 0.678317
Si Si4 0.604525 0.378928 0.178628
Si Si5 0.104331 0.670208 0.320709
Si Si6 0.222389 0.559114 0.320437
Si Si7 0.398204 0.828199 0.324849
O O1 0.910999 0.936586 0.500000
O O2 0.805025 0.909342 0.260516
O O3 0.000000 0.904375 0.250000
O O4 0.903298 0.000000 0.250000
O O5 0.259235 0.950628 0.500000
O O6 0.375075 0.895714 0.692240
O O7 0.317266 0.000000 0.750000
O O8 0.257988 0.261614 0.500000
O O9 0.353903 0.316255 0.717733
O O10 0.174095 0.280476 0.756753
O O11 0.314851 0.207505 0.742694
O O12 0.500000 0.384935 0.250000
O O13 0.672938 0.427107 0.251158
O O14 0.598538 0.389915 0.000000
O O15 0.097323 0.677182 0.500000
O O16 0.145930 0.608043 0.273716
O O17 0.000000 0.678503 0.250000
O O18 0.183204 0.500000 0.250000
O O19 0.232561 0.553414 0.500000
O O20 0.500000 0.814421 0.250000
O O21 0.402894 0.809345 0.500000
#
# Coordination Sequence:
#
# PCOD8202407 Si02
#       7
#     8   8   8   8   8   8   8
#     4  10  17  28  49  75 104 138 175 216 260 311
#     4  10  21  37  56  81 113 149 188 231 277 330
#     4  10  21  38  61  86 113 144 183 232 284 338
#     4  10  20  34  54  80 109 144 186 233 284 338
#     4  10  21  38  61  87 117 152 190 233 283 336
#     4  10  21  36  54  79 113 152 193 238 282 331
#     4  11  24  40  60  85 114 147 186 231 280 336
#
# _framework density 19.764281
#
# number of rings (size 3 to 8) (size 9 to 14) (size 15 to 20)
#    0.000    1.857    0.000    5.571    0.000    7.714 
#    0.000    5.000    0.000    3.429    0.000    0.000 
#    0.000    0.000    0.000    0.000    0.000    0.000 
#
# Total GULP energy -694519.048602 kJ/mol
# GULP energy per Si atom -12402.125868 kJ/mol
# Density = 1.971930 g / cm^3
# Si number density = 19.764281 Si / 1000 Ang^3
#
#
#
# Elastic Constant Matrix: (Units=GPa)
#
#
# Indices 1 2 3 4 5 6 
#
# 1 141.0871 43.3730 55.3855 0.0000 0.0000 0.0000
# 2 43.3730 85.1242 40.4536 0.0000 0.0000 0.0000
# 3 55.3855 40.4536 124.5831 0.0000 0.0000 0.0000
# 4 0.0000 0.0000 0.0000 27.7753 0.0000 0.0000
# 5 0.0000 0.0000 0.0000 0.0000 32.2289 0.0000
# 6 0.0000 0.0000 0.0000 0.0000 0.0000 23.9048
#
#
#
# Elastic Compliance Matrix: (Units=1/GPa)
#
#
# Indices 1 2 3 4 5 6 
#
# 1 0.009301 -0.003280 -0.003070 0.000000 0.000000 0.000000
# 2 -0.003280 0.015048 -0.003428 0.000000 0.000000 0.000000
# 3 -0.003070 -0.003428 0.010505 0.000000 0.000000 0.000000
# 4 0.000000 0.000000 0.000000 0.036003 0.000000 0.000000
# 5 0.000000 0.000000 0.000000 0.000000 0.031028 0.000000
# 6 0.000000 0.000000 0.000000 0.000000 0.000000 0.041833
#
#
# Mechanical properties :
#
#
# Convention : Reuss Voigt Hill
#
# Bulk Modulus (GPa) = 65.36962 69.91319 67.64140
# Shear Modulus (GPa) = 29.69586 30.88729 30.29158
#
# Velocity S-wave (km/s) = 3.88042 3.95749 3.91914
# Velocity P-wave (km/s) = 7.29543 7.50551 7.40121
#
# Compressibility (1/GPa) = 0.01529763
#
# Stress axis : x y z
#
# Youngs Moduli (GPa) = 107.51048 66.45381 95.19599
#
# Poissons Ratio (x) = 0.21799 0.29224
# Poissons Ratio (y) = 0.35268 0.32632
# Poissons Ratio (z) = 0.33005 0.22780
#
# Static dielectric constant tensor:
#      x y z
#    x 3.932750 0.000000 0.000000 
#    y 0.000000 3.459680 0.000000 
#    z 0.000000 0.000000 3.732030 
# 
# 
# High freq. dielectric constant tensor:
#      x y z
#    x 1.775300 0.000000 0.000000 
#    y 0.000000 1.750560 0.000000 
#    z 0.000000 0.000000 1.789680 
# 
# From -- ./inp_files/4082.got.cif
#   From: 2010.03.12/outbox.cif.g09.slc.cpg/sg49_3_cif.got.tgz:4082.got - 2010.04.14 03:58:27.
