data_PCOD8202881
_publ_section_title
;
Structure prediction by ZEFSAII (Michael W. Deem and Ramdas Pophale) SiO2 
 PCOD8202881
Probable space group: P C C M
;
_chemical_formula_sum "Si O2"
_cell_formula_units_Z 42
_cell_length_a 19.682629
_cell_length_b 13.618606
_cell_length_c 9.038968
_cell_angle_alpha 90.000000
_cell_angle_beta 90.000000
_cell_angle_gamma 90.000000
_cell_volume 2422.895096
_symmetry_space_group_name_H-M "P C C M"
_symmetry_group_IT_number 49
_symmetry_cell_setting 'orthorhombic'
loop_
_space_group_symop_operation_xyz
x,y,z
-x,-y,z
x,-y,1/2-z
-x,y,1/2-z
-x,-y,-z
x,y,-z
-x,y,1/2+z
x,-y,1/2+z
loop_
_atom_site_type_symbol
_atom_site_label
_atom_site_fract_x
_atom_site_fract_y
_atom_site_fract_z
Si Si1 0.428653 0.708331 0.827542
Si Si2 0.692136 0.599167 0.827206
Si Si3 0.653041 0.099275 0.828002
Si Si4 0.130502 0.092006 0.664569
Si Si5 0.226994 0.209682 0.171654
Si Si6 0.000000 0.000000 0.750000
O O1 0.500000 0.691923 0.750000
O O2 0.376412 0.634461 0.750767
O O3 0.405855 0.820521 0.804172
O O4 0.433581 0.681341 0.000000
O O5 0.717726 0.500000 0.750000
O O6 0.752284 0.677713 0.802703
O O7 0.677552 0.582444 0.000000
O O8 0.721822 0.136541 0.753425
O O9 0.627617 0.000000 0.750000
O O10 0.666761 0.079784 0.000000
O O11 0.159630 0.099951 0.500000
O O12 0.152638 0.189826 0.755492
O O13 0.165135 0.000000 0.750000
O O14 0.048734 0.073659 0.656685
O O15 0.225452 0.182813 0.000000
#
# Coordination Sequence:
#
# PCOD8202881 Si02
#       6
#     8   8   8   8   8   2
#     4  10  21  36  53  73  98 129 166 210 258 312
#     4  10  21  37  56  77 100 127 163 212 261 310
#     4  10  20  33  49  70  98 132 170 209 251 298
#     4  10  19  31  49  73 107 143 175 206 240 285
#     4  10  20  33  51  74 101 133 169 208 252 298
#     4   8  22  32  50  76 112 148 180 204 242 276
#
# _framework density 17.334634000000001
#
# number of rings (size 3 to 8) (size 9 to 14) (size 15 to 20)
#    0.571    1.524    0.000    3.714    0.000    5.333 
#    0.000    3.810    0.000    0.000    0.000    0.667 
#    0.000    4.571    0.000    0.000    0.000    0.000 
#
# Total GULP energy -520612.534030 kJ/mol
# GULP energy per Si atom -12395.536525 kJ/mol
# Density = 1.729518 g / cm^3
# Si number density = 17.334634 Si / 1000 Ang^3
#
#
#
# Elastic Constant Matrix: (Units=GPa)
#
#
# Indices 1 2 3 4 5 6 
#
# 1 86.5042 40.4225 49.5627 0.0000 0.0000 0.0000
# 2 40.4225 101.4662 67.8492 0.0000 0.0000 0.0000
# 3 49.5627 67.8492 154.3154 0.0000 0.0000 0.0000
# 4 0.0000 0.0000 0.0000 32.2506 0.0000 0.0000
# 5 0.0000 0.0000 0.0000 0.0000 24.3077 0.0000
# 6 0.0000 0.0000 0.0000 0.0000 0.0000 20.3206
#
#
#
# Elastic Compliance Matrix: (Units=1/GPa)
#
#
# Indices 1 2 3 4 5 6 
#
# 1 0.015211 -0.003956 -0.003146 0.000000 0.000000 0.000000
# 2 -0.003956 0.014989 -0.005320 0.000000 0.000000 0.000000
# 3 -0.003146 -0.005320 0.009830 0.000000 0.000000 0.000000
# 4 0.000000 0.000000 0.000000 0.031007 0.000000 0.000000
# 5 0.000000 0.000000 0.000000 0.000000 0.041139 0.000000
# 6 0.000000 0.000000 0.000000 0.000000 0.000000 0.049211
#
#
# Mechanical properties :
#
#
# Convention : Reuss Voigt Hill
#
# Bulk Modulus (GPa) = 65.85040 73.10606 69.47823
# Shear Modulus (GPa) = 26.13791 27.67254 26.90522
#
# Velocity S-wave (km/s) = 3.88731 3.99980 3.94395
# Velocity P-wave (km/s) = 7.63010 7.97472 7.80431
#
# Compressibility (1/GPa) = 0.01518594
#
# Stress axis : x y z
#
# Youngs Moduli (GPa) = 65.74028 66.71679 101.73357
#
# Poissons Ratio (x) = 0.26395 0.32006
# Poissons Ratio (y) = 0.26008 0.54118
# Poissons Ratio (z) = 0.20683 0.35491
#
# Static dielectric constant tensor:
#      x y z
#    x 3.029740 0.000000 0.000000 
#    y 0.000000 3.188860 0.000000 
#    z 0.000000 0.000000 3.363540 
# 
# 
# High freq. dielectric constant tensor:
#      x y z
#    x 1.647500 0.000000 0.000000 
#    y 0.000000 1.654820 0.000000 
#    z 0.000000 0.000000 1.691640 
# 
# From -- ./inp_files/6302.got.cif
#   From: 2010.03.12/outbox.cif.g09.slc.cpg/sg49_4_cif.got.tgz:6302.got - 2010.04.14 03:58:27.
