data_PCOD8202073
_publ_section_title
;
Structure prediction by ZEFSAII (Michael W. Deem and Ramdas Pophale) SiO2 
 PCOD8202073
Probable space group: P N N N
;
_chemical_formula_sum "Si O2"
_cell_formula_units_Z 56
_cell_length_a 5.415186
_cell_length_b 29.271691
_cell_length_c 16.261786
_cell_angle_alpha 90.000000
_cell_angle_beta 90.000000
_cell_angle_gamma 90.000000
_cell_volume 2577.682552
_symmetry_space_group_name_H-M "P N N N"
_symmetry_group_IT_number 48
_space_group.IT_coordinate_system_code '2'
_symmetry_cell_setting 'orthorhombic'
loop_
_space_group_symop_operation_xyz
x,y,z
1/2-x,1/2-y,z
x,1/2-y,1/2-z
1/2-x,y,1/2-z
-x,-y,-z
1/2+x,1/2+y,-z
-x,1/2+y,1/2+z
1/2+x,-y,1/2+z
loop_
_atom_site_type_symbol
_atom_site_label
_atom_site_fract_x
_atom_site_fract_y
_atom_site_fract_z
Si Si1 0.922375 0.493315 0.181379
Si Si2 0.690852 0.614643 0.539499
Si Si3 0.372638 0.919774 0.100320
Si Si4 0.993250 0.604601 0.791270
Si Si5 0.081295 0.545579 0.542283
Si Si6 0.720048 0.324417 0.657662
Si Si7 0.280829 0.301053 0.938065
O O1 0.750000 0.517732 0.250000
O O2 0.785360 0.468900 0.106383
O O3 0.107266 0.532318 0.149245
O O4 0.049381 0.449985 0.224134
O O5 0.618807 0.592083 0.451449
O O6 0.485669 0.619145 0.611588
O O7 0.788314 0.665062 0.516655
O O8 0.875357 0.578007 0.583734
O O9 0.288593 0.879673 0.161102
O O10 0.168057 0.921869 0.030774
O O11 0.750000 0.628267 0.750000
O O12 0.250000 0.621222 0.750000
O O13 0.000000 0.500000 0.500000
O O14 0.750000 0.305813 0.750000
O O15 0.458690 0.308731 0.619945
O O16 0.958227 0.306075 0.608900
O O17 0.250000 0.250000 0.972930
#
# Coordination Sequence:
#
# PCOD8202073 Si02
#       7
#     8   8   8   8   8   8   8
#     4  11  23  38  57  91 128 173 223 270 318 380
#     4  11  22  41  65  89 126 170 217 268 326 396
#     4  11  23  38  58  87 126 171 219 262 319 379
#     4  11  24  40  61  93 127 165 210 262 321 375
#     4  12  21  37  63  86 125 169 221 259 320 373
#     4  11  25  43  67  97 135 173 218 276 334 393
#     4  11  25  45  70 100 128 170 222 275 336 401
#
# _framework density 21.724938999999999
#
# number of rings (size 3 to 8) (size 9 to 14) (size 15 to 20)
#    0.000    0.857    4.286    3.857    0.000    5.714 
#    0.000    0.000    0.000    0.429    0.000    4.000 
#    0.000    0.000    0.000    0.000    0.000    0.000 
#
# Total GULP energy -693797.218802 kJ/mol
# GULP energy per Si atom -12389.236050 kJ/mol
# Density = 2.167549 g / cm^3
# Si number density = 21.724939 Si / 1000 Ang^3
#
#
#
# Elastic Constant Matrix: (Units=GPa)
#
#
# Indices 1 2 3 4 5 6 
#
# 1 112.1610 16.8846 19.2396 0.0000 0.0000 0.0000
# 2 16.8846 105.9223 12.3747 0.0000 0.0000 0.0000
# 3 19.2396 12.3747 72.7733 0.0000 0.0000 0.0000
# 4 0.0000 0.0000 0.0000 14.7001 0.0000 0.0000
# 5 0.0000 0.0000 0.0000 0.0000 37.6601 0.0000
# 6 0.0000 0.0000 0.0000 0.0000 0.0000 21.8797
#
#
#
# Elastic Compliance Matrix: (Units=1/GPa)
#
#
# Indices 1 2 3 4 5 6 
#
# 1 0.009498 -0.001245 -0.002299 0.000000 0.000000 0.000000
# 2 -0.001245 0.009796 -0.001336 0.000000 0.000000 0.000000
# 3 -0.002299 -0.001336 0.014576 0.000000 0.000000 0.000000
# 4 0.000000 0.000000 0.000000 0.068027 0.000000 0.000000
# 5 0.000000 0.000000 0.000000 0.000000 0.026553 0.000000
# 6 0.000000 0.000000 0.000000 0.000000 0.000000 0.045705
#
#
# Mechanical properties :
#
#
# Convention : Reuss Voigt Hill
#
# Bulk Modulus (GPa) = 41.48068 43.09492 42.28780
# Shear Modulus (GPa) = 26.04820 31.00517 28.52668
#
# Velocity S-wave (km/s) = 3.46641 3.78189 3.62758
# Velocity P-wave (km/s) = 5.92928 6.24099 6.08713
#
# Compressibility (1/GPa) = 0.02410761
#
# Stress axis : x y z
#
# Youngs Moduli (GPa) = 105.28949 102.08740 68.60400
#
# Poissons Ratio (x) = 0.12714 0.15773
# Poissons Ratio (y) = 0.13112 0.09168
# Poissons Ratio (z) = 0.24208 0.13643
#
# Static dielectric constant tensor:
#      x y z
#    x 3.875780 0.000000 0.000000 
#    y 0.000000 3.664630 0.000000 
#    z 0.000000 0.000000 3.863870 
# 
# 
# High freq. dielectric constant tensor:
#      x y z
#    x 1.862430 0.000000 0.000000 
#    y 0.000000 1.826310 0.000000 
#    z 0.000000 0.000000 1.855220 
# 
# From -- ./inp_files/7057.got.cif
#   From: 2010.06.25/outbox.cif.g09.slc.cpg/sg48_4_cif.got.tgz:7057.got - 2010.06.26 18:06:46.
