data_PCOD8202650
_publ_section_title
;
Structure prediction by ZEFSAII (Michael W. Deem and Ramdas Pophale) SiO2 
 PCOD8202650
Probable space group: P C C M
;
_chemical_formula_sum "Si O2"
_cell_formula_units_Z 32
_cell_length_a 10.618688
_cell_length_b 8.545337
_cell_length_c 15.924771
_cell_angle_alpha 90.000000
_cell_angle_beta 90.000000
_cell_angle_gamma 90.000000
_cell_volume 1445.017980
_symmetry_space_group_name_H-M "P C C M"
_symmetry_group_IT_number 49
_symmetry_cell_setting 'orthorhombic'
loop_
_space_group_symop_operation_xyz
x,y,z
-x,-y,z
x,-y,1/2-z
-x,y,1/2-z
-x,-y,-z
x,y,-z
-x,y,1/2+z
x,-y,1/2+z
loop_
_atom_site_type_symbol
_atom_site_label
_atom_site_fract_x
_atom_site_fract_y
_atom_site_fract_z
Si Si1 0.377797 0.903990 0.596133
Si Si2 0.868146 0.062259 0.156588
Si Si3 0.625923 0.564369 0.155585
Si Si4 0.875281 0.432427 0.843674
O O1 0.394815 0.850582 0.500000
O O2 0.369066 0.752063 0.655162
O O3 0.500000 0.000000 0.626577
O O4 0.251224 0.006659 0.602774
O O5 0.875217 0.247477 0.156689
O O6 0.850614 0.000000 0.250000
O O7 0.000000 0.000000 0.117706
O O8 0.500000 0.500000 0.109459
O O9 0.625055 0.500000 0.250000
O O10 0.750135 0.496059 0.109118
O O11 0.874471 0.500000 0.750000
O O12 0.000000 0.500000 0.890086
#
# Coordination Sequence:
#
# PCOD8202650 Si02
#       4
#     8   8   8   8
#     4  11  25  43  62  89 128 170 209 255 314 377
#     4  11  21  37  64  94 124 162 212 266 315 370
#     4  10  20  37  60  88 117 153 205 256 304 362
#     4  10  18  32  54  85 120 149 191 249 308 362
#
# _framework density 22.145053000000001
#
# number of rings (size 3 to 8) (size 9 to 14) (size 15 to 20)
#    0.000    1.500    0.000    9.000    0.000    3.500 
#    0.000    1.250    0.000    3.000    0.000    0.000 
#    0.000    0.000    0.000    0.000    0.000    0.000 
#
# Total GULP energy -396706.119701 kJ/mol
# GULP energy per Si atom -12397.066241 kJ/mol
# Density = 2.209465 g / cm^3
# Si number density = 22.145053 Si / 1000 Ang^3
#
#
#
# Elastic Constant Matrix: (Units=GPa)
#
#
# Indices 1 2 3 4 5 6 
#
# 1 261.4744 98.0168 13.0013 0.0000 0.0000 0.0000
# 2 98.0168 239.7081 27.9758 0.0000 0.0000 0.0000
# 3 13.0013 27.9758 40.5075 0.0000 0.0000 0.0000
# 4 0.0000 0.0000 0.0000 15.1952 0.0000 0.0000
# 5 0.0000 0.0000 0.0000 0.0000 10.4097 0.0000
# 6 0.0000 0.0000 0.0000 0.0000 0.0000 68.4206
#
#
#
# Elastic Compliance Matrix: (Units=1/GPa)
#
#
# Indices 1 2 3 4 5 6 
#
# 1 0.004518 -0.001825 -0.000189 0.000000 0.000000 0.000000
# 2 -0.001825 0.005275 -0.003057 0.000000 0.000000 0.000000
# 3 -0.000189 -0.003057 0.026859 0.000000 0.000000 0.000000
# 4 0.000000 0.000000 0.000000 0.065810 0.000000 0.000000
# 5 0.000000 0.000000 0.000000 0.000000 0.096065 0.000000
# 6 0.000000 0.000000 0.000000 0.000000 0.000000 0.014615
#
#
# Mechanical properties :
#
#
# Convention : Reuss Voigt Hill
#
# Bulk Modulus (GPa) = 37.72445 91.07530 64.39987
# Shear Modulus (GPa) = 21.54035 45.65150 33.59593
#
# Velocity S-wave (km/s) = 3.12219 4.54527 3.89920
# Velocity P-wave (km/s) = 5.48357 8.29229 7.02964
#
# Compressibility (1/GPa) = 0.02650801
#
# Stress axis : x y z
#
# Youngs Moduli (GPa) = 221.32980 189.57615 37.23151
#
# Poissons Ratio (x) = 0.34604 0.00706
# Poissons Ratio (y) = 0.40401 0.11382
# Poissons Ratio (z) = 0.04194 0.57957
#
# Static dielectric constant tensor:
#      x y z
#    x 10.944880 0.000000 0.000000 
#    y 0.000000 3.952510 0.000000 
#    z 0.000000 0.000000 3.565460 
# 
# 
# High freq. dielectric constant tensor:
#      x y z
#    x 1.915510 0.000000 0.000000 
#    y 0.000000 1.885100 0.000000 
#    z 0.000000 0.000000 1.811710 
# 
# From -- ./inp_files/12438.got.cif
#   From: 2010.03.12/outbox.cif.g09.slc.cpg/sg49_7_cif.got.tgz:12438.got - 2010.04.14 03:58:27.
