data_PCOD8202302
_publ_section_title
;
Structure prediction by ZEFSAII (Michael W. Deem and Ramdas Pophale) SiO2 
 PCOD8202302
Probable space group: P C C M
;
_chemical_formula_sum "Si O2"
_cell_formula_units_Z 58
_cell_length_a 14.800962
_cell_length_b 25.407827
_cell_length_c 8.754297
_cell_angle_alpha 90.000000
_cell_angle_beta 90.000000
_cell_angle_gamma 90.000000
_cell_volume 3292.143398
_symmetry_space_group_name_H-M "P C C M"
_symmetry_group_IT_number 49
_symmetry_cell_setting 'orthorhombic'
loop_
_space_group_symop_operation_xyz
x,y,z
-x,-y,z
x,-y,1/2-z
-x,y,1/2-z
-x,-y,-z
x,y,-z
-x,y,1/2+z
x,-y,1/2+z
loop_
_atom_site_type_symbol
_atom_site_label
_atom_site_fract_x
_atom_site_fract_y
_atom_site_fract_z
Si Si1 0.100111 0.052233 0.817199
Si Si2 0.099971 0.159442 0.683161
Si Si3 0.777757 0.744777 0.680449
Si Si4 0.500000 0.500000 0.750000
Si Si5 0.907801 0.346495 0.180242
Si Si6 0.359973 0.416304 0.669254
Si Si7 0.178808 0.445540 0.820784
Si Si8 0.407821 0.299394 0.680121
O O1 0.143656 0.105767 0.751489
O O2 0.000000 0.051868 0.750000
O O3 0.150377 0.000000 0.750000
O O4 0.100359 0.051624 0.000000
O O5 0.092825 0.156524 0.500000
O O6 0.169946 0.203901 0.742430
O O7 0.000000 0.170735 0.750000
O O8 0.777390 0.748389 0.500000
O O9 0.829568 0.692726 0.734203
O O10 0.674908 0.737389 0.740704
O O11 0.437661 0.460545 0.651824
O O12 0.886989 0.403031 0.248409
O O13 0.000000 0.324285 0.250000
O O14 0.916487 0.349728 0.000000
O O15 0.317368 0.408229 0.500000
O O16 0.283801 0.435591 0.784727
O O17 0.396300 0.360344 0.730945
O O18 0.146499 0.500000 0.750000
O O19 0.165403 0.446639 0.000000
O O20 0.500000 0.276620 0.750000
O O21 0.414670 0.295804 0.500000
#
# Coordination Sequence:
#
# PCOD8202302 Si02
#       8
#     8   8   8   2   8   8   8   8
#     4  10  17  27  43  67 101 142 183 223 261 303
#     4  10  18  30  48  73 104 142 182 221 260 305
#     4   9  19  35  55  75 105 141 173 211 262 309
#     4  12  22  32  56  86 108 128 166 200 264 320
#     4  11  22  40  60  81 105 134 169 211 256 308
#     4  11  22  36  54  77 106 131 159 201 252 311
#     4  12  25  40  58  78 100 129 163 203 253 309
#     4  10  20  37  55  76 102 135 168 207 256 311
#
# _framework density 17.617699999999999
#
# number of rings (size 3 to 8) (size 9 to 14) (size 15 to 20)
#    0.000    1.517    2.759    5.172    0.000    1.379 
#    0.000    4.828    0.000    0.000    0.000    0.000 
#    0.000    0.552    0.000    6.345    0.000    1.931 
#
# Total GULP energy -718975.535770 kJ/mol
# GULP energy per Si atom -12396.129927 kJ/mol
# Density = 1.757760 g / cm^3
# Si number density = 17.617700 Si / 1000 Ang^3
#
#
#
# Elastic Constant Matrix: (Units=GPa)
#
#
# Indices 1 2 3 4 5 6 
#
# 1 98.8176 52.6798 27.5752 0.0000 0.0000 0.0000
# 2 52.6798 131.5090 40.1176 0.0000 0.0000 0.0000
# 3 27.5752 40.1176 93.6738 0.0000 0.0000 0.0000
# 4 0.0000 0.0000 0.0000 19.7128 0.0000 0.0000
# 5 0.0000 0.0000 0.0000 0.0000 23.1082 0.0000
# 6 0.0000 0.0000 0.0000 0.0000 0.0000 12.2761
#
#
#
# Elastic Compliance Matrix: (Units=1/GPa)
#
#
# Indices 1 2 3 4 5 6 
#
# 1 0.013142 -0.004698 -0.001857 0.000000 0.000000 0.000000
# 2 -0.004698 0.010426 -0.003082 0.000000 0.000000 0.000000
# 3 -0.001857 -0.003082 0.012542 0.000000 0.000000 0.000000
# 4 0.000000 0.000000 0.000000 0.050729 0.000000 0.000000
# 5 0.000000 0.000000 0.000000 0.000000 0.043275 0.000000
# 6 0.000000 0.000000 0.000000 0.000000 0.000000 0.081459
#
#
# Mechanical properties :
#
#
# Convention : Reuss Voigt Hill
#
# Bulk Modulus (GPa) = 59.39519 62.74952 61.07236
# Shear Modulus (GPa) = 21.14529 24.59459 22.86994
#
# Velocity S-wave (km/s) = 3.46819 3.74038 3.60686
# Velocity P-wave (km/s) = 7.05864 7.37215 7.21710
#
# Compressibility (1/GPa) = 0.01683638
#
# Stress axis : x y z
#
# Youngs Moduli (GPa) = 76.08976 95.91138 79.73251
#
# Poissons Ratio (x) = 0.45061 0.14804
# Poissons Ratio (y) = 0.35748 0.24575
# Poissons Ratio (z) = 0.14128 0.29562
#
# Static dielectric constant tensor:
#      x y z
#    x 3.236620 0.000000 0.000000 
#    y 0.000000 3.862090 0.000000 
#    z 0.000000 0.000000 3.166610 
# 
# 
# High freq. dielectric constant tensor:
#      x y z
#    x 1.656360 0.000000 0.000000 
#    y 0.000000 1.676610 0.000000 
#    z 0.000000 0.000000 1.679480 
# 
# From -- ./inp_files/4287.got.cif
#   From: 2010.03.12/outbox.cif.g09.slc.cpg/sg49_3_cif.got.tgz:4287.got - 2010.04.14 03:58:27.
