data_PCOD8202937
_publ_section_title
;
Structure prediction by ZEFSAII (Michael W. Deem and Ramdas Pophale) SiO2 
 PCOD8202937
Probable space group: P C C M
;
_chemical_formula_sum "Si O2"
_cell_formula_units_Z 64
_cell_length_a 19.886202
_cell_length_b 19.940543
_cell_length_c 8.702711
_cell_angle_alpha 90.000000
_cell_angle_beta 90.000000
_cell_angle_gamma 90.000000
_cell_volume 3450.987519
_symmetry_space_group_name_H-M "P C C M"
_symmetry_group_IT_number 49
_symmetry_cell_setting 'orthorhombic'
loop_
_space_group_symop_operation_xyz
x,y,z
-x,-y,z
x,-y,1/2-z
-x,y,1/2-z
-x,-y,-z
x,y,-z
-x,y,1/2+z
x,-y,1/2+z
loop_
_atom_site_type_symbol
_atom_site_label
_atom_site_fract_x
_atom_site_fract_y
_atom_site_fract_z
Si Si1 0.246710 0.390035 0.676739
Si Si2 0.898348 0.568091 0.321897
Si Si3 0.203003 0.247154 0.317763
Si Si4 0.069118 0.710500 0.318032
Si Si5 0.388747 0.431677 0.318000
Si Si6 0.433361 0.296644 0.818808
Si Si7 0.673057 0.812905 0.180189
Si Si8 0.428564 0.071827 0.817440
O O1 0.262935 0.377471 0.500000
O O2 0.182083 0.436868 0.699920
O O3 0.232962 0.316867 0.748818
O O4 0.312535 0.424123 0.749845
O O5 0.929466 0.500000 0.250000
O O6 0.918652 0.573985 0.500000
O O7 0.925525 0.633182 0.235304
O O8 0.194356 0.246559 0.500000
O O9 0.128799 0.241494 0.244300
O O10 0.254328 0.188548 0.264800
O O11 0.068264 0.713108 0.500000
O O12 0.000000 0.740284 0.250000
O O13 0.419442 0.500000 0.250000
O O14 0.392503 0.434701 0.500000
O O15 0.431121 0.369594 0.257116
O O16 0.500000 0.261157 0.750000
O O17 0.368910 0.252930 0.771213
O O18 0.439779 0.302274 0.000000
O O19 0.630556 0.877595 0.232916
O O20 0.686551 0.815012 0.000000
O O21 0.500000 0.096236 0.750000
O O22 0.408379 0.000000 0.750000
O O23 0.435655 0.068127 0.000000
#
# Coordination Sequence:
#
# PCOD8202937 Si02
#       8
#     8   8   8   8   8   8   8   8
#     4   8  16  30  48  70  95 122 158 205 260 319
#     4  10  19  32  48  71  97 127 167 211 265 328
#     4  10  19  34  56  81 106 135 173 218 266 318
#     4  11  22  37  54  74 102 137 173 217 271 326
#     4  11  21  35  51  70  93 124 163 213 271 326
#     4  11  23  38  54  74  98 130 170 217 270 322
#     4  10  21  36  56  83 112 143 182 225 268 317
#     4  10  20  35  55  83 120 159 197 231 270 320
#
# _framework density 18.545417
#
# number of rings (size 3 to 8) (size 9 to 14) (size 15 to 20)
#    0.000    1.875    1.250    4.875    0.000    2.000 
#    0.000    3.750    0.000    0.000    0.000    0.000 
#    0.000    0.500    0.000    5.250    0.000    2.875 
#
# Total GULP energy -793490.516639 kJ/mol
# GULP energy per Si atom -12398.289322 kJ/mol
# Density = 1.850321 g / cm^3
# Si number density = 18.545417 Si / 1000 Ang^3
#
#
#
# Elastic Constant Matrix: (Units=GPa)
#
#
# Indices 1 2 3 4 5 6 
#
# 1 127.3500 42.9040 54.8022 0.0000 0.0000 0.0000
# 2 42.9040 79.1597 36.1792 0.0000 0.0000 0.0000
# 3 54.8022 36.1792 106.7152 0.0000 0.0000 0.0000
# 4 0.0000 0.0000 0.0000 22.1495 0.0000 0.0000
# 5 0.0000 0.0000 0.0000 0.0000 30.8958 0.0000
# 6 0.0000 0.0000 0.0000 0.0000 0.0000 18.5886
#
#
#
# Elastic Compliance Matrix: (Units=1/GPa)
#
#
# Indices 1 2 3 4 5 6 
#
# 1 0.011067 -0.004024 -0.004319 0.000000 0.000000 0.000000
# 2 -0.004024 0.016412 -0.003498 0.000000 0.000000 0.000000
# 3 -0.004319 -0.003498 0.012774 0.000000 0.000000 0.000000
# 4 0.000000 0.000000 0.000000 0.045148 0.000000 0.000000
# 5 0.000000 0.000000 0.000000 0.000000 0.032367 0.000000
# 6 0.000000 0.000000 0.000000 0.000000 0.000000 0.053796
#
#
# Mechanical properties :
#
#
# Convention : Reuss Voigt Hill
#
# Bulk Modulus (GPa) = 60.34241 64.55508 62.44874
# Shear Modulus (GPa) = 24.90415 26.28273 25.59344
#
# Velocity S-wave (km/s) = 3.66850 3.76867 3.71892
# Velocity P-wave (km/s) = 7.11000 7.33634 7.22406
#
# Compressibility (1/GPa) = 0.01657209
#
# Stress axis : x y z
#
# Youngs Moduli (GPa) = 90.36186 60.92980 78.28146
#
# Poissons Ratio (x) = 0.24519 0.33808
# Poissons Ratio (y) = 0.36363 0.27380
# Poissons Ratio (z) = 0.39026 0.21311
#
# Static dielectric constant tensor:
#      x y z
#    x 3.618080 0.000000 0.000000 
#    y 0.000000 3.235470 0.000000 
#    z 0.000000 0.000000 3.299030 
# 
# 
# High freq. dielectric constant tensor:
#      x y z
#    x 1.726740 0.000000 0.000000 
#    y 0.000000 1.674840 0.000000 
#    z 0.000000 0.000000 1.722150 
# 
# From -- ./inp_files/6088.got.cif
#   From: 2010.03.12/outbox.cif.g09.slc.cpg/sg49_4_cif.got.tgz:6088.got - 2010.04.14 03:58:27.
