data_PCOD8202424
_publ_section_title
;
Structure prediction by ZEFSAII (Michael W. Deem and Ramdas Pophale) SiO2 
 PCOD8202424
Probable space group: P C C M
;
_chemical_formula_sum "Si O2"
_cell_formula_units_Z 64
_cell_length_a 10.129534
_cell_length_b 19.073847
_cell_length_c 18.803627
_cell_angle_alpha 90.000000
_cell_angle_beta 90.000000
_cell_angle_gamma 90.000000
_cell_volume 3633.033386
_symmetry_space_group_name_H-M "P C C M"
_symmetry_group_IT_number 49
_symmetry_cell_setting 'orthorhombic'
loop_
_space_group_symop_operation_xyz
x,y,z
-x,-y,z
x,-y,1/2-z
-x,y,1/2-z
-x,-y,-z
x,y,-z
-x,y,1/2+z
x,-y,1/2+z
loop_
_atom_site_type_symbol
_atom_site_label
_atom_site_fract_x
_atom_site_fract_y
_atom_site_fract_z
Si Si1 0.897687 0.442090 0.915183
Si Si2 0.851593 0.915721 0.832326
Si Si3 0.154344 0.075363 0.667958
Si Si4 0.262961 0.194491 0.416025
Si Si5 0.500016 0.289449 0.915829
Si Si6 0.763770 0.214776 0.415427
Si Si7 0.026701 0.709630 0.084296
Si Si8 0.403150 0.439206 0.584820
O O1 0.951105 0.368190 0.885340
O O2 0.746829 0.453675 0.888171
O O3 0.000000 0.500000 0.885178
O O4 0.898189 0.443407 0.000000
O O5 0.832056 0.900525 0.749281
O O6 0.764504 0.861349 0.878035
O O7 0.004046 0.910098 0.856127
O O8 0.804447 0.995120 0.845846
O O9 0.255772 0.118938 0.620269
O O10 0.257931 0.184321 0.500000
O O11 0.395629 0.231821 0.390388
O O12 0.142219 0.240908 0.387143
O O13 0.358888 0.261751 0.889090
O O14 0.539925 0.365595 0.884560
O O15 0.500754 0.296128 0.000000
O O16 0.761733 0.202407 0.500000
O O17 0.888791 0.259364 0.389096
O O18 0.031421 0.706475 0.000000
O O19 0.500000 0.500000 0.613368
O O20 0.402870 0.437245 0.500000
#
# Coordination Sequence:
#
# PCOD8202424 Si02
#       8
#     8   8   8   8   8   8   8   8
#     4   9  16  24  36  58  90 125 160 197 233 276
#     4   9  18  33  49  73  99 120 154 196 243 288
#     4   9  18  32  52  71  96 126 150 195 247 283
#     4  10  17  30  49  70  93 127 164 192 231 284
#     4   9  18  30  43  63  97 131 158 195 241 283
#     4  10  19  30  47  70  97 127 158 199 241 281
#     4   9  16  26  41  63  92 122 159 200 233 269
#     4   9  16  25  37  56  88 130 163 186 230 290
#
# _framework density 17.616132
#
# number of rings (size 3 to 8) (size 9 to 14) (size 15 to 20)
#    0.000    2.750    2.500    0.750    1.750    0.500 
#    0.000    2.500    0.000    3.750    0.000    0.000 
#    0.000    6.000    0.000    0.000    0.000    0.000 
#
# Total GULP energy -793332.414225 kJ/mol
# GULP energy per Si atom -12395.818972 kJ/mol
# Density = 1.757604 g / cm^3
# Si number density = 17.616132 Si / 1000 Ang^3
#
#
#
# Elastic Constant Matrix: (Units=GPa)
#
#
# Indices 1 2 3 4 5 6 
#
# 1 133.5560 67.6647 19.6198 0.0000 0.0000 0.0000
# 2 67.6647 135.7220 30.4630 0.0000 0.0000 0.0000
# 3 19.6198 30.4630 20.1743 0.0000 0.0000 0.0000
# 4 0.0000 0.0000 0.0000 2.9965 0.0000 0.0000
# 5 0.0000 0.0000 0.0000 0.0000 10.7180 0.0000
# 6 0.0000 0.0000 0.0000 0.0000 0.0000 32.2750
#
#
#
# Elastic Compliance Matrix: (Units=1/GPa)
#
#
# Indices 1 2 3 4 5 6 
#
# 1 0.010168 -0.004311 -0.003379 0.000000 0.000000 0.000000
# 2 -0.004311 0.012973 -0.015397 0.000000 0.000000 0.000000
# 3 -0.003379 -0.015397 0.076104 0.000000 0.000000 0.000000
# 4 0.000000 0.000000 0.000000 0.333722 0.000000 0.000000
# 5 0.000000 0.000000 0.000000 0.000000 0.093301 0.000000
# 6 0.000000 0.000000 0.000000 0.000000 0.000000 0.030984
#
#
# Mechanical properties :
#
#
# Convention : Reuss Voigt Hill
#
# Bulk Modulus (GPa) = 18.84274 58.32747 38.58511
# Shear Modulus (GPa) = 8.05003 20.64488 14.34746
#
# Velocity S-wave (km/s) = 2.14000 3.42706 2.85695
# Velocity P-wave (km/s) = 4.10191 6.98869 5.73007
#
# Compressibility (1/GPa) = 0.05307082
#
# Stress axis : x y z
#
# Youngs Moduli (GPa) = 98.34849 77.08320 13.13999
#
# Poissons Ratio (x) = 0.33229 0.04440
# Poissons Ratio (y) = 0.42396 0.20231
# Poissons Ratio (z) = 0.33234 1.18684
#
# Static dielectric constant tensor:
#      x y z
#    x 3.369030 0.000000 0.000000 
#    y 0.000000 3.449810 0.000000 
#    z 0.000000 0.000000 2.645900 
# 
# 
# High freq. dielectric constant tensor:
#      x y z
#    x 1.679810 0.000000 0.000000 
#    y 0.000000 1.695190 0.000000 
#    z 0.000000 0.000000 1.615060 
# 
# From -- ./inp_files/21063.got.cif
#   From: 2010.03.12/outbox.cif.g09.slc.cpg/sg49_11_cif.got.tgz:21063.got - 2010.04.14 03:58:27.
