data_PCOD8202925
_publ_section_title
;
Structure prediction by ZEFSAII (Michael W. Deem and Ramdas Pophale) SiO2 
 PCOD8202925
Probable space group: P C C M
;
_chemical_formula_sum "Si O2"
_cell_formula_units_Z 64
_cell_length_a 19.434328
_cell_length_b 19.577809
_cell_length_c 9.007254
_cell_angle_alpha 90.000000
_cell_angle_beta 90.000000
_cell_angle_gamma 90.000000
_cell_volume 3427.094068
_symmetry_space_group_name_H-M "P C C M"
_symmetry_group_IT_number 49
_symmetry_cell_setting 'orthorhombic'
loop_
_space_group_symop_operation_xyz
x,y,z
-x,-y,z
x,-y,1/2-z
-x,y,1/2-z
-x,-y,-z
x,y,-z
-x,y,1/2+z
x,-y,1/2+z
loop_
_atom_site_type_symbol
_atom_site_label
_atom_site_fract_x
_atom_site_fract_y
_atom_site_fract_z
Si Si1 0.432712 0.172857 0.323600
Si Si2 0.926937 0.694617 0.673143
Si Si3 0.639469 0.936933 0.163574
Si Si4 0.185699 0.217305 0.176188
Si Si5 0.433916 0.681702 0.325593
Si Si6 0.720940 0.341873 0.671376
Si Si7 0.798749 0.064180 0.662157
Si Si8 0.829217 0.430050 0.828413
O O1 0.500000 0.137560 0.250000
O O2 0.435701 0.172742 0.500000
O O3 0.367923 0.130718 0.263377
O O4 0.427022 0.248363 0.262013
O O5 0.935090 0.710700 0.500000
O O6 0.882359 0.754103 0.747006
O O7 0.891330 0.621862 0.700935
O O8 0.000000 0.692464 0.750000
O O9 0.719094 0.952128 0.143271
O O10 0.603915 0.000000 0.250000
O O11 0.605766 0.927955 0.000000
O O12 0.251640 0.265774 0.217843
O O13 0.193866 0.139548 0.236849
O O14 0.176387 0.216592 0.000000
O O15 0.500000 0.642320 0.250000
O O16 0.448225 0.693620 0.500000
O O17 0.360451 0.645665 0.300884
O O18 0.739169 0.353762 0.500000
O O19 0.758208 0.399902 0.765718
O O20 0.834095 0.065296 0.500000
O O21 0.832904 0.000000 0.750000
O O22 0.849711 0.500000 0.750000
O O23 0.817367 0.444760 0.000000
#
# Coordination Sequence:
#
# PCOD8202925 Si02
#       8
#     8   8   8   8   8   8   8   8
#     4  11  21  32  45  62  85 117 156 201 253 309
#     4  10  21  36  55  82 112 144 178 213 251 298
#     4  10  19  32  46  63  87 116 154 199 250 310
#     4   9  17  32  53  76 103 138 176 216 261 311
#     4  10  19  32  50  73 100 131 167 212 263 313
#     4   9  18  33  54  77 104 139 178 218 264 313
#     4   9  18  31  49  72  99 130 165 208 260 311
#     4  10  21  36  56  83 114 145 179 213 251 299
#
# _framework density 18.674714000000002
#
# number of rings (size 3 to 8) (size 9 to 14) (size 15 to 20)
#    0.000    2.250    0.000    4.125    0.000    6.000 
#    0.000    5.000    0.000    0.750    0.000    5.250 
#    0.000    0.000    0.000    0.000    0.000    0.000 
#
# Total GULP energy -793177.314166 kJ/mol
# GULP energy per Si atom -12393.395534 kJ/mol
# Density = 1.863221 g / cm^3
# Si number density = 18.674714 Si / 1000 Ang^3
#
#
#
# Elastic Constant Matrix: (Units=GPa)
#
#
# Indices 1 2 3 4 5 6 
#
# 1 88.9347 17.6071 39.1671 0.0000 0.0000 0.0000
# 2 17.6071 79.0546 30.4542 0.0000 0.0000 0.0000
# 3 39.1671 30.4542 103.2359 0.0000 0.0000 0.0000
# 4 0.0000 0.0000 0.0000 29.2623 0.0000 0.0000
# 5 0.0000 0.0000 0.0000 0.0000 26.4526 0.0000
# 6 0.0000 0.0000 0.0000 0.0000 0.0000 15.0084
#
#
#
# Elastic Compliance Matrix: (Units=1/GPa)
#
#
# Indices 1 2 3 4 5 6 
#
# 1 0.013596 -0.001174 -0.004812 0.000000 0.000000 0.000000
# 2 -0.001174 0.014373 -0.003794 0.000000 0.000000 0.000000
# 3 -0.004812 -0.003794 0.012631 0.000000 0.000000 0.000000
# 4 0.000000 0.000000 0.000000 0.034174 0.000000 0.000000
# 5 0.000000 0.000000 0.000000 0.000000 0.037804 0.000000
# 6 0.000000 0.000000 0.000000 0.000000 0.000000 0.066629
#
#
# Mechanical properties :
#
#
# Convention : Reuss Voigt Hill
#
# Bulk Modulus (GPa) = 47.53083 49.52022 48.52553
# Shear Modulus (GPa) = 24.29776 26.41111 25.35444
#
# Velocity S-wave (km/s) = 3.61100 3.76476 3.68868
# Velocity P-wave (km/s) = 6.54927 6.74335 6.64702
#
# Compressibility (1/GPa) = 0.02103898
#
# Stress axis : x y z
#
# Youngs Moduli (GPa) = 73.55206 69.57608 79.16782
#
# Poissons Ratio (x) = 0.08171 0.38093
# Poissons Ratio (y) = 0.08638 0.30039
# Poissons Ratio (z) = 0.35391 0.26399
#
# Static dielectric constant tensor:
#      x y z
#    x 3.523850 0.000000 0.000000 
#    y 0.000000 3.317650 0.000000 
#    z 0.000000 0.000000 3.689300 
# 
# 
# High freq. dielectric constant tensor:
#      x y z
#    x 1.704740 0.000000 0.000000 
#    y 0.000000 1.708550 0.000000 
#    z 0.000000 0.000000 1.735170 
# 
# From -- ./inp_files/5941.got.cif
#   From: 2010.03.12/outbox.cif.g09.slc.cpg/sg49_3_cif.got.tgz:5941.got - 2010.04.14 03:58:27.
