data_PCOD8202181
_publ_section_title
;
Structure prediction by ZEFSAII (Michael W. Deem and Ramdas Pophale) SiO2 
 PCOD8202181
Probable space group: P C C M
;
_chemical_formula_sum "Si O2"
_cell_formula_units_Z 56
_cell_length_a 13.735551
_cell_length_b 29.495054
_cell_length_c 8.815447
_cell_angle_alpha 90.000000
_cell_angle_beta 90.000000
_cell_angle_gamma 90.000000
_cell_volume 3571.409258
_symmetry_space_group_name_H-M "P C C M"
_symmetry_group_IT_number 49
_symmetry_cell_setting 'orthorhombic'
loop_
_space_group_symop_operation_xyz
x,y,z
-x,-y,z
x,-y,1/2-z
-x,y,1/2-z
-x,-y,-z
x,y,-z
-x,y,1/2+z
x,-y,1/2+z
loop_
_atom_site_type_symbol
_atom_site_label
_atom_site_fract_x
_atom_site_fract_y
_atom_site_fract_z
Si Si1 0.219226 0.546529 0.679301
Si Si2 0.605122 0.132714 0.822934
Si Si3 0.395222 0.593899 0.177409
Si Si4 0.391871 0.044827 0.180519
Si Si5 0.896126 0.634966 0.821988
Si Si6 0.723362 0.317161 0.176970
Si Si7 0.395201 0.232250 0.323765
O O1 0.178841 0.500000 0.750000
O O2 0.227509 0.542297 0.500000
O O3 0.325263 0.556762 0.747204
O O4 0.144143 0.585837 0.728488
O O5 0.500000 0.137051 0.750000
O O6 0.661746 0.091222 0.737698
O O7 0.653174 0.182283 0.796149
O O8 0.596903 0.120770 0.000000
O O9 0.500000 0.588581 0.250000
O O10 0.355626 0.644086 0.212257
O O11 0.401203 0.583887 0.000000
O O12 0.500000 0.046608 0.250000
O O13 0.339265 0.000000 0.250000
O O14 0.393578 0.042062 0.000000
O O15 0.822878 0.673934 0.766244
O O16 0.000000 0.643754 0.750000
O O17 0.906313 0.638452 0.000000
O O18 0.679581 0.269797 0.238857
O O19 0.748737 0.315123 0.000000
O O20 0.500000 0.238040 0.250000
O O21 0.413068 0.240730 0.500000
#
# Coordination Sequence:
#
# PCOD8202181 Si02
#       7
#     8   8   8   8   8   8   8
#     4  10  21  36  52  71  93 115 142 172 206 246
#     4   9  15  23  33  48  71  99 133 171 210 249
#     4  10  19  31  48  68  92 120 148 177 208 243
#     4  10  16  22  31  43  61  89 128 173 217 254
#     4  10  21  36  54  73  91 112 137 170 208 250
#     4   9  18  32  48  67  90 115 143 175 210 250
#     4   9  17  27  41  61  86 115 144 176 213 251
#
# _framework density 15.680085
#
# number of rings (size 3 to 8) (size 9 to 14) (size 15 to 20)
#    0.000    2.429    0.000    4.714    0.000    4.000 
#    0.000    2.857    0.000    0.000    0.000    0.000 
#    0.000    0.000    0.000    0.000    0.000    0.714 
#
# Total GULP energy -694145.237085 kJ/mol
# GULP energy per Si atom -12395.450662 kJ/mol
# Density = 1.564440 g / cm^3
# Si number density = 15.680085 Si / 1000 Ang^3
#
#
#
# Elastic Constant Matrix: (Units=GPa)
#
#
# Indices 1 2 3 4 5 6 
#
# 1 74.8878 37.1871 28.5821 0.0000 0.0000 0.0000
# 2 37.1871 132.3382 44.9053 0.0000 0.0000 0.0000
# 3 28.5821 44.9053 81.3692 0.0000 0.0000 0.0000
# 4 0.0000 0.0000 0.0000 11.0412 0.0000 0.0000
# 5 0.0000 0.0000 0.0000 0.0000 18.0978 0.0000
# 6 0.0000 0.0000 0.0000 0.0000 0.0000 7.5187
#
#
#
# Elastic Compliance Matrix: (Units=1/GPa)
#
#
# Indices 1 2 3 4 5 6 
#
# 1 0.016506 -0.003286 -0.003984 0.000000 0.000000 0.000000
# 2 -0.003286 0.009952 -0.004338 0.000000 0.000000 0.000000
# 3 -0.003984 -0.004338 0.016083 0.000000 0.000000 0.000000
# 4 0.000000 0.000000 0.000000 0.090570 0.000000 0.000000
# 5 0.000000 0.000000 0.000000 0.000000 0.055255 0.000000
# 6 0.000000 0.000000 0.000000 0.000000 0.000000 0.133002
#
#
# Mechanical properties :
#
#
# Convention : Reuss Voigt Hill
#
# Bulk Modulus (GPa) = 51.74892 56.66047 54.20470
# Shear Modulus (GPa) = 14.24397 19.19291 16.71844
#
# Velocity S-wave (km/s) = 3.01726 3.50241 3.26885
# Velocity P-wave (km/s) = 6.72407 7.25049 6.99223
#
# Compressibility (1/GPa) = 0.01932407
#
# Stress axis : x y z
#
# Youngs Moduli (GPa) = 60.58473 100.48532 62.17700
#
# Poissons Ratio (x) = 0.33021 0.24774
# Poissons Ratio (y) = 0.19909 0.26971
# Poissons Ratio (z) = 0.24139 0.43588
#
# Static dielectric constant tensor:
#      x y z
#    x 2.585550 0.000000 0.000000 
#    y 0.000000 3.920200 0.000000 
#    z 0.000000 0.000000 3.141670 
# 
# 
# High freq. dielectric constant tensor:
#      x y z
#    x 1.541150 0.000000 0.000000 
#    y 0.000000 1.615220 0.000000 
#    z 0.000000 0.000000 1.617550 
# 
# From -- ./inp_files/4487.got.cif
#   From: 2010.03.12/outbox.cif.g09.slc.cpg/sg49_3_cif.got.tgz:4487.got - 2010.04.14 03:58:27.
