data_PCOD8202575
_publ_section_title
;
Structure prediction by ZEFSAII (Michael W. Deem and Ramdas Pophale) SiO2 
 PCOD8202575
Probable space group: P C C M
;
_chemical_formula_sum "Si O2"
_cell_formula_units_Z 48
_cell_length_a 8.673734
_cell_length_b 16.910856
_cell_length_c 16.628479
_cell_angle_alpha 90.000000
_cell_angle_beta 90.000000
_cell_angle_gamma 90.000000
_cell_volume 2439.069734
_symmetry_space_group_name_H-M "P C C M"
_symmetry_group_IT_number 49
_symmetry_cell_setting 'orthorhombic'
loop_
_space_group_symop_operation_xyz
x,y,z
-x,-y,z
x,-y,1/2-z
-x,y,1/2-z
-x,-y,-z
x,y,-z
-x,y,1/2+z
x,-y,1/2+z
loop_
_atom_site_type_symbol
_atom_site_label
_atom_site_fract_x
_atom_site_fract_y
_atom_site_fract_z
Si Si1 0.678800 0.909233 0.737006
Si Si2 0.344134 0.338828 0.594795
Si Si3 0.829941 0.490424 0.094094
Si Si4 0.690011 0.341496 0.594101
Si Si5 0.187865 0.824340 0.907927
Si Si6 0.106603 0.210472 0.824682
O O1 0.500000 0.892058 0.750000
O O2 0.724830 0.889038 0.645565
O O3 0.773525 0.857384 0.800513
O O4 0.721741 0.000000 0.750000
O O5 0.356439 0.350782 0.500000
O O6 0.258712 0.415264 0.633084
O O7 0.517578 0.329076 0.627941
O O8 0.247648 0.261961 0.618515
O O9 0.730504 0.567868 0.110771
O O10 0.000000 0.500000 0.132890
O O11 0.849878 0.473661 0.000000
O O12 0.705530 0.320082 0.500000
O O13 0.805046 0.286798 0.643694
O O14 0.003819 0.825405 0.893973
O O15 0.226218 0.843944 0.000000
O O16 0.000000 0.235912 0.750000
#
# Coordination Sequence:
#
# PCOD8202575 Si02
#       6
#     8   8   8   8   8   8
#     4  10  22  42  63  83 112 149 182 220 280 344
#     4   9  17  29  49  79 111 142 180 227 272 316
#     4   9  16  26  44  73 109 144 179 223 272 317
#     4  10  18  30  50  77 109 145 187 228 269 322
#     4  10  20  36  59  86 114 145 188 234 273 322
#     4  10  21  35  55  80 108 144 181 225 281 335
#
# _framework density 19.679634
#
# number of rings (size 3 to 8) (size 9 to 14) (size 15 to 20)
#    0.000    2.333    0.000    3.000    0.000    7.667 
#    0.000    5.000    0.000   11.500    0.000   15.167 
#    0.000    0.000    0.000    0.000    0.000    0.000 
#
# Total GULP energy -595247.245408 kJ/mol
# GULP energy per Si atom -12400.984279 kJ/mol
# Density = 1.963484 g / cm^3
# Si number density = 19.679634 Si / 1000 Ang^3
#
#
#
# Elastic Constant Matrix: (Units=GPa)
#
#
# Indices 1 2 3 4 5 6 
#
# 1 141.5364 69.4498 42.1231 0.0000 0.0000 0.0000
# 2 69.4498 134.1121 59.6711 0.0000 0.0000 0.0000
# 3 42.1231 59.6711 61.4532 0.0000 0.0000 0.0000
# 4 0.0000 0.0000 0.0000 23.2373 0.0000 0.0000
# 5 0.0000 0.0000 0.0000 0.0000 23.8294 0.0000
# 6 0.0000 0.0000 0.0000 0.0000 0.0000 32.2033
#
#
#
# Elastic Compliance Matrix: (Units=1/GPa)
#
#
# Indices 1 2 3 4 5 6 
#
# 1 0.009807 -0.003676 -0.003153 0.000000 0.000000 0.000000
# 2 -0.003676 0.014506 -0.011566 0.000000 0.000000 0.000000
# 3 -0.003153 -0.011566 0.029664 0.000000 0.000000 0.000000
# 4 0.000000 0.000000 0.000000 0.043034 0.000000 0.000000
# 5 0.000000 0.000000 0.000000 0.000000 0.041965 0.000000
# 6 0.000000 0.000000 0.000000 0.000000 0.000000 0.031053
#
#
# Mechanical properties :
#
#
# Convention : Reuss Voigt Hill
#
# Bulk Modulus (GPa) = 58.17996 75.50997 66.84497
# Shear Modulus (GPa) = 23.52404 26.91119 25.21761
#
# Velocity S-wave (km/s) = 3.46113 3.70194 3.58356
# Velocity P-wave (km/s) = 6.75280 7.53162 7.15282
#
# Compressibility (1/GPa) = 0.01718805
#
# Stress axis : x y z
#
# Youngs Moduli (GPa) = 101.96362 68.93745 33.71049
#
# Poissons Ratio (x) = 0.25339 0.10630
# Poissons Ratio (y) = 0.37479 0.38989
# Poissons Ratio (z) = 0.32153 0.79731
#
# Static dielectric constant tensor:
#      x y z
#    x 3.902630 0.000000 0.000000 
#    y 0.000000 3.493730 0.000000 
#    z 0.000000 0.000000 3.328110 
# 
# 
# High freq. dielectric constant tensor:
#      x y z
#    x 1.788570 0.000000 0.000000 
#    y 0.000000 1.763300 0.000000 
#    z 0.000000 0.000000 1.737190 
# 
# From -- ./inp_files/16330.got.cif
#   From: 2010.03.12/outbox.cif.g09.slc.cpg/sg49_9_cif.got.tgz:16330.got - 2010.04.14 03:58:27.
