data_PCOD8202629
_publ_section_title
;
Structure prediction by ZEFSAII (Michael W. Deem and Ramdas Pophale) SiO2 
 PCOD8202629
Probable space group: P C C M
;
_chemical_formula_sum "Si O2"
_cell_formula_units_Z 64
_cell_length_a 14.636087
_cell_length_b 23.965611
_cell_length_c 9.064438
_cell_angle_alpha 90.000000
_cell_angle_beta 90.000000
_cell_angle_gamma 90.000000
_cell_volume 3179.467360
_symmetry_space_group_name_H-M "P C C M"
_symmetry_group_IT_number 49
_symmetry_cell_setting 'orthorhombic'
loop_
_space_group_symop_operation_xyz
x,y,z
-x,-y,z
x,-y,1/2-z
-x,y,1/2-z
-x,-y,-z
x,y,-z
-x,y,1/2+z
x,-y,1/2+z
loop_
_atom_site_type_symbol
_atom_site_label
_atom_site_fract_x
_atom_site_fract_y
_atom_site_fract_z
Si Si1 0.409399 0.787296 0.171477
Si Si2 0.645380 0.444908 0.666057
Si Si3 0.093101 0.941988 0.173617
Si Si4 0.132451 0.662139 0.831677
Si Si5 0.136780 0.553821 0.667056
Si Si6 0.348978 0.334301 0.667870
Si Si7 0.776642 0.158663 0.168753
Si Si8 0.085448 0.769964 0.327819
O O1 0.500000 0.809765 0.250000
O O2 0.384113 0.725212 0.231970
O O3 0.331372 0.834524 0.200205
O O4 0.429359 0.782207 0.000000
O O5 0.607441 0.500000 0.750000
O O6 0.607071 0.446255 0.500000
O O7 0.754127 0.446318 0.666500
O O8 0.611211 0.387029 0.740999
O O9 0.181069 0.902311 0.200131
O O10 0.000000 0.918532 0.250000
O O11 0.119762 0.000000 0.250000
O O12 0.074280 0.950260 0.000000
O O13 0.098660 0.604131 0.764762
O O14 0.240621 0.667768 0.821937
O O15 0.085066 0.706957 0.727672
O O16 0.098783 0.668742 0.000000
O O17 0.097981 0.500000 0.750000
O O18 0.099611 0.556711 0.500000
O O19 0.380801 0.342756 0.500000
O O20 0.821143 0.201744 0.280551
O O21 0.797776 0.176797 0.000000
O O22 0.072015 0.773368 0.500000
O O23 0.000000 0.801434 0.250000
#
# Coordination Sequence:
#
# PCOD8202629 Si02
#       8
#     8   8   8   8   8   8   8   8
#     4  10  21  38  58  83 114 150 194 243 297 349
#     4   9  16  25  41  67  98 129 171 221 276 346
#     4  10  20  35  60  91 129 167 203 241 283 335
#     4  10  18  32  51  71 101 139 177 225 283 339
#     4   9  16  26  41  66  95 128 173 222 274 335
#     4   9  17  31  51  71 101 140 177 226 287 346
#     4  10  21  40  61  85 119 159 197 240 289 337
#     4  12  24  36  54  81 113 149 188 231 280 341
#
# _framework density 20.129156999999999
#
# number of rings (size 3 to 8) (size 9 to 14) (size 15 to 20)
#    0.000    2.125    1.250    3.375    0.000    6.500 
#    0.000    0.000    0.000    1.125    0.000    7.875 
#    0.000    0.000    0.000    0.000    0.000    0.000 
#
# Total GULP energy -793413.998055 kJ/mol
# GULP energy per Si atom -12397.093720 kJ/mol
# Density = 2.008334 g / cm^3
# Si number density = 20.129157 Si / 1000 Ang^3
#
#
#
# Elastic Constant Matrix: (Units=GPa)
#
#
# Indices 1 2 3 4 5 6 
#
# 1 84.5181 49.9612 50.0154 0.0000 0.0000 0.0000
# 2 49.9612 116.9312 54.5792 0.0000 0.0000 0.0000
# 3 50.0154 54.5792 139.4506 0.0000 0.0000 0.0000
# 4 0.0000 0.0000 0.0000 24.3533 0.0000 0.0000
# 5 0.0000 0.0000 0.0000 0.0000 24.6959 0.0000
# 6 0.0000 0.0000 0.0000 0.0000 0.0000 -0.9206
#
#
#
# Elastic Compliance Matrix: (Units=1/GPa)
#
#
# Indices 1 2 3 4 5 6 
#
# 1 0.017569 -0.005586 -0.004115 0.000000 0.000000 0.000000
# 2 -0.005586 0.012240 -0.002787 0.000000 0.000000 0.000000
# 3 -0.004115 -0.002787 0.009738 0.000000 0.000000 0.000000
# 4 0.000000 0.000000 0.000000 0.041062 0.000000 0.000000
# 5 0.000000 0.000000 0.000000 0.000000 0.040493 0.000000
# 6 0.000000 0.000000 0.000000 0.000000 0.000000 -1.086281
#
#
# Mechanical properties :
#
#
# Convention : Reuss Voigt Hill
#
# Bulk Modulus (GPa) = 68.63246 72.22350 70.42798
# Shear Modulus (GPa) = -5.34561 22.04867 8.35153
#
# Velocity S-wave (km/s) = -1.63139 3.31321 2.03911
# Velocity P-wave (km/s) = 5.53367 7.11298 6.37244
#
# Compressibility (1/GPa) = 0.01457037
#
# Stress axis : x y z
#
# Youngs Moduli (GPa) = 56.91849 81.70205 102.69391
#
# Poissons Ratio (x) = 0.45638 0.42259
# Poissons Ratio (y) = 0.31794 0.28620
# Poissons Ratio (z) = 0.23422 0.22770
#
# Static dielectric constant tensor:
#      x y z
#    x 3.505050 0.000000 0.000000 
#    y 0.000000 3.666280 0.000000 
#    z 0.000000 0.000000 3.714070 
# 
# 
# High freq. dielectric constant tensor:
#      x y z
#    x 1.768570 0.000000 0.000000 
#    y 0.000000 1.772510 0.000000 
#    z 0.000000 0.000000 1.790270 
# 
# From -- ./inp_files/4304.got.cif
#   From: 2010.03.12/outbox.cif.g09.slc.cpg/sg49_3_cif.got.tgz:4304.got - 2010.04.14 03:58:27.
