data_PCOD8202842
_publ_section_title
;
Structure prediction by ZEFSAII (Michael W. Deem and Ramdas Pophale) SiO2 
 PCOD8202842
Probable space group: P C C M
;
_chemical_formula_sum "Si O2"
_cell_formula_units_Z 64
_cell_length_a 14.669549
_cell_length_b 27.989098
_cell_length_c 9.031747
_cell_angle_alpha 90.000000
_cell_angle_beta 90.000000
_cell_angle_gamma 90.000000
_cell_volume 3708.321921
_symmetry_space_group_name_H-M "P C C M"
_symmetry_group_IT_number 49
_symmetry_cell_setting 'orthorhombic'
loop_
_space_group_symop_operation_xyz
x,y,z
-x,-y,z
x,-y,1/2-z
-x,y,1/2-z
-x,-y,-z
x,y,-z
-x,y,1/2+z
x,-y,1/2+z
loop_
_atom_site_type_symbol
_atom_site_label
_atom_site_fract_x
_atom_site_fract_y
_atom_site_fract_z
Si Si1 0.284952 0.547861 0.826283
Si Si2 0.902739 0.044201 0.827582
Si Si3 0.406463 0.264809 0.826998
Si Si4 0.911717 0.419145 0.170715
Si Si5 0.910001 0.311320 0.173490
Si Si6 0.406264 0.624363 0.326097
Si Si7 0.230883 0.767692 0.174405
Si Si8 0.903332 0.149797 0.828015
O O1 0.324078 0.500000 0.750000
O O2 0.176627 0.548984 0.797886
O O3 0.326597 0.594208 0.749226
O O4 0.308762 0.548070 0.000000
O O5 0.860177 0.096804 0.800940
O O6 0.000000 0.045832 0.750000
O O7 0.846969 0.000000 0.750000
O O8 0.912561 0.032848 0.000000
O O9 0.500000 0.248965 0.750000
O O10 0.385817 0.320315 0.793550
O O11 0.326177 0.232454 0.760522
O O12 0.415523 0.254833 0.000000
O O13 0.892694 0.365352 0.228901
O O14 0.000000 0.441853 0.250000
O O15 0.936194 0.417496 0.000000
O O16 0.823020 0.280209 0.219432
O O17 0.000000 0.289830 0.250000
O O18 0.926391 0.308167 0.000000
O O19 0.500000 0.608334 0.250000
O O20 0.411677 0.613333 0.500000
O O21 0.171984 0.812961 0.229666
O O22 0.250753 0.770092 0.000000
O O23 0.000000 0.157755 0.750000
O O24 0.922919 0.158548 0.000000
#
# Coordination Sequence:
#
# PCOD8202842 Si02
#       8
#     8   8   8   8   8   8   8   8
#     4  11  23  38  55  76 101 127 156 191 233 279
#     4   9  15  24  38  57  83 120 167 211 250 287
#     4  10  21  36  55  77  98 123 156 193 232 278
#     4   9  19  34  51  70  93 123 158 194 228 266
#     4   9  17  29  46  68  93 123 157 190 226 269
#     4  10  21  38  59  81 102 124 152 187 229 278
#     4  10  19  31  47  68  98 131 160 195 239 283
#     4   9  18  29  42  64  96 133 170 208 247 288
#
# _framework density 17.258479999999999
#
# number of rings (size 3 to 8) (size 9 to 14) (size 15 to 20)
#    0.000    2.375    0.000    3.000    0.000    5.500 
#    0.000    5.000    0.000    0.000    0.000    0.000 
#    0.000    0.500    0.000    5.750    0.000    1.750 
#
# Total GULP energy -793466.893266 kJ/mol
# GULP energy per Si atom -12397.920207 kJ/mol
# Density = 1.721920 g / cm^3
# Si number density = 17.258480 Si / 1000 Ang^3
#
#
#
# Elastic Constant Matrix: (Units=GPa)
#
#
# Indices 1 2 3 4 5 6 
#
# 1 91.4482 37.2535 47.1877 0.0000 0.0000 0.0000
# 2 37.2535 77.6893 39.1659 0.0000 0.0000 0.0000
# 3 47.1877 39.1659 81.2509 0.0000 0.0000 0.0000
# 4 0.0000 0.0000 0.0000 -19.9069 0.0000 0.0000
# 5 0.0000 0.0000 0.0000 0.0000 31.3218 0.0000
# 6 0.0000 0.0000 0.0000 0.0000 0.0000 15.2034
#
#
#
# Elastic Compliance Matrix: (Units=1/GPa)
#
#
# Indices 1 2 3 4 5 6 
#
# 1 0.016539 -0.004080 -0.007638 0.000000 0.000000 0.000000
# 2 -0.004080 0.018010 -0.006312 0.000000 0.000000 0.000000
# 3 -0.007638 -0.006312 0.019786 0.000000 0.000000 0.000000
# 4 0.000000 0.000000 0.000000 -0.050234 0.000000 0.000000
# 5 0.000000 0.000000 0.000000 0.000000 0.031927 0.000000
# 6 0.000000 0.000000 0.000000 0.000000 0.000000 0.065775
#
#
# Mechanical properties :
#
#
# Convention : Reuss Voigt Hill
#
# Bulk Modulus (GPa) = 54.72122 55.28917 55.00520
# Shear Modulus (GPa) = 34.73301 13.77576 24.25439
#
# Velocity S-wave (km/s) = 4.49098 2.82831 3.75288
# Velocity P-wave (km/s) = 7.65947 6.53998 7.12176
#
# Compressibility (1/GPa) = 0.01827445
#
# Stress axis : x y z
#
# Youngs Moduli (GPa) = 60.46452 55.52371 50.53959
#
# Poissons Ratio (x) = 0.22652 0.38605
# Poissons Ratio (y) = 0.24668 0.31902
# Poissons Ratio (z) = 0.46186 0.35048
#
# Static dielectric constant tensor:
#      x y z
#    x 3.026330 0.000000 0.000000 
#    y 0.000000 3.727820 0.000000 
#    z 0.000000 0.000000 3.242310 
# 
# 
# High freq. dielectric constant tensor:
#      x y z
#    x 1.640700 0.000000 0.000000 
#    y 0.000000 1.658410 0.000000 
#    z 0.000000 0.000000 1.673500 
# 
# From -- ./inp_files/4506.got.cif
#   From: 2010.03.12/outbox.cif.g09.slc.cpg/sg49_3_cif.got.tgz:4506.got - 2010.04.14 03:58:27.
