data_PCOD8202885
_publ_section_title
;
Structure prediction by ZEFSAII (Michael W. Deem and Ramdas Pophale) SiO2 
 PCOD8202885
Probable space group: P C C M
;
_chemical_formula_sum "Si O2"
_cell_formula_units_Z 42
_cell_length_a 19.710765
_cell_length_b 13.847875
_cell_length_c 8.894693
_cell_angle_alpha 90.000000
_cell_angle_beta 90.000000
_cell_angle_gamma 90.000000
_cell_volume 2427.826111
_symmetry_space_group_name_H-M "P C C M"
_symmetry_group_IT_number 49
_symmetry_cell_setting 'orthorhombic'
loop_
_space_group_symop_operation_xyz
x,y,z
-x,-y,z
x,-y,1/2-z
-x,y,1/2-z
-x,-y,-z
x,y,-z
-x,y,1/2+z
x,-y,1/2+z
loop_
_atom_site_type_symbol
_atom_site_label
_atom_site_fract_x
_atom_site_fract_y
_atom_site_fract_z
Si Si1 0.429523 0.273087 0.179580
Si Si2 0.696610 0.600195 0.826736
Si Si3 0.649986 0.104029 0.820145
Si Si4 0.130382 0.091537 0.666633
Si Si5 0.226885 0.212537 0.176170
Si Si6 0.000000 0.000000 0.750000
O O1 0.500000 0.308657 0.250000
O O2 0.374550 0.354063 0.226486
O O3 0.409324 0.172067 0.255302
O O4 0.433360 0.260682 0.000000
O O5 0.713624 0.500000 0.750000
O O6 0.757207 0.675491 0.790325
O O7 0.692576 0.576868 0.000000
O O8 0.722583 0.143652 0.767428
O O9 0.636780 0.000000 0.750000
O O10 0.646353 0.100303 0.000000
O O11 0.159949 0.101912 0.500000
O O12 0.151217 0.186618 0.763163
O O13 0.048878 0.072577 0.656079
O O14 0.165240 0.000000 0.750000
O O15 0.234230 0.190565 0.000000
#
# Coordination Sequence:
#
# PCOD8202885 Si02
#       6
#     8   8   8   8   8   2
#     4  10  21  37  53  74 100 129 167 210 259 312
#     4   9  20  36  54  75 100 128 164 213 262 309
#     4  11  21  34  51  72  99 133 171 211 254 302
#     4  10  19  31  49  74 107 144 176 207 243 289
#     4  10  20  34  51  74 103 135 171 212 254 300
#     4   8  22  32  50  76 116 144 184 204 246 280
#
# _framework density 17.299426
#
# number of rings (size 3 to 8) (size 9 to 14) (size 15 to 20)
#    0.571    1.524    0.000    5.429    0.000    5.333 
#    0.000    3.810    0.000    0.000    0.000    0.667 
#    0.000    4.571    0.000    0.000    0.000    0.000 
#
# Total GULP energy -520502.984323 kJ/mol
# GULP energy per Si atom -12392.928198 kJ/mol
# Density = 1.726005 g / cm^3
# Si number density = 17.299426 Si / 1000 Ang^3
#
#
#
# Elastic Constant Matrix: (Units=GPa)
#
#
# Indices 1 2 3 4 5 6 
#
# 1 82.4963 42.7146 33.2833 0.0000 0.0000 0.0000
# 2 42.7146 117.1512 54.8378 0.0000 0.0000 0.0000
# 3 33.2833 54.8378 120.7366 0.0000 0.0000 0.0000
# 4 0.0000 0.0000 0.0000 31.5170 0.0000 0.0000
# 5 0.0000 0.0000 0.0000 0.0000 24.0837 0.0000
# 6 0.0000 0.0000 0.0000 0.0000 0.0000 19.1988
#
#
#
# Elastic Compliance Matrix: (Units=1/GPa)
#
#
# Indices 1 2 3 4 5 6 
#
# 1 0.015369 -0.004598 -0.002148 0.000000 0.000000 0.000000
# 2 -0.004598 0.012216 -0.004281 0.000000 0.000000 0.000000
# 3 -0.002148 -0.004281 0.010819 0.000000 0.000000 0.000000
# 4 0.000000 0.000000 0.000000 0.031729 0.000000 0.000000
# 5 0.000000 0.000000 0.000000 0.000000 0.041522 0.000000
# 6 0.000000 0.000000 0.000000 0.000000 0.000000 0.052087
#
#
# Mechanical properties :
#
#
# Convention : Reuss Voigt Hill
#
# Bulk Modulus (GPa) = 61.16313 64.67283 62.91798
# Shear Modulus (GPa) = 26.14413 27.59647 26.87030
#
# Velocity S-wave (km/s) = 3.89172 3.99836 3.94540
# Velocity P-wave (km/s) = 7.45831 7.66690 7.56332
#
# Compressibility (1/GPa) = 0.01634972
#
# Stress axis : x y z
#
# Youngs Moduli (GPa) = 65.06452 81.85675 92.42863
#
# Poissons Ratio (x) = 0.37639 0.19857
# Poissons Ratio (y) = 0.29918 0.39569
# Poissons Ratio (z) = 0.13978 0.35043
#
# Static dielectric constant tensor:
#      x y z
#    x 3.124800 0.000000 0.000000 
#    y 0.000000 3.182810 0.000000 
#    z 0.000000 0.000000 3.262010 
# 
# 
# High freq. dielectric constant tensor:
#      x y z
#    x 1.649870 0.000000 0.000000 
#    y 0.000000 1.651390 0.000000 
#    z 0.000000 0.000000 1.683450 
# 
# From -- ./inp_files/6303.got.cif
#   From: 2010.03.12/outbox.cif.g09.slc.cpg/sg49_4_cif.got.tgz:6303.got - 2010.04.14 03:58:27.
