data_PCOD8202380
_publ_section_title
;
Structure prediction by ZEFSAII (Michael W. Deem and Ramdas Pophale) SiO2 
 PCOD8202380
Probable space group: P C C M
;
_chemical_formula_sum "Si O2"
_cell_formula_units_Z 48
_cell_length_a 9.555688
_cell_length_b 30.516098
_cell_length_c 8.387476
_cell_angle_alpha 90.000000
_cell_angle_beta 90.000000
_cell_angle_gamma 90.000000
_cell_volume 2445.807389
_symmetry_space_group_name_H-M "P C C M"
_symmetry_group_IT_number 49
_symmetry_cell_setting 'orthorhombic'
loop_
_space_group_symop_operation_xyz
x,y,z
-x,-y,z
x,-y,1/2-z
-x,y,1/2-z
-x,-y,-z
x,y,-z
-x,y,1/2+z
x,-y,1/2+z
loop_
_atom_site_type_symbol
_atom_site_label
_atom_site_fract_x
_atom_site_fract_y
_atom_site_fract_z
Si Si1 0.653493 0.696133 0.186860
Si Si2 0.842576 0.864988 0.812037
Si Si3 0.648248 0.209344 0.813477
Si Si4 0.350280 0.452528 0.814076
Si Si5 0.844520 0.621864 0.686089
Si Si6 0.157671 0.955337 0.810906
O O1 0.500000 0.684150 0.250000
O O2 0.690475 0.746558 0.221115
O O3 0.765996 0.667010 0.277966
O O4 0.661608 0.686329 0.000000
O O5 0.763178 0.827028 0.719450
O O6 0.772343 0.911907 0.765978
O O7 0.000000 0.864137 0.750000
O O8 0.834879 0.857233 0.000000
O O9 0.500000 0.191613 0.750000
O O10 0.637756 0.219873 0.000000
O O11 0.307513 0.500000 0.750000
O O12 0.500000 0.436163 0.750000
O O13 0.230449 0.418535 0.770733
O O14 0.365193 0.456280 0.000000
O O15 0.846334 0.612659 0.500000
O O16 0.000000 0.626126 0.750000
O O17 0.000000 0.957216 0.750000
O O18 0.234300 0.000000 0.750000
O O19 0.163493 0.952107 0.000000
#
# Coordination Sequence:
#
# PCOD8202380 Si02
#       6
#     8   8   8   8   8   8
#     4  11  22  40  63  88 114 149 191 235 280 334
#     4  11  21  35  54  81 112 146 185 232 282 335
#     4  11  22  39  60  85 113 148 188 232 281 337
#     4  11  22  40  64  92 121 157 199 243 286 336
#     4  12  25  42  61  88 121 156 193 238 290 344
#     4  10  17  28  46  72 104 141 181 227 276 330
#
# _framework density 19.625422
#
# number of rings (size 3 to 8) (size 9 to 14) (size 15 to 20)
#    0.000    1.000    0.000   12.500    0.000    1.000 
#    0.000    5.000    0.000    0.500    0.000    3.500 
#    0.000    0.000    0.000    0.000    0.000    0.000 
#
# Total GULP energy -595345.934103 kJ/mol
# GULP energy per Si atom -12403.040294 kJ/mol
# Density = 1.958075 g / cm^3
# Si number density = 19.625422 Si / 1000 Ang^3
#
#
#
# Elastic Constant Matrix: (Units=GPa)
#
#
# Indices 1 2 3 4 5 6 
#
# 1 90.3636 61.2584 11.5838 0.0000 0.0000 0.0000
# 2 61.2584 113.6776 11.4237 0.0000 0.0000 0.0000
# 3 11.5838 11.4237 127.8244 0.0000 0.0000 0.0000
# 4 0.0000 0.0000 0.0000 38.7342 0.0000 0.0000
# 5 0.0000 0.0000 0.0000 0.0000 35.5958 0.0000
# 6 0.0000 0.0000 0.0000 0.0000 0.0000 11.4265
#
#
#
# Elastic Compliance Matrix: (Units=1/GPa)
#
#
# Indices 1 2 3 4 5 6 
#
# 1 0.017507 -0.009359 -0.000750 0.000000 0.000000 0.000000
# 2 -0.009359 0.013879 -0.000392 0.000000 0.000000 0.000000
# 3 -0.000750 -0.000392 0.007926 0.000000 0.000000 0.000000
# 4 0.000000 0.000000 0.000000 0.025817 0.000000 0.000000
# 5 0.000000 0.000000 0.000000 0.000000 0.028093 0.000000
# 6 0.000000 0.000000 0.000000 0.000000 0.000000 0.087516
#
#
# Mechanical properties :
#
#
# Convention : Reuss Voigt Hill
#
# Bulk Modulus (GPa) = 54.61393 55.59970 55.10681
# Shear Modulus (GPa) = 24.05648 33.65796 28.85722
#
# Velocity S-wave (km/s) = 3.50491 4.14577 3.83874
# Velocity P-wave (km/s) = 6.65341 7.16300 6.91290
#
# Compressibility (1/GPa) = 0.01831035
#
# Stress axis : x y z
#
# Youngs Moduli (GPa) = 57.12022 72.04905 126.16268
#
# Poissons Ratio (x) = 0.67429 0.09464
# Poissons Ratio (y) = 0.53457 0.04949
# Poissons Ratio (z) = 0.04285 0.02826
#
# Static dielectric constant tensor:
#      x y z
#    x 3.350360 0.000000 0.000000 
#    y 0.000000 4.130250 0.000000 
#    z 0.000000 0.000000 3.745230 
# 
# 
# High freq. dielectric constant tensor:
#      x y z
#    x 1.735690 0.000000 0.000000 
#    y 0.000000 1.785520 0.000000 
#    z 0.000000 0.000000 1.791800 
# 
# From -- ./inp_files/2124.got.cif
#   From: 2010.03.12/outbox.cif.g09.slc.cpg/sg49_2_cif.got.tgz:2124.got - 2010.04.14 03:58:27.
