data_PCOD8202751
_publ_section_title
;
Structure prediction by ZEFSAII (Michael W. Deem and Ramdas Pophale) SiO2 
 PCOD8202751
Probable space group: P C C M
;
_chemical_formula_sum "Si O2"
_cell_formula_units_Z 48
_cell_length_a 23.046948
_cell_length_b 13.106717
_cell_length_c 8.688811
_cell_angle_alpha 90.000000
_cell_angle_beta 90.000000
_cell_angle_gamma 90.000000
_cell_volume 2624.627620
_symmetry_space_group_name_H-M "P C C M"
_symmetry_group_IT_number 49
_symmetry_cell_setting 'orthorhombic'
loop_
_space_group_symop_operation_xyz
x,y,z
-x,-y,z
x,-y,1/2-z
-x,y,1/2-z
-x,-y,-z
x,y,-z
-x,y,1/2+z
x,-y,1/2+z
loop_
_atom_site_type_symbol
_atom_site_label
_atom_site_fract_x
_atom_site_fract_y
_atom_site_fract_z
Si Si1 0.753748 0.093602 0.167441
Si Si2 0.755337 0.390405 0.682312
Si Si3 0.063512 0.892895 0.683044
Si Si4 0.663809 0.220536 0.678606
Si Si5 0.849470 0.740012 0.330130
Si Si6 0.437552 0.108507 0.317913
O O1 0.702662 0.122158 0.284667
O O2 0.799381 0.180433 0.143896
O O3 0.786342 0.000000 0.250000
O O4 0.727682 0.065073 0.000000
O O5 0.740719 0.500000 0.750000
O O6 0.759829 0.393512 0.500000
O O7 0.701072 0.319064 0.733944
O O8 0.818762 0.354647 0.743791
O O9 0.061806 0.901379 0.500000
O O10 0.100308 0.793187 0.730487
O O11 0.000000 0.874684 0.750000
O O12 0.088726 0.000000 0.750000
O O13 0.648818 0.227423 0.500000
O O14 0.604261 0.203385 0.771945
O O15 0.872976 0.706467 0.500000
O O16 0.500000 0.136024 0.250000
O O17 0.441504 0.099054 0.500000
O O18 0.415513 0.000000 0.250000
#
# Coordination Sequence:
#
# PCOD8202751 Si02
#       6
#     8   8   8   8   8   8
#     4  10  19  29  44  68  99 133 166 204 250 301
#     4  10  21  37  58  81 105 134 170 216 268 319
#     4  11  21  34  52  76 108 145 183 218 257 305
#     4  10  20  34  51  73 101 133 170 210 255 306
#     4  10  20  34  52  75 103 135 173 215 260 310
#     4  11  21  34  52  75 106 142 178 213 251 299
#
# _framework density 18.288309999999999
#
# number of rings (size 3 to 8) (size 9 to 14) (size 15 to 20)
#    0.000    1.667    0.000    7.000    0.000    5.333 
#    0.000    0.000    0.000    1.000    0.000    7.000 
#    0.000    0.000    0.000    0.000    0.000    0.000 
#
# Total GULP energy -594886.008092 kJ/mol
# GULP energy per Si atom -12393.458502 kJ/mol
# Density = 1.824668 g / cm^3
# Si number density = 18.288310 Si / 1000 Ang^3
#
#
#
# Elastic Constant Matrix: (Units=GPa)
#
#
# Indices 1 2 3 4 5 6 
#
# 1 89.1692 40.1675 45.9745 0.0000 0.0000 0.0000
# 2 40.1675 85.6591 51.1115 0.0000 0.0000 0.0000
# 3 45.9745 51.1115 139.0684 0.0000 0.0000 0.0000
# 4 0.0000 0.0000 0.0000 28.0553 0.0000 0.0000
# 5 0.0000 0.0000 0.0000 0.0000 51.3797 0.0000
# 6 0.0000 0.0000 0.0000 0.0000 0.0000 28.1340
#
#
#
# Elastic Compliance Matrix: (Units=1/GPa)
#
#
# Indices 1 2 3 4 5 6 
#
# 1 0.015181 -0.005283 -0.003077 0.000000 0.000000 0.000000
# 2 -0.005283 0.016792 -0.004425 0.000000 0.000000 0.000000
# 3 -0.003077 -0.004425 0.009834 0.000000 0.000000 0.000000
# 4 0.000000 0.000000 0.000000 0.035644 0.000000 0.000000
# 5 0.000000 0.000000 0.000000 0.000000 0.019463 0.000000
# 6 0.000000 0.000000 0.000000 0.000000 0.000000 0.035544
#
#
# Mechanical properties :
#
#
# Convention : Reuss Voigt Hill
#
# Bulk Modulus (GPa) = 61.58659 65.37817 63.48238
# Shear Modulus (GPa) = 30.59235 33.29001 31.94118
#
# Velocity S-wave (km/s) = 4.09440 4.27111 4.18369
# Velocity P-wave (km/s) = 7.49004 7.75561 7.62398
#
# Compressibility (1/GPa) = 0.01623730
#
# Stress axis : x y z
#
# Youngs Moduli (GPa) = 65.87296 59.55348 101.68498
#
# Poissons Ratio (x) = 0.31459 0.31290
# Poissons Ratio (y) = 0.34798 0.44996
# Poissons Ratio (z) = 0.20270 0.26353
#
# Static dielectric constant tensor:
#      x y z
#    x 3.424040 0.000000 0.000000 
#    y 0.000000 3.369460 0.000000 
#    z 0.000000 0.000000 3.704410 
# 
# 
# High freq. dielectric constant tensor:
#      x y z
#    x 1.700120 0.000000 0.000000 
#    y 0.000000 1.679380 0.000000 
#    z 0.000000 0.000000 1.732040 
# 
# From -- ./inp_files/6321.got.cif
#   From: 2010.03.12/outbox.cif.g09.slc.cpg/sg49_4_cif.got.tgz:6321.got - 2010.04.14 03:58:27.
