data_PCOD8202085
_publ_section_title
;
Structure prediction by ZEFSAII (Michael W. Deem and Ramdas Pophale) SiO2 
 PCOD8202085
Probable space group: P N N N
;
_chemical_formula_sum "Si O2"
_cell_formula_units_Z 56
_cell_length_a 18.464640
_cell_length_b 16.167944
_cell_length_c 8.927157
_cell_angle_alpha 90.000000
_cell_angle_beta 90.000000
_cell_angle_gamma 90.000000
_cell_volume 2665.071185
_symmetry_space_group_name_H-M "P N N N"
_symmetry_group_IT_number 48
_space_group.IT_coordinate_system_code '2'
_symmetry_cell_setting 'orthorhombic'
loop_
_space_group_symop_operation_xyz
x,y,z
1/2-x,1/2-y,z
x,1/2-y,1/2-z
1/2-x,y,1/2-z
-x,-y,-z
1/2+x,1/2+y,-z
-x,1/2+y,1/2+z
1/2+x,-y,1/2+z
loop_
_atom_site_type_symbol
_atom_site_label
_atom_site_fract_x
_atom_site_fract_y
_atom_site_fract_z
Si Si1 0.659348 0.586768 0.108850
Si Si2 0.317821 0.796623 0.095381
Si Si3 0.924520 0.047044 0.970500
Si Si4 0.672980 0.893487 0.062624
Si Si5 0.390725 0.238968 0.425223
Si Si6 0.946237 0.266139 0.423162
Si Si7 0.825616 0.478432 0.813607
O O1 0.744257 0.590138 0.094935
O O2 0.631579 0.604191 0.277713
O O3 0.635482 0.493498 0.076527
O O4 0.623791 0.646599 0.984094
O O5 0.250000 0.750000 0.014286
O O6 0.331908 0.750000 0.250000
O O7 0.298821 0.892245 0.116460
O O8 0.390841 0.795142 0.001572
O O9 0.892315 0.036724 0.801685
O O10 0.931787 0.141217 0.020504
O O11 0.000000 0.000000 0.000000
O O12 0.663957 0.800577 0.005645
O O13 0.643284 0.959996 0.941956
O O14 0.376574 0.250000 0.250000
O O15 0.473056 0.261822 0.466573
O O16 0.933391 0.250000 0.250000
O O17 0.750000 0.518206 0.750000
#
# Coordination Sequence:
#
# PCOD8202085 Si02
#       7
#     8   8   8   8   8   8   8
#     4  11  24  45  66 101 139 174 227 284 349 404
#     4  11  22  43  66  97 127 173 229 284 340 410
#     4  12  24  43  69  98 140 182 226 290 349 410
#     4  11  26  41  70 101 136 177 222 288 344 422
#     4  11  24  44  69  97 134 183 229 275 342 421
#     4  11  26  43  65  98 138 179 227 282 351 421
#     4  12  23  43  70 100 131 176 236 281 347 426
#
# _framework density 21.012571999999999
#
# number of rings (size 3 to 8) (size 9 to 14) (size 15 to 20)
#    0.000    0.714    5.714    1.714    4.000    4.286 
#    0.000    1.429    0.000    0.000    0.000    0.000 
#    0.000    0.000    0.000    0.000    0.000    0.000 
#
# Total GULP energy -694255.992668 kJ/mol
# GULP energy per Si atom -12397.428440 kJ/mol
# Density = 2.096475 g / cm^3
# Si number density = 21.012572 Si / 1000 Ang^3
#
#
#
# Elastic Constant Matrix: (Units=GPa)
#
#
# Indices 1 2 3 4 5 6 
#
# 1 79.4094 9.5107 36.0075 0.0000 0.0000 0.0000
# 2 9.5107 82.7803 39.0632 0.0000 0.0000 0.0000
# 3 36.0075 39.0632 118.7308 0.0000 0.0000 0.0000
# 4 0.0000 0.0000 0.0000 27.0270 0.0000 0.0000
# 5 0.0000 0.0000 0.0000 0.0000 32.9182 0.0000
# 6 0.0000 0.0000 0.0000 0.0000 0.0000 32.8507
#
#
#
# Elastic Compliance Matrix: (Units=1/GPa)
#
#
# Indices 1 2 3 4 5 6 
#
# 1 0.014617 0.000488 -0.004594 0.000000 0.000000 0.000000
# 2 0.000488 0.014317 -0.004858 0.000000 0.000000 0.000000
# 3 -0.004594 -0.004858 0.011414 0.000000 0.000000 0.000000
# 4 0.000000 0.000000 0.000000 0.037000 0.000000 0.000000
# 5 0.000000 0.000000 0.000000 0.000000 0.030378 0.000000
# 6 0.000000 0.000000 0.000000 0.000000 0.000000 0.030441
#
#
# Mechanical properties :
#
#
# Convention : Reuss Voigt Hill
#
# Bulk Modulus (GPa) = 44.60185 50.00927 47.30556
# Shear Modulus (GPa) = 30.56828 31.64846 31.10837
#
# Velocity S-wave (km/s) = 3.81827 3.88515 3.85186
# Velocity P-wave (km/s) = 6.38054 6.63153 6.50724
#
# Compressibility (1/GPa) = 0.02242060
#
# Stress axis : x y z
#
# Youngs Moduli (GPa) = 68.41134 69.84859 87.61188
#
# Poissons Ratio (x) = -0.03411 0.40246
# Poissons Ratio (y) = -0.03341 0.42565
# Poissons Ratio (z) = 0.31426 0.33935
#
# Static dielectric constant tensor:
#      x y z
#    x 3.985990 0.000000 0.000000 
#    y 0.000000 4.163480 0.000000 
#    z 0.000000 0.000000 4.206490 
# 
# 
# High freq. dielectric constant tensor:
#      x y z
#    x 1.827550 0.000000 0.000000 
#    y 0.000000 1.828800 0.000000 
#    z 0.000000 0.000000 1.825750 
# 
# From -- ./inp_files/15273.got.cif
#   From: 2010.06.25/outbox.cif.g09.slc.cpg/sg48_8_cif.got.tgz:15273.got - 2010.06.26 18:06:46.
