data_PCOD8202840
_publ_section_title
;
Structure prediction by ZEFSAII (Michael W. Deem and Ramdas Pophale) SiO2 
 PCOD8202840
Probable space group: P C C M
;
_chemical_formula_sum "Si O2"
_cell_formula_units_Z 64
_cell_length_a 14.853123
_cell_length_b 28.033493
_cell_length_c 9.033190
_cell_angle_alpha 90.000000
_cell_angle_beta 90.000000
_cell_angle_gamma 90.000000
_cell_volume 3761.284092
_symmetry_space_group_name_H-M "P C C M"
_symmetry_group_IT_number 49
_symmetry_cell_setting 'orthorhombic'
loop_
_space_group_symop_operation_xyz
x,y,z
-x,-y,z
x,-y,1/2-z
-x,y,1/2-z
-x,-y,-z
x,y,-z
-x,y,1/2+z
x,-y,1/2+z
loop_
_atom_site_type_symbol
_atom_site_label
_atom_site_fract_x
_atom_site_fract_y
_atom_site_fract_z
Si Si1 0.232336 0.047270 0.824110
Si Si2 0.403704 0.544281 0.673052
Si Si3 0.409313 0.193301 0.671149
Si Si4 0.591586 0.918259 0.327122
Si Si5 0.910553 0.234040 0.327475
Si Si6 0.910284 0.874464 0.173371
Si Si7 0.282345 0.735861 0.325961
Si Si8 0.404809 0.350563 0.172113
O O1 0.330429 0.053498 0.755018
O O2 0.172524 0.092583 0.777304
O O3 0.189318 0.000000 0.750000
O O4 0.238685 0.041425 0.000000
O O5 0.348782 0.500000 0.750000
O O6 0.500000 0.545567 0.750000
O O7 0.412498 0.533657 0.500000
O O8 0.362076 0.596772 0.703062
O O9 0.500000 0.211476 0.750000
O O10 0.418078 0.206488 0.500000
O O11 0.393692 0.137737 0.698044
O O12 0.324477 0.219645 0.741129
O O13 0.500000 0.935134 0.250000
O O14 0.589606 0.931457 0.500000
O O15 0.930089 0.235709 0.500000
O O16 0.890740 0.179768 0.275397
O O17 0.823781 0.266193 0.285459
O O18 0.000000 0.254814 0.250000
O O19 0.000000 0.894236 0.250000
O O20 0.925917 0.877609 0.000000
O O21 0.294855 0.744837 0.500000
O O22 0.330120 0.687076 0.273067
O O23 0.500000 0.341481 0.250000
O O24 0.425163 0.344288 0.000000
#
# Coordination Sequence:
#
# PCOD8202840 Si02
#       8
#     8   8   8   8   8   8   8   8
#     4  11  23  38  55  76 100 124 152 186 227 273
#     4   9  15  24  38  56  80 114 157 198 235 272
#     4  10  20  32  48  71  97 125 157 191 226 268
#     4  10  21  37  55  74  96 124 158 194 229 266
#     4   9  18  33  52  72  93 119 152 188 227 272
#     4   9  19  35  55  76  97 122 150 183 223 270
#     4  10  19  31  47  67  95 128 158 191 233 278
#     4   9  18  29  41  61  91 126 161 196 233 275
#
# _framework density 17.015466
#
# number of rings (size 3 to 8) (size 9 to 14) (size 15 to 20)
#    0.000    2.375    0.000    3.000    0.000    6.500 
#    0.000    5.000    0.000    0.000    0.000    0.000 
#    0.000    0.500    0.000    6.250    0.000    0.000 
#
# Total GULP energy -793452.825966 kJ/mol
# GULP energy per Si atom -12397.700406 kJ/mol
# Density = 1.697674 g / cm^3
# Si number density = 17.015466 Si / 1000 Ang^3
#
#
#
# Elastic Constant Matrix: (Units=GPa)
#
#
# Indices 1 2 3 4 5 6 
#
# 1 103.0215 47.6272 36.7395 0.0000 0.0000 0.0000
# 2 47.6272 76.4227 33.1519 0.0000 0.0000 0.0000
# 3 36.7395 33.1519 63.8351 0.0000 0.0000 0.0000
# 4 0.0000 0.0000 0.0000 -18.2116 0.0000 0.0000
# 5 0.0000 0.0000 0.0000 0.0000 27.2141 0.0000
# 6 0.0000 0.0000 0.0000 0.0000 0.0000 13.3574
#
#
#
# Elastic Compliance Matrix: (Units=1/GPa)
#
#
# Indices 1 2 3 4 5 6 
#
# 1 0.014682 -0.007079 -0.004773 0.000000 0.000000 0.000000
# 2 -0.007079 0.020304 -0.006470 0.000000 0.000000 0.000000
# 3 -0.004773 -0.006470 0.021773 0.000000 0.000000 0.000000
# 4 0.000000 0.000000 0.000000 -0.054910 0.000000 0.000000
# 5 0.000000 0.000000 0.000000 0.000000 0.036746 0.000000
# 6 0.000000 0.000000 0.000000 0.000000 0.000000 0.074865
#
#
# Mechanical properties :
#
#
# Convention : Reuss Voigt Hill
#
# Bulk Modulus (GPa) = 49.71949 53.14629 51.43289
# Shear Modulus (GPa) = 31.88611 12.85602 22.37106
#
# Velocity S-wave (km/s) = 4.33361 2.75171 3.62988
# Velocity P-wave (km/s) = 7.37047 6.43411 6.91815
#
# Compressibility (1/GPa) = 0.02011284
#
# Stress axis : x y z
#
# Youngs Moduli (GPa) = 68.11213 49.25256 45.92875
#
# Poissons Ratio (x) = 0.34866 0.21924
# Poissons Ratio (y) = 0.48217 0.29716
# Poissons Ratio (z) = 0.32513 0.31867
#
# Static dielectric constant tensor:
#      x y z
#    x 3.072660 0.000000 0.000000 
#    y 0.000000 3.778140 0.000000 
#    z 0.000000 0.000000 3.258020 
# 
# 
# High freq. dielectric constant tensor:
#      x y z
#    x 1.631600 0.000000 0.000000 
#    y 0.000000 1.649500 0.000000 
#    z 0.000000 0.000000 1.663680 
# 
# From -- ./inp_files/4545.got.cif
#   From: 2010.03.12/outbox.cif.g09.slc.cpg/sg49_3_cif.got.tgz:4545.got - 2010.04.14 03:58:27.
