data_PCOD8202624
_publ_section_title
;
Structure prediction by ZEFSAII (Michael W. Deem and Ramdas Pophale) SiO2 
 PCOD8202624
Probable space group: P C C M
;
_chemical_formula_sum "Si O2"
_cell_formula_units_Z 42
_cell_length_a 13.124668
_cell_length_b 19.199690
_cell_length_c 10.243207
_cell_angle_alpha 90.000000
_cell_angle_beta 90.000000
_cell_angle_gamma 90.000000
_cell_volume 2581.181194
_symmetry_space_group_name_H-M "P C C M"
_symmetry_group_IT_number 49
_symmetry_cell_setting 'orthorhombic'
loop_
_space_group_symop_operation_xyz
x,y,z
-x,-y,z
x,-y,1/2-z
-x,y,1/2-z
-x,-y,-z
x,y,-z
-x,y,1/2+z
x,-y,1/2+z
loop_
_atom_site_type_symbol
_atom_site_label
_atom_site_fract_x
_atom_site_fract_y
_atom_site_fract_z
Si Si1 0.000000 0.500000 0.750000
Si Si2 0.615937 0.157139 0.246965
Si Si3 0.802730 0.750235 0.258331
Si Si4 0.300744 0.079193 0.500000
Si Si5 0.121304 0.817196 0.500000
Si Si6 0.917391 0.366894 0.150326
Si Si7 0.111222 0.168800 0.500000
Si Si8 0.694071 0.085339 0.500000
O O1 0.924230 0.451234 0.836470
O O2 0.500000 0.183038 0.250000
O O3 0.684710 0.227022 0.243881
O O4 0.640272 0.108699 0.124533
O O5 0.634595 0.111375 0.374040
O O6 0.856384 0.768027 0.122657
O O7 0.811612 0.667513 0.296293
O O8 0.865021 0.788732 0.370532
O O9 0.181235 0.099651 0.500000
O O10 0.304854 0.997010 0.500000
O O11 0.191292 0.885763 0.500000
O O12 0.008066 0.848936 0.500000
O O13 0.000000 0.333076 0.250000
O O14 0.938330 0.346094 0.000000
#
# Coordination Sequence:
#
# PCOD8202624 Si02
#       8
#     2   8   8   4   4   8   4   4
#     4   8  22  28  50  80 112 144 164 188 238 288
#     4  10  21  36  51  71  96 122 168 219 257 299
#     4  10  20  31  50  71  96 132 168 204 242 290
#     4  10  21  33  52  71  95 126 166 207 259 317
#     4  10  20  32  47  70 100 129 168 205 241 295
#     4  10  19  32  49  75 111 140 166 191 236 288
#     4  10  18  32  47  72  94 129 168 199 243 297
#     4  10  21  35  48  73  97 126 164 209 263 307
#
# _framework density 16.271619999999999
#
# number of rings (size 3 to 8) (size 9 to 14) (size 15 to 20)
#    0.571    1.524    0.952    3.143    1.333    2.667 
#    0.000    0.000    0.000    6.857    0.000    0.667 
#    0.000    1.524    0.000    0.000    0.000    0.000 
#
# Total GULP energy -520403.957540 kJ/mol
# GULP energy per Si atom -12390.570418 kJ/mol
# Density = 1.623459 g / cm^3
# Si number density = 16.271620 Si / 1000 Ang^3
#
#
#
# Elastic Constant Matrix: (Units=GPa)
#
#
# Indices 1 2 3 4 5 6 
#
# 1 132.2602 54.7869 45.7422 0.0000 0.0000 0.0000
# 2 54.7869 112.3376 40.9536 0.0000 0.0000 0.0000
# 3 45.7422 40.9536 143.1436 0.0000 0.0000 0.0000
# 4 0.0000 0.0000 0.0000 23.2094 0.0000 0.0000
# 5 0.0000 0.0000 0.0000 0.0000 15.6677 0.0000
# 6 0.0000 0.0000 0.0000 0.0000 0.0000 18.6753
#
#
#
# Elastic Compliance Matrix: (Units=1/GPa)
#
#
# Indices 1 2 3 4 5 6 
#
# 1 0.009964 -0.004129 -0.002003 0.000000 0.000000 0.000000
# 2 -0.004129 0.011650 -0.002013 0.000000 0.000000 0.000000
# 3 -0.002003 -0.002013 0.008202 0.000000 0.000000 0.000000
# 4 0.000000 0.000000 0.000000 0.043086 0.000000 0.000000
# 5 0.000000 0.000000 0.000000 0.000000 0.063826 0.000000
# 6 0.000000 0.000000 0.000000 0.000000 0.000000 0.053547
#
#
# Mechanical properties :
#
#
# Convention : Reuss Voigt Hill
#
# Bulk Modulus (GPa) = 73.93824 74.52298 74.23061
# Shear Modulus (GPa) = 23.68847 27.92771 25.80809
#
# Velocity S-wave (km/s) = 3.81965 4.14737 3.98688
# Velocity P-wave (km/s) = 8.06174 8.29657 8.18000
#
# Compressibility (1/GPa) = 0.01352480
#
# Stress axis : x y z
#
# Youngs Moduli (GPa) = 100.36143 85.83965 121.92170
#
# Poissons Ratio (x) = 0.35446 0.24416
# Poissons Ratio (y) = 0.41443 0.24548
# Poissons Ratio (z) = 0.20099 0.17283
#
# Static dielectric constant tensor:
#      x y z
#    x 3.055590 0.000000 0.000000 
#    y 0.000000 2.969800 0.000000 
#    z 0.000000 0.000000 1.907940 
# 
# 
# High freq. dielectric constant tensor:
#      x y z
#    x 1.606720 0.000000 0.000000 
#    y 0.000000 1.604130 0.000000 
#    z 0.000000 0.000000 1.654480 
# 
# From -- ./inp_files/8841.got.cif
#   From: 2010.03.12/outbox.cif.g09.slc.cpg/sg49_5_cif.got.tgz:8841.got - 2010.04.14 03:58:27.
