data_PCOD8202673
_publ_section_title
;
Structure prediction by ZEFSAII (Michael W. Deem and Ramdas Pophale) SiO2 
 PCOD8202673
Probable space group: P C C M
;
_chemical_formula_sum "Si O2"
_cell_formula_units_Z 64
_cell_length_a 14.784416
_cell_length_b 12.574133
_cell_length_c 16.927895
_cell_angle_alpha 90.000000
_cell_angle_beta 90.000000
_cell_angle_gamma 90.000000
_cell_volume 3146.916216
_symmetry_space_group_name_H-M "P C C M"
_symmetry_group_IT_number 49
_symmetry_cell_setting 'orthorhombic'
loop_
_space_group_symop_operation_xyz
x,y,z
-x,-y,z
x,-y,1/2-z
-x,y,1/2-z
-x,-y,-z
x,y,-z
-x,y,1/2+z
x,-y,1/2+z
loop_
_atom_site_type_symbol
_atom_site_label
_atom_site_fract_x
_atom_site_fract_y
_atom_site_fract_z
Si Si1 0.339741 0.299182 0.835406
Si Si2 0.952172 0.388863 0.411351
Si Si3 0.766283 0.479476 0.406721
Si Si4 0.493261 0.378206 0.408990
Si Si5 0.695921 0.688119 0.650772
Si Si6 0.997390 0.818091 0.158917
Si Si7 0.189576 0.885414 0.154458
Si Si8 0.198756 0.121804 0.841422
O O1 0.318245 0.410939 0.878158
O O2 0.445384 0.292901 0.859531
O O3 0.330831 0.304971 0.741976
O O4 0.277587 0.202783 0.870142
O O5 0.952086 0.341607 0.500000
O O6 0.851230 0.408338 0.379932
O O7 0.004331 0.308525 0.353791
O O8 0.000000 0.500000 0.409462
O O9 0.765535 0.500477 0.500000
O O10 0.767363 0.592574 0.362175
O O11 0.500000 0.500000 0.376848
O O12 0.522998 0.374723 0.500000
O O13 0.391269 0.335821 0.401818
O O14 0.742755 0.796788 0.619397
O O15 0.900766 0.853785 0.121007
O O16 0.000000 0.848584 0.250000
O O17 0.086656 0.872573 0.120621
O O18 0.187980 0.868511 0.248029
O O19 0.226476 0.002531 0.132242
#
# Coordination Sequence:
#
# PCOD8202673 Si02
#       8
#     8   8   8   8   8   8   8   8
#     4  11  21  36  59  88 114 143 191 239 281 330
#     4  10  21  35  49  73 113 158 193 228 281 338
#     4  11  21  35  55  78 116 158 186 225 285 345
#     4  11  23  39  60  84 112 153 189 224 289 354
#     4  11  22  36  58  88 117 145 189 242 284 331
#     4  10  18  33  56  86 112 148 193 236 276 327
#     4   9  19  34  57  85 118 150 187 235 286 333
#     4   9  18  35  57  86 117 150 188 232 285 335
#
# _framework density 20.33737
#
# number of rings (size 3 to 8) (size 9 to 14) (size 15 to 20)
#    0.000    1.750    2.500    2.625    0.000    2.250 
#    2.250    1.250    0.000   11.250    0.000    0.000 
#    0.000    0.000    0.000    0.000    0.000    0.000 
#
# Total GULP energy -793316.814740 kJ/mol
# GULP energy per Si atom -12395.575230 kJ/mol
# Density = 2.029108 g / cm^3
# Si number density = 20.337370 Si / 1000 Ang^3
#
#
#
# Elastic Constant Matrix: (Units=GPa)
#
#
# Indices 1 2 3 4 5 6 
#
# 1 98.9983 51.6166 11.7169 0.0000 0.0000 0.0000
# 2 51.6166 137.3778 14.2311 0.0000 0.0000 0.0000
# 3 11.7169 14.2311 33.3584 0.0000 0.0000 0.0000
# 4 0.0000 0.0000 0.0000 10.8842 0.0000 0.0000
# 5 0.0000 0.0000 0.0000 0.0000 42.4918 0.0000
# 6 0.0000 0.0000 0.0000 0.0000 0.0000 28.5229
#
#
#
# Elastic Compliance Matrix: (Units=1/GPa)
#
#
# Indices 1 2 3 4 5 6 
#
# 1 0.012766 -0.004532 -0.002550 0.000000 0.000000 0.000000
# 2 -0.004532 0.009225 -0.002343 0.000000 0.000000 0.000000
# 3 -0.002550 -0.002343 0.031873 0.000000 0.000000 0.000000
# 4 0.000000 0.000000 0.000000 0.091876 0.000000 0.000000
# 5 0.000000 0.000000 0.000000 0.000000 0.023534 0.000000
# 6 0.000000 0.000000 0.000000 0.000000 0.000000 0.035060
#
#
# Mechanical properties :
#
#
# Convention : Reuss Voigt Hill
#
# Bulk Modulus (GPa) = 28.56207 47.20707 37.88457
# Shear Modulus (GPa) = 21.28958 29.19112 25.24035
#
# Velocity S-wave (km/s) = 3.23897 3.79270 3.52672
# Velocity P-wave (km/s) = 5.29741 6.51474 5.93735
#
# Compressibility (1/GPa) = 0.03501147
#
# Stress axis : x y z
#
# Youngs Moduli (GPa) = 78.33192 108.40222 31.37445
#
# Poissons Ratio (x) = 0.49132 0.08002
# Poissons Ratio (y) = 0.35503 0.07353
# Poissons Ratio (z) = 0.19978 0.25404
#
# Static dielectric constant tensor:
#      x y z
#    x 4.492810 0.000000 0.000000 
#    y 0.000000 3.809380 0.000000 
#    z 0.000000 0.000000 3.347510 
# 
# 
# High freq. dielectric constant tensor:
#      x y z
#    x 1.802090 0.000000 0.000000 
#    y 0.000000 1.789110 0.000000 
#    z 0.000000 0.000000 1.761120 
# 
# From -- ./inp_files/17931.got.cif
#   From: 2010.03.12/outbox.cif.g09.slc.cpg/sg49_9_cif.got.tgz:17931.got - 2010.04.14 03:58:27.
