data_PCOD8202020
_publ_section_title
;
Structure prediction by ZEFSAII (Michael W. Deem and Ramdas Pophale) SiO2 
 PCOD8202020
Probable space group: P N N N
;
_chemical_formula_sum "Si O2"
_cell_formula_units_Z 64
_cell_length_a 26.824537
_cell_length_b 12.583800
_cell_length_c 9.435712
_cell_angle_alpha 90.000000
_cell_angle_beta 90.000000
_cell_angle_gamma 90.000000
_cell_volume 3185.068072
_symmetry_space_group_name_H-M "P N N N"
_symmetry_group_IT_number 48
_space_group.IT_coordinate_system_code '2'
_symmetry_cell_setting 'orthorhombic'
loop_
_space_group_symop_operation_xyz
x,y,z
1/2-x,1/2-y,z
x,1/2-y,1/2-z
1/2-x,y,1/2-z
-x,-y,-z
1/2+x,1/2+y,-z
-x,1/2+y,1/2+z
1/2+x,-y,1/2+z
loop_
_atom_site_type_symbol
_atom_site_label
_atom_site_fract_x
_atom_site_fract_y
_atom_site_fract_z
Si Si1 0.946335 0.679575 0.374072
Si Si2 0.450617 0.871529 0.248783
Si Si3 0.097023 0.978134 0.999679
Si Si4 0.452196 0.627665 0.752230
Si Si5 0.194272 0.872984 0.911347
Si Si6 0.694090 0.129371 0.078383
Si Si7 0.944783 0.676856 0.871842
Si Si8 0.597758 0.024338 0.999154
O O1 0.919709 0.750000 0.250000
O O2 0.907668 0.599942 0.448740
O O3 0.967896 0.752835 0.500719
O O4 0.991937 0.618689 0.297005
O O5 0.431924 0.750000 0.250000
O O6 0.417312 0.955127 0.337992
O O7 0.442452 0.906676 0.087566
O O8 0.057197 0.907182 0.913179
O O9 0.154683 0.947917 0.987201
O O10 0.433967 0.750000 0.750000
O O11 0.509857 0.615894 0.706967
O O12 0.418278 0.546503 0.661001
O O13 0.249790 0.907969 0.958461
O O14 0.185662 0.752173 0.960367
O O15 0.185718 0.885663 0.744788
O O16 0.655382 0.060177 0.985443
O O17 0.918520 0.750000 0.750000
O O18 0.905534 0.597323 0.945731
#
# Coordination Sequence:
#
# PCOD8202020 Si02
#       8
#     8   8   8   8   8   8   8   8
#     4  11  23  38  51  77 116 153 190 236 277 315
#     4  11  22  35  51  81 120 147 179 231 284 339
#     4  12  21  35  58  80 109 154 188 226 285 340
#     4  11  20  33  55  83 108 143 195 235 273 336
#     4   9  18  34  57  87 114 135 173 231 291 341
#     4   9  18  34  57  87 114 135 173 233 287 344
#     4  11  23  38  53  77 114 156 201 237 267 328
#     4  12  21  35  58  82 109 154 194 229 284 346
#
# _framework density 20.093762999999999
#
# number of rings (size 3 to 8) (size 9 to 14) (size 15 to 20)
#    0.000    1.250    1.250    9.000    0.000    0.000 
#    0.000    0.625    0.000    3.000    0.000    0.875 
#    0.000    0.000    0.000    0.000    0.000    0.000 
#
# Total GULP energy -793404.421225 kJ/mol
# GULP energy per Si atom -12396.944082 kJ/mol
# Density = 2.004803 g / cm^3
# Si number density = 20.093763 Si / 1000 Ang^3
#
#
#
# Elastic Constant Matrix: (Units=GPa)
#
#
# Indices 1 2 3 4 5 6 
#
# 1 120.0489 42.5551 19.4046 0.0000 0.0000 0.0000
# 2 42.5551 83.3932 15.3733 0.0000 0.0000 0.0000
# 3 19.4046 15.3733 53.0975 0.0000 0.0000 0.0000
# 4 0.0000 0.0000 0.0000 43.2648 0.0000 0.0000
# 5 0.0000 0.0000 0.0000 0.0000 15.0557 0.0000
# 6 0.0000 0.0000 0.0000 0.0000 0.0000 28.1774
#
#
#
# Elastic Compliance Matrix: (Units=1/GPa)
#
#
# Indices 1 2 3 4 5 6 
#
# 1 0.010452 -0.004891 -0.002404 0.000000 0.000000 0.000000
# 2 -0.004891 0.014956 -0.002543 0.000000 0.000000 0.000000
# 3 -0.002404 -0.002543 0.020448 0.000000 0.000000 0.000000
# 4 0.000000 0.000000 0.000000 0.023113 0.000000 0.000000
# 5 0.000000 0.000000 0.000000 0.000000 0.066420 0.000000
# 6 0.000000 0.000000 0.000000 0.000000 0.000000 0.035489
#
#
# Mechanical properties :
#
#
# Convention : Reuss Voigt Hill
#
# Bulk Modulus (GPa) = 38.19496 45.68950 41.94223
# Shear Modulus (GPa) = 25.09026 29.24667 27.16846
#
# Velocity S-wave (km/s) = 3.53747 3.81925 3.68106
# Velocity P-wave (km/s) = 5.97784 6.49896 6.24384
#
# Compressibility (1/GPa) = 0.02618146
#
# Stress axis : x y z
#
# Youngs Moduli (GPa) = 95.67470 66.86387 48.90456
#
# Poissons Ratio (x) = 0.32700 0.11756
# Poissons Ratio (y) = 0.46790 0.12436
# Poissons Ratio (z) = 0.22998 0.17003
#
# Static dielectric constant tensor:
#      x y z
#    x 3.403860 0.000000 0.000000 
#    y 0.000000 3.699880 0.000000 
#    z 0.000000 0.000000 3.721760 
# 
# 
# High freq. dielectric constant tensor:
#      x y z
#    x 1.744350 0.000000 0.000000 
#    y 0.000000 1.778940 0.000000 
#    z 0.000000 0.000000 1.791340 
# 
# From -- ./inp_files/16031.got.cif
#   From: 2010.06.25/outbox.cif.g09.slc.cpg/sg48_9_cif.got.tgz:16031.got - 2010.06.26 18:06:46.
