data_PCOD8202166
_publ_section_title
;
Structure prediction by ZEFSAII (Michael W. Deem and Ramdas Pophale) SiO2 
 PCOD8202166
Probable space group: P N N N
;
_chemical_formula_sum "Si O2"
_cell_formula_units_Z 26
_cell_length_a 8.657584
_cell_length_b 23.251284
_cell_length_c 4.847541
_cell_angle_alpha 90.000000
_cell_angle_beta 90.000000
_cell_angle_gamma 90.000000
_cell_volume 975.809733
_symmetry_space_group_name_H-M "P N N N"
_symmetry_group_IT_number 48
_space_group.IT_coordinate_system_code '2'
_symmetry_cell_setting 'orthorhombic'
loop_
_space_group_symop_operation_xyz
x,y,z
1/2-x,1/2-y,z
x,1/2-y,1/2-z
1/2-x,y,1/2-z
-x,-y,-z
1/2+x,1/2+y,-z
-x,1/2+y,1/2+z
1/2+x,-y,1/2+z
loop_
_atom_site_type_symbol
_atom_site_label
_atom_site_fract_x
_atom_site_fract_y
_atom_site_fract_z
Si Si1 0.927657 0.456735 0.791161
Si Si2 0.857374 0.611531 0.510006
Si Si3 0.904637 0.156392 0.386476
Si Si4 0.250000 0.750000 0.250000
O O1 0.750000 0.470328 0.750000
O O2 0.038839 0.448121 0.523694
O O3 0.957699 0.390698 0.893248
O O4 0.000000 0.500000 0.000000
O O5 0.750000 0.631708 0.250000
O O6 0.965400 0.663066 0.642084
O O7 0.750000 0.588348 0.750000
O O8 0.750000 0.131034 0.250000
O O9 0.864251 0.214903 0.548209
#
# Coordination Sequence:
#
# PCOD8202166 Si02
#       4
#     8   8   8   2
#     4  12  28  51  83 129 180 238 292 362 442 540
#     4  12  27  51  83 126 183 225 289 367 438 534
#     4  12  25  52  88 131 171 228 312 365 442 533
#     4  12  26  52  96 136 156 242 314 390 430 546
#
# _framework density 26.644542999999999
#
# number of rings (size 3 to 8) (size 9 to 14) (size 15 to 20)
#    0.000    0.000    7.692    0.462    4.308    2.462 
#    0.000    1.538    0.000   25.846    0.000    0.000 
#    0.000    0.000    0.000    0.000    0.000    0.000 
#
# Total GULP energy -322168.981068 kJ/mol
# GULP energy per Si atom -12391.114656 kJ/mol
# Density = 2.658390 g / cm^3
# Si number density = 26.644543 Si / 1000 Ang^3
#
#
#
# Elastic Constant Matrix: (Units=GPa)
#
#
# Indices 1 2 3 4 5 6 
#
# 1 254.9657 67.7284 117.0986 0.0000 0.0000 0.0000
# 2 67.7284 126.0200 53.7253 0.0000 0.0000 0.0000
# 3 117.0986 53.7253 173.0771 0.0000 0.0000 0.0000
# 4 0.0000 0.0000 0.0000 -7.0300 0.0000 0.0000
# 5 0.0000 0.0000 0.0000 0.0000 70.5996 0.0000
# 6 0.0000 0.0000 0.0000 0.0000 0.0000 -10.3431
#
#
#
# Elastic Compliance Matrix: (Units=1/GPa)
#
#
# Indices 1 2 3 4 5 6 
#
# 1 0.005998 -0.001721 -0.003523 0.000000 0.000000 0.000000
# 2 -0.001721 0.009639 -0.001828 0.000000 0.000000 0.000000
# 3 -0.003523 -0.001828 0.008729 0.000000 0.000000 0.000000
# 4 0.000000 0.000000 0.000000 -0.142248 0.000000 0.000000
# 5 0.000000 0.000000 0.000000 0.000000 0.014164 0.000000
# 6 0.000000 0.000000 0.000000 0.000000 0.000000 -0.096682
#
#
# Mechanical properties :
#
#
# Convention : Reuss Voigt Hill
#
# Bulk Modulus (GPa) = 97.83525 114.57418 106.20471
# Shear Modulus (GPa) = -27.34513 31.67932 2.16710
#
# Velocity S-wave (km/s) = -3.20706 3.45187 0.90283
# Velocity P-wave (km/s) = 4.80466 7.67995 6.40571
#
# Compressibility (1/GPa) = 0.01022127
#
# Stress axis : x y z
#
# Youngs Moduli (GPa) = 166.73503 103.73994 114.56078
#
# Poissons Ratio (x) = 0.17856 0.40365
# Poissons Ratio (y) = 0.28698 0.20938
# Poissons Ratio (z) = 0.58749 0.18961
#
# Static dielectric constant tensor:
#      x y z
#    x 4.742720 0.000000 0.000000 
#    y 0.000000 4.802630 0.000000 
#    z 0.000000 0.000000 5.961550 
# 
# 
# High freq. dielectric constant tensor:
#      x y z
#    x 2.101750 0.000000 0.000000 
#    y 0.000000 2.035960 0.000000 
#    z 0.000000 0.000000 2.106590 
# 
# From -- ./inp_files/918.got.cif
#   From: 2010.06.25/outbox.cif.g09.slc.cpg/sg48_1_cif.got.tgz:918.got - 2010.06.26 18:06:46.
