data_PCOD8202762
_publ_section_title
;
Structure prediction by ZEFSAII (Michael W. Deem and Ramdas Pophale) SiO2 
 PCOD8202762
Probable space group: P C C M
;
_chemical_formula_sum "Si O2"
_cell_formula_units_Z 64
_cell_length_a 19.540891
_cell_length_b 19.390120
_cell_length_c 8.975772
_cell_angle_alpha 90.000000
_cell_angle_beta 90.000000
_cell_angle_gamma 90.000000
_cell_volume 3400.921998
_symmetry_space_group_name_H-M "P C C M"
_symmetry_group_IT_number 49
_symmetry_cell_setting 'orthorhombic'
loop_
_space_group_symop_operation_xyz
x,y,z
-x,-y,z
x,-y,1/2-z
-x,y,1/2-z
-x,-y,-z
x,y,-z
-x,y,1/2+z
x,-y,1/2+z
loop_
_atom_site_type_symbol
_atom_site_label
_atom_site_fract_x
_atom_site_fract_y
_atom_site_fract_z
Si Si1 0.778299 0.657117 0.325603
Si Si2 0.067423 0.331754 0.325177
Si Si3 0.311527 0.785844 0.176523
Si Si4 0.854468 0.061627 0.339876
Si Si5 0.696426 0.933328 0.165850
Si Si6 0.427088 0.301059 0.173643
Si Si7 0.934713 0.185603 0.676482
Si Si8 0.334340 0.429618 0.828432
O O1 0.765145 0.647744 0.500000
O O2 0.857386 0.638683 0.284855
O O3 0.752675 0.735040 0.280338
O O4 0.735390 0.600186 0.239060
O O5 0.054565 0.333612 0.500000
O O6 0.073123 0.254984 0.267263
O O7 0.000000 0.368576 0.250000
O O8 0.306570 0.862476 0.242587
O O9 0.380289 0.754297 0.243639
O O10 0.318222 0.792651 0.000000
O O11 0.890808 0.058801 0.500000
O O12 0.774928 0.048147 0.354598
O O13 0.870146 0.137980 0.277833
O O14 0.889506 0.000000 0.250000
O O15 0.662194 0.000000 0.250000
O O16 0.663246 0.925045 0.000000
O O17 0.500000 0.299001 0.250000
O O18 0.396632 0.377176 0.195508
O O19 0.432404 0.281483 0.000000
O O20 0.941426 0.200781 0.500000
O O21 0.000000 0.147333 0.750000
O O22 0.356124 0.500000 0.750000
O O23 0.320071 0.444601 0.000000
#
# Coordination Sequence:
#
# PCOD8202762 Si02
#       8
#     8   8   8   8   8   8   8   8
#     4   9  19  34  53  77 106 139 178 220 266 318
#     4  10  19  31  48  71  97 128 165 211 263 314
#     4  10  19  33  54  79 106 139 177 221 268 316
#     4   9  19  31  43  59  82 114 153 199 252 308
#     4  10  19  32  49  71  98 129 168 216 267 319
#     4  10  21  37  57  84 115 149 183 216 253 299
#     4  10  19  30  42  59  83 114 153 199 251 309
#     4  10  21  36  57  84 115 148 182 216 255 301
#
# _framework density 18.818425000000001
#
# number of rings (size 3 to 8) (size 9 to 14) (size 15 to 20)
#    0.000    2.250    0.000    3.750    0.000    5.000 
#    0.000    2.500    0.000    0.750    0.000    5.250 
#    0.000    0.000    0.000    0.000    0.000    0.000 
#
# Total GULP energy -792895.481172 kJ/mol
# GULP energy per Si atom -12388.991893 kJ/mol
# Density = 1.877559 g / cm^3
# Si number density = 18.818425 Si / 1000 Ang^3
#
#
#
# Elastic Constant Matrix: (Units=GPa)
#
#
# Indices 1 2 3 4 5 6 
#
# 1 75.5200 1.6579 39.9480 0.0000 0.0000 0.0000
# 2 1.6579 61.6828 27.3635 0.0000 0.0000 0.0000
# 3 39.9480 27.3635 85.8152 0.0000 0.0000 0.0000
# 4 0.0000 0.0000 0.0000 32.6084 0.0000 0.0000
# 5 0.0000 0.0000 0.0000 0.0000 -40.8114 0.0000
# 6 0.0000 0.0000 0.0000 0.0000 0.0000 15.7236
#
#
#
# Elastic Compliance Matrix: (Units=1/GPa)
#
#
# Indices 1 2 3 4 5 6 
#
# 1 0.018313 0.003832 -0.009747 0.000000 0.000000 0.000000
# 2 0.003832 0.019685 -0.008060 0.000000 0.000000 0.000000
# 3 -0.009747 -0.008060 0.018760 0.000000 0.000000 0.000000
# 4 0.000000 0.000000 0.000000 0.030667 0.000000 0.000000
# 5 0.000000 0.000000 0.000000 0.000000 -0.024503 0.000000
# 6 0.000000 0.000000 0.000000 0.000000 0.000000 0.063599
#
#
# Mechanical properties :
#
#
# Convention : Reuss Voigt Hill
#
# Bulk Modulus (GPa) = 34.71367 40.10628 37.40997
# Shear Modulus (GPa) = 30.47399 11.77404 21.12402
#
# Velocity S-wave (km/s) = 4.02851 2.50404 3.35403
# Velocity P-wave (km/s) = 6.33444 5.45150 5.90948
#
# Compressibility (1/GPa) = 0.02880710
#
# Stress axis : x y z
#
# Youngs Moduli (GPa) = 54.60551 50.80082 53.30386
#
# Poissons Ratio (x) = -0.19465 0.51954
# Poissons Ratio (y) = -0.20923 0.42965
# Poissons Ratio (z) = 0.53223 0.40948
#
# Static dielectric constant tensor:
#      x y z
#    x 3.531700 0.000000 0.000000 
#    y 0.000000 3.336740 0.000000 
#    z 0.000000 0.000000 3.779800 
# 
# 
# High freq. dielectric constant tensor:
#      x y z
#    x 1.714440 0.000000 0.000000 
#    y 0.000000 1.716120 0.000000 
#    z 0.000000 0.000000 1.746510 
# 
# From -- ./inp_files/5927.got.cif
#   From: 2010.03.12/outbox.cif.g09.slc.cpg/sg49_3_cif.got.tgz:5927.got - 2010.04.14 03:58:27.
