data_PCOD8202504
_publ_section_title
;
Structure prediction by ZEFSAII (Michael W. Deem and Ramdas Pophale) SiO2 
 PCOD8202504
Probable space group: P C C M
;
_chemical_formula_sum "Si O2"
_cell_formula_units_Z 56
_cell_length_a 24.108678
_cell_length_b 5.185019
_cell_length_c 24.106640
_cell_angle_alpha 90.000000
_cell_angle_beta 90.000000
_cell_angle_gamma 90.000000
_cell_volume 3013.425305
_symmetry_space_group_name_H-M "P C C M"
_symmetry_group_IT_number 49
_symmetry_cell_setting 'orthorhombic'
loop_
_space_group_symop_operation_xyz
x,y,z
-x,-y,z
x,-y,1/2-z
-x,y,1/2-z
-x,-y,-z
x,y,-z
-x,y,1/2+z
x,-y,1/2+z
loop_
_atom_site_type_symbol
_atom_site_label
_atom_site_fract_x
_atom_site_fract_y
_atom_site_fract_z
Si Si1 0.885156 0.889770 0.379579
Si Si2 0.853918 0.394425 0.564293
Si Si3 0.938209 0.246441 0.774498
Si Si4 0.627778 0.482661 0.565880
Si Si5 0.437904 0.982476 0.065889
Si Si6 0.771971 0.919380 0.686614
Si Si7 0.740196 0.418417 0.370427
O O1 0.881156 0.674927 0.427551
O O2 0.936713 0.790835 0.341150
O O3 0.832639 0.897316 0.339334
O O4 0.891962 0.172005 0.406858
O O5 0.849762 0.327248 0.500000
O O6 0.792843 0.406248 0.589298
O O7 0.907096 0.500000 0.750000
O O8 0.000000 0.252542 0.750000
O O9 0.905914 0.000000 0.750000
O O10 0.634637 0.489189 0.500000
O O11 0.595841 0.229737 0.586615
O O12 0.688226 0.486136 0.591825
O O13 0.592745 0.726830 0.587677
O O14 0.500000 0.000000 0.090645
O O15 0.441046 0.976345 0.000000
O O16 0.744360 0.639152 0.676975
O O17 0.776688 0.000000 0.750000
O O18 0.734407 0.138032 0.657280
#
# Coordination Sequence:
#
# PCOD8202504 Si02
#       7
#     8   8   8   8   8   8   8
#     4  10  20  33  53  78 104 136 172 206 251 305
#     4  10  20  34  51  75 107 142 175 206 237 289
#     4  10  20  34  54  82 107 129 161 213 266 306
#     4  10  18  29  46  67  97 132 162 199 241 290
#     4   9  17  28  43  65  94 128 163 201 249 296
#     4  10  20  33  49  70 101 132 160 204 253 298
#     4  10  20  32  48  72 100 133 171 201 239 300
#
# _framework density 18.583504000000001
#
# number of rings (size 3 to 8) (size 9 to 14) (size 15 to 20)
#    0.000    2.143    0.000    3.857    0.000    4.000 
#    0.000    4.286    0.000    0.000    0.000   40.000 
#    0.000   40.000    0.000    0.000    0.000    0.000 
#
# Total GULP energy -694021.277306 kJ/mol
# GULP energy per Si atom -12393.237095 kJ/mol
# Density = 1.854121 g / cm^3
# Si number density = 18.583504 Si / 1000 Ang^3
#
#
#
# Elastic Constant Matrix: (Units=GPa)
#
#
# Indices 1 2 3 4 5 6 
#
# 1 57.6205 33.6925 21.3755 0.0000 0.0000 0.0000
# 2 33.6925 160.4417 40.7737 0.0000 0.0000 0.0000
# 3 21.3755 40.7737 86.0077 0.0000 0.0000 0.0000
# 4 0.0000 0.0000 0.0000 25.3082 0.0000 0.0000
# 5 0.0000 0.0000 0.0000 0.0000 26.4823 0.0000
# 6 0.0000 0.0000 0.0000 0.0000 0.0000 10.9624
#
#
#
# Elastic Compliance Matrix: (Units=1/GPa)
#
#
# Indices 1 2 3 4 5 6 
#
# 1 0.020672 -0.003451 -0.003501 0.000000 0.000000 0.000000
# 2 -0.003451 0.007663 -0.002775 0.000000 0.000000 0.000000
# 3 -0.003501 -0.002775 0.013813 0.000000 0.000000 0.000000
# 4 0.000000 0.000000 0.000000 0.039513 0.000000 0.000000
# 5 0.000000 0.000000 0.000000 0.000000 0.037761 0.000000
# 6 0.000000 0.000000 0.000000 0.000000 0.000000 0.091221
#
#
# Mechanical properties :
#
#
# Convention : Reuss Voigt Hill
#
# Bulk Modulus (GPa) = 44.06839 55.08369 49.57604
# Shear Modulus (GPa) = 21.03835 26.43248 23.73541
#
# Velocity S-wave (km/s) = 3.36832 3.77551 3.57771
# Velocity P-wave (km/s) = 6.23639 6.97936 6.61831
#
# Compressibility (1/GPa) = 0.02269200
#
# Stress axis : x y z
#
# Youngs Moduli (GPa) = 48.37480 130.50139 72.39764
#
# Poissons Ratio (x) = 0.45039 0.25350
# Poissons Ratio (y) = 0.16695 0.20090
# Poissons Ratio (z) = 0.16938 0.36214
#
# Static dielectric constant tensor:
#      x y z
#    x 3.223010 0.000000 0.000000 
#    y 0.000000 1.150090 0.000000 
#    z 0.000000 0.000000 3.164800 
# 
# 
# High freq. dielectric constant tensor:
#      x y z
#    x 1.695360 0.000000 0.000000 
#    y 0.000000 1.753160 0.000000 
#    z 0.000000 0.000000 1.690960 
# 
# From -- ./inp_files/21226.got.cif
#   From: 2010.03.12/outbox.cif.g09.slc.cpg/sg49_11_cif.got.tgz:21226.got - 2010.04.14 03:58:27.
