data_PCOD8202400
_publ_section_title
;
Structure prediction by ZEFSAII (Michael W. Deem and Ramdas Pophale) SiO2 
 PCOD8202400
Probable space group: P C C M
;
_chemical_formula_sum "Si O2"
_cell_formula_units_Z 40
_cell_length_a 9.149087
_cell_length_b 25.675697
_cell_length_c 8.396106
_cell_angle_alpha 90.000000
_cell_angle_beta 90.000000
_cell_angle_gamma 90.000000
_cell_volume 1972.322423
_symmetry_space_group_name_H-M "P C C M"
_symmetry_group_IT_number 49
_symmetry_cell_setting 'orthorhombic'
loop_
_space_group_symop_operation_xyz
x,y,z
-x,-y,z
x,-y,1/2-z
-x,y,1/2-z
-x,-y,-z
x,y,-z
-x,y,1/2+z
x,-y,1/2+z
loop_
_atom_site_type_symbol
_atom_site_label
_atom_site_fract_x
_atom_site_fract_y
_atom_site_fract_z
Si Si1 0.338517 0.243104 0.186287
Si Si2 0.840902 0.851728 0.685665
Si Si3 0.164612 0.553064 0.689101
Si Si4 0.164671 0.339363 0.311954
Si Si5 0.343789 0.943442 0.685945
O O1 0.500000 0.250684 0.250000
O O2 0.265568 0.195981 0.280412
O O3 0.253162 0.296015 0.218279
O O4 0.337972 0.230011 0.000000
O O5 0.848980 0.862408 0.500000
O O6 0.783489 0.903827 0.768660
O O7 0.000000 0.837229 0.750000
O O8 0.244773 0.500000 0.750000
O O9 0.170793 0.557112 0.500000
O O10 0.236672 0.604574 0.767434
O O11 0.000000 0.550701 0.750000
O O12 0.171583 0.329413 0.500000
O O13 0.000000 0.337290 0.250000
O O14 0.500000 0.923592 0.750000
O O15 0.358504 0.947502 0.500000
O O16 0.301094 0.000000 0.750000
#
# Coordination Sequence:
#
# PCOD8202400 Si02
#       5
#     8   8   8   8   8
#     4  12  25  43  63  87 116 153 195 241 292 351
#     4  12  25  43  64  91 122 157 197 245 296 349
#     4  10  17  28  47  76 111 149 189 236 287 343
#     4  11  21  36  57  85 117 153 193 241 292 346
#     4  11  22  40  64  93 125 163 203 245 291 346
#
# _framework density 20.280659
#
# number of rings (size 3 to 8) (size 9 to 14) (size 15 to 20)
#    0.000    0.800    0.000   12.600    0.000    0.400 
#    0.000    2.000    0.000    0.600    0.000    4.200 
#    0.000    0.000    0.000    0.000    0.000    0.000 
#
# Total GULP energy -496132.353723 kJ/mol
# GULP energy per Si atom -12403.308843 kJ/mol
# Density = 2.023450 g / cm^3
# Si number density = 20.280659 Si / 1000 Ang^3
#
#
#
# Elastic Constant Matrix: (Units=GPa)
#
#
# Indices 1 2 3 4 5 6 
#
# 1 68.9021 36.9434 14.0297 0.0000 0.0000 0.0000
# 2 36.9434 126.5509 14.8136 0.0000 0.0000 0.0000
# 3 14.0297 14.8136 135.7064 0.0000 0.0000 0.0000
# 4 0.0000 0.0000 0.0000 44.6578 0.0000 0.0000
# 5 0.0000 0.0000 0.0000 0.0000 31.7548 0.0000
# 6 0.0000 0.0000 0.0000 0.0000 0.0000 -4.9206
#
#
#
# Elastic Compliance Matrix: (Units=1/GPa)
#
#
# Indices 1 2 3 4 5 6 
#
# 1 0.017417 -0.004937 -0.001262 0.000000 0.000000 0.000000
# 2 -0.004937 0.009404 -0.000516 0.000000 0.000000 0.000000
# 3 -0.001262 -0.000516 0.007556 0.000000 0.000000 0.000000
# 4 0.000000 0.000000 0.000000 0.022392 0.000000 0.000000
# 5 0.000000 0.000000 0.000000 0.000000 0.031491 0.000000
# 6 0.000000 0.000000 0.000000 0.000000 0.000000 -0.203229
#
#
# Mechanical properties :
#
#
# Convention : Reuss Voigt Hill
#
# Bulk Modulus (GPa) = 47.73936 51.41475 49.57706
# Shear Modulus (GPa) = -52.87819 31.98992 -10.44414
#
# Velocity S-wave (km/s) = -5.11173 3.97591 -2.27178
# Velocity P-wave (km/s) = 3.35400 6.81790 4.19729
#
# Compressibility (1/GPa) = 0.02094708
#
# Stress axis : x y z
#
# Youngs Moduli (GPa) = 57.41430 106.34265 132.35163
#
# Poissons Ratio (x) = 0.52500 0.16699
# Poissons Ratio (y) = 0.28345 0.06831
# Poissons Ratio (z) = 0.07244 0.05488
#
# Static dielectric constant tensor:
#      x y z
#    x 3.438670 0.000000 0.000000 
#    y 0.000000 4.445530 0.000000 
#    z 0.000000 0.000000 3.987150 
# 
# 
# High freq. dielectric constant tensor:
#      x y z
#    x 1.761630 0.000000 0.000000 
#    y 0.000000 1.818590 0.000000 
#    z 0.000000 0.000000 1.818090 
# 
# From -- ./inp_files/1699.got.cif
#   From: 2010.03.12/outbox.cif.g09.slc.cpg/sg49_1_cif.got.tgz:1699.got - 2010.04.14 03:58:27.
