data_PCOD8202807
_publ_section_title
;
Structure prediction by ZEFSAII (Michael W. Deem and Ramdas Pophale) SiO2 
 PCOD8202807
Probable space group: P C C M
;
_chemical_formula_sum "Si O2"
_cell_formula_units_Z 58
_cell_length_a 14.700305
_cell_length_b 23.380889
_cell_length_c 9.573523
_cell_angle_alpha 90.000000
_cell_angle_beta 90.000000
_cell_angle_gamma 90.000000
_cell_volume 3290.479206
_symmetry_space_group_name_H-M "P C C M"
_symmetry_group_IT_number 49
_symmetry_cell_setting 'orthorhombic'
loop_
_space_group_symop_operation_xyz
x,y,z
-x,-y,z
x,-y,1/2-z
-x,y,1/2-z
-x,-y,-z
x,y,-z
-x,y,1/2+z
x,-y,1/2+z
loop_
_atom_site_type_symbol
_atom_site_label
_atom_site_fract_x
_atom_site_fract_y
_atom_site_fract_z
Si Si1 0.084647 0.599915 0.161582
Si Si2 0.779433 0.828698 0.338804
Si Si3 0.585433 0.348880 0.838352
Si Si4 0.413585 0.781956 0.837975
Si Si5 0.082134 0.890606 0.340907
Si Si6 0.000000 0.000000 0.250000
Si Si7 0.722818 0.553202 0.338175
Si Si8 0.083049 0.730381 0.159187
O O1 0.172036 0.562568 0.200355
O O2 0.106980 0.665515 0.201011
O O3 0.000000 0.576246 0.250000
O O4 0.059030 0.594046 0.000000
O O5 0.791718 0.848290 0.500000
O O6 0.673344 0.821177 0.301101
O O7 0.822825 0.876087 0.235992
O O8 0.827683 0.767902 0.312757
O O9 0.500000 0.370454 0.750000
O O10 0.610633 0.283606 0.799969
O O11 0.669943 0.388924 0.798791
O O12 0.559486 0.354447 0.000000
O O13 0.500000 0.803965 0.750000
O O14 0.438880 0.787649 0.000000
O O15 0.082117 0.867410 0.500000
O O16 0.000000 0.861618 0.250000
O O17 0.065675 0.959369 0.343548
O O18 0.684501 0.500000 0.250000
O O19 0.709760 0.538387 0.500000
O O20 0.000000 0.754337 0.250000
O O21 0.051279 0.734417 0.000000
#
# Coordination Sequence:
#
# PCOD8202807 Si02
#       8
#     8   8   8   8   8   2   8   8
#     4   9  18  33  50  66  88 121 158 193 237 289
#     4  10  19  30  48  74 104 135 168 206 252 298
#     4   9  18  34  54  73  95 125 159 195 245 302
#     4   9  18  33  52  74 100 132 167 206 250 302
#     4  10  20  33  51  74 105 142 179 214 248 286
#     4   8  22  36  54  72 108 148 186 216 248 276
#     4  10  21  35  50  68  91 119 153 198 246 296
#     4   9  17  29  45  67  95 126 157 193 237 293
#
# _framework density 17.626612000000002
#
# number of rings (size 3 to 8) (size 9 to 14) (size 15 to 20)
#    0.414    2.207    0.000    1.862    0.000    7.172 
#    0.000    2.759    0.000    8.276    0.000    0.483 
#    0.000    3.310    0.000    0.000    0.000    0.000 
#
# Total GULP energy -719066.792105 kJ/mol
# GULP energy per Si atom -12397.703312 kJ/mol
# Density = 1.758649 g / cm^3
# Si number density = 17.626612 Si / 1000 Ang^3
#
#
#
# Elastic Constant Matrix: (Units=GPa)
#
#
# Indices 1 2 3 4 5 6 
#
# 1 115.7815 35.2247 61.1526 0.0000 0.0000 0.0000
# 2 35.2247 57.7719 34.3816 0.0000 0.0000 0.0000
# 3 61.1526 34.3816 84.2738 0.0000 0.0000 0.0000
# 4 0.0000 0.0000 0.0000 19.8049 0.0000 0.0000
# 5 0.0000 0.0000 0.0000 0.0000 32.5575 0.0000
# 6 0.0000 0.0000 0.0000 0.0000 0.0000 21.3453
#
#
#
# Elastic Compliance Matrix: (Units=1/GPa)
#
#
# Indices 1 2 3 4 5 6 
#
# 1 0.014494 -0.003405 -0.009129 0.000000 0.000000 0.000000
# 2 -0.003405 0.023660 -0.007182 0.000000 0.000000 0.000000
# 3 -0.009129 -0.007182 0.021420 0.000000 0.000000 0.000000
# 4 0.000000 0.000000 0.000000 0.050493 0.000000 0.000000
# 5 0.000000 0.000000 0.000000 0.000000 0.030715 0.000000
# 6 0.000000 0.000000 0.000000 0.000000 0.000000 0.046849
#
#
# Mechanical properties :
#
#
# Convention : Reuss Voigt Hill
#
# Bulk Modulus (GPa) = 49.64365 57.70500 53.67432
# Shear Modulus (GPa) = 21.38807 23.21275 22.30041
#
# Velocity S-wave (km/s) = 3.48716 3.63287 3.56076
# Velocity P-wave (km/s) = 6.66625 7.09968 6.88638
#
# Compressibility (1/GPa) = 0.02014356
#
# Stress axis : x y z
#
# Youngs Moduli (GPa) = 68.99271 42.26625 46.68496
#
# Poissons Ratio (x) = 0.14391 0.42617
# Poissons Ratio (y) = 0.23491 0.33528
# Poissons Ratio (z) = 0.62981 0.30355
#
# Static dielectric constant tensor:
#      x y z
#    x 3.285950 0.000000 0.000000 
#    y 0.000000 3.048770 0.000000 
#    z 0.000000 0.000000 3.270760 
# 
# 
# High freq. dielectric constant tensor:
#      x y z
#    x 1.670950 0.000000 0.000000 
#    y 0.000000 1.660330 0.000000 
#    z 0.000000 0.000000 1.678140 
# 
# From -- ./inp_files/4273.got.cif
#   From: 2010.03.12/outbox.cif.g09.slc.cpg/sg49_3_cif.got.tgz:4273.got - 2010.04.14 03:58:27.
