data_PCOD8202622
_publ_section_title
;
Structure prediction by ZEFSAII (Michael W. Deem and Ramdas Pophale) SiO2 
 PCOD8202622
Probable space group: P C C M
;
_chemical_formula_sum "Si O2"
_cell_formula_units_Z 56
_cell_length_a 9.508998
_cell_length_b 16.849641
_cell_length_c 17.756597
_cell_angle_alpha 90.000000
_cell_angle_beta 90.000000
_cell_angle_gamma 90.000000
_cell_volume 2845.018838
_symmetry_space_group_name_H-M "P C C M"
_symmetry_group_IT_number 49
_symmetry_cell_setting 'orthorhombic'
loop_
_space_group_symop_operation_xyz
x,y,z
-x,-y,z
x,-y,1/2-z
-x,y,1/2-z
-x,-y,-z
x,y,-z
-x,y,1/2+z
x,-y,1/2+z
loop_
_atom_site_type_symbol
_atom_site_label
_atom_site_fract_x
_atom_site_fract_y
_atom_site_fract_z
Si Si1 0.871469 0.615894 0.705301
Si Si2 0.976089 0.718425 0.417416
Si Si3 0.782067 0.759223 0.813133
Si Si4 0.164076 0.086837 0.729898
Si Si5 0.425993 0.420402 0.673252
Si Si6 0.264560 0.842593 0.917609
Si Si7 0.511417 0.729246 0.911820
O O1 0.938243 0.637137 0.624645
O O2 0.819775 0.696001 0.748227
O O3 0.737546 0.559158 0.692351
O O4 0.000000 0.573495 0.750000
O O5 0.036859 0.697690 0.500000
O O6 0.835402 0.767768 0.424812
O O7 0.089297 0.768917 0.370667
O O8 0.753567 0.844464 0.774850
O O9 0.648175 0.732795 0.860332
O O10 0.200926 0.095291 0.641603
O O11 0.000000 0.094284 0.750000
O O12 0.222084 0.000000 0.750000
O O13 0.500000 0.500000 0.642156
O O14 0.500000 0.391632 0.750000
O O15 0.431134 0.351755 0.610855
O O16 0.416306 0.806512 0.894436
O O17 0.274863 0.884716 0.000000
O O18 0.550469 0.725090 0.000000
#
# Coordination Sequence:
#
# PCOD8202622 Si02
#       7
#     8   8   8   8   8   8   8
#     4  10  19  34  61  85 112 152 196 241 281 335
#     4  10  18  31  56  84 113 146 192 241 285 329
#     4  11  19  36  57  85 114 150 198 246 279 336
#     4  11  21  37  59  88 117 152 195 243 296 350
#     4  11  22  38  58  86 120 153 188 235 288 352
#     4  10  20  37  58  84 116 152 194 237 284 344
#     4  11  23  38  61  88 117 154 193 240 291 342
#
# _framework density 19.683524999999999
#
# number of rings (size 3 to 8) (size 9 to 14) (size 15 to 20)
#    0.000    1.429    5.714    0.857    0.000    0.286 
#    0.000    5.714    0.000    1.714    0.000    3.000 
#    0.000    0.000    0.000    0.000    0.000    0.000 
#
# Total GULP energy -694178.944874 kJ/mol
# GULP energy per Si atom -12396.052587 kJ/mol
# Density = 1.963872 g / cm^3
# Si number density = 19.683525 Si / 1000 Ang^3
#
#
#
# Elastic Constant Matrix: (Units=GPa)
#
#
# Indices 1 2 3 4 5 6 
#
# 1 95.1416 20.4175 23.7810 0.0000 0.0000 0.0000
# 2 20.4175 74.9549 37.0049 0.0000 0.0000 0.0000
# 3 23.7810 37.0049 124.2330 0.0000 0.0000 0.0000
# 4 0.0000 0.0000 0.0000 16.7541 0.0000 0.0000
# 5 0.0000 0.0000 0.0000 0.0000 22.9534 0.0000
# 6 0.0000 0.0000 0.0000 0.0000 0.0000 17.2371
#
#
#
# Elastic Compliance Matrix: (Units=1/GPa)
#
#
# Indices 1 2 3 4 5 6 
#
# 1 0.011388 -0.002375 -0.001473 0.000000 0.000000 0.000000
# 2 -0.002375 0.016137 -0.004352 0.000000 0.000000 0.000000
# 3 -0.001473 -0.004352 0.009628 0.000000 0.000000 0.000000
# 4 0.000000 0.000000 0.000000 0.059687 0.000000 0.000000
# 5 0.000000 0.000000 0.000000 0.000000 0.043567 0.000000
# 6 0.000000 0.000000 0.000000 0.000000 0.000000 0.058014
#
#
# Mechanical properties :
#
#
# Convention : Reuss Voigt Hill
#
# Bulk Modulus (GPa) = 48.18461 50.74849 49.46655
# Shear Modulus (GPa) = 22.54915 25.59733 24.07324
#
# Velocity S-wave (km/s) = 3.38832 3.61008 3.50096
# Velocity P-wave (km/s) = 6.31193 6.57382 6.44420
#
# Compressibility (1/GPa) = 0.02075351
#
# Stress axis : x y z
#
# Youngs Moduli (GPa) = 87.80841 61.96972 103.86834
#
# Poissons Ratio (x) = 0.14719 0.15295
# Poissons Ratio (y) = 0.20856 0.45203
# Poissons Ratio (z) = 0.12930 0.26969
#
# Static dielectric constant tensor:
#      x y z
#    x 3.684880 0.000000 0.000000 
#    y 0.000000 3.218230 0.000000 
#    z 0.000000 0.000000 3.942110 
# 
# 
# High freq. dielectric constant tensor:
#      x y z
#    x 1.774110 0.000000 0.000000 
#    y 0.000000 1.729600 0.000000 
#    z 0.000000 0.000000 1.775890 
# 
# From -- ./inp_files/16521.got.cif
#   From: 2010.03.12/outbox.cif.g09.slc.cpg/sg49_9_cif.got.tgz:16521.got - 2010.04.14 03:58:27.
