data_PCOD8202131
_publ_section_title
;
Structure prediction by ZEFSAII (Michael W. Deem and Ramdas Pophale) SiO2 
 PCOD8202131
Probable space group: P N N N
;
_chemical_formula_sum "Si O2"
_cell_formula_units_Z 56
_cell_length_a 19.232777
_cell_length_b 15.995731
_cell_length_c 7.842096
_cell_angle_alpha 90.000000
_cell_angle_beta 90.000000
_cell_angle_gamma 90.000000
_cell_volume 2412.560664
_symmetry_space_group_name_H-M "P N N N"
_symmetry_group_IT_number 48
_space_group.IT_coordinate_system_code '2'
_symmetry_cell_setting 'orthorhombic'
loop_
_space_group_symop_operation_xyz
x,y,z
1/2-x,1/2-y,z
x,1/2-y,1/2-z
1/2-x,y,1/2-z
-x,-y,-z
1/2+x,1/2+y,-z
-x,1/2+y,1/2+z
1/2+x,-y,1/2+z
loop_
_atom_site_type_symbol
_atom_site_label
_atom_site_fract_x
_atom_site_fract_y
_atom_site_fract_z
Si Si1 0.687321 0.340965 0.364312
Si Si2 0.064929 0.088671 0.399593
Si Si3 0.891136 0.566637 0.519365
Si Si4 0.285928 0.944144 0.416439
Si Si5 0.108275 0.796295 0.071237
Si Si6 0.579308 0.474597 0.301651
Si Si7 0.047819 0.266324 0.550997
O O1 0.750000 0.309891 0.250000
O O2 0.719875 0.396298 0.511345
O O3 0.650376 0.257201 0.431468
O O4 0.635455 0.401866 0.259722
O O5 0.092668 0.053424 0.219477
O O6 0.069390 0.187958 0.433678
O O7 0.983283 0.070710 0.397631
O O8 0.104501 0.042644 0.556740
O O9 0.814295 0.526933 0.484990
O O10 0.940577 0.520031 0.377695
O O11 0.893453 0.665063 0.487402
O O12 0.250000 0.980231 0.250000
O O13 0.353959 0.884465 0.396777
O O14 0.108016 0.750000 0.250000
O O15 0.028640 0.804527 0.003640
O O16 0.049470 0.250000 0.750000
#
# Coordination Sequence:
#
# PCOD8202131 Si02
#       7
#     8   8   8   8   8   8   8
#     4  12  24  44  66 100 146 188 230 289 349 433
#     4  11  24  43  71 101 145 182 236 306 365 427
#     4  12  26  44  72 102 142 191 242 298 363 429
#     4  12  26  44  68 101 140 193 244 282 346 445
#     4  11  25  42  69 101 147 192 229 287 366 437
#     4  11  24  44  68 105 143 182 242 297 360 428
#     4  11  24  45  72 107 144 179 238 310 374 425
#
# _framework density 23.211850999999999
#
# number of rings (size 3 to 8) (size 9 to 14) (size 15 to 20)
#    0.000    0.571    5.714    2.143    4.000    1.143 
#    2.571    0.000    0.000    6.000    0.000    0.000 
#    0.000    0.000    0.000    0.000    0.000    0.000 
#
# Total GULP energy -693883.717591 kJ/mol
# GULP energy per Si atom -12390.780671 kJ/mol
# Density = 2.315902 g / cm^3
# Si number density = 23.211851 Si / 1000 Ang^3
#
#
#
# Elastic Constant Matrix: (Units=GPa)
#
#
# Indices 1 2 3 4 5 6 
#
# 1 57.5360 53.1099 17.3467 0.0000 0.0000 0.0000
# 2 53.1099 160.2384 37.9669 0.0000 0.0000 0.0000
# 3 17.3467 37.9669 119.4470 0.0000 0.0000 0.0000
# 4 0.0000 0.0000 0.0000 40.0128 0.0000 0.0000
# 5 0.0000 0.0000 0.0000 0.0000 28.8506 0.0000
# 6 0.0000 0.0000 0.0000 0.0000 0.0000 -176.8871
#
#
#
# Elastic Compliance Matrix: (Units=1/GPa)
#
#
# Indices 1 2 3 4 5 6 
#
# 1 0.025171 -0.008086 -0.001085 0.000000 0.000000 0.000000
# 2 -0.008086 0.009346 -0.001797 0.000000 0.000000 0.000000
# 3 -0.001085 -0.001797 0.009101 0.000000 0.000000 0.000000
# 4 0.000000 0.000000 0.000000 0.024992 0.000000 0.000000
# 5 0.000000 0.000000 0.000000 0.000000 0.034661 0.000000
# 6 0.000000 0.000000 0.000000 0.000000 0.000000 -0.005653
#
#
# Mechanical properties :
#
#
# Convention : Reuss Voigt Hill
#
# Bulk Modulus (GPa) = 46.11916 61.56314 53.84115
# Shear Modulus (GPa) = 39.43800 -6.35155 16.54322
#
# Velocity S-wave (km/s) = 4.12642 -1.65598 2.67255
# Velocity P-wave (km/s) = 6.52802 4.78785 5.72445
#
# Compressibility (1/GPa) = 0.02168296
#
# Stress axis : x y z
#
# Youngs Moduli (GPa) = 39.72764 106.99389 109.88312
#
# Poissons Ratio (x) = 0.86512 0.11927
# Poissons Ratio (y) = 0.32123 0.19741
# Poissons Ratio (z) = 0.04312 0.19222
#
# Static dielectric constant tensor:
#      x y z
#    x 4.430230 0.000000 0.000000 
#    y 0.000000 4.270950 0.000000 
#    z 0.000000 0.000000 -0.670090 
# 
# 
# High freq. dielectric constant tensor:
#      x y z
#    x 1.884740 0.000000 0.000000 
#    y 0.000000 1.925620 0.000000 
#    z 0.000000 0.000000 1.942290 
# 
# From -- ./inp_files/15308.got.cif
#   From: 2010.06.25/outbox.cif.g09.slc.cpg/sg48_8_cif.got.tgz:15308.got - 2010.06.26 18:06:46.
