data_PCOD8202127
_publ_section_title
;
Structure prediction by ZEFSAII (Michael W. Deem and Ramdas Pophale) SiO2 
 PCOD8202127
Probable space group: P N N N
;
_chemical_formula_sum "Si O2"
_cell_formula_units_Z 34
_cell_length_a 8.615042
_cell_length_b 9.169666
_cell_length_c 19.967537
_cell_angle_alpha 90.000000
_cell_angle_beta 90.000000
_cell_angle_gamma 90.000000
_cell_volume 1577.376673
_symmetry_space_group_name_H-M "P N N N"
_symmetry_group_IT_number 48
_space_group.IT_coordinate_system_code '2'
_symmetry_cell_setting 'orthorhombic'
loop_
_space_group_symop_operation_xyz
x,y,z
1/2-x,1/2-y,z
x,1/2-y,1/2-z
1/2-x,y,1/2-z
-x,-y,-z
1/2+x,1/2+y,-z
-x,1/2+y,1/2+z
1/2+x,-y,1/2+z
loop_
_atom_site_type_symbol
_atom_site_label
_atom_site_fract_x
_atom_site_fract_y
_atom_site_fract_z
Si Si1 0.094451 0.564921 0.136204
Si Si2 0.595551 0.580808 0.911638
Si Si3 0.415819 0.710611 0.673324
Si Si4 0.250000 0.750000 0.250000
Si Si5 0.917193 0.800689 0.058287
O O1 0.233173 0.479250 0.100396
O O2 0.143581 0.648973 0.203410
O O3 0.956147 0.457603 0.158606
O O4 0.038528 0.675850 0.078817
O O5 0.555926 0.691109 0.852948
O O6 0.469111 0.451963 0.908333
O O7 0.585505 0.675966 0.978904
O O8 0.250000 0.750000 0.638612
O O9 0.402570 0.750000 0.750000
O O10 0.750000 0.750000 0.085502
#
# Coordination Sequence:
#
# PCOD8202127 Si02
#       5
#     8   8   8   2   8
#     4  12  24  45  70  97 136 180 232 280 336 422
#     4  11  24  44  68 100 136 178 232 276 348 406
#     4  11  25  43  67 100 136 179 226 288 346 403
#     4  12  24  44  72 100 132 184 238 272 344 408
#     4  11  24  42  68 100 135 176 224 284 341 401
#
# _framework density 21.554776
#
# number of rings (size 3 to 8) (size 9 to 14) (size 15 to 20)
#    0.000    0.706    2.353    4.941    0.000    8.471 
#    0.000    0.000    0.000    0.000    0.000    0.000 
#    0.000    0.000    0.000    0.000    0.000    0.000 
#
# Total GULP energy -421679.415123 kJ/mol
# GULP energy per Si atom -12402.335739 kJ/mol
# Density = 2.150572 g / cm^3
# Si number density = 21.554776 Si / 1000 Ang^3
#
#
#
# Elastic Constant Matrix: (Units=GPa)
#
#
# Indices 1 2 3 4 5 6 
#
# 1 131.7020 72.6618 47.1116 0.0000 0.0000 0.0000
# 2 72.6618 149.8682 64.2406 0.0000 0.0000 0.0000
# 3 47.1116 64.2406 100.6657 0.0000 0.0000 0.0000
# 4 0.0000 0.0000 0.0000 46.7720 0.0000 0.0000
# 5 0.0000 0.0000 0.0000 0.0000 -131.3377 0.0000
# 6 0.0000 0.0000 0.0000 0.0000 0.0000 52.0305
#
#
#
# Elastic Compliance Matrix: (Units=1/GPa)
#
#
# Indices 1 2 3 4 5 6 
#
# 1 0.010754 -0.004208 -0.002348 0.000000 0.000000 0.000000
# 2 -0.004208 0.010831 -0.004943 0.000000 0.000000 0.000000
# 3 -0.002348 -0.004943 0.014187 0.000000 0.000000 0.000000
# 4 0.000000 0.000000 0.000000 0.021380 0.000000 0.000000
# 5 0.000000 0.000000 0.000000 0.000000 -0.007614 0.000000
# 6 0.000000 0.000000 0.000000 0.000000 0.000000 0.019219
#
#
# Mechanical properties :
#
#
# Convention : Reuss Voigt Hill
#
# Bulk Modulus (GPa) = 78.27328 83.36265 80.81796
# Shear Modulus (GPa) = 52.07592 6.70776 29.39184
#
# Velocity S-wave (km/s) = 4.92059 1.76599 3.69669
# Velocity P-wave (km/s) = 8.28707 6.55111 7.46969
#
# Compressibility (1/GPa) = 0.01277575
#
# Stress axis : x y z
#
# Youngs Moduli (GPa) = 92.98737 92.32479 70.48698
#
# Poissons Ratio (x) = 0.38847 0.16549
# Poissons Ratio (y) = 0.39126 0.34841
# Poissons Ratio (z) = 0.21832 0.45635
#
# Static dielectric constant tensor:
#      x y z
#    x 4.279130 0.000000 0.000000 
#    y 0.000000 4.199850 0.000000 
#    z 0.000000 0.000000 3.771780 
# 
# 
# High freq. dielectric constant tensor:
#      x y z
#    x 1.857420 0.000000 0.000000 
#    y 0.000000 1.868650 0.000000 
#    z 0.000000 0.000000 1.840260 
# 
# From -- ./inp_files/8730.got.cif
#   From: 2010.06.25/outbox.cif.g09.slc.cpg/sg48_5_cif.got.tgz:8730.got - 2010.06.26 18:06:46.
