data_PCOD8202518
_publ_section_title
;
Structure prediction by ZEFSAII (Michael W. Deem and Ramdas Pophale) SiO2 
 PCOD8202518
Probable space group: P C C M
;
_chemical_formula_sum "Si O2"
_cell_formula_units_Z 56
_cell_length_a 19.005174
_cell_length_b 18.541129
_cell_length_c 8.701411
_cell_angle_alpha 90.000000
_cell_angle_beta 90.000000
_cell_angle_gamma 90.000000
_cell_volume 3066.180435
_symmetry_space_group_name_H-M "P C C M"
_symmetry_group_IT_number 49
_symmetry_cell_setting 'orthorhombic'
loop_
_space_group_symop_operation_xyz
x,y,z
-x,-y,z
x,-y,1/2-z
-x,y,1/2-z
-x,-y,-z
x,y,-z
-x,y,1/2+z
x,-y,1/2+z
loop_
_atom_site_type_symbol
_atom_site_label
_atom_site_fract_x
_atom_site_fract_y
_atom_site_fract_z
Si Si1 0.279493 0.667511 0.175976
Si Si2 0.208445 0.201246 0.822112
Si Si3 0.710140 0.075807 0.818851
Si Si4 0.569064 0.301932 0.822261
Si Si5 0.926486 0.710861 0.819964
Si Si6 0.427195 0.145263 0.817527
Si Si7 0.850625 0.423065 0.821109
O O1 0.261480 0.733525 0.286897
O O2 0.361935 0.647583 0.199974
O O3 0.230431 0.599087 0.215561
O O4 0.266051 0.692327 0.000000
O O5 0.228266 0.132498 0.720278
O O6 0.129534 0.226507 0.780593
O O7 0.216495 0.180672 0.000000
O O8 0.636452 0.097335 0.743156
O O9 0.734856 0.000000 0.750000
O O10 0.700382 0.070731 0.000000
O O11 0.500000 0.340600 0.750000
O O12 0.583123 0.226971 0.737291
O O13 0.554570 0.285451 0.000000
O O14 0.903841 0.634965 0.747983
O O15 0.000000 0.736697 0.750000
O O16 0.933464 0.699082 0.000000
O O17 0.500000 0.113527 0.750000
O O18 0.428762 0.142040 0.000000
O O19 0.866811 0.500000 0.750000
O O20 0.865406 0.427693 0.000000
#
# Coordination Sequence:
#
# PCOD8202518 Si02
#       7
#     8   8   8   8   8   8   8
#     4   9  18  32  52  74 102 139 179 220 267 318
#     4  10  20  35  56  81 107 136 176 220 262 313
#     4  12  24  38  55  77 106 142 182 224 272 321
#     4  10  18  29  47  73 101 134 175 223 274 319
#     4  10  21  37  59  87 115 144 177 213 256 311
#     4  11  21  34  51  74 104 140 179 223 273 324
#     4  10  20  35  54  80 112 146 180 218 262 314
#
# _framework density 18.263764999999999
#
# number of rings (size 3 to 8) (size 9 to 14) (size 15 to 20)
#    0.000    1.714    1.429    5.143    0.000    3.429 
#    0.000    2.857    0.000    0.857    0.000    6.000 
#    0.000    0.000    0.000    0.000    0.000    0.000 
#
# Total GULP energy -694422.675617 kJ/mol
# GULP energy per Si atom -12400.404922 kJ/mol
# Density = 1.822220 g / cm^3
# Si number density = 18.263765 Si / 1000 Ang^3
#
#
#
# Elastic Constant Matrix: (Units=GPa)
#
#
# Indices 1 2 3 4 5 6 
#
# 1 131.2980 36.6784 51.8274 0.0000 0.0000 0.0000
# 2 36.6784 64.4916 35.7961 0.0000 0.0000 0.0000
# 3 51.8274 35.7961 126.9471 0.0000 0.0000 0.0000
# 4 0.0000 0.0000 0.0000 23.7481 0.0000 0.0000
# 5 0.0000 0.0000 0.0000 0.0000 31.1759 0.0000
# 6 0.0000 0.0000 0.0000 0.0000 0.0000 16.2972
#
#
#
# Elastic Compliance Matrix: (Units=1/GPa)
#
#
# Indices 1 2 3 4 5 6 
#
# 1 0.009882 -0.004008 -0.002904 0.000000 0.000000 0.000000
# 2 -0.004008 0.020009 -0.004006 0.000000 0.000000 0.000000
# 3 -0.002904 -0.004006 0.010193 0.000000 0.000000 0.000000
# 4 0.000000 0.000000 0.000000 0.042109 0.000000 0.000000
# 5 0.000000 0.000000 0.000000 0.000000 0.032076 0.000000
# 6 0.000000 0.000000 0.000000 0.000000 0.000000 0.061360
#
#
# Mechanical properties :
#
#
# Convention : Reuss Voigt Hill
#
# Bulk Modulus (GPa) = 54.80286 63.48230 59.14258
# Shear Modulus (GPa) = 24.56425 27.47321 26.01873
#
# Velocity S-wave (km/s) = 3.67136 3.88267 3.77849
# Velocity P-wave (km/s) = 6.93133 7.41176 7.17557
#
# Compressibility (1/GPa) = 0.01824722
#
# Stress axis : x y z
#
# Youngs Moduli (GPa) = 101.18944 49.97773 98.11133
#
# Poissons Ratio (x) = 0.20033 0.28495
# Poissons Ratio (y) = 0.40561 0.39299
# Poissons Ratio (z) = 0.29389 0.20019
#
# Static dielectric constant tensor:
#      x y z
#    x 3.772430 0.000000 0.000000 
#    y 0.000000 3.024800 0.000000 
#    z 0.000000 0.000000 3.525590 
# 
# 
# High freq. dielectric constant tensor:
#      x y z
#    x 1.713520 0.000000 0.000000 
#    y 0.000000 1.670900 0.000000 
#    z 0.000000 0.000000 1.727310 
# 
# From -- ./inp_files/5897.got.cif
#   From: 2010.03.12/outbox.cif.g09.slc.cpg/sg49_3_cif.got.tgz:5897.got - 2010.04.14 03:58:27.
