data_PCOD8202527
_publ_section_title
;
Structure prediction by ZEFSAII (Michael W. Deem and Ramdas Pophale) SiO2 
 PCOD8202527
Probable space group: P C C M
;
_chemical_formula_sum "Si O2"
_cell_formula_units_Z 58
_cell_length_a 15.284248
_cell_length_b 11.741731
_cell_length_c 18.815076
_cell_angle_alpha 90.000000
_cell_angle_beta 90.000000
_cell_angle_gamma 90.000000
_cell_volume 3376.619929
_symmetry_space_group_name_H-M "P C C M"
_symmetry_group_IT_number 49
_symmetry_cell_setting 'orthorhombic'
loop_
_space_group_symop_operation_xyz
x,y,z
-x,-y,z
x,-y,1/2-z
-x,y,1/2-z
-x,-y,-z
x,y,-z
-x,y,1/2+z
x,-y,1/2+z
loop_
_atom_site_type_symbol
_atom_site_label
_atom_site_fract_x
_atom_site_fract_y
_atom_site_fract_z
Si Si1 0.648049 0.751676 0.083384
Si Si2 0.838301 0.137912 0.916615
Si Si3 0.479435 0.118811 0.617142
Si Si4 0.827269 0.873283 0.082745
Si Si5 0.994701 0.135106 0.669707
Si Si6 0.500000 0.000000 0.750000
Si Si7 0.323890 0.725102 0.919827
Si Si8 0.598319 0.497570 0.584195
O O1 0.569413 0.811253 0.125252
O O2 0.739909 0.806892 0.105866
O O3 0.648613 0.618224 0.104250
O O4 0.629943 0.767778 0.000000
O O5 0.758957 0.213071 0.884135
O O6 0.923777 0.181288 0.875479
O O7 0.814112 0.006701 0.901914
O O8 0.854255 0.156790 0.000000
O O9 0.407069 0.191590 0.577783
O O10 0.500000 0.000000 0.574876
O O11 0.444916 0.082934 0.696738
O O12 0.905824 0.824304 0.131099
O O13 0.849701 0.851733 0.000000
O O14 0.000000 0.183487 0.750000
O O15 0.000000 0.000000 0.670027
O O16 0.348495 0.605050 0.882313
O O17 0.296152 0.699915 0.000000
O O18 0.500000 0.500000 0.615788
O O19 0.592317 0.514927 0.500000
#
# Coordination Sequence:
#
# PCOD8202527 Si02
#       8
#     8   8   8   8   8   2   8   8
#     4  10  18  29  50  75  98 126 161 199 245 294
#     4   9  17  29  46  72 101 128 157 199 248 294
#     4  10  19  33  44  65  97 132 160 196 239 289
#     4   9  17  29  46  72 101 128 157 199 248 294
#     4   9  17  31  47  72  95 126 160 195 244 303
#     4   8  24  36  38  62  96 138 168 194 250 280
#     4  10  18  29  50  75  98 126 161 199 245 294
#     4   9  16  28  46  73 102 127 157 200 246 285
#
# _framework density 17.176940999999999
#
# number of rings (size 3 to 8) (size 9 to 14) (size 15 to 20)
#    0.414    2.207    1.379    1.655    0.000    3.862 
#    2.483    0.000    0.000    2.483    0.000    5.793 
#    0.000    0.000    0.000    0.000    0.000    0.000 
#
# Total GULP energy -718680.962609 kJ/mol
# GULP energy per Si atom -12391.051079 kJ/mol
# Density = 1.713785 g / cm^3
# Si number density = 17.176941 Si / 1000 Ang^3
#
#
#
# Elastic Constant Matrix: (Units=GPa)
#
#
# Indices 1 2 3 4 5 6 
#
# 1 153.7625 62.9088 39.3620 0.0000 0.0000 0.0000
# 2 62.9088 105.5705 21.7139 0.0000 0.0000 0.0000
# 3 39.3620 21.7139 50.9090 0.0000 0.0000 0.0000
# 4 0.0000 0.0000 0.0000 8.4651 0.0000 0.0000
# 5 0.0000 0.0000 0.0000 0.0000 7.1616 0.0000
# 6 0.0000 0.0000 0.0000 0.0000 0.0000 15.0544
#
#
#
# Elastic Compliance Matrix: (Units=1/GPa)
#
#
# Indices 1 2 3 4 5 6 
#
# 1 0.009877 -0.004730 -0.005619 0.000000 0.000000 0.000000
# 2 -0.004730 0.012648 -0.001738 0.000000 0.000000 0.000000
# 3 -0.005619 -0.001738 0.024729 0.000000 0.000000 0.000000
# 4 0.000000 0.000000 0.000000 0.118131 0.000000 0.000000
# 5 0.000000 0.000000 0.000000 0.000000 0.139634 0.000000
# 6 0.000000 0.000000 0.000000 0.000000 0.000000 0.066426
#
#
# Mechanical properties :
#
#
# Convention : Reuss Voigt Hill
#
# Bulk Modulus (GPa) = 43.32708 62.02349 52.67528
# Shear Modulus (GPa) = 12.39731 18.55338 15.47535
#
# Velocity S-wave (km/s) = 2.68944 3.29010 3.00482
# Velocity P-wave (km/s) = 5.90956 7.11477 6.53999
#
# Compressibility (1/GPa) = 0.02308025
#
# Stress axis : x y z
#
# Youngs Moduli (GPa) = 101.24273 79.06194 40.43850
#
# Poissons Ratio (x) = 0.37396 0.22724
# Poissons Ratio (y) = 0.47888 0.07027
# Poissons Ratio (z) = 0.56893 0.13738
#
# Static dielectric constant tensor:
#      x y z
#    x 3.241560 0.000000 0.000000 
#    y 0.000000 3.220970 0.000000 
#    z 0.000000 0.000000 2.939440 
# 
# 
# High freq. dielectric constant tensor:
#      x y z
#    x 1.659130 0.000000 0.000000 
#    y 0.000000 1.645740 0.000000 
#    z 0.000000 0.000000 1.628400 
# 
# From -- ./inp_files/17880.got.cif
#   From: 2010.03.12/outbox.cif.g09.slc.cpg/sg49_9_cif.got.tgz:17880.got - 2010.04.14 03:58:27.
