data_PCOD8202362
_publ_section_title
;
Structure prediction by ZEFSAII (Michael W. Deem and Ramdas Pophale) SiO2 
 PCOD8202362
Probable space group: P C C M
;
_chemical_formula_sum "Si O2"
_cell_formula_units_Z 64
_cell_length_a 28.765060
_cell_length_b 14.126154
_cell_length_c 8.725490
_cell_angle_alpha 90.000000
_cell_angle_beta 90.000000
_cell_angle_gamma 90.000000
_cell_volume 3545.512704
_symmetry_space_group_name_H-M "P C C M"
_symmetry_group_IT_number 49
_symmetry_cell_setting 'orthorhombic'
loop_
_space_group_symop_operation_xyz
x,y,z
-x,-y,z
x,-y,1/2-z
-x,y,1/2-z
-x,-y,-z
x,y,-z
-x,y,1/2+z
x,-y,1/2+z
loop_
_atom_site_type_symbol
_atom_site_label
_atom_site_fract_x
_atom_site_fract_y
_atom_site_fract_z
Si Si1 0.186081 0.725596 0.679438
Si Si2 0.551462 0.091725 0.681157
Si Si3 0.550265 0.720563 0.679981
Si Si4 0.863220 0.103765 0.180414
Si Si5 0.372662 0.599904 0.677480
Si Si6 0.951838 0.776120 0.318840
Si Si7 0.270220 0.397342 0.823456
Si Si8 0.903213 0.396232 0.679612
O O1 0.188105 0.747982 0.500000
O O2 0.177493 0.825466 0.763785
O O3 0.234099 0.680007 0.742641
O O4 0.146709 0.648606 0.718727
O O5 0.500000 0.093734 0.750000
O O6 0.550514 0.086868 0.500000
O O7 0.574526 0.187907 0.740750
O O8 0.578029 0.000000 0.750000
O O9 0.500000 0.695633 0.750000
O O10 0.544032 0.736151 0.500000
O O11 0.586558 0.639555 0.716687
O O12 0.912370 0.148964 0.232765
O O13 0.856745 0.000000 0.250000
O O14 0.860018 0.094072 0.000000
O O15 0.363104 0.500000 0.750000
O O16 0.388727 0.597378 0.500000
O O17 0.321996 0.648670 0.695687
O O18 0.955011 0.768987 0.500000
O O19 0.942149 0.671687 0.252362
O O20 0.000000 0.814566 0.250000
O O21 0.263764 0.500000 0.750000
O O22 0.258712 0.414503 0.000000
O O23 0.906779 0.500000 0.750000
O O24 0.912298 0.403213 0.500000
#
# Coordination Sequence:
#
# PCOD8202362 Si02
#       8
#     8   8   8   8   8   8   8   8
#     4   9  18  33  53  78 105 133 164 203 249 299
#     4  10  17  28  46  70  97 125 158 199 245 292
#     4  11  21  34  51  73 100 134 174 215 258 303
#     4  10  21  36  55  78 103 133 168 211 256 303
#     4  10  20  35  52  74 103 136 172 210 251 298
#     4  10  21  36  52  72  99 132 173 214 256 301
#     4   9  18  32  53  79 107 136 166 202 247 298
#     4  10  19  31  49  73 103 135 168 206 250 299
#
# _framework density 18.050985000000001
#
# number of rings (size 3 to 8) (size 9 to 14) (size 15 to 20)
#    0.000    2.125    0.000    5.250    0.000    3.750 
#    0.000    3.750    0.000    0.750    0.000    3.500 
#    0.000    0.000    0.000    0.000    0.000    0.000 
#
# Total GULP energy -793339.068939 kJ/mol
# GULP energy per Si atom -12395.922952 kJ/mol
# Density = 1.800990 g / cm^3
# Si number density = 18.050985 Si / 1000 Ang^3
#
#
#
# Elastic Constant Matrix: (Units=GPa)
#
#
# Indices 1 2 3 4 5 6 
#
# 1 96.6854 48.3998 35.5184 0.0000 0.0000 0.0000
# 2 48.3998 109.3760 37.8426 0.0000 0.0000 0.0000
# 3 35.5184 37.8426 104.7593 0.0000 0.0000 0.0000
# 4 0.0000 0.0000 0.0000 33.0350 0.0000 0.0000
# 5 0.0000 0.0000 0.0000 0.0000 -1.2782 0.0000
# 6 0.0000 0.0000 0.0000 0.0000 0.0000 20.7378
#
#
#
# Elastic Compliance Matrix: (Units=1/GPa)
#
#
# Indices 1 2 3 4 5 6 
#
# 1 0.014001 -0.005204 -0.002867 0.000000 0.000000 0.000000
# 2 -0.005204 0.012383 -0.002709 0.000000 0.000000 0.000000
# 3 -0.002867 -0.002709 0.011496 0.000000 0.000000 0.000000
# 4 0.000000 0.000000 0.000000 0.030271 0.000000 0.000000
# 5 0.000000 0.000000 0.000000 0.000000 -0.782355 0.000000
# 6 0.000000 0.000000 0.000000 0.000000 0.000000 0.048221
#
#
# Mechanical properties :
#
#
# Convention : Reuss Voigt Hill
#
# Bulk Modulus (GPa) = 61.27182 61.59361 61.43272
# Shear Modulus (GPa) = -7.82492 23.10293 7.63900
#
# Velocity S-wave (km/s) = -2.08430 3.58141 2.05939
# Velocity P-wave (km/s) = 5.31272 7.16227 6.30568
#
# Compressibility (1/GPa) = 0.01632072
#
# Stress axis : x y z
#
# Youngs Moduli (GPa) = 71.42353 80.75868 86.98417
#
# Poissons Ratio (x) = 0.42023 0.24941
# Poissons Ratio (y) = 0.37165 0.23562
# Poissons Ratio (z) = 0.20479 0.21876
#
# Static dielectric constant tensor:
#      x y z
#    x 3.317030 0.000000 0.000000 
#    y 0.000000 3.624190 0.000000 
#    z 0.000000 0.000000 3.396800 
# 
# 
# High freq. dielectric constant tensor:
#      x y z
#    x 1.679830 0.000000 0.000000 
#    y 0.000000 1.696170 0.000000 
#    z 0.000000 0.000000 1.711860 
# 
# From -- ./inp_files/6996.got.cif
#   From: 2010.03.12/outbox.cif.g09.slc.cpg/sg49_4_cif.got.tgz:6996.got - 2010.04.14 03:58:27.
