data_PCOD8202431
_publ_section_title
;
Structure prediction by ZEFSAII (Michael W. Deem and Ramdas Pophale) SiO2 
 PCOD8202431
Probable space group: P C C M
;
_chemical_formula_sum "Si O2"
_cell_formula_units_Z 64
_cell_length_a 17.295349
_cell_length_b 10.508888
_cell_length_c 15.255243
_cell_angle_alpha 90.000000
_cell_angle_beta 90.000000
_cell_angle_gamma 90.000000
_cell_volume 2772.714946
_symmetry_space_group_name_H-M "P C C M"
_symmetry_group_IT_number 49
_symmetry_cell_setting 'orthorhombic'
loop_
_space_group_symop_operation_xyz
x,y,z
-x,-y,z
x,-y,1/2-z
-x,y,1/2-z
-x,-y,-z
x,y,-z
-x,y,1/2+z
x,-y,1/2+z
loop_
_atom_site_type_symbol
_atom_site_label
_atom_site_fract_x
_atom_site_fract_y
_atom_site_fract_z
Si Si1 0.550640 0.876624 0.402041
Si Si2 0.333903 0.787415 0.228406
Si Si3 0.332457 0.442640 0.403417
Si Si4 0.165156 0.205992 0.776655
Si Si5 0.953095 0.337546 0.835710
Si Si6 0.945687 0.117981 0.403533
Si Si7 0.410862 0.295419 0.098956
Si Si8 0.171123 0.468546 0.149763
O O1 0.585873 0.880020 0.500000
O O2 0.618141 0.886894 0.329876
O O3 0.500823 0.745815 0.389043
O O4 0.500000 0.000000 0.385268
O O5 0.340506 0.654369 0.176445
O O6 0.247055 0.837704 0.238735
O O7 0.363702 0.779437 0.327440
O O8 0.348967 0.381312 0.500000
O O9 0.395401 0.554564 0.387872
O O10 0.244179 0.492374 0.408670
O O11 0.117721 0.247237 0.691523
O O12 0.120925 0.096362 0.830425
O O13 0.166016 0.316316 0.852213
O O14 0.910645 0.462421 0.879738
O O15 0.000000 0.383487 0.750000
O O16 0.008353 0.253348 0.896918
O O17 0.909131 0.111752 0.500000
O O18 0.000000 0.000000 0.385962
O O19 0.384659 0.254509 0.000000
O O20 0.191043 0.500000 0.250000
#
# Coordination Sequence:
#
# PCOD8202431 Si02
#       8
#     8   8   8   8   8   8   8   8
#     4  10  24  47  70  98 137 177 224 283 337 396
#     4  12  21  40  68  99 133 175 224 277 342 414
#     4  11  21  35  61  97 138 176 216 274 343 412
#     4  10  21  36  65  93 127 165 215 273 339 398
#     4   9  19  35  59  91 122 169 213 266 329 402
#     4  10  23  43  62  86 129 177 227 284 337 393
#     4  10  22  39  64  95 133 179 222 272 334 399
#     4  10  17  35  58  90 131 164 206 271 341 397
#
# _framework density 23.082070000000002
#
# number of rings (size 3 to 8) (size 9 to 14) (size 15 to 20)
#    0.000    1.750    3.750    1.125    0.000   11.000 
#    0.000    6.250    0.000    3.000    0.000    0.000 
#    0.000    0.000    0.000    0.000    0.000    0.000 
#
# Total GULP energy -792986.680528 kJ/mol
# GULP energy per Si atom -12390.416883 kJ/mol
# Density = 2.302953 g / cm^3
# Si number density = 23.082070 Si / 1000 Ang^3
#
#
#
# Elastic Constant Matrix: (Units=GPa)
#
#
# Indices 1 2 3 4 5 6 
#
# 1 126.1831 19.9529 55.8186 0.0000 0.0000 0.0000
# 2 19.9529 55.9919 17.9637 0.0000 0.0000 0.0000
# 3 55.8186 17.9637 123.9281 0.0000 0.0000 0.0000
# 4 0.0000 0.0000 0.0000 23.6235 0.0000 0.0000
# 5 0.0000 0.0000 0.0000 0.0000 24.7853 0.0000
# 6 0.0000 0.0000 0.0000 0.0000 0.0000 6.6013
#
#
#
# Elastic Compliance Matrix: (Units=1/GPa)
#
#
# Indices 1 2 3 4 5 6 
#
# 1 0.010162 -0.002258 -0.004250 0.000000 0.000000 0.000000
# 2 -0.002258 0.019232 -0.001771 0.000000 0.000000 0.000000
# 3 -0.004250 -0.001771 0.010240 0.000000 0.000000 0.000000
# 4 0.000000 0.000000 0.000000 0.042331 0.000000 0.000000
# 5 0.000000 0.000000 0.000000 0.000000 0.040346 0.000000
# 6 0.000000 0.000000 0.000000 0.000000 0.000000 0.151486
#
#
# Mechanical properties :
#
#
# Convention : Reuss Voigt Hill
#
# Bulk Modulus (GPa) = 43.33212 54.84148 49.08680
# Shear Modulus (GPa) = 16.77590 25.15989 20.96790
#
# Velocity S-wave (km/s) = 2.69884 3.30513 3.01725
# Velocity P-wave (km/s) = 5.34092 6.19484 5.78366
#
# Compressibility (1/GPa) = 0.02307757
#
# Stress axis : x y z
#
# Youngs Moduli (GPa) = 98.40632 51.99546 97.65590
#
# Poissons Ratio (x) = 0.11740 0.41502
# Poissons Ratio (y) = 0.22218 0.17293
# Poissons Ratio (z) = 0.41821 0.09208
#
# Static dielectric constant tensor:
#      x y z
#    x 4.362810 0.000000 0.000000 
#    y 0.000000 4.261320 0.000000 
#    z 0.000000 0.000000 4.157440 
# 
# 
# High freq. dielectric constant tensor:
#      x y z
#    x 1.910990 0.000000 0.000000 
#    y 0.000000 1.898960 0.000000 
#    z 0.000000 0.000000 1.900060 
# 
# From -- ./inp_files/14180.got.cif
#   From: 2010.03.12/outbox.cif.g09.slc.cpg/sg49_8_cif.got.tgz:14180.got - 2010.04.14 03:58:27.
