data_PCOD8202444
_publ_section_title
;
Structure prediction by ZEFSAII (Michael W. Deem and Ramdas Pophale) SiO2 
 PCOD8202444
Probable space group: P C C M
;
_chemical_formula_sum "Si O2"
_cell_formula_units_Z 56
_cell_length_a 21.305209
_cell_length_b 18.378014
_cell_length_c 9.047440
_cell_angle_alpha 90.000000
_cell_angle_beta 90.000000
_cell_angle_gamma 90.000000
_cell_volume 3542.501874
_symmetry_space_group_name_H-M "P C C M"
_symmetry_group_IT_number 49
_symmetry_cell_setting 'orthorhombic'
loop_
_space_group_symop_operation_xyz
x,y,z
-x,-y,z
x,-y,1/2-z
-x,y,1/2-z
-x,-y,-z
x,y,-z
-x,y,1/2+z
x,-y,1/2+z
loop_
_atom_site_type_symbol
_atom_site_label
_atom_site_fract_x
_atom_site_fract_y
_atom_site_fract_z
Si Si1 0.936892 0.423907 0.825570
Si Si2 0.700342 0.426915 0.668834
Si Si3 0.252732 0.203059 0.330189
Si Si4 0.642321 0.717791 0.166928
Si Si5 0.811047 0.655346 0.329422
Si Si6 0.690552 0.076612 0.325848
Si Si7 0.437612 0.154192 0.832695
O O1 0.918467 0.500000 0.750000
O O2 0.882047 0.366519 0.792463
O O3 0.000000 0.392860 0.750000
O O4 0.947411 0.435634 0.000000
O O5 0.679693 0.500000 0.750000
O O6 0.713859 0.446611 0.500000
O O7 0.641860 0.369784 0.683778
O O8 0.764111 0.392653 0.731790
O O9 0.254361 0.178307 0.500000
O O10 0.313143 0.251755 0.293846
O O11 0.194366 0.257576 0.296704
O O12 0.253831 0.130659 0.229437
O O13 0.575313 0.758537 0.187189
O O14 0.667161 0.738049 0.000000
O O15 0.794211 0.639522 0.500000
O O16 0.695747 0.067696 0.500000
O O17 0.623180 0.109470 0.276079
O O18 0.700972 0.000000 0.250000
O O19 0.500000 0.129759 0.750000
O O20 0.450646 0.133228 0.000000
#
# Coordination Sequence:
#
# PCOD8202444 Si02
#       7
#     8   8   8   8   8   8   8
#     4  10  19  30  42  59  86 121 157 190 221 254
#     4  10  18  27  42  62  84 108 138 177 221 263
#     4   9  16  28  46  66  86 110 140 175 213 254
#     4   8  16  30  43  58  82 110 137 171 213 257
#     4   9  18  30  44  63  87 114 147 182 216 256
#     4  10  20  33  47  66  92 118 141 169 206 250
#     4   9  18  31  46  63  83 108 141 174 206 247
#
# _framework density 15.808037000000001
#
# number of rings (size 3 to 8) (size 9 to 14) (size 15 to 20)
#    0.000    2.714    0.000    3.429    0.000    6.571 
#    0.000    1.429    0.000    0.429    0.000    3.000 
#    0.000    0.571    0.000    6.571    0.000    2.000 
#
# Total GULP energy -693883.910452 kJ/mol
# GULP energy per Si atom -12390.784115 kJ/mol
# Density = 1.577206 g / cm^3
# Si number density = 15.808037 Si / 1000 Ang^3
#
#
#
# Elastic Constant Matrix: (Units=GPa)
#
#
# Indices 1 2 3 4 5 6 
#
# 1 47.9114 34.5465 24.5607 0.0000 0.0000 0.0000
# 2 34.5465 115.3804 46.6855 0.0000 0.0000 0.0000
# 3 24.5607 46.6855 75.1228 0.0000 0.0000 0.0000
# 4 0.0000 0.0000 0.0000 25.9467 0.0000 0.0000
# 5 0.0000 0.0000 0.0000 0.0000 19.1298 0.0000
# 6 0.0000 0.0000 0.0000 0.0000 0.0000 19.0043
#
#
#
# Elastic Compliance Matrix: (Units=1/GPa)
#
#
# Indices 1 2 3 4 5 6 
#
# 1 0.028109 -0.006276 -0.005290 0.000000 0.000000 0.000000
# 2 -0.006276 0.012980 -0.006014 0.000000 0.000000 0.000000
# 3 -0.005290 -0.006014 0.018779 0.000000 0.000000 0.000000
# 4 0.000000 0.000000 0.000000 0.038541 0.000000 0.000000
# 5 0.000000 0.000000 0.000000 0.000000 0.052274 0.000000
# 6 0.000000 0.000000 0.000000 0.000000 0.000000 0.052620
#
#
# Mechanical properties :
#
#
# Convention : Reuss Voigt Hill
#
# Bulk Modulus (GPa) = 40.47430 50.00001 45.23715
# Shear Modulus (GPa) = 20.26775 21.65762 20.96268
#
# Velocity S-wave (km/s) = 3.58455 3.70542 3.64549
# Velocity P-wave (km/s) = 6.54150 7.07142 6.81161
#
# Compressibility (1/GPa) = 0.02470703
#
# Stress axis : x y z
#
# Youngs Moduli (GPa) = 35.57619 77.04380 53.25187
#
# Poissons Ratio (x) = 0.48351 0.28169
# Poissons Ratio (y) = 0.22327 0.32028
# Poissons Ratio (z) = 0.18819 0.46338
#
# Static dielectric constant tensor:
#      x y z
#    x 2.804690 0.000000 0.000000 
#    y 0.000000 3.157450 0.000000 
#    z 0.000000 0.000000 3.123190 
# 
# 
# High freq. dielectric constant tensor:
#      x y z
#    x 1.562960 0.000000 0.000000 
#    y 0.000000 1.602960 0.000000 
#    z 0.000000 0.000000 1.622110 
# 
# From -- ./inp_files/5183.got.cif
#   From: 2010.03.12/outbox.cif.g09.slc.cpg/sg49_3_cif.got.tgz:5183.got - 2010.04.14 03:58:27.
