data_PCOD8202706
_publ_section_title
;
Structure prediction by ZEFSAII (Michael W. Deem and Ramdas Pophale) SiO2 
 PCOD8202706
Probable space group: P C C M
;
_chemical_formula_sum "Si O2"
_cell_formula_units_Z 64
_cell_length_a 15.449634
_cell_length_b 23.766586
_cell_length_c 8.769035
_cell_angle_alpha 90.000000
_cell_angle_beta 90.000000
_cell_angle_gamma 90.000000
_cell_volume 3219.858600
_symmetry_space_group_name_H-M "P C C M"
_symmetry_group_IT_number 49
_symmetry_cell_setting 'orthorhombic'
loop_
_space_group_symop_operation_xyz
x,y,z
-x,-y,z
x,-y,1/2-z
-x,y,1/2-z
-x,-y,-z
x,y,-z
-x,y,1/2+z
x,-y,1/2+z
loop_
_atom_site_type_symbol
_atom_site_label
_atom_site_fract_x
_atom_site_fract_y
_atom_site_fract_z
Si Si1 0.910544 0.624595 0.820121
Si Si2 0.246309 0.061134 0.819081
Si Si3 0.739349 0.439305 0.680596
Si Si4 0.589452 0.130147 0.320382
Si Si5 0.842365 0.257261 0.318979
Si Si6 0.910302 0.139112 0.319128
Si Si7 0.411789 0.365885 0.319655
Si Si8 0.355169 0.745716 0.319501
O O1 0.834525 0.582064 0.771418
O O2 0.889549 0.686983 0.755278
O O3 0.000000 0.602247 0.750000
O O4 0.920033 0.626568 0.000000
O O5 0.333460 0.090837 0.757999
O O6 0.164896 0.097640 0.762273
O O7 0.238065 0.000000 0.750000
O O8 0.247323 0.057394 0.000000
O O9 0.722821 0.500000 0.750000
O O10 0.728634 0.441201 0.500000
O O11 0.669831 0.396673 0.747155
O O12 0.500000 0.108258 0.250000
O O13 0.584021 0.125080 0.500000
O O14 0.606703 0.194213 0.271523
O O15 0.842795 0.256913 0.500000
O O16 0.890676 0.201917 0.256146
O O17 0.743699 0.256859 0.263530
O O18 0.916084 0.139184 0.500000
O O19 0.000000 0.117240 0.250000
O O20 0.500000 0.391936 0.250000
O O21 0.411825 0.373790 0.500000
O O22 0.408476 0.300415 0.274041
O O23 0.363466 0.734218 0.500000
#
# Coordination Sequence:
#
# PCOD8202706 Si02
#       8
#     8   8   8   8   8   8   8   8
#     4  10  21  37  61  89 121 158 195 239 294 351
#     4  10  22  40  59  80 110 153 197 242 294 348
#     4  11  24  44  66  89 120 161 205 253 302 349
#     4  10  21  37  60  86 115 152 191 237 292 353
#     4   9  16  33  60  86 116 155 190 232 293 355
#     4  10  20  36  59  85 115 151 192 236 291 351
#     4  12  25  41  63  93 125 159 199 244 295 357
#     4  10  18  36  63  88 120 157 193 237 295 356
#
# _framework density 19.876650000000001
#
# number of rings (size 3 to 8) (size 9 to 14) (size 15 to 20)
#    0.000    1.750    2.500    2.250    0.000    4.500 
#    0.000    5.625    0.000    0.000    0.000    0.000 
#    0.000    0.000    0.000    0.000    0.000    0.000 
#
# Total GULP energy -793795.352024 kJ/mol
# GULP energy per Si atom -12403.052375 kJ/mol
# Density = 1.983141 g / cm^3
# Si number density = 19.876650 Si / 1000 Ang^3
#
#
#
# Elastic Constant Matrix: (Units=GPa)
#
#
# Indices 1 2 3 4 5 6 
#
# 1 137.6355 24.2824 35.6803 0.0000 0.0000 0.0000
# 2 24.2824 94.0497 27.5924 0.0000 0.0000 0.0000
# 3 35.6803 27.5924 50.9085 0.0000 0.0000 0.0000
# 4 0.0000 0.0000 0.0000 7.7491 0.0000 0.0000
# 5 0.0000 0.0000 0.0000 0.0000 33.2496 0.0000
# 6 0.0000 0.0000 0.0000 0.0000 0.0000 12.2629
#
#
#
# Elastic Compliance Matrix: (Units=1/GPa)
#
#
# Indices 1 2 3 4 5 6 
#
# 1 0.008903 -0.000556 -0.005938 0.000000 0.000000 0.000000
# 2 -0.000556 0.012678 -0.006481 0.000000 0.000000 0.000000
# 3 -0.005938 -0.006481 0.027318 0.000000 0.000000 0.000000
# 4 0.000000 0.000000 0.000000 0.129048 0.000000 0.000000
# 5 0.000000 0.000000 0.000000 0.000000 0.030076 0.000000
# 6 0.000000 0.000000 0.000000 0.000000 0.000000 0.081547
#
#
# Mechanical properties :
#
#
# Convention : Reuss Voigt Hill
#
# Bulk Modulus (GPa) = 43.57942 50.85598 47.21770
# Shear Modulus (GPa) = 15.47169 23.65488 19.56328
#
# Velocity S-wave (km/s) = 2.79298 3.45350 3.14065
# Velocity P-wave (km/s) = 5.68977 6.44543 6.07935
#
# Compressibility (1/GPa) = 0.02294661
#
# Stress axis : x y z
#
# Youngs Moduli (GPa) = 112.31918 78.87761 36.60586
#
# Poissons Ratio (x) = 0.04389 0.21738
# Poissons Ratio (y) = 0.06250 0.23726
# Poissons Ratio (z) = 0.66699 0.51124
#
# Static dielectric constant tensor:
#      x y z
#    x 3.890890 0.000000 0.000000 
#    y 0.000000 3.719150 0.000000 
#    z 0.000000 0.000000 3.302640 
# 
# 
# High freq. dielectric constant tensor:
#      x y z
#    x 1.793630 0.000000 0.000000 
#    y 0.000000 1.775260 0.000000 
#    z 0.000000 0.000000 1.751260 
# 
# From -- ./inp_files/4330.got.cif
#   From: 2010.03.12/outbox.cif.g09.slc.cpg/sg49_3_cif.got.tgz:4330.got - 2010.04.14 03:58:27.
