data_PCOD8202576
_publ_section_title
;
Structure prediction by ZEFSAII (Michael W. Deem and Ramdas Pophale) SiO2 
 PCOD8202576
Probable space group: P C C M
;
_chemical_formula_sum "Si O2"
_cell_formula_units_Z 48
_cell_length_a 9.020957
_cell_length_b 17.858431
_cell_length_c 14.533819
_cell_angle_alpha 90.000000
_cell_angle_beta 90.000000
_cell_angle_gamma 90.000000
_cell_volume 2341.400249
_symmetry_space_group_name_H-M "P C C M"
_symmetry_group_IT_number 49
_symmetry_cell_setting 'orthorhombic'
loop_
_space_group_symop_operation_xyz
x,y,z
-x,-y,z
x,-y,1/2-z
-x,y,1/2-z
-x,-y,-z
x,y,-z
-x,y,1/2+z
x,-y,1/2+z
loop_
_atom_site_type_symbol
_atom_site_label
_atom_site_fract_x
_atom_site_fract_y
_atom_site_fract_z
Si Si1 0.870912 0.786955 0.607790
Si Si2 0.391146 0.565369 0.104790
Si Si3 0.789865 0.180805 0.599805
Si Si4 0.649887 0.667672 0.101132
Si Si5 0.173997 0.083069 0.738605
Si Si6 0.833802 0.638773 0.723794
O O1 0.826137 0.778137 0.500000
O O2 0.801803 0.866215 0.646149
O O3 0.813824 0.718198 0.670405
O O4 0.048599 0.783664 0.620271
O O5 0.500000 0.500000 0.142382
O O6 0.479341 0.644016 0.116431
O O7 0.238701 0.573180 0.161493
O O8 0.347041 0.548120 0.000000
O O9 0.794119 0.140968 0.500000
O O10 0.661863 0.242862 0.602050
O O11 0.745685 0.121954 0.676149
O O12 0.751384 0.634100 0.179510
O O13 0.702326 0.637486 0.000000
O O14 0.000000 0.076935 0.750000
O O15 0.243164 0.000000 0.750000
O O16 0.000000 0.618058 0.750000
#
# Coordination Sequence:
#
# PCOD8202576 Si02
#       6
#     8   8   8   8   8   8
#     4  10  18  30  50  80 116 154 202 259 309 356
#     4  10  24  45  65  89 125 161 196 243 301 366
#     4   9  16  29  49  74 108 151 200 248 297 353
#     4  10  20  36  58  82 115 159 200 242 297 360
#     4   9  16  27  43  71 113 156 199 252 309 365
#     4  12  21  36  63  91 120 155 204 254 303 354
#
# _framework density 20.500551000000002
#
# number of rings (size 3 to 8) (size 9 to 14) (size 15 to 20)
#    0.000    2.000    3.333    1.500    0.000    2.667 
#    0.000    5.000    0.000    3.000    0.000    2.333 
#    0.000    5.333    0.000    0.167    0.000    0.000 
#
# Total GULP energy -594665.692925 kJ/mol
# GULP energy per Si atom -12388.868603 kJ/mol
# Density = 2.045389 g / cm^3
# Si number density = 20.500551 Si / 1000 Ang^3
#
#
#
# Elastic Constant Matrix: (Units=GPa)
#
#
# Indices 1 2 3 4 5 6 
#
# 1 64.9343 39.7913 46.6536 0.0000 0.0000 0.0000
# 2 39.7913 101.1670 47.9291 0.0000 0.0000 0.0000
# 3 46.6536 47.9291 136.2526 0.0000 0.0000 0.0000
# 4 0.0000 0.0000 0.0000 26.4732 0.0000 0.0000
# 5 0.0000 0.0000 0.0000 0.0000 24.3591 0.0000
# 6 0.0000 0.0000 0.0000 0.0000 0.0000 21.5051
#
#
#
# Elastic Compliance Matrix: (Units=1/GPa)
#
#
# Indices 1 2 3 4 5 6 
#
# 1 0.023543 -0.006529 -0.005764 0.000000 0.000000 0.000000
# 2 -0.006529 0.013672 -0.002574 0.000000 0.000000 0.000000
# 3 -0.005764 -0.002574 0.010218 0.000000 0.000000 0.000000
# 4 0.000000 0.000000 0.000000 0.037774 0.000000 0.000000
# 5 0.000000 0.000000 0.000000 0.000000 0.041052 0.000000
# 6 0.000000 0.000000 0.000000 0.000000 0.000000 0.046501
#
#
# Mechanical properties :
#
#
# Convention : Reuss Voigt Hill
#
# Bulk Modulus (GPa) = 56.50113 63.45576 59.97844
# Shear Modulus (GPa) = 23.99299 25.66613 24.82956
#
# Velocity S-wave (km/s) = 3.42476 3.54216 3.48396
# Velocity P-wave (km/s) = 6.57718 6.91011 6.74570
#
# Compressibility (1/GPa) = 0.01769876
#
# Stress axis : x y z
#
# Youngs Moduli (GPa) = 42.47610 73.14229 97.86178
#
# Poissons Ratio (x) = 0.47754 0.56412
# Poissons Ratio (y) = 0.27732 0.25188
# Poissons Ratio (z) = 0.24485 0.18826
#
# Static dielectric constant tensor:
#      x y z
#    x 3.359100 0.000000 0.000000 
#    y 0.000000 3.903840 0.000000 
#    z 0.000000 0.000000 4.070480 
# 
# 
# High freq. dielectric constant tensor:
#      x y z
#    x 1.756840 0.000000 0.000000 
#    y 0.000000 1.787190 0.000000 
#    z 0.000000 0.000000 1.823930 
# 
# From -- ./inp_files/11821.got.cif
#   From: 2010.03.12/outbox.cif.g09.slc.cpg/sg49_6_cif.got.tgz:11821.got - 2010.04.14 03:58:27.
