data_PCOD8202678
_publ_section_title
;
Structure prediction by ZEFSAII (Michael W. Deem and Ramdas Pophale) SiO2 
 PCOD8202678
Probable space group: P C C M
;
_chemical_formula_sum "Si O2"
_cell_formula_units_Z 48
_cell_length_a 8.823546
_cell_length_b 16.316659
_cell_length_c 15.586669
_cell_angle_alpha 90.000000
_cell_angle_beta 90.000000
_cell_angle_gamma 90.000000
_cell_volume 2244.025069
_symmetry_space_group_name_H-M "P C C M"
_symmetry_group_IT_number 49
_symmetry_cell_setting 'orthorhombic'
loop_
_space_group_symop_operation_xyz
x,y,z
-x,-y,z
x,-y,1/2-z
-x,y,1/2-z
-x,-y,-z
x,y,-z
-x,y,1/2+z
x,-y,1/2+z
loop_
_atom_site_type_symbol
_atom_site_label
_atom_site_fract_x
_atom_site_fract_y
_atom_site_fract_z
Si Si1 0.644587 0.556587 0.000000
Si Si2 0.635836 0.744269 0.000000
Si Si3 0.176759 0.517300 0.154136
Si Si4 0.839340 0.233834 0.334415
Si Si5 0.819416 0.985183 0.500000
Si Si6 0.173657 0.295404 0.347361
Si Si7 0.688452 0.804103 0.500000
Si Si8 0.160335 0.045246 0.827605
O O1 0.500000 0.500000 0.000000
O O2 0.585885 0.649642 0.000000
O O3 0.741862 0.541369 0.085836
O O4 0.730248 0.761537 0.085193
O O5 0.493708 0.806141 0.000000
O O6 0.238955 0.500000 0.250000
O O7 0.208633 0.610976 0.129483
O O8 0.000000 0.500000 0.150008
O O9 0.770487 0.277425 0.249905
O O10 0.867320 0.139956 0.308763
O O11 0.995816 0.277767 0.358214
O O12 0.771078 0.891085 0.500000
O O13 0.749332 0.030175 0.583547
O O14 0.000000 0.000000 0.500000
O O15 0.264998 0.241039 0.413502
O O16 0.250843 0.000000 0.750000
O O17 0.000000 0.000000 0.835540
#
# Coordination Sequence:
#
# PCOD8202678 Si02
#       8
#     4   4   8   8   4   8   4   8
#     4  12  25  43  62  87 122 168 213 254 311 386
#     4  12  26  43  60  90 129 166 205 260 321 382
#     4  11  22  39  62  91 122 158 204 265 323 372
#     4  11  22  39  65  95 125 161 207 265 318 368
#     4  10  19  35  59  86 115 152 199 250 294 357
#     4  11  21  39  64  92 119 160 213 261 311 377
#     4  12  25  41  62  89 125 168 208 256 317 383
#     4  10  18  33  58  90 118 149 193 246 299 356
#
# _framework density 21.390135999999998
#
# number of rings (size 3 to 8) (size 9 to 14) (size 15 to 20)
#    0.000    1.000    0.000   11.750    0.000    1.000 
#    0.000    5.000    0.000    1.000    0.000    0.000 
#    0.000    0.000    0.000    0.000    0.000    0.000 
#
# Total GULP energy -595159.275028 kJ/mol
# GULP energy per Si atom -12399.151563 kJ/mol
# Density = 2.134145 g / cm^3
# Si number density = 21.390136 Si / 1000 Ang^3
#
#
#
# Elastic Constant Matrix: (Units=GPa)
#
#
# Indices 1 2 3 4 5 6 
#
# 1 74.7030 9.6898 45.3367 0.0000 0.0000 0.0000
# 2 9.6898 114.6682 -2.4834 0.0000 0.0000 0.0000
# 3 45.3367 -2.4834 159.0833 0.0000 0.0000 0.0000
# 4 0.0000 0.0000 0.0000 39.2307 0.0000 0.0000
# 5 0.0000 0.0000 0.0000 0.0000 -157.3365 0.0000
# 6 0.0000 0.0000 0.0000 0.0000 0.0000 22.8622
#
#
#
# Elastic Compliance Matrix: (Units=1/GPa)
#
#
# Indices 1 2 3 4 5 6 
#
# 1 0.016437 -0.001491 -0.004708 0.000000 0.000000 0.000000
# 2 -0.001491 0.008859 0.000563 0.000000 0.000000 0.000000
# 3 -0.004708 0.000563 0.007636 0.000000 0.000000 0.000000
# 4 0.000000 0.000000 0.000000 0.025490 0.000000 0.000000
# 5 0.000000 0.000000 0.000000 0.000000 -0.006356 0.000000
# 6 0.000000 0.000000 0.000000 0.000000 0.000000 0.043740
#
#
# Mechanical properties :
#
#
# Convention : Reuss Voigt Hill
#
# Bulk Modulus (GPa) = 46.16461 50.39338 48.27899
# Shear Modulus (GPa) = 43.74533 0.67870 22.21202
#
# Velocity S-wave (km/s) = 4.52720 0.56390 3.22595
# Velocity P-wave (km/s) = 6.99689 4.90248 6.04114
#
# Compressibility (1/GPa) = 0.02166162
#
# Stress axis : x y z
#
# Youngs Moduli (GPa) = 60.83950 112.87962 130.95197
#
# Poissons Ratio (x) = 0.16829 0.61646
# Poissons Ratio (y) = 0.09071 -0.07375
# Poissons Ratio (z) = 0.28640 -0.06357
#
# Static dielectric constant tensor:
#      x y z
#    x 3.517860 0.000000 0.000000 
#    y 0.000000 4.240440 0.000000 
#    z 0.000000 0.000000 3.850590 
# 
# 
# High freq. dielectric constant tensor:
#      x y z
#    x 1.793590 0.000000 0.000000 
#    y 0.000000 1.858040 0.000000 
#    z 0.000000 0.000000 1.872650 
# 
# From -- ./inp_files/16387.got.cif
#   From: 2010.03.12/outbox.cif.g09.slc.cpg/sg49_9_cif.got.tgz:16387.got - 2010.04.14 03:58:27.
