data_PCOD8202070
_publ_section_title
;
Structure prediction by ZEFSAII (Michael W. Deem and Ramdas Pophale) SiO2 
 PCOD8202070
Probable space group: P N N N
;
_chemical_formula_sum "Si O2"
_cell_formula_units_Z 42
_cell_length_a 11.043979
_cell_length_b 9.808669
_cell_length_c 16.086920
_cell_angle_alpha 90.000000
_cell_angle_beta 90.000000
_cell_angle_gamma 90.000000
_cell_volume 1742.643511
_symmetry_space_group_name_H-M "P N N N"
_symmetry_group_IT_number 48
_space_group.IT_coordinate_system_code '2'
_symmetry_cell_setting 'orthorhombic'
loop_
_space_group_symop_operation_xyz
x,y,z
1/2-x,1/2-y,z
x,1/2-y,1/2-z
1/2-x,y,1/2-z
-x,-y,-z
1/2+x,1/2+y,-z
-x,1/2+y,1/2+z
1/2+x,-y,1/2+z
loop_
_atom_site_type_symbol
_atom_site_label
_atom_site_fract_x
_atom_site_fract_y
_atom_site_fract_z
Si Si1 0.750000 0.528380 0.250000
Si Si2 0.982466 0.729966 0.479242
Si Si3 0.750000 0.250000 0.750000
Si Si4 0.410921 0.473780 0.104732
Si Si5 0.004249 0.403394 0.226016
Si Si6 0.351709 0.930685 0.107953
Si Si7 0.250000 0.250000 0.883963
O O1 0.638023 0.432206 0.272310
O O2 0.713255 0.621327 0.172054
O O3 0.958390 0.676387 0.573623
O O4 0.861712 0.796575 0.441306
O O5 0.004914 0.591505 0.429843
O O6 0.090475 0.840662 0.467635
O O7 0.664035 0.164195 0.811276
O O8 0.420735 0.485880 0.203806
O O9 0.272672 0.502563 0.075815
O O10 0.030861 0.250000 0.250000
O O11 0.057741 0.447350 0.135907
#
# Coordination Sequence:
#
# PCOD8202070 Si02
#       7
#     4   8   2   8   8   8   4
#     4  11  23  42  68 104 133 181 236 294 358 415
#     4  11  23  43  68 102 139 180 232 297 358 427
#     4  12  20  36  74 102 128 168 246 290 350 424
#     4  11  24  43  67 102 143 179 229 297 367 422
#     4  12  25  44  68 101 143 184 234 298 355 430
#     4  12  22  42  72 105 136 190 239 297 361 430
#     4  11  22  40  74  96 133 176 242 294 343 432
#
# _framework density 24.101315
#
# number of rings (size 3 to 8) (size 9 to 14) (size 15 to 20)
#    0.000    0.571    7.619    0.286    0.000    3.048 
#    3.429    3.810    0.000    0.000    0.000    0.000 
#    0.000    0.000    0.000    0.000    0.000    0.000 
#
# Total GULP energy -520703.411718 kJ/mol
# GULP energy per Si atom -12397.700279 kJ/mol
# Density = 2.404646 g / cm^3
# Si number density = 24.101315 Si / 1000 Ang^3
#
#
#
# Elastic Constant Matrix: (Units=GPa)
#
#
# Indices 1 2 3 4 5 6 
#
# 1 131.0921 15.9539 9.5734 0.0000 0.0000 0.0000
# 2 15.9539 90.0775 4.1015 0.0000 0.0000 0.0000
# 3 9.5734 4.1015 49.2662 0.0000 0.0000 0.0000
# 4 0.0000 0.0000 0.0000 24.5787 0.0000 0.0000
# 5 0.0000 0.0000 0.0000 0.0000 35.2911 0.0000
# 6 0.0000 0.0000 0.0000 0.0000 0.0000 32.7631
#
#
#
# Elastic Compliance Matrix: (Units=1/GPa)
#
#
# Indices 1 2 3 4 5 6 
#
# 1 0.007894 -0.001333 -0.001423 0.000000 0.000000 0.000000
# 2 -0.001333 0.011369 -0.000687 0.000000 0.000000 0.000000
# 3 -0.001423 -0.000687 0.020632 0.000000 0.000000 0.000000
# 4 0.000000 0.000000 0.000000 0.040686 0.000000 0.000000
# 5 0.000000 0.000000 0.000000 0.000000 0.028336 0.000000
# 6 0.000000 0.000000 0.000000 0.000000 0.000000 0.030522
#
#
# Mechanical properties :
#
#
# Convention : Reuss Voigt Hill
#
# Bulk Modulus (GPa) = 30.29622 36.63260 33.46441
# Shear Modulus (GPa) = 31.78059 34.58039 33.18049
#
# Velocity S-wave (km/s) = 3.63523 3.79197 3.71443
# Velocity P-wave (km/s) = 5.49704 5.86554 5.68428
#
# Compressibility (1/GPa) = 0.03300742
#
# Stress axis : x y z
#
# Youngs Moduli (GPa) = 126.67178 87.95841 48.46923
#
# Poissons Ratio (x) = 0.11728 0.06897
# Poissons Ratio (y) = 0.16890 0.03332
# Poissons Ratio (z) = 0.18026 0.06046
#
# Static dielectric constant tensor:
#      x y z
#    x 4.153930 0.000000 0.000000 
#    y 0.000000 4.264440 0.000000 
#    z 0.000000 0.000000 4.497900 
# 
# 
# High freq. dielectric constant tensor:
#      x y z
#    x 1.956950 0.000000 0.000000 
#    y 0.000000 1.960460 0.000000 
#    z 0.000000 0.000000 1.945830 
# 
# From -- ./inp_files/30994.got.cif
#   From: 2010.06.25/outbox.cif.g09.slc.cpg/sg48_16_cif.got.tgz:30994.got - 2010.06.26 18:06:46.
