data_PCOD8202891
_publ_section_title
;
Structure prediction by ZEFSAII (Michael W. Deem and Ramdas Pophale) SiO2 
 PCOD8202891
Probable space group: P C C M
;
_chemical_formula_sum "Si O2"
_cell_formula_units_Z 40
_cell_length_a 18.610126
_cell_length_b 13.699932
_cell_length_c 8.858399
_cell_angle_alpha 90.000000
_cell_angle_beta 90.000000
_cell_angle_gamma 90.000000
_cell_volume 2258.514915
_symmetry_space_group_name_H-M "P C C M"
_symmetry_group_IT_number 49
_symmetry_cell_setting 'orthorhombic'
loop_
_space_group_symop_operation_xyz
x,y,z
-x,-y,z
x,-y,1/2-z
-x,y,1/2-z
-x,-y,-z
x,y,-z
-x,y,1/2+z
x,-y,1/2+z
loop_
_atom_site_type_symbol
_atom_site_label
_atom_site_fract_x
_atom_site_fract_y
_atom_site_fract_z
Si Si1 0.214219 0.103438 0.176670
Si Si2 0.147539 0.604603 0.177189
Si Si3 0.073341 0.218245 0.821474
Si Si4 0.287358 0.723181 0.825148
Si Si5 0.426051 0.396467 0.678521
O O1 0.135873 0.142814 0.225141
O O2 0.275135 0.178854 0.230316
O O3 0.229127 0.000000 0.250000
O O4 0.220452 0.091305 0.000000
O O5 0.137005 0.500000 0.250000
O O6 0.089297 0.676179 0.250982
O O7 0.227542 0.642300 0.214477
O O8 0.132935 0.598475 0.000000
O O9 0.000000 0.176955 0.750000
O O10 0.066154 0.228230 0.000000
O O11 0.364550 0.680643 0.779899
O O12 0.283301 0.751423 0.000000
O O13 0.405128 0.500000 0.750000
O O14 0.500000 0.356839 0.750000
O O15 0.434579 0.409730 0.500000
#
# Coordination Sequence:
#
# PCOD8202891 Si02
#       5
#     8   8   8   8   8
#     4  10  21  36  56  78 100 127 163 206 253 302
#     4  10  19  32  50  72  99 132 168 207 247 294
#     4  10  21  36  52  73  99 129 164 204 249 298
#     4   9  19  34  52  74 102 134 169 208 250 294
#     4  10  19  31  49  76 109 143 174 206 243 289
#
# _framework density 17.710753
#
# number of rings (size 3 to 8) (size 9 to 14) (size 15 to 20)
#    0.000    2.200    0.000    3.600    0.000    5.600 
#    0.000    4.000    0.000    0.600    0.000    4.200 
#    0.000    0.000    0.000    0.000    0.000    0.000 
#
# Total GULP energy -496144.828792 kJ/mol
# GULP energy per Si atom -12403.620720 kJ/mol
# Density = 1.767044 g / cm^3
# Si number density = 17.710753 Si / 1000 Ang^3
#
#
#
# Elastic Constant Matrix: (Units=GPa)
#
#
# Indices 1 2 3 4 5 6 
#
# 1 113.3861 50.7236 46.4391 0.0000 0.0000 0.0000
# 2 50.7236 112.8540 47.5475 0.0000 0.0000 0.0000
# 3 46.4391 47.5475 82.7005 0.0000 0.0000 0.0000
# 4 0.0000 0.0000 0.0000 29.0008 0.0000 0.0000
# 5 0.0000 0.0000 0.0000 0.0000 27.3431 0.0000
# 6 0.0000 0.0000 0.0000 0.0000 0.0000 13.3902
#
#
#
# Elastic Compliance Matrix: (Units=1/GPa)
#
#
# Indices 1 2 3 4 5 6 
#
# 1 0.012413 -0.003487 -0.004965 0.000000 0.000000 0.000000
# 2 -0.003487 0.012673 -0.005328 0.000000 0.000000 0.000000
# 3 -0.004965 -0.005328 0.017943 0.000000 0.000000 0.000000
# 4 0.000000 0.000000 0.000000 0.034482 0.000000 0.000000
# 5 0.000000 0.000000 0.000000 0.000000 0.036572 0.000000
# 6 0.000000 0.000000 0.000000 0.000000 0.000000 0.074681
#
#
# Mechanical properties :
#
#
# Convention : Reuss Voigt Hill
#
# Bulk Modulus (GPa) = 64.64869 66.48454 65.56662
# Shear Modulus (GPa) = 22.57513 24.89552 23.73533
#
# Velocity S-wave (km/s) = 3.57411 3.75330 3.66480
# Velocity P-wave (km/s) = 7.32216 7.51023 7.41679
#
# Compressibility (1/GPa) = 0.01546822
#
# Stress axis : x y z
#
# Youngs Moduli (GPa) = 80.55998 78.90669 55.73070
#
# Poissons Ratio (x) = 0.27516 0.27673
# Poissons Ratio (y) = 0.28093 0.29694
# Poissons Ratio (z) = 0.40002 0.42042
#
# Static dielectric constant tensor:
#      x y z
#    x 3.348690 0.000000 0.000000 
#    y 0.000000 3.414000 0.000000 
#    z 0.000000 0.000000 3.376780 
# 
# 
# High freq. dielectric constant tensor:
#      x y z
#    x 1.679860 0.000000 0.000000 
#    y 0.000000 1.674190 0.000000 
#    z 0.000000 0.000000 1.700200 
# 
# From -- ./inp_files/2663.got.cif
#   From: 2010.03.12/outbox.cif.g09.slc.cpg/sg49_2_cif.got.tgz:2663.got - 2010.04.14 03:58:27.
