data_PCOD8202563
_publ_section_title
;
Structure prediction by ZEFSAII (Michael W. Deem and Ramdas Pophale) SiO2 
 PCOD8202563
Probable space group: P C C M
;
_chemical_formula_sum "Si O2"
_cell_formula_units_Z 56
_cell_length_a 18.602375
_cell_length_b 18.918672
_cell_length_c 8.788654
_cell_angle_alpha 90.000000
_cell_angle_beta 90.000000
_cell_angle_gamma 90.000000
_cell_volume 3093.010610
_symmetry_space_group_name_H-M "P C C M"
_symmetry_group_IT_number 49
_symmetry_cell_setting 'orthorhombic'
loop_
_space_group_symop_operation_xyz
x,y,z
-x,-y,z
x,-y,1/2-z
-x,y,1/2-z
-x,-y,-z
x,y,-z
-x,y,1/2+z
x,-y,1/2+z
loop_
_atom_site_type_symbol
_atom_site_label
_atom_site_fract_x
_atom_site_fract_y
_atom_site_fract_z
Si Si1 0.297926 0.928891 0.679067
Si Si2 0.425780 0.658449 0.821911
Si Si3 0.857256 0.926422 0.681388
Si Si4 0.208286 0.697704 0.324827
Si Si5 0.925680 0.209140 0.680694
Si Si6 0.648794 0.780615 0.173416
Si Si7 0.286349 0.575697 0.178926
O O1 0.282782 0.938299 0.500000
O O2 0.223317 0.912196 0.761682
O O3 0.352953 0.864346 0.709226
O O4 0.332627 0.000000 0.750000
O O5 0.500000 0.632049 0.750000
O O6 0.408552 0.739660 0.777529
O O7 0.361859 0.608117 0.760495
O O8 0.433508 0.652926 0.000000
O O9 0.858869 0.928983 0.500000
O O10 0.909021 0.865484 0.741698
O O11 0.886156 0.000000 0.750000
O O12 0.206422 0.674881 0.500000
O O13 0.133859 0.732950 0.273660
O O14 0.270546 0.754612 0.293355
O O15 0.221407 0.627251 0.226639
O O16 0.929636 0.199153 0.500000
O O17 0.000000 0.237747 0.750000
O O18 0.626798 0.765388 0.000000
O O19 0.272908 0.500000 0.250000
O O20 0.287733 0.568115 0.000000
#
# Coordination Sequence:
#
# PCOD8202563 Si02
#       7
#     8   8   8   8   8   8   8
#     4  10  18  30  48  74 103 135 175 222 273 317
#     4  10  21  35  53  80 111 143 177 211 251 307
#     4  11  21  33  50  72 102 140 179 224 272 322
#     4   9  18  35  56  76 105 138 173 216 260 310
#     4  11  22  37  54  77 106 140 180 221 272 322
#     4   9  17  32  53  74 101 138 176 217 263 310
#     4  10  21  36  57  85 112 140 176 210 252 305
#
# _framework density 18.105338
#
# number of rings (size 3 to 8) (size 9 to 14) (size 15 to 20)
#    0.000    2.000    1.429    3.857    0.000    4.571 
#    0.000    2.857    0.000    0.857    0.000    6.000 
#    0.000    0.000    0.000    0.000    0.000    0.000 
#
# Total GULP energy -694485.852814 kJ/mol
# GULP energy per Si atom -12401.533086 kJ/mol
# Density = 1.806413 g / cm^3
# Si number density = 18.105338 Si / 1000 Ang^3
#
#
#
# Elastic Constant Matrix: (Units=GPa)
#
#
# Indices 1 2 3 4 5 6 
#
# 1 71.7366 42.0439 32.7699 0.0000 0.0000 0.0000
# 2 42.0439 122.7536 45.2455 0.0000 0.0000 0.0000
# 3 32.7699 45.2455 92.6408 0.0000 0.0000 0.0000
# 4 0.0000 0.0000 0.0000 28.5867 0.0000 0.0000
# 5 0.0000 0.0000 0.0000 0.0000 27.0644 0.0000
# 6 0.0000 0.0000 0.0000 0.0000 0.0000 16.6534
#
#
#
# Elastic Compliance Matrix: (Units=1/GPa)
#
#
# Indices 1 2 3 4 5 6 
#
# 1 0.018724 -0.004844 -0.004257 0.000000 0.000000 0.000000
# 2 -0.004844 0.011188 -0.003751 0.000000 0.000000 0.000000
# 3 -0.004257 -0.003751 0.014132 0.000000 0.000000 0.000000
# 4 0.000000 0.000000 0.000000 0.034981 0.000000 0.000000
# 5 0.000000 0.000000 0.000000 0.000000 0.036949 0.000000
# 6 0.000000 0.000000 0.000000 0.000000 0.000000 0.060048
#
#
# Mechanical properties :
#
#
# Convention : Reuss Voigt Hill
#
# Bulk Modulus (GPa) = 54.52607 58.58328 56.55467
# Shear Modulus (GPa) = 24.05712 25.59902 24.82807
#
# Velocity S-wave (km/s) = 3.64913 3.76426 3.70714
# Velocity P-wave (km/s) = 6.92360 7.16380 7.04472
#
# Compressibility (1/GPa) = 0.01833985
#
# Stress axis : x y z
#
# Youngs Moduli (GPa) = 53.40869 89.38245 70.76016
#
# Poissons Ratio (x) = 0.43294 0.30126
# Poissons Ratio (y) = 0.25869 0.26541
# Poissons Ratio (z) = 0.22739 0.33525
#
# Static dielectric constant tensor:
#      x y z
#    x 3.193200 0.000000 0.000000 
#    y 0.000000 3.446500 0.000000 
#    z 0.000000 0.000000 3.393260 
# 
# 
# High freq. dielectric constant tensor:
#      x y z
#    x 1.674240 0.000000 0.000000 
#    y 0.000000 1.698640 0.000000 
#    z 0.000000 0.000000 1.711410 
# 
# From -- ./inp_files/5190.got.cif
#   From: 2010.03.12/outbox.cif.g09.slc.cpg/sg49_3_cif.got.tgz:5190.got - 2010.04.14 03:58:27.
