data_PCOD8202533
_publ_section_title
;
Structure prediction by ZEFSAII (Michael W. Deem and Ramdas Pophale) SiO2 
 PCOD8202533
Probable space group: P C C M
;
_chemical_formula_sum "Si O2"
_cell_formula_units_Z 48
_cell_length_a 13.737644
_cell_length_b 23.910162
_cell_length_c 8.537366
_cell_angle_alpha 90.000000
_cell_angle_beta 90.000000
_cell_angle_gamma 90.000000
_cell_volume 2804.262579
_symmetry_space_group_name_H-M "P C C M"
_symmetry_group_IT_number 49
_symmetry_cell_setting 'orthorhombic'
loop_
_space_group_symop_operation_xyz
x,y,z
-x,-y,z
x,-y,1/2-z
-x,y,1/2-z
-x,-y,-z
x,y,-z
-x,y,1/2+z
x,-y,1/2+z
loop_
_atom_site_type_symbol
_atom_site_label
_atom_site_fract_x
_atom_site_fract_y
_atom_site_fract_z
Si Si1 0.791542 0.831524 0.684878
Si Si2 0.603673 0.231014 0.814322
Si Si3 0.105300 0.720777 0.185845
Si Si4 0.395087 0.439842 0.685302
Si Si5 0.290002 0.663761 0.685136
Si Si6 0.892418 0.058330 0.813748
O O1 0.794701 0.834684 0.500000
O O2 0.682476 0.815641 0.740200
O O3 0.866249 0.783455 0.741453
O O4 0.824360 0.891610 0.752384
O O5 0.500000 0.211126 0.750000
O O6 0.632156 0.290792 0.744208
O O7 0.601361 0.236929 0.000000
O O8 0.181325 0.677658 0.259591
O O9 0.000000 0.705174 0.250000
O O10 0.109010 0.715231 0.000000
O O11 0.363442 0.500000 0.750000
O O12 0.500000 0.421603 0.750000
O O13 0.400314 0.442206 0.500000
O O14 0.315159 0.395818 0.741217
O O15 0.295187 0.660472 0.500000
O O16 0.000000 0.068433 0.750000
O O17 0.849074 0.000000 0.750000
O O18 0.895817 0.056638 0.000000
#
# Coordination Sequence:
#
# PCOD8202533 Si02
#       6
#     8   8   8   8   8   8
#     4   8  17  31  48  68  96 127 159 197 241 286
#     4  10  19  33  50  72  98 127 160 200 244 291
#     4  10  19  33  51  74 100 130 163 202 245 291
#     4  11  21  35  53  76 103 133 166 204 245 291
#     4  11  21  34  51  74 101 133 166 201 242 289
#     4  10  18  30  46  68  94 124 156 194 238 286
#
# _framework density 17.116800000000001
#
# number of rings (size 3 to 8) (size 9 to 14) (size 15 to 20)
#    0.000    2.000    0.000    7.500    0.000    0.000 
#    0.000    9.167    0.000    1.000    0.000    7.000 
#    0.000    0.000    0.000    0.000    0.000    0.000 
#
# Total GULP energy -595224.006636 kJ/mol
# GULP energy per Si atom -12400.500138 kJ/mol
# Density = 1.707784 g / cm^3
# Si number density = 17.116800 Si / 1000 Ang^3
#
#
#
# Elastic Constant Matrix: (Units=GPa)
#
#
# Indices 1 2 3 4 5 6 
#
# 1 117.1145 73.7557 36.0787 0.0000 0.0000 0.0000
# 2 73.7557 142.1774 46.0159 0.0000 0.0000 0.0000
# 3 36.0787 46.0159 113.4953 0.0000 0.0000 0.0000
# 4 0.0000 0.0000 0.0000 20.5839 0.0000 0.0000
# 5 0.0000 0.0000 0.0000 0.0000 27.5558 0.0000
# 6 0.0000 0.0000 0.0000 0.0000 0.0000 28.0962
#
#
#
# Elastic Compliance Matrix: (Units=1/GPa)
#
#
# Indices 1 2 3 4 5 6 
#
# 1 0.012930 -0.006189 -0.001601 0.000000 0.000000 0.000000
# 2 -0.006189 0.011059 -0.002516 0.000000 0.000000 0.000000
# 3 -0.001601 -0.002516 0.010340 0.000000 0.000000 0.000000
# 4 0.000000 0.000000 0.000000 0.048582 0.000000 0.000000
# 5 0.000000 0.000000 0.000000 0.000000 0.036290 0.000000
# 6 0.000000 0.000000 0.000000 0.000000 0.000000 0.035592
#
#
# Mechanical properties :
#
#
# Convention : Reuss Voigt Hill
#
# Bulk Modulus (GPa) = 72.90857 76.05421 74.48139
# Shear Modulus (GPa) = 27.78147 29.70963 28.74555
#
# Velocity S-wave (km/s) = 4.03308 4.17069 4.10247
# Velocity P-wave (km/s) = 8.02340 8.22933 8.12702
#
# Compressibility (1/GPa) = 0.01371581
#
# Stress axis : x y z
#
# Youngs Moduli (GPa) = 77.34169 90.42784 96.71231
#
# Poissons Ratio (x) = 0.55968 0.15481
# Poissons Ratio (y) = 0.47869 0.24334
# Poissons Ratio (z) = 0.12381 0.22753
#
# Static dielectric constant tensor:
#      x y z
#    x 3.191900 0.000000 0.000000 
#    y 0.000000 3.384050 0.000000 
#    z 0.000000 0.000000 3.216370 
# 
# 
# High freq. dielectric constant tensor:
#      x y z
#    x 1.651500 0.000000 0.000000 
#    y 0.000000 1.654790 0.000000 
#    z 0.000000 0.000000 1.669660 
# 
# From -- ./inp_files/4144.got.cif
#   From: 2010.03.12/outbox.cif.g09.slc.cpg/sg49_3_cif.got.tgz:4144.got - 2010.04.14 03:58:27.
