data_PCOD8202479
_publ_section_title
;
Structure prediction by ZEFSAII (Michael W. Deem and Ramdas Pophale) SiO2 
 PCOD8202479
Probable space group: P C C M
;
_chemical_formula_sum "Si O2"
_cell_formula_units_Z 48
_cell_length_a 13.060941
_cell_length_b 22.670614
_cell_length_c 9.453606
_cell_angle_alpha 90.000000
_cell_angle_beta 90.000000
_cell_angle_gamma 90.000000
_cell_volume 2799.208500
_symmetry_space_group_name_H-M "P C C M"
_symmetry_group_IT_number 49
_symmetry_cell_setting 'orthorhombic'
loop_
_space_group_symop_operation_xyz
x,y,z
-x,-y,z
x,-y,1/2-z
-x,y,1/2-z
-x,-y,-z
x,y,-z
-x,y,1/2+z
x,-y,1/2+z
loop_
_atom_site_type_symbol
_atom_site_label
_atom_site_fract_x
_atom_site_fract_y
_atom_site_fract_z
Si Si1 0.383884 0.559066 0.500000
Si Si2 0.596124 0.873134 0.336235
Si Si3 0.196128 0.060192 0.666042
Si Si4 0.305540 0.771456 0.337926
Si Si5 0.620650 0.645426 0.240716
Si Si6 0.903504 0.835204 0.834421
Si Si7 0.374372 0.571285 0.000000
O O1 0.347221 0.595815 0.368197
O O2 0.327984 0.494937 0.500000
O O3 0.506065 0.556928 0.500000
O O4 0.500000 0.899591 0.250000
O O5 0.567782 0.861758 0.500000
O O6 0.686201 0.920374 0.322335
O O7 0.625906 0.811263 0.264680
O O8 0.164220 0.054695 0.500000
O O9 0.124431 0.105811 0.748430
O O10 0.182030 0.000000 0.750000
O O11 0.342753 0.780075 0.500000
O O12 0.317503 0.704543 0.289697
O O13 0.186756 0.787740 0.322890
O O14 0.500000 0.660107 0.250000
O O15 0.662999 0.613338 0.376917
O O16 0.000000 0.807811 0.750000
O O17 0.927430 0.849172 0.000000
#
# Coordination Sequence:
#
# PCOD8202479 Si02
#       7
#     4   8   8   8   8   8   4
#     4   9  16  30  42  60 101 139 176 207 241 285
#     4  10  21  34  51  73 103 139 174 211 248 288
#     4  10  21  37  56  80 105 134 169 206 246 297
#     4  10  20  34  51  72 101 132 168 210 256 305
#     4  10  18  28  45  69 100 138 173 207 243 287
#     4  10  21  38  58  78 101 129 159 206 262 311
#     4   9  18  26  42  68  95 139 176 207 243 281
#
# _framework density 17.147704000000001
#
# number of rings (size 3 to 8) (size 9 to 14) (size 15 to 20)
#    0.000    2.167    0.833    2.500    1.167    5.333 
#    0.000    3.333    0.000    0.000    0.000    0.000 
#    0.000    4.000    0.000    0.000    0.000    0.000 
#
# Total GULP energy -594875.231008 kJ/mol
# GULP energy per Si atom -12393.233979 kJ/mol
# Density = 1.710867 g / cm^3
# Si number density = 17.147704 Si / 1000 Ang^3
#
#
#
# Elastic Constant Matrix: (Units=GPa)
#
#
# Indices 1 2 3 4 5 6 
#
# 1 55.3712 22.0605 37.4309 0.0000 0.0000 0.0000
# 2 22.0605 113.3754 54.4209 0.0000 0.0000 0.0000
# 3 37.4309 54.4209 160.2034 0.0000 0.0000 0.0000
# 4 0.0000 0.0000 0.0000 34.6151 0.0000 0.0000
# 5 0.0000 0.0000 0.0000 0.0000 27.2824 0.0000
# 6 0.0000 0.0000 0.0000 0.0000 0.0000 13.6290
#
#
#
# Elastic Compliance Matrix: (Units=1/GPa)
#
#
# Indices 1 2 3 4 5 6 
#
# 1 0.021879 -0.002155 -0.004380 0.000000 0.000000 0.000000
# 2 -0.002155 0.010751 -0.003149 0.000000 0.000000 0.000000
# 3 -0.004380 -0.003149 0.008335 0.000000 0.000000 0.000000
# 4 0.000000 0.000000 0.000000 0.028889 0.000000 0.000000
# 5 0.000000 0.000000 0.000000 0.000000 0.036654 0.000000
# 6 0.000000 0.000000 0.000000 0.000000 0.000000 0.073373
#
#
# Mechanical properties :
#
#
# Convention : Reuss Voigt Hill
#
# Bulk Modulus (GPa) = 46.29989 61.86386 54.08187
# Shear Modulus (GPa) = 24.21926 29.44115 26.83020
#
# Velocity S-wave (km/s) = 3.76226 4.14806 3.95986
# Velocity P-wave (km/s) = 6.77732 7.68747 7.24670
#
# Compressibility (1/GPa) = 0.02159832
#
# Stress axis : x y z
#
# Youngs Moduli (GPa) = 45.70528 93.01561 119.97584
#
# Poissons Ratio (x) = 0.20043 0.52550
# Poissons Ratio (y) = 0.09849 0.37776
# Poissons Ratio (z) = 0.20019 0.29287
#
# Static dielectric constant tensor:
#      x y z
#    x 2.982310 0.000000 0.000000 
#    y 0.000000 3.156070 0.000000 
#    z 0.000000 0.000000 3.455010 
# 
# 
# High freq. dielectric constant tensor:
#      x y z
#    x 1.623570 0.000000 0.000000 
#    y 0.000000 1.659830 0.000000 
#    z 0.000000 0.000000 1.688430 
# 
# From -- ./inp_files/4177.got.cif
#   From: 2010.03.12/outbox.cif.g09.slc.cpg/sg49_3_cif.got.tgz:4177.got - 2010.04.14 03:58:27.
