data_PCOD8202323
_publ_section_title
;
Structure prediction by ZEFSAII (Michael W. Deem and Ramdas Pophale) SiO2 
 PCOD8202323
Probable space group: P C C M
;
_chemical_formula_sum "Si O2"
_cell_formula_units_Z 40
_cell_length_a 25.553349
_cell_length_b 9.887128
_cell_length_c 8.547751
_cell_angle_alpha 90.000000
_cell_angle_beta 90.000000
_cell_angle_gamma 90.000000
_cell_volume 2159.582729
_symmetry_space_group_name_H-M "P C C M"
_symmetry_group_IT_number 49
_symmetry_cell_setting 'orthorhombic'
loop_
_space_group_symop_operation_xyz
x,y,z
-x,-y,z
x,-y,1/2-z
-x,y,1/2-z
-x,-y,-z
x,y,-z
-x,y,1/2+z
x,-y,1/2+z
loop_
_atom_site_type_symbol
_atom_site_label
_atom_site_fract_x
_atom_site_fract_y
_atom_site_fract_z
Si Si1 0.658844 0.351612 0.816506
Si Si2 0.861489 0.146821 0.314934
Si Si3 0.749157 0.143379 0.184632
Si Si4 0.055415 0.353139 0.684691
Si Si5 0.552383 0.650918 0.184461
O O1 0.670548 0.500000 0.750000
O O2 0.706855 0.256039 0.771648
O O3 0.606478 0.282410 0.743616
O O4 0.650550 0.363996 0.000000
O O5 0.868172 0.149589 0.500000
O O6 0.802620 0.186685 0.268594
O O7 0.899637 0.252597 0.235994
O O8 0.876117 0.000000 0.250000
O O9 0.729072 0.000000 0.250000
O O10 0.758888 0.131602 0.000000
O O11 0.069463 0.500000 0.750000
O O12 0.051917 0.361056 0.500000
O O13 0.000000 0.300827 0.750000
O O14 0.553070 0.500000 0.250000
O O15 0.500000 0.725681 0.250000
O O16 0.550252 0.651319 0.000000
#
# Coordination Sequence:
#
# PCOD8202323 Si02
#       5
#     8   8   8   8   8
#     4  10  20  33  51  77 106 135 173 217 262 312
#     4  11  22  38  59  83 110 143 183 226 269 317
#     4  10  21  37  56  78 106 141 179 220 266 319
#     4  11  22  39  60  85 115 147 182 220 268 321
#     4  10  17  27  45  69 100 134 169 210 259 309
#
# _framework density 18.522096999999999
#
# number of rings (size 3 to 8) (size 9 to 14) (size 15 to 20)
#    0.000    1.600    0.000   10.200    0.000    4.400 
#    0.000    4.000    0.000    0.600    0.000    4.200 
#    0.000    0.000    0.000    0.000    0.000    0.000 
#
# Total GULP energy -496013.299810 kJ/mol
# GULP energy per Si atom -12400.332495 kJ/mol
# Density = 1.847994 g / cm^3
# Si number density = 18.522097 Si / 1000 Ang^3
#
#
#
# Elastic Constant Matrix: (Units=GPa)
#
#
# Indices 1 2 3 4 5 6 
#
# 1 129.9611 79.9772 64.3860 0.0000 0.0000 0.0000
# 2 79.9772 83.8093 48.1151 0.0000 0.0000 0.0000
# 3 64.3860 48.1151 165.1421 0.0000 0.0000 0.0000
# 4 0.0000 0.0000 0.0000 22.4525 0.0000 0.0000
# 5 0.0000 0.0000 0.0000 0.0000 42.4730 0.0000
# 6 0.0000 0.0000 0.0000 0.0000 0.0000 -176.8447
#
#
#
# Elastic Compliance Matrix: (Units=1/GPa)
#
#
# Indices 1 2 3 4 5 6 
#
# 1 0.019547 -0.017146 -0.002625 0.000000 0.000000 0.000000
# 2 -0.017146 0.029368 -0.001872 0.000000 0.000000 0.000000
# 3 -0.002625 -0.001872 0.007624 0.000000 0.000000 0.000000
# 4 0.000000 0.000000 0.000000 0.044539 0.000000 0.000000
# 5 0.000000 0.000000 0.000000 0.000000 0.023544 0.000000
# 6 0.000000 0.000000 0.000000 0.000000 0.000000 -0.005655
#
#
# Mechanical properties :
#
#
# Convention : Reuss Voigt Hill
#
# Bulk Modulus (GPa) = 75.45215 84.87434 80.16324
# Shear Modulus (GPa) = 29.99932 -9.95487 10.02222
#
# Velocity S-wave (km/s) = 4.02885 -2.32083 2.32867
# Velocity P-wave (km/s) = 7.90360 6.22423 7.11365
#
# Compressibility (1/GPa) = 0.01325343
#
# Stress axis : x y z
#
# Youngs Moduli (GPa) = 51.15988 34.05062 131.15880
#
# Poissons Ratio (x) = 0.58382 0.34434
# Poissons Ratio (y) = 0.87716 0.24550
# Poissons Ratio (z) = 0.13432 0.06374
#
# Static dielectric constant tensor:
#      x y z
#    x 4.086600 0.000000 0.000000 
#    y 0.000000 3.222710 0.000000 
#    z 0.000000 0.000000 3.594390 
# 
# 
# High freq. dielectric constant tensor:
#      x y z
#    x 1.737600 0.000000 0.000000 
#    y 0.000000 1.688030 0.000000 
#    z 0.000000 0.000000 1.745090 
# 
# From -- ./inp_files/6669.got.cif
#   From: 2010.03.12/outbox.cif.g09.slc.cpg/sg49_4_cif.got.tgz:6669.got - 2010.04.14 03:58:27.
