data_PCOD8202651
_publ_section_title
;
Structure prediction by ZEFSAII (Michael W. Deem and Ramdas Pophale) SiO2 
 PCOD8202651
Probable space group: P C C M
;
_chemical_formula_sum "Si O2"
_cell_formula_units_Z 48
_cell_length_a 11.219349
_cell_length_b 14.510452
_cell_length_c 14.885706
_cell_angle_alpha 90.000000
_cell_angle_beta 90.000000
_cell_angle_gamma 90.000000
_cell_volume 2423.360562
_symmetry_space_group_name_H-M "P C C M"
_symmetry_group_IT_number 49
_symmetry_cell_setting 'orthorhombic'
loop_
_space_group_symop_operation_xyz
x,y,z
-x,-y,z
x,-y,1/2-z
-x,y,1/2-z
-x,-y,-z
x,y,-z
-x,y,1/2+z
x,-y,1/2+z
loop_
_atom_site_type_symbol
_atom_site_label
_atom_site_fract_x
_atom_site_fract_y
_atom_site_fract_z
Si Si1 0.509948 0.144669 0.601656
Si Si2 0.309984 0.601348 0.746227
Si Si3 0.747665 0.063344 0.664192
Si Si4 0.753034 0.119234 0.901752
Si Si5 0.496569 0.641717 0.895186
Si Si6 0.862839 0.229277 0.746429
O O1 0.517713 0.108306 0.500000
O O2 0.610622 0.093466 0.657712
O O3 0.379817 0.122190 0.641952
O O4 0.533252 0.252504 0.607056
O O5 0.249763 0.500000 0.750000
O O6 0.373531 0.626272 0.841048
O O7 0.400135 0.591180 0.661332
O O8 0.210045 0.677762 0.727840
O O9 0.832039 0.153841 0.668557
O O10 0.765339 0.000000 0.750000
O O11 0.788765 0.989734 0.588054
O O12 0.836944 0.182423 0.841980
O O13 0.752896 0.165282 0.000000
O O14 0.487159 0.607377 0.000000
O O15 0.000000 0.256854 0.750000
#
# Coordination Sequence:
#
# PCOD8202651 Si02
#       6
#     8   8   8   8   8   8
#     4  10  18  32  56  87 119 149 182 225 288 355
#     4  11  23  39  63  91 117 150 192 236 294 357
#     4  10  21  33  55  83 117 153 188 233 285 339
#     4  10  21  37  59  86 115 152 191 233 288 348
#     4  10  20  37  64  93 122 150 178 229 300 361
#     4  11  24  42  57  77 113 156 202 245 283 326
#
# _framework density 19.807206000000001
#
# number of rings (size 3 to 8) (size 9 to 14) (size 15 to 20)
#    0.000    1.667    3.333    2.000    0.000   10.667 
#    0.000    3.333    0.000    0.000    0.000    3.500 
#    0.000    0.000    0.000    0.000    0.000    0.000 
#
# Total GULP energy -594740.875037 kJ/mol
# GULP energy per Si atom -12390.434897 kJ/mol
# Density = 1.976212 g / cm^3
# Si number density = 19.807206 Si / 1000 Ang^3
#
#
#
# Elastic Constant Matrix: (Units=GPa)
#
#
# Indices 1 2 3 4 5 6 
#
# 1 97.1981 24.7022 13.9097 0.0000 0.0000 0.0000
# 2 24.7022 112.5788 1.1740 0.0000 0.0000 0.0000
# 3 13.9097 1.1740 80.2881 0.0000 0.0000 0.0000
# 4 0.0000 0.0000 0.0000 9.9073 0.0000 0.0000
# 5 0.0000 0.0000 0.0000 0.0000 63.6976 0.0000
# 6 0.0000 0.0000 0.0000 0.0000 0.0000 9.8930
#
#
#
# Elastic Compliance Matrix: (Units=1/GPa)
#
#
# Indices 1 2 3 4 5 6 
#
# 1 0.011179 -0.002433 -0.001901 0.000000 0.000000 0.000000
# 2 -0.002433 0.009414 0.000284 0.000000 0.000000 0.000000
# 3 -0.001901 0.000284 0.012780 0.000000 0.000000 0.000000
# 4 0.000000 0.000000 0.000000 0.100936 0.000000 0.000000
# 5 0.000000 0.000000 0.000000 0.000000 0.015699 0.000000
# 6 0.000000 0.000000 0.000000 0.000000 0.000000 0.101081
#
#
# Mechanical properties :
#
#
# Convention : Reuss Voigt Hill
#
# Bulk Modulus (GPa) = 39.56936 41.07077 40.32006
# Shear Modulus (GPa) = 18.68369 33.38487 26.03428
#
# Velocity S-wave (km/s) = 3.07461 4.10993 3.62938
# Velocity P-wave (km/s) = 5.71183 6.58045 6.16146
#
# Compressibility (1/GPa) = 0.02527208
#
# Stress axis : x y z
#
# Youngs Moduli (GPa) = 89.45620 106.22970 78.24506
#
# Poissons Ratio (x) = 0.25846 0.14875
# Poissons Ratio (y) = 0.21765 -0.02221
# Poissons Ratio (z) = 0.17006 -0.03015
#
# Static dielectric constant tensor:
#      x y z
#    x 3.237090 0.000000 0.000000 
#    y 0.000000 3.901200 0.000000 
#    z 0.000000 0.000000 4.378320 
# 
# 
# High freq. dielectric constant tensor:
#      x y z
#    x 1.730830 0.000000 0.000000 
#    y 0.000000 1.786220 0.000000 
#    z 0.000000 0.000000 1.771880 
# 
# From -- ./inp_files/12760.got.cif
#   From: 2010.03.12/outbox.cif.g09.slc.cpg/sg49_7_cif.got.tgz:12760.got - 2010.04.14 03:58:27.
