data_PCOD8202237
_publ_section_title
;
Structure prediction by ZEFSAII (Michael W. Deem and Ramdas Pophale) SiO2 
 PCOD8202237
Probable space group: P C C M
;
_chemical_formula_sum "Si O2"
_cell_formula_units_Z 32
_cell_length_a 17.973100
_cell_length_b 5.130401
_cell_length_c 16.242579
_cell_angle_alpha 90.000000
_cell_angle_beta 90.000000
_cell_angle_gamma 90.000000
_cell_volume 1497.715381
_symmetry_space_group_name_H-M "P C C M"
_symmetry_group_IT_number 49
_symmetry_cell_setting 'orthorhombic'
loop_
_space_group_symop_operation_xyz
x,y,z
-x,-y,z
x,-y,1/2-z
-x,y,1/2-z
-x,-y,-z
x,y,-z
-x,y,1/2+z
x,-y,1/2+z
loop_
_atom_site_type_symbol
_atom_site_label
_atom_site_fract_x
_atom_site_fract_y
_atom_site_fract_z
Si Si1 0.587057 0.054265 0.158274
Si Si2 0.662673 0.574411 0.906559
Si Si3 0.032922 0.754061 0.657067
Si Si4 0.196498 0.255792 0.197236
O O1 0.613024 0.346763 0.135447
O O2 0.500000 0.000000 0.155600
O O3 0.617732 0.000000 0.250000
O O4 0.618769 0.845948 0.094057
O O5 0.739179 0.633132 0.860761
O O6 0.679257 0.491482 0.000000
O O7 0.121333 0.800893 0.647902
O O8 0.000000 0.500000 0.611682
O O9 0.000000 0.753918 0.750000
O O10 0.000000 0.000000 0.608592
O O11 0.171412 0.500000 0.250000
O O12 0.221807 0.000000 0.250000
#
# Coordination Sequence:
#
# PCOD8202237 Si02
#       4
#     8   8   8   8
#     4  11  24  45  70  93 120 158 211 264 306 361
#     4  12  26  41  60  93 133 167 203 248 316 387
#     4  10  16  30  51  86 113 144 202 270 305 350
#     4  12  21  35  61  88 120 161 208 265 311 358
#
# _framework density 21.365873000000001
#
# number of rings (size 3 to 8) (size 9 to 14) (size 15 to 20)
#    0.000    0.750    5.000    6.000    0.000    5.000 
#    0.000    0.000    0.000    1.500    0.000    0.000 
#    0.000    0.000    0.000    0.000    0.000    0.000 
#
# Total GULP energy -396441.681875 kJ/mol
# GULP energy per Si atom -12388.802559 kJ/mol
# Density = 2.131724 g / cm^3
# Si number density = 21.365873 Si / 1000 Ang^3
#
#
#
# Elastic Constant Matrix: (Units=GPa)
#
#
# Indices 1 2 3 4 5 6 
#
# 1 160.1592 54.4505 34.2961 0.0000 0.0000 0.0000
# 2 54.4505 174.7340 22.7386 0.0000 0.0000 0.0000
# 3 34.2961 22.7386 63.2662 0.0000 0.0000 0.0000
# 4 0.0000 0.0000 0.0000 16.5563 0.0000 0.0000
# 5 0.0000 0.0000 0.0000 0.0000 -7.6667 0.0000
# 6 0.0000 0.0000 0.0000 0.0000 0.0000 46.5602
#
#
#
# Elastic Compliance Matrix: (Units=1/GPa)
#
#
# Indices 1 2 3 4 5 6 
#
# 1 0.007639 -0.001932 -0.003446 0.000000 0.000000 0.000000
# 2 -0.001932 0.006492 -0.001286 0.000000 0.000000 0.000000
# 3 -0.003446 -0.001286 0.018137 0.000000 0.000000 0.000000
# 4 0.000000 0.000000 0.000000 0.060400 0.000000 0.000000
# 5 0.000000 0.000000 0.000000 0.000000 -0.130434 0.000000
# 6 0.000000 0.000000 0.000000 0.000000 0.000000 0.021478
#
#
# Mechanical properties :
#
#
# Convention : Reuss Voigt Hill
#
# Bulk Modulus (GPa) = 52.80187 69.01442 60.90815
# Shear Modulus (GPa) = 1491.16920 30.20157 760.68539
#
# Velocity S-wave (km/s) = 26.44686 3.76379 18.88918
# Velocity P-wave (km/s) = 30.94105 7.15958 22.45671
#
# Compressibility (1/GPa) = 0.01893872
#
# Stress axis : x y z
#
# Youngs Moduli (GPa) = 130.91420 154.02728 55.13644
#
# Poissons Ratio (x) = 0.29755 0.19003
# Poissons Ratio (y) = 0.25290 0.07092
# Poissons Ratio (z) = 0.45119 0.19811
#
# Static dielectric constant tensor:
#      x y z
#    x 3.959870 0.000000 0.000000 
#    y 0.000000 9.417630 0.000000 
#    z 0.000000 0.000000 3.435990 
# 
# 
# High freq. dielectric constant tensor:
#      x y z
#    x 1.858510 0.000000 0.000000 
#    y 0.000000 1.871510 0.000000 
#    z 0.000000 0.000000 1.783920 
# 
# From -- ./inp_files/10533.got.cif
#   From: 2010.03.12/outbox.cif.g09.slc.cpg/sg49_6_cif.got.tgz:10533.got - 2010.04.14 03:58:27.
