data_PCOD8202217
_publ_section_title
;
Structure prediction by ZEFSAII (Michael W. Deem and Ramdas Pophale) SiO2 
 PCOD8202217
Probable space group: P C C M
;
_chemical_formula_sum "Si O2"
_cell_formula_units_Z 48
_cell_length_a 30.799059
_cell_length_b 10.069066
_cell_length_c 8.607021
_cell_angle_alpha 90.000000
_cell_angle_beta 90.000000
_cell_angle_gamma 90.000000
_cell_volume 2669.190054
_symmetry_space_group_name_H-M "P C C M"
_symmetry_group_IT_number 49
_symmetry_cell_setting 'orthorhombic'
loop_
_space_group_symop_operation_xyz
x,y,z
-x,-y,z
x,-y,1/2-z
-x,y,1/2-z
-x,-y,-z
x,y,-z
-x,y,1/2+z
x,-y,1/2+z
loop_
_atom_site_type_symbol
_atom_site_label
_atom_site_fract_x
_atom_site_fract_y
_atom_site_fract_z
Si Si1 0.788490 0.361062 0.683326
Si Si2 0.630591 0.147925 0.184445
Si Si3 0.456417 0.851441 0.315694
Si Si4 0.886301 0.638684 0.183638
Si Si5 0.046277 0.142637 0.815523
Si Si6 0.280794 0.853613 0.315583
O O1 0.770792 0.500000 0.750000
O O2 0.787387 0.371855 0.500000
O O3 0.837384 0.333274 0.743976
O O4 0.758372 0.240393 0.740287
O O5 0.587438 0.221006 0.252932
O O6 0.675204 0.213079 0.245854
O O7 0.631430 0.000000 0.250000
O O8 0.628738 0.149027 0.000000
O O9 0.500000 0.779436 0.250000
O O10 0.457119 0.851960 0.500000
O O11 0.455925 0.000000 0.250000
O O12 0.903837 0.500000 0.250000
O O13 0.917493 0.754898 0.244583
O O14 0.887468 0.630978 0.000000
O O15 0.000000 0.189401 0.750000
O O16 0.059678 0.000000 0.750000
O O17 0.043662 0.135520 0.000000
O O18 0.284993 0.862037 0.500000
O O19 0.271728 0.000000 0.250000
#
# Coordination Sequence:
#
# PCOD8202217 Si02
#       6
#     8   8   8   8   8   8
#     4   9  19  35  53  72  97 126 160 199 242 287
#     4  10  17  26  39  57  83 116 152 191 234 281
#     4  10  16  23  34  51  77 111 150 189 231 281
#     4   9  19  35  53  74  98 127 161 200 241 287
#     4  10  20  34  52  74 102 132 165 200 240 285
#     4  10  19  31  47  69  95 124 157 196 238 286
#
# _framework density 17.982983999999998
#
# number of rings (size 3 to 8) (size 9 to 14) (size 15 to 20)
#    0.000    2.333    0.000    7.000    0.000    3.667 
#    0.000    1.667    0.000    0.000    0.000    0.000 
#    0.000    0.667    0.000    7.000    0.000    6.667 
#
# Total GULP energy -594998.030200 kJ/mol
# GULP energy per Si atom -12395.792296 kJ/mol
# Density = 1.794205 g / cm^3
# Si number density = 17.982984 Si / 1000 Ang^3
#
#
#
# Elastic Constant Matrix: (Units=GPa)
#
#
# Indices 1 2 3 4 5 6 
#
# 1 156.3378 83.7895 50.2173 0.0000 0.0000 0.0000
# 2 83.7895 85.7265 32.9857 0.0000 0.0000 0.0000
# 3 50.2173 32.9857 101.0450 0.0000 0.0000 0.0000
# 4 0.0000 0.0000 0.0000 20.9125 0.0000 0.0000
# 5 0.0000 0.0000 0.0000 0.0000 27.4666 0.0000
# 6 0.0000 0.0000 0.0000 0.0000 0.0000 4.8088
#
#
#
# Elastic Compliance Matrix: (Units=1/GPa)
#
#
# Indices 1 2 3 4 5 6 
#
# 1 0.014128 -0.012702 -0.002874 0.000000 0.000000 0.000000
# 2 -0.012702 0.024762 -0.001771 0.000000 0.000000 0.000000
# 3 -0.002874 -0.001771 0.011903 0.000000 0.000000 0.000000
# 4 0.000000 0.000000 0.000000 0.047818 0.000000 0.000000
# 5 0.000000 0.000000 0.000000 0.000000 0.036408 0.000000
# 6 0.000000 0.000000 0.000000 0.000000 0.000000 0.207952
#
#
# Mechanical properties :
#
#
# Convention : Reuss Voigt Hill
#
# Bulk Modulus (GPa) = 62.12103 75.23271 68.67687
# Shear Modulus (GPa) = 13.05376 22.37869 17.71623
#
# Velocity S-wave (km/s) = 2.69717 3.53148 3.14214
# Velocity P-wave (km/s) = 6.65725 7.65211 7.17195
#
# Compressibility (1/GPa) = 0.01609761
#
# Stress axis : x y z
#
# Youngs Moduli (GPa) = 70.78376 40.38516 84.01156
#
# Poissons Ratio (x) = 0.51298 0.24149
# Poissons Ratio (y) = 0.89912 0.14875
# Poissons Ratio (z) = 0.20347 0.07150
#
# Static dielectric constant tensor:
#      x y z
#    x 4.547000 0.000000 0.000000 
#    y 0.000000 3.017870 0.000000 
#    z 0.000000 0.000000 3.321120 
# 
# 
# High freq. dielectric constant tensor:
#      x y z
#    x 1.718870 0.000000 0.000000 
#    y 0.000000 1.642670 0.000000 
#    z 0.000000 0.000000 1.706930 
# 
# From -- ./inp_files/6700.got.cif
#   From: 2010.03.12/outbox.cif.g09.slc.cpg/sg49_4_cif.got.tgz:6700.got - 2010.04.14 03:58:27.
