data_PCOD8202305
_publ_section_title
;
Structure prediction by ZEFSAII (Michael W. Deem and Ramdas Pophale) SiO2 
 PCOD8202305
Probable space group: P C C M
;
_chemical_formula_sum "Si O2"
_cell_formula_units_Z 48
_cell_length_a 22.239232
_cell_length_b 12.985316
_cell_length_c 10.201889
_cell_angle_alpha 90.000000
_cell_angle_beta 90.000000
_cell_angle_gamma 90.000000
_cell_volume 2946.136754
_symmetry_space_group_name_H-M "P C C M"
_symmetry_group_IT_number 49
_symmetry_cell_setting 'orthorhombic'
loop_
_space_group_symop_operation_xyz
x,y,z
-x,-y,z
x,-y,1/2-z
-x,y,1/2-z
-x,-y,-z
x,y,-z
-x,y,1/2+z
x,-y,1/2+z
loop_
_atom_site_type_symbol
_atom_site_label
_atom_site_fract_x
_atom_site_fract_y
_atom_site_fract_z
Si Si1 0.948504 0.700341 0.148791
Si Si2 0.359807 0.122303 0.247881
Si Si3 0.569188 0.876919 0.500000
Si Si4 0.116663 0.910872 0.650333
Si Si5 0.238961 0.799547 0.650152
Si Si6 0.565610 0.878310 0.000000
Si Si7 0.824982 0.411254 0.350768
O O1 0.930436 0.818822 0.168887
O O2 0.892106 0.627430 0.177830
O O3 0.000000 0.668374 0.250000
O O4 0.971511 0.683580 0.000000
O O5 0.394307 0.163112 0.375077
O O6 0.294081 0.173000 0.244575
O O7 0.352023 0.000000 0.250000
O O8 0.399437 0.161677 0.126842
O O9 0.501666 0.831476 0.500000
O O10 0.563727 0.999128 0.500000
O O11 0.114822 0.950840 0.500000
O O12 0.183122 0.872172 0.687241
O O13 0.097245 0.000000 0.750000
O O14 0.257727 0.820313 0.500000
O O15 0.221765 0.681076 0.671213
O O16 0.807124 0.500000 0.250000
O O17 0.820206 0.452123 0.500000
#
# Coordination Sequence:
#
# PCOD8202305 Si02
#       7
#     8   8   4   8   8   4   8
#     4   9  19  34  51  70  96 124 153 187 227 278
#     4  10  17  27  44  65  94 131 162 191 225 264
#     4   9  18  26  38  66  95 125 166 201 217 255
#     4   9  18  32  47  66  93 127 160 193 227 263
#     4   9  17  32  49  65  91 124 157 188 233 286
#     4   9  16  28  42  58  93 137 164 185 229 265
#     4   9  19  36  54  71  92 118 147 190 241 286
#
# _framework density 16.292522999999999
#
# number of rings (size 3 to 8) (size 9 to 14) (size 15 to 20)
#    0.000    2.833    0.833    3.000    0.000    4.000 
#    3.000    5.000    0.000    0.000    0.000    0.000 
#    0.000    4.000    0.000    0.000    0.000    0.000 
#
# Total GULP energy -595164.959309 kJ/mol
# GULP energy per Si atom -12399.269986 kJ/mol
# Density = 1.625544 g / cm^3
# Si number density = 16.292523 Si / 1000 Ang^3
#
#
#
# Elastic Constant Matrix: (Units=GPa)
#
#
# Indices 1 2 3 4 5 6 
#
# 1 89.3676 4.1168 42.4905 0.0000 0.0000 0.0000
# 2 4.1168 43.0841 26.2008 0.0000 0.0000 0.0000
# 3 42.4905 26.2008 103.5062 0.0000 0.0000 0.0000
# 4 0.0000 0.0000 0.0000 22.8281 0.0000 0.0000
# 5 0.0000 0.0000 0.0000 0.0000 28.5158 0.0000
# 6 0.0000 0.0000 0.0000 0.0000 0.0000 12.4139
#
#
#
# Elastic Compliance Matrix: (Units=1/GPa)
#
#
# Indices 1 2 3 4 5 6 
#
# 1 0.014141 0.002576 -0.006457 0.000000 0.000000 0.000000
# 2 0.002576 0.027903 -0.008120 0.000000 0.000000 0.000000
# 3 -0.006457 -0.008120 0.014367 0.000000 0.000000 0.000000
# 4 0.000000 0.000000 0.000000 0.043806 0.000000 0.000000
# 5 0.000000 0.000000 0.000000 0.000000 0.035068 0.000000
# 6 0.000000 0.000000 0.000000 0.000000 0.000000 0.080555
#
#
# Mechanical properties :
#
#
# Convention : Reuss Voigt Hill
#
# Bulk Modulus (GPa) = 30.85712 42.39714 36.62713
# Shear Modulus (GPa) = 19.94841 23.62820 21.78831
#
# Velocity S-wave (km/s) = 3.50293 3.81234 3.66091
# Velocity P-wave (km/s) = 5.94485 6.74222 6.35605
#
# Compressibility (1/GPa) = 0.03240743
#
# Stress axis : x y z
#
# Youngs Moduli (GPa) = 70.71558 35.83899 69.60164
#
# Poissons Ratio (x) = -0.09230 0.44942
# Poissons Ratio (y) = -0.18213 0.56519
# Poissons Ratio (z) = 0.45661 0.29102
#
# Static dielectric constant tensor:
#      x y z
#    x 3.043150 0.000000 0.000000 
#    y 0.000000 2.690990 0.000000 
#    z 0.000000 0.000000 3.109370 
# 
# 
# High freq. dielectric constant tensor:
#      x y z
#    x 1.628210 0.000000 0.000000 
#    y 0.000000 1.584430 0.000000 
#    z 0.000000 0.000000 1.632690 
# 
# From -- ./inp_files/4179.got.cif
#   From: 2010.03.12/outbox.cif.g09.slc.cpg/sg49_3_cif.got.tgz:4179.got - 2010.04.14 03:58:27.
