data_PCOD8202560
_publ_section_title
;
Structure prediction by ZEFSAII (Michael W. Deem and Ramdas Pophale) SiO2 
 PCOD8202560
Probable space group: P C C M
;
_chemical_formula_sum "Si O2"
_cell_formula_units_Z 56
_cell_length_a 18.451865
_cell_length_b 19.010359
_cell_length_c 8.956763
_cell_angle_alpha 90.000000
_cell_angle_beta 90.000000
_cell_angle_gamma 90.000000
_cell_volume 3141.822674
_symmetry_space_group_name_H-M "P C C M"
_symmetry_group_IT_number 49
_symmetry_cell_setting 'orthorhombic'
loop_
_space_group_symop_operation_xyz
x,y,z
-x,-y,z
x,-y,1/2-z
-x,y,1/2-z
-x,-y,-z
x,y,-z
-x,y,1/2+z
x,-y,1/2+z
loop_
_atom_site_type_symbol
_atom_site_label
_atom_site_fract_x
_atom_site_fract_y
_atom_site_fract_z
Si Si1 0.836880 0.789040 0.824408
Si Si2 0.425678 0.211235 0.326743
Si Si3 0.183169 0.071298 0.675799
Si Si4 0.351624 0.929568 0.824977
Si Si5 0.286667 0.298018 0.325111
Si Si6 0.783208 0.574834 0.822308
Si Si7 0.925664 0.654936 0.172065
O O1 0.858879 0.863496 0.751834
O O2 0.765078 0.761046 0.744066
O O3 0.902962 0.735332 0.794598
O O4 0.821104 0.796509 0.000000
O O5 0.500000 0.233223 0.250000
O O6 0.440591 0.201203 0.500000
O O7 0.395162 0.137490 0.261479
O O8 0.368870 0.273747 0.298100
O O9 0.168012 0.070116 0.500000
O O10 0.267525 0.080290 0.715712
O O11 0.152868 0.000000 0.750000
O O12 0.383179 0.000000 0.750000
O O13 0.361693 0.937244 0.000000
O O14 0.268635 0.305260 0.500000
O O15 0.277082 0.372238 0.242040
O O16 0.768734 0.500000 0.750000
O O17 0.862189 0.602895 0.772205
O O18 0.775697 0.571491 0.000000
O O19 0.000000 0.634638 0.250000
O O20 0.939219 0.642430 0.000000
#
# Coordination Sequence:
#
# PCOD8202560 Si02
#       7
#     8   8   8   8   8   8   8
#     4  10  19  32  51  76 103 135 176 219 260 309
#     4  10  21  35  50  72 102 136 177 218 263 315
#     4  10  18  30  48  72 100 132 173 221 271 316
#     4   9  18  32  46  67  98 132 172 215 260 313
#     4  10  19  35  55  76 104 136 173 218 259 306
#     4  10  21  37  57  85 112 139 173 207 249 303
#     4   9  20  35  52  78 111 142 175 207 245 301
#
# _framework density 17.82405
#
# number of rings (size 3 to 8) (size 9 to 14) (size 15 to 20)
#    0.000    2.286    1.429    2.571    0.000    6.286 
#    0.000    2.857    0.000    0.857    0.000    6.000 
#    0.000    0.000    0.000    0.000    0.000    0.000 
#
# Total GULP energy -694455.299214 kJ/mol
# GULP energy per Si atom -12400.987486 kJ/mol
# Density = 1.778348 g / cm^3
# Si number density = 17.824050 Si / 1000 Ang^3
#
#
#
# Elastic Constant Matrix: (Units=GPa)
#
#
# Indices 1 2 3 4 5 6 
#
# 1 56.7799 30.3270 27.7316 0.0000 0.0000 0.0000
# 2 30.3270 142.3364 49.6647 0.0000 0.0000 0.0000
# 3 27.7316 49.6647 76.2425 0.0000 0.0000 0.0000
# 4 0.0000 0.0000 0.0000 29.3899 0.0000 0.0000
# 5 0.0000 0.0000 0.0000 0.0000 26.9024 0.0000
# 6 0.0000 0.0000 0.0000 0.0000 0.0000 14.9883
#
#
#
# Elastic Compliance Matrix: (Units=1/GPa)
#
#
# Indices 1 2 3 4 5 6 
#
# 1 0.022062 -0.002460 -0.006422 0.000000 0.000000 0.000000
# 2 -0.002460 0.009366 -0.005207 0.000000 0.000000 0.000000
# 3 -0.006422 -0.005207 0.018844 0.000000 0.000000 0.000000
# 4 0.000000 0.000000 0.000000 0.034025 0.000000 0.000000
# 5 0.000000 0.000000 0.000000 0.000000 0.037171 0.000000
# 6 0.000000 0.000000 0.000000 0.000000 0.000000 0.066719
#
#
# Mechanical properties :
#
#
# Convention : Reuss Voigt Hill
#
# Bulk Modulus (GPa) = 45.25946 54.53393 49.89670
# Shear Modulus (GPa) = 22.34830 25.43182 23.89006
#
# Velocity S-wave (km/s) = 3.54479 3.78143 3.66502
# Velocity P-wave (km/s) = 6.49627 7.05179 6.77972
#
# Compressibility (1/GPa) = 0.02209483
#
# Stress axis : x y z
#
# Youngs Moduli (GPa) = 45.32596 106.76422 53.06813
#
# Poissons Ratio (x) = 0.26262 0.34083
# Poissons Ratio (y) = 0.11149 0.27631
# Poissons Ratio (z) = 0.29110 0.55588
#
# Static dielectric constant tensor:
#      x y z
#    x 3.061330 0.000000 0.000000 
#    y 0.000000 3.402520 0.000000 
#    z 0.000000 0.000000 3.301260 
# 
# 
# High freq. dielectric constant tensor:
#      x y z
#    x 1.657660 0.000000 0.000000 
#    y 0.000000 1.693370 0.000000 
#    z 0.000000 0.000000 1.697480 
# 
# From -- ./inp_files/5892.got.cif
#   From: 2010.03.12/outbox.cif.g09.slc.cpg/sg49_3_cif.got.tgz:5892.got - 2010.04.14 03:58:27.
