data_PCOD8202768
_publ_section_title
;
Structure prediction by ZEFSAII (Michael W. Deem and Ramdas Pophale) SiO2 
 PCOD8202768
Probable space group: P C C M
;
_chemical_formula_sum "Si O2"
_cell_formula_units_Z 64
_cell_length_a 18.195850
_cell_length_b 26.582968
_cell_length_c 8.728811
_cell_angle_alpha 90.000000
_cell_angle_beta 90.000000
_cell_angle_gamma 90.000000
_cell_volume 4222.123247
_symmetry_space_group_name_H-M "P C C M"
_symmetry_group_IT_number 49
_symmetry_cell_setting 'orthorhombic'
loop_
_space_group_symop_operation_xyz
x,y,z
-x,-y,z
x,-y,1/2-z
-x,y,1/2-z
-x,-y,-z
x,y,-z
-x,y,1/2+z
x,-y,1/2+z
loop_
_atom_site_type_symbol
_atom_site_label
_atom_site_fract_x
_atom_site_fract_y
_atom_site_fract_z
Si Si1 0.579008 0.551915 0.319261
Si Si2 0.298849 0.800539 0.831682
Si Si3 0.800490 0.297380 0.169018
Si Si4 0.921767 0.053559 0.317898
Si Si5 0.157982 0.854963 0.181947
Si Si6 0.659077 0.651946 0.680250
Si Si7 0.577824 0.254859 0.321404
Si Si8 0.077913 0.759806 0.680062
O O1 0.610085 0.500000 0.250000
O O2 0.500000 0.565168 0.250000
O O3 0.570678 0.546239 0.500000
O O4 0.635336 0.595903 0.273093
O O5 0.249668 0.751340 0.843776
O O6 0.243599 0.844527 0.775383
O O7 0.366237 0.790906 0.717008
O O8 0.330904 0.813404 0.000000
O O9 0.745163 0.341343 0.228372
O O10 0.867265 0.287017 0.285296
O O11 0.832536 0.310271 0.000000
O O12 0.927293 0.050189 0.500000
O O13 0.861139 0.093545 0.266805
O O14 0.000000 0.070573 0.250000
O O15 0.897895 0.000000 0.250000
O O16 0.105300 0.810832 0.241460
O O17 0.146931 0.859496 0.000000
O O18 0.650297 0.661687 0.500000
O O19 0.606319 0.691636 0.762195
O O20 0.500000 0.241210 0.250000
O O21 0.568077 0.258929 0.500000
O O22 0.072125 0.768418 0.500000
O O23 0.000000 0.744811 0.750000
#
# Coordination Sequence:
#
# PCOD8202768 Si02
#       8
#     8   8   8   8   8   8   8   8
#     4  10  19  30  43  60  82 110 141 176 211 245
#     4   8  16  30  45  60  83 111 139 172 211 251
#     4   8  15  29  44  59  81 108 136 171 210 249
#     4  11  21  33  47  64  87 114 146 182 216 251
#     4  10  19  32  47  63  85 114 144 176 214 253
#     4   9  18  31  45  60  82 111 142 173 212 253
#     4  11  20  28  42  62  86 113 144 177 210 249
#     4  11  20  29  42  62  86 113 144 175 207 247
#
# _framework density 15.158250000000001
#
# number of rings (size 3 to 8) (size 9 to 14) (size 15 to 20)
#    0.000    2.250    0.000    7.125    0.000    7.000 
#    0.000    0.000    0.000    0.000    0.000    0.000 
#    0.000    1.000    0.000   11.000    0.000    4.000 
#
# Total GULP energy -793374.260831 kJ/mol
# GULP energy per Si atom -12396.472825 kJ/mol
# Density = 1.512375 g / cm^3
# Si number density = 15.158250 Si / 1000 Ang^3
#
#
#
# Elastic Constant Matrix: (Units=GPa)
#
#
# Indices 1 2 3 4 5 6 
#
# 1 96.8479 54.2641 46.7968 0.0000 0.0000 0.0000
# 2 54.2641 88.2877 38.4957 0.0000 0.0000 0.0000
# 3 46.7968 38.4957 99.6126 0.0000 0.0000 0.0000
# 4 0.0000 0.0000 0.0000 6.9735 0.0000 0.0000
# 5 0.0000 0.0000 0.0000 0.0000 23.5128 0.0000
# 6 0.0000 0.0000 0.0000 0.0000 0.0000 24.3829
#
#
#
# Elastic Compliance Matrix: (Units=1/GPa)
#
#
# Indices 1 2 3 4 5 6 
#
# 1 0.017534 -0.008641 -0.004898 0.000000 0.000000 0.000000
# 2 -0.008641 0.017881 -0.002851 0.000000 0.000000 0.000000
# 3 -0.004898 -0.002851 0.013441 0.000000 0.000000 0.000000
# 4 0.000000 0.000000 0.000000 0.143400 0.000000 0.000000
# 5 0.000000 0.000000 0.000000 0.000000 0.042530 0.000000
# 6 0.000000 0.000000 0.000000 0.000000 0.000000 0.041012
#
#
# Mechanical properties :
#
#
# Convention : Reuss Voigt Hill
#
# Bulk Modulus (GPa) = 62.20111 62.65128 62.42620
# Shear Modulus (GPa) = 15.92684 20.65329 18.29006
#
# Velocity S-wave (km/s) = 3.24497 3.69523 3.47739
# Velocity P-wave (km/s) = 7.42721 7.72188 7.57598
#
# Compressibility (1/GPa) = 0.01607688
#
# Stress axis : x y z
#
# Youngs Moduli (GPa) = 57.03296 55.92649 74.39724
#
# Poissons Ratio (x) = 0.48327 0.36438
# Poissons Ratio (y) = 0.49283 0.21207
# Poissons Ratio (z) = 0.27933 0.15942
#
# Static dielectric constant tensor:
#      x y z
#    x 3.379400 0.000000 0.000000 
#    y 0.000000 2.938550 0.000000 
#    z 0.000000 0.000000 3.001810 
# 
# 
# High freq. dielectric constant tensor:
#      x y z
#    x 1.569130 0.000000 0.000000 
#    y 0.000000 1.549200 0.000000 
#    z 0.000000 0.000000 1.593350 
# 
# From -- ./inp_files/5456.got.cif
#   From: 2010.03.12/outbox.cif.g09.slc.cpg/sg49_3_cif.got.tgz:5456.got - 2010.04.14 03:58:27.
