data_PCOD8202779
_publ_section_title
;
Structure prediction by ZEFSAII (Michael W. Deem and Ramdas Pophale) SiO2 
 PCOD8202779
Probable space group: P C C M
;
_chemical_formula_sum "Si O2"
_cell_formula_units_Z 64
_cell_length_a 14.397129
_cell_length_b 31.636229
_cell_length_c 8.809365
_cell_angle_alpha 90.000000
_cell_angle_beta 90.000000
_cell_angle_gamma 90.000000
_cell_volume 4012.409141
_symmetry_space_group_name_H-M "P C C M"
_symmetry_group_IT_number 49
_symmetry_cell_setting 'orthorhombic'
loop_
_space_group_symop_operation_xyz
x,y,z
-x,-y,z
x,-y,1/2-z
-x,y,1/2-z
-x,-y,-z
x,y,-z
-x,y,1/2+z
x,-y,1/2+z
loop_
_atom_site_type_symbol
_atom_site_label
_atom_site_fract_x
_atom_site_fract_y
_atom_site_fract_z
Si Si1 0.093823 0.830727 0.822389
Si Si2 0.398942 0.881304 0.820378
Si Si3 0.598869 0.630830 0.176411
Si Si4 0.397929 0.540695 0.321392
Si Si5 0.095961 0.071672 0.319901
Si Si6 0.717473 0.956919 0.180879
Si Si7 0.398841 0.722555 0.321687
Si Si8 0.711438 0.796986 0.678023
O O1 0.108520 0.879310 0.775812
O O2 0.183170 0.804659 0.765331
O O3 0.000000 0.811870 0.750000
O O4 0.082775 0.826634 0.000000
O O5 0.500000 0.880170 0.750000
O O6 0.341945 0.918398 0.743219
O O7 0.350403 0.837278 0.779416
O O8 0.402553 0.889036 0.000000
O O9 0.500000 0.629993 0.250000
O O10 0.651752 0.586388 0.218572
O O11 0.645025 0.675980 0.220919
O O12 0.579826 0.630476 0.000000
O O13 0.343582 0.500000 0.250000
O O14 0.500000 0.541797 0.250000
O O15 0.404468 0.533775 0.500000
O O16 0.099255 0.064302 0.500000
O O17 0.177220 0.046092 0.238921
O O18 0.000000 0.054457 0.250000
O O19 0.674662 0.000000 0.250000
O O20 0.713630 0.957858 0.000000
O O21 0.500000 0.729828 0.250000
O O22 0.411225 0.728233 0.500000
O O23 0.325485 0.756132 0.263016
O O24 0.708199 0.788414 0.500000
#
# Coordination Sequence:
#
# PCOD8202779 Si02
#       8
#     8   8   8   8   8   8   8   8
#     4   9  18  33  53  77 102 126 149 181 220 264
#     4  11  23  41  59  78 102 127 158 195 232 272
#     4   8  15  25  35  49  74 106 142 186 232 272
#     4   9  14  20  30  45  66  95 134 182 230 273
#     4  10  19  36  58  83 109 133 157 188 225 270
#     4  12  25  41  60  81 103 131 160 191 230 274
#     4  10  19  30  44  64  89 121 159 196 234 277
#     4  10  20  35  53  74 100 125 151 188 229 268
#
# _framework density 15.950516
#
# number of rings (size 3 to 8) (size 9 to 14) (size 15 to 20)
#    0.000    2.125    1.250    3.375    0.000    4.500 
#    0.000    2.500    0.000    0.000    0.000    0.000 
#    0.000    0.000    0.000    0.000    0.000    0.625 
#
# Total GULP energy -793041.635344 kJ/mol
# GULP energy per Si atom -12391.275552 kJ/mol
# Density = 1.591421 g / cm^3
# Si number density = 15.950516 Si / 1000 Ang^3
#
#
#
# Elastic Constant Matrix: (Units=GPa)
#
#
# Indices 1 2 3 4 5 6 
#
# 1 73.2863 41.4199 31.4039 0.0000 0.0000 0.0000
# 2 41.4199 136.2416 55.3502 0.0000 0.0000 0.0000
# 3 31.4039 55.3502 72.6211 0.0000 0.0000 0.0000
# 4 0.0000 0.0000 0.0000 23.9733 0.0000 0.0000
# 5 0.0000 0.0000 0.0000 0.0000 24.2434 0.0000
# 6 0.0000 0.0000 0.0000 0.0000 0.0000 12.5038
#
#
#
# Elastic Compliance Matrix: (Units=1/GPa)
#
#
# Indices 1 2 3 4 5 6 
#
# 1 0.017713 -0.003293 -0.005150 0.000000 0.000000 0.000000
# 2 -0.003293 0.011244 -0.007146 0.000000 0.000000 0.000000
# 3 -0.005150 -0.007146 0.021444 0.000000 0.000000 0.000000
# 4 0.000000 0.000000 0.000000 0.041713 0.000000 0.000000
# 5 0.000000 0.000000 0.000000 0.000000 0.041248 0.000000
# 6 0.000000 0.000000 0.000000 0.000000 0.000000 0.079976
#
#
# Mechanical properties :
#
#
# Convention : Reuss Voigt Hill
#
# Bulk Modulus (GPa) = 52.02094 59.83299 55.92696
# Shear Modulus (GPa) = 19.92638 22.40911 21.16774
#
# Velocity S-wave (km/s) = 3.53833 3.75228 3.64687
# Velocity P-wave (km/s) = 7.02693 7.50772 7.27130
#
# Compressibility (1/GPa) = 0.01922303
#
# Stress axis : x y z
#
# Youngs Moduli (GPa) = 56.45579 88.93463 46.63346
#
# Poissons Ratio (x) = 0.29284 0.24016
# Poissons Ratio (y) = 0.18590 0.33325
# Poissons Ratio (z) = 0.29075 0.63554
#
# Static dielectric constant tensor:
#      x y z
#    x 2.845560 0.000000 0.000000 
#    y 0.000000 3.750550 0.000000 
#    z 0.000000 0.000000 3.075760 
# 
# 
# High freq. dielectric constant tensor:
#      x y z
#    x 1.568600 0.000000 0.000000 
#    y 0.000000 1.620910 0.000000 
#    z 0.000000 0.000000 1.626390 
# 
# From -- ./inp_files/4522.got.cif
#   From: 2010.03.12/outbox.cif.g09.slc.cpg/sg49_3_cif.got.tgz:4522.got - 2010.04.14 03:58:27.
