data_PCOD8202056
_publ_section_title
;
Structure prediction by ZEFSAII (Michael W. Deem and Ramdas Pophale) SiO2 
 PCOD8202056
Probable space group: P N N N
;
_chemical_formula_sum "Si O2"
_cell_formula_units_Z 64
_cell_length_a 9.737930
_cell_length_b 10.766152
_cell_length_c 31.465503
_cell_angle_alpha 90.000000
_cell_angle_beta 90.000000
_cell_angle_gamma 90.000000
_cell_volume 3298.844422
_symmetry_space_group_name_H-M "P N N N"
_symmetry_group_IT_number 48
_space_group.IT_coordinate_system_code '2'
_symmetry_cell_setting 'orthorhombic'
loop_
_space_group_symop_operation_xyz
x,y,z
1/2-x,1/2-y,z
x,1/2-y,1/2-z
1/2-x,y,1/2-z
-x,-y,-z
1/2+x,1/2+y,-z
-x,1/2+y,1/2+z
1/2+x,-y,1/2+z
loop_
_atom_site_type_symbol
_atom_site_label
_atom_site_fract_x
_atom_site_fract_y
_atom_site_fract_z
Si Si1 0.910216 0.879088 0.169997
Si Si2 0.744189 0.076707 0.551824
Si Si3 0.372064 0.827749 0.965370
Si Si4 0.983111 0.958012 0.407127
Si Si5 0.124062 0.339700 0.488382
Si Si6 0.026794 0.322631 0.578319
Si Si7 0.105565 0.413412 0.817854
Si Si8 0.095316 0.897132 0.244404
O O1 0.931636 0.904298 0.119670
O O2 0.911263 0.732355 0.175883
O O3 0.768613 0.940380 0.187260
O O4 0.036999 0.933254 0.197673
O O5 0.829883 0.128326 0.512247
O O6 0.639289 0.177705 0.571827
O O7 0.852800 0.032575 0.587107
O O8 0.646448 0.963503 0.538407
O O9 0.250000 0.750000 0.943421
O O10 0.495713 0.732516 0.969410
O O11 0.406244 0.947051 0.937728
O O12 0.926193 0.820422 0.417536
O O13 0.950421 0.989571 0.358350
O O14 0.250000 0.250000 0.483046
O O15 0.102764 0.379840 0.537444
O O16 0.013062 0.456151 0.777946
O O17 0.100483 0.750000 0.250000
O O18 0.250000 0.951754 0.250000
#
# Coordination Sequence:
#
# PCOD8202056 Si02
#       8
#     8   8   8   8   8   8   8   8
#     4   9  19  31  50  77 107 147 188 226 270 349
#     4  12  23  38  57  81 115 154 199 254 292 348
#     4  12  24  41  57  80 111 158 205 253 297 340
#     4  11  22  37  56  81 114 153 196 243 293 344
#     4  12  24  39  58  77 112 160 204 246 296 341
#     4  11  23  35  54  83 115 148 200 239 292 344
#     4   9  19  32  52  74 109 148 183 227 278 340
#     4   9  17  31  49  75 109 148 182 216 277 346
#
# _framework density 19.400732999999999
#
# number of rings (size 3 to 8) (size 9 to 14) (size 15 to 20)
#    0.000    1.375    3.750    2.250    7.000    1.500 
#    0.000    0.000    0.000    0.000    0.000    0.000 
#    0.000    7.000    1.500    0.000    0.000    0.000 
#
# Total GULP energy -793522.442051 kJ/mol
# GULP energy per Si atom -12398.788157 kJ/mol
# Density = 1.935658 g / cm^3
# Si number density = 19.400733 Si / 1000 Ang^3
#
#
#
# Elastic Constant Matrix: (Units=GPa)
#
#
# Indices 1 2 3 4 5 6 
#
# 1 121.1543 39.6234 46.6060 0.0000 0.0000 0.0000
# 2 39.6234 31.3481 19.0365 0.0000 0.0000 0.0000
# 3 46.6060 19.0365 105.5124 0.0000 0.0000 0.0000
# 4 0.0000 0.0000 0.0000 12.3687 0.0000 0.0000
# 5 0.0000 0.0000 0.0000 0.0000 35.1929 0.0000
# 6 0.0000 0.0000 0.0000 0.0000 0.0000 27.9908
#
#
#
# Elastic Compliance Matrix: (Units=1/GPa)
#
#
# Indices 1 2 3 4 5 6 
#
# 1 0.015230 -0.017031 -0.003654 0.000000 0.000000 0.000000
# 2 -0.017031 0.054870 -0.002377 0.000000 0.000000 0.000000
# 3 -0.003654 -0.002377 0.011521 0.000000 0.000000 0.000000
# 4 0.000000 0.000000 0.000000 0.080849 0.000000 0.000000
# 5 0.000000 0.000000 0.000000 0.000000 0.028415 0.000000
# 6 0.000000 0.000000 0.000000 0.000000 0.000000 0.035726
#
#
# Mechanical properties :
#
#
# Convention : Reuss Voigt Hill
#
# Bulk Modulus (GPa) = 28.17229 52.06071 40.11650
# Shear Modulus (GPa) = 17.57061 25.29374 21.43218
#
# Velocity S-wave (km/s) = 3.01270 3.61467 3.32732
# Velocity P-wave (km/s) = 5.16280 6.65686 5.95686
#
# Compressibility (1/GPa) = 0.03549587
#
# Stress axis : x y z
#
# Youngs Moduli (GPa) = 65.66154 18.22495 86.80108
#
# Poissons Ratio (x) = 0.31038 0.31721
# Poissons Ratio (y) = 1.11827 0.20632
# Poissons Ratio (z) = 0.23995 0.04332
#
# Static dielectric constant tensor:
#      x y z
#    x 3.866950 0.000000 0.000000 
#    y 0.000000 3.153920 0.000000 
#    z 0.000000 0.000000 3.694890 
# 
# 
# High freq. dielectric constant tensor:
#      x y z
#    x 1.781120 0.000000 0.000000 
#    y 0.000000 1.696870 0.000000 
#    z 0.000000 0.000000 1.743390 
# 
# From -- ./inp_files/38832.got.cif
#   From: 2010.06.25/outbox.cif.g09.slc.cpg/sg48_20_cif.got.tgz:38832.got - 2010.06.26 18:06:46.
