data_PCOD8202820
_publ_section_title
;
Structure prediction by ZEFSAII (Michael W. Deem and Ramdas Pophale) SiO2 
 PCOD8202820
Probable space group: P C C M
;
_chemical_formula_sum "Si O2"
_cell_formula_units_Z 64
_cell_length_a 22.786059
_cell_length_b 19.047648
_cell_length_c 9.031908
_cell_angle_alpha 90.000000
_cell_angle_beta 90.000000
_cell_angle_gamma 90.000000
_cell_volume 3920.036217
_symmetry_space_group_name_H-M "P C C M"
_symmetry_group_IT_number 49
_symmetry_cell_setting 'orthorhombic'
loop_
_space_group_symop_operation_xyz
x,y,z
-x,-y,z
x,-y,1/2-z
-x,y,1/2-z
-x,-y,-z
x,y,-z
-x,y,1/2+z
x,-y,1/2+z
loop_
_atom_site_type_symbol
_atom_site_label
_atom_site_fract_x
_atom_site_fract_y
_atom_site_fract_z
Si Si1 0.228583 0.340256 0.331253
Si Si2 0.634180 0.929811 0.825484
Si Si3 0.264766 0.859368 0.833693
Si Si4 0.828053 0.215858 0.669451
Si Si5 0.438340 0.792886 0.327549
Si Si6 0.939619 0.297247 0.326157
Si Si7 0.657488 0.279627 0.836801
Si Si8 0.122131 0.427739 0.670973
O O1 0.218952 0.310889 0.500000
O O2 0.203293 0.288585 0.208467
O O3 0.299563 0.346833 0.303745
O O4 0.192528 0.412863 0.314580
O O5 0.699355 0.915556 0.763259
O O6 0.590157 0.867050 0.781213
O O7 0.608673 0.000000 0.750000
O O8 0.637684 0.939942 0.000000
O O9 0.199338 0.847589 0.766869
O O10 0.298770 0.786130 0.828341
O O11 0.259086 0.888637 0.000000
O O12 0.814744 0.197536 0.500000
O O13 0.897123 0.229563 0.697794
O O14 0.500000 0.784005 0.250000
O O15 0.448513 0.787239 0.500000
O O16 0.395345 0.729123 0.279086
O O17 0.947527 0.313322 0.500000
O O18 0.914970 0.366450 0.247019
O O19 0.000000 0.275205 0.250000
O O20 0.629059 0.285470 0.000000
O O21 0.106679 0.500000 0.750000
O O22 0.103169 0.432686 0.500000
#
# Coordination Sequence:
#
# PCOD8202820 Si02
#       8
#     8   8   8   8   8   8   8   8
#     4   8  15  27  43  61  81 107 136 170 214 259
#     4  10  20  32  45  62  85 114 148 182 215 250
#     4   9  16  27  44  63  83 108 137 171 214 258
#     4   9  16  26  42  63  84 105 134 174 217 257
#     4  10  20  31  43  60  83 113 146 179 212 248
#     4  10  20  32  45  62  85 115 149 183 217 253
#     4   8  14  26  43  61  80 103 133 170 212 254
#     4  10  19  31  45  62  86 115 148 181 214 253
#
# _framework density 16.326378999999999
#
# number of rings (size 3 to 8) (size 9 to 14) (size 15 to 20)
#    0.000    2.750    0.000    3.000    0.000    7.000 
#    0.000    2.500    0.000    0.000    0.000    0.000 
#    0.000    1.000    0.000   11.000    0.000    5.125 
#
# Total GULP energy -793059.322151 kJ/mol
# GULP energy per Si atom -12391.551909 kJ/mol
# Density = 1.628922 g / cm^3
# Si number density = 16.326379 Si / 1000 Ang^3
#
#
#
# Elastic Constant Matrix: (Units=GPa)
#
#
# Indices 1 2 3 4 5 6 
#
# 1 107.9904 19.6351 50.9660 0.0000 0.0000 0.0000
# 2 19.6351 5.2617 8.1766 0.0000 0.0000 0.0000
# 3 50.9660 8.1766 86.6110 0.0000 0.0000 0.0000
# 4 0.0000 0.0000 0.0000 18.4372 0.0000 0.0000
# 5 0.0000 0.0000 0.0000 0.0000 27.2296 0.0000
# 6 0.0000 0.0000 0.0000 0.0000 0.0000 15.6762
#
#
#
# Elastic Compliance Matrix: (Units=1/GPa)
#
#
# Indices 1 2 3 4 5 6 
#
# 1 0.034415 -0.113626 -0.009524 0.000000 0.000000 0.000000
# 2 -0.113626 0.597881 0.010419 0.000000 0.000000 0.000000
# 3 -0.009524 0.010419 0.016167 0.000000 0.000000 0.000000
# 4 0.000000 0.000000 0.000000 0.054238 0.000000 0.000000
# 5 0.000000 0.000000 0.000000 0.000000 0.036725 0.000000
# 6 0.000000 0.000000 0.000000 0.000000 0.000000 0.063791
#
#
# Mechanical properties :
#
#
# Convention : Reuss Voigt Hill
#
# Bulk Modulus (GPa) = 2.36406 39.71316 21.03861
# Shear Modulus (GPa) = 4.27468 20.34096 12.30782
#
# Velocity S-wave (km/s) = 1.61986 3.53355 2.74863
# Velocity P-wave (km/s) = 2.22480 6.40510 4.79453
#
# Compressibility (1/GPa) = 0.42300156
#
# Stress axis : x y z
#
# Youngs Moduli (GPa) = 29.05724 1.67257 61.85496
#
# Poissons Ratio (x) = 0.19005 0.58913
# Poissons Ratio (y) = 3.30165 -0.64449
# Poissons Ratio (z) = 0.27675 -0.01743
#
# Static dielectric constant tensor:
#      x y z
#    x 3.242700 0.000000 0.000000 
#    y 0.000000 2.807160 0.000000 
#    z 0.000000 0.000000 3.230230 
# 
# 
# High freq. dielectric constant tensor:
#      x y z
#    x 1.620870 0.000000 0.000000 
#    y 0.000000 1.572480 0.000000 
#    z 0.000000 0.000000 1.645990 
# 
# From -- ./inp_files/5413.got.cif
#   From: 2010.03.12/outbox.cif.g09.slc.cpg/sg49_3_cif.got.tgz:5413.got - 2010.04.14 03:58:27.
