data_PCOD8202329
_publ_section_title
;
Structure prediction by ZEFSAII (Michael W. Deem and Ramdas Pophale) SiO2 
 PCOD8202329
Probable space group: P C C M
;
_chemical_formula_sum "Si O2"
_cell_formula_units_Z 48
_cell_length_a 31.254883
_cell_length_b 9.157464
_cell_length_c 8.679730
_cell_angle_alpha 90.000000
_cell_angle_beta 90.000000
_cell_angle_gamma 90.000000
_cell_volume 2484.272966
_symmetry_space_group_name_H-M "P C C M"
_symmetry_group_IT_number 49
_symmetry_cell_setting 'orthorhombic'
loop_
_space_group_symop_operation_xyz
x,y,z
-x,-y,z
x,-y,1/2-z
-x,y,1/2-z
-x,-y,-z
x,y,-z
-x,y,1/2+z
x,-y,1/2+z
loop_
_atom_site_type_symbol
_atom_site_label
_atom_site_fract_x
_atom_site_fract_y
_atom_site_fract_z
Si Si1 0.044692 0.842167 0.317331
Si Si2 0.629132 0.839703 0.817218
Si Si3 0.542643 0.837528 0.683202
Si Si4 0.874189 0.659164 0.818172
Si Si5 0.288412 0.340373 0.818313
Si Si6 0.207073 0.160163 0.182632
O O1 0.041395 0.854843 0.500000
O O2 0.081386 0.730971 0.263636
O O3 0.000000 0.782848 0.250000
O O4 0.055925 0.000000 0.250000
O O5 0.586365 0.764338 0.745383
O O6 0.668288 0.738817 0.764897
O O7 0.637214 0.000000 0.750000
O O8 0.624377 0.851118 0.000000
O O9 0.500000 0.757213 0.750000
O O10 0.541416 0.837660 0.500000
O O11 0.543161 0.000000 0.750000
O O12 0.869837 0.500000 0.750000
O O13 0.835203 0.757692 0.756576
O O14 0.872250 0.646886 0.000000
O O15 0.286605 0.500000 0.750000
O O16 0.248275 0.247888 0.755751
O O17 0.286274 0.353232 0.000000
O O18 0.208040 0.000000 0.250000
O O19 0.207325 0.148858 0.000000
#
# Coordination Sequence:
#
# PCOD8202329 Si02
#       6
#     8   8   8   8   8   8
#     4  10  20  35  55  80 107 141 182 226 270 319
#     4  10  19  32  50  76 105 136 174 216 258 309
#     4  10  17  27  45  71 102 136 171 214 262 308
#     4  10  22  37  55  80 111 143 180 220 266 319
#     4  10  22  37  55  78 107 139 175 215 260 312
#     4  10  21  38  58  83 109 138 176 219 263 314
#
# _framework density 19.321548
#
# number of rings (size 3 to 8) (size 9 to 14) (size 15 to 20)
#    0.000    2.000    0.000    6.000    0.000    4.333 
#    0.000    1.667    0.000    0.500    0.000    3.500 
#    0.000    0.000    0.000    0.000    0.000    0.000 
#
# Total GULP energy -595207.879538 kJ/mol
# GULP energy per Si atom -12400.164157 kJ/mol
# Density = 1.927757 g / cm^3
# Si number density = 19.321548 Si / 1000 Ang^3
#
#
#
# Elastic Constant Matrix: (Units=GPa)
#
#
# Indices 1 2 3 4 5 6 
#
# 1 209.8881 99.6676 56.4180 0.0000 0.0000 0.0000
# 2 99.6676 135.8847 34.5640 0.0000 0.0000 0.0000
# 3 56.4180 34.5640 74.4261 0.0000 0.0000 0.0000
# 4 0.0000 0.0000 0.0000 31.3093 0.0000 0.0000
# 5 0.0000 0.0000 0.0000 0.0000 27.1606 0.0000
# 6 0.0000 0.0000 0.0000 0.0000 0.0000 5.4448
#
#
#
# Elastic Compliance Matrix: (Units=1/GPa)
#
#
# Indices 1 2 3 4 5 6 
#
# 1 0.008191 -0.005022 -0.003877 0.000000 0.000000 0.000000
# 2 -0.005022 0.011424 -0.001498 0.000000 0.000000 0.000000
# 3 -0.003877 -0.001498 0.017071 0.000000 0.000000 0.000000
# 4 0.000000 0.000000 0.000000 0.031939 0.000000 0.000000
# 5 0.000000 0.000000 0.000000 0.000000 0.036818 0.000000
# 6 0.000000 0.000000 0.000000 0.000000 0.000000 0.183663
#
#
# Mechanical properties :
#
#
# Convention : Reuss Voigt Hill
#
# Bulk Modulus (GPa) = 62.92817 89.05533 75.99175
# Shear Modulus (GPa) = 15.86302 28.08622 21.97462
#
# Velocity S-wave (km/s) = 2.86842 3.81678 3.37606
# Velocity P-wave (km/s) = 6.60379 8.10031 7.39003
#
# Compressibility (1/GPa) = 0.01589113
#
# Stress axis : x y z
#
# Youngs Moduli (GPa) = 122.08034 87.53685 58.57859
#
# Poissons Ratio (x) = 0.43960 0.22712
# Poissons Ratio (y) = 0.61308 0.08778
# Poissons Ratio (z) = 0.47332 0.13117
#
# Static dielectric constant tensor:
#      x y z
#    x 4.439430 0.000000 0.000000 
#    y 0.000000 3.432190 0.000000 
#    z 0.000000 0.000000 3.472280 
# 
# 
# High freq. dielectric constant tensor:
#      x y z
#    x 1.781080 0.000000 0.000000 
#    y 0.000000 1.727810 0.000000 
#    z 0.000000 0.000000 1.752660 
# 
# From -- ./inp_files/2093.got.cif
#   From: 2010.03.12/outbox.cif.g09.slc.cpg/sg49_2_cif.got.tgz:2093.got - 2010.04.14 03:58:27.
