data_PCOD8202618
_publ_section_title
;
Structure prediction by ZEFSAII (Michael W. Deem and Ramdas Pophale) SiO2 
 PCOD8202618
Probable space group: P C C M
;
_chemical_formula_sum "Si O2"
_cell_formula_units_Z 64
_cell_length_a 19.258319
_cell_length_b 9.894473
_cell_length_c 17.173634
_cell_angle_alpha 90.000000
_cell_angle_beta 90.000000
_cell_angle_gamma 90.000000
_cell_volume 3272.451713
_symmetry_space_group_name_H-M "P C C M"
_symmetry_group_IT_number 49
_symmetry_cell_setting 'orthorhombic'
loop_
_space_group_symop_operation_xyz
x,y,z
-x,-y,z
x,-y,1/2-z
-x,y,1/2-z
-x,-y,-z
x,y,-z
-x,y,1/2+z
x,-y,1/2+z
loop_
_atom_site_type_symbol
_atom_site_label
_atom_site_fract_x
_atom_site_fract_y
_atom_site_fract_z
Si Si1 0.144752 0.223419 0.150169
Si Si2 0.920071 0.479553 0.412600
Si Si3 0.922255 0.037271 0.092066
Si Si4 0.143799 0.287079 0.676133
Si Si5 0.417965 0.647610 0.088233
Si Si6 0.284078 0.321472 0.091304
Si Si7 0.286755 0.410358 0.328597
Si Si8 0.433697 0.329006 0.913491
O O1 0.101466 0.322674 0.093920
O O2 0.119581 0.252136 0.237385
O O3 0.227361 0.239856 0.140279
O O4 0.129654 0.070055 0.128958
O O5 0.902615 0.529047 0.500000
O O6 0.878772 0.562627 0.347814
O O7 0.000000 0.500000 0.394251
O O8 0.894242 0.182883 0.118711
O O9 0.918724 0.033300 0.000000
O O10 0.000000 0.000000 0.120909
O O11 0.227590 0.294793 0.674453
O O12 0.355936 0.675903 0.149399
O O13 0.490927 0.710889 0.123287
O O14 0.427794 0.488830 0.082855
O O15 0.402622 0.702442 0.000000
O O16 0.271170 0.482139 0.102616
O O17 0.360963 0.277289 0.124992
O O18 0.276787 0.289659 0.000000
O O19 0.294515 0.500000 0.250000
O O20 0.435194 0.269129 0.000000
#
# Coordination Sequence:
#
# PCOD8202618 Si02
#       8
#     8   8   8   8   8   8   8   8
#     4  12  23  39  59  85 114 151 190 233 289 353
#     4  11  23  38  59  85 112 145 187 230 278 340
#     4  11  26  46  65  85 110 142 190 245 292 351
#     4  12  24  39  58  84 118 150 183 233 293 345
#     4   8  14  25  44  69 106 152 193 228 273 327
#     4  10  18  31  54  77 109 152 194 236 277 327
#     4  11  19  32  49  80 120 151 187 232 280 337
#     4   7  12  24  42  70 103 145 193 233 270 319
#
# _framework density 19.557200999999999
#
# number of rings (size 3 to 8) (size 9 to 14) (size 15 to 20)
#    0.000    1.750    2.500    4.875    0.000    6.500 
#    0.000    5.000    0.000    0.000    0.000    0.875 
#    0.000    6.000    0.000    0.000    0.000    0.000 
#
# Total GULP energy -792921.203297 kJ/mol
# GULP energy per Si atom -12389.393802 kJ/mol
# Density = 1.951269 g / cm^3
# Si number density = 19.557201 Si / 1000 Ang^3
#
#
#
# Elastic Constant Matrix: (Units=GPa)
#
#
# Indices 1 2 3 4 5 6 
#
# 1 141.1054 13.9854 32.1091 0.0000 0.0000 0.0000
# 2 13.9854 33.8092 2.3658 0.0000 0.0000 0.0000
# 3 32.1091 2.3658 73.0672 0.0000 0.0000 0.0000
# 4 0.0000 0.0000 0.0000 22.7725 0.0000 0.0000
# 5 0.0000 0.0000 0.0000 0.0000 15.4563 0.0000
# 6 0.0000 0.0000 0.0000 0.0000 0.0000 14.5362
#
#
#
# Elastic Compliance Matrix: (Units=1/GPa)
#
#
# Indices 1 2 3 4 5 6 
#
# 1 0.008195 -0.003145 -0.003499 0.000000 0.000000 0.000000
# 2 -0.003145 0.030852 0.000383 0.000000 0.000000 0.000000
# 3 -0.003499 0.000383 0.015211 0.000000 0.000000 0.000000
# 4 0.000000 0.000000 0.000000 0.043913 0.000000 0.000000
# 5 0.000000 0.000000 0.000000 0.000000 0.064699 0.000000
# 6 0.000000 0.000000 0.000000 0.000000 0.000000 0.068794
#
#
# Mechanical properties :
#
#
# Convention : Reuss Voigt Hill
#
# Bulk Modulus (GPa) = 23.96032 38.32247 31.14139
# Shear Modulus (GPa) = 19.37251 23.85444 21.61348
#
# Velocity S-wave (km/s) = 3.15073 3.49625 3.32797
# Velocity P-wave (km/s) = 5.05115 5.99466 5.54302
#
# Compressibility (1/GPa) = 0.04173567
#
# Stress axis : x y z
#
# Youngs Moduli (GPa) = 122.02695 32.41296 65.74011
#
# Poissons Ratio (x) = 0.10194 0.23005
# Poissons Ratio (y) = 0.38377 -0.02519
# Poissons Ratio (z) = 0.42702 -0.01242
#
# Static dielectric constant tensor:
#      x y z
#    x 4.324130 0.000000 0.000000 
#    y 0.000000 3.055370 0.000000 
#    z 0.000000 0.000000 3.530090 
# 
# 
# High freq. dielectric constant tensor:
#      x y z
#    x 1.786930 0.000000 0.000000 
#    y 0.000000 1.697600 0.000000 
#    z 0.000000 0.000000 1.756240 
# 
# From -- ./inp_files/18315.got.cif
#   From: 2010.03.12/outbox.cif.g09.slc.cpg/sg49_10_cif.got.tgz:18315.got - 2010.04.14 03:58:27.
