data_PCOD8202544
_publ_section_title
;
Structure prediction by ZEFSAII (Michael W. Deem and Ramdas Pophale) SiO2 
 PCOD8202544
Probable space group: P C C M
;
_chemical_formula_sum "Si O2"
_cell_formula_units_Z 64
_cell_length_a 23.206182
_cell_length_b 19.035746
_cell_length_c 8.861520
_cell_angle_alpha 90.000000
_cell_angle_beta 90.000000
_cell_angle_gamma 90.000000
_cell_volume 3914.549753
_symmetry_space_group_name_H-M "P C C M"
_symmetry_group_IT_number 49
_symmetry_cell_setting 'orthorhombic'
loop_
_space_group_symop_operation_xyz
x,y,z
-x,-y,z
x,-y,1/2-z
-x,y,1/2-z
-x,-y,-z
x,y,-z
-x,y,1/2+z
x,-y,1/2+z
loop_
_atom_site_type_symbol
_atom_site_label
_atom_site_fract_x
_atom_site_fract_y
_atom_site_fract_z
Si Si1 0.439364 0.573764 0.678726
Si Si2 0.659556 0.346980 0.173087
Si Si3 0.270594 0.211990 0.676506
Si Si4 0.940206 0.210007 0.675640
Si Si5 0.776687 0.574881 0.676693
Si Si6 0.253590 0.071744 0.177866
Si Si7 0.830206 0.296760 0.323466
Si Si8 0.120364 0.070880 0.177677
O O1 0.418770 0.500000 0.750000
O O2 0.500000 0.596775 0.750000
O O3 0.445583 0.565566 0.500000
O O4 0.392973 0.633471 0.717758
O O5 0.677032 0.266333 0.204151
O O6 0.712957 0.397280 0.213031
O O7 0.640631 0.357738 0.000000
O O8 0.258318 0.203284 0.500000
O O9 0.287881 0.137542 0.750284
O O10 0.212736 0.239962 0.753304
O O11 0.950634 0.200481 0.500000
O O12 0.895165 0.272127 0.708463
O O13 0.915808 0.136553 0.741935
O O14 0.000000 0.231412 0.750000
O O15 0.785861 0.500000 0.750000
O O16 0.788005 0.570428 0.500000
O O17 0.823386 0.627379 0.747713
O O18 0.186880 0.080894 0.223665
O O19 0.278154 0.000000 0.250000
O O20 0.263635 0.070132 0.000000
O O21 0.816546 0.301349 0.500000
O O22 0.094920 0.000000 0.250000
O O23 0.114628 0.064918 0.000000
#
# Coordination Sequence:
#
# PCOD8202544 Si02
#       8
#     8   8   8   8   8   8   8   8
#     4  11  21  33  50  70  98 137 176 209 243 280
#     4   9  19  33  48  71 102 130 164 203 236 280
#     4  10  19  31  49  72  97 127 161 199 244 289
#     4  10  21  35  49  67  90 118 154 193 236 283
#     4  10  20  33  51  76 100 125 155 191 238 287
#     4  10  18  30  47  68  96 127 161 197 238 291
#     4  10  19  34  51  68  94 122 152 193 237 287
#     4   9  18  32  46  65  90 119 153 190 230 276
#
# _framework density 16.349263000000001
#
# number of rings (size 3 to 8) (size 9 to 14) (size 15 to 20)
#    0.000    2.125    1.250    4.125    0.000    6.250 
#    0.000    1.250    0.000    0.375    0.000    2.625 
#    0.000    0.500    0.000    5.250    0.000    2.250 
#
# Total GULP energy -793724.518833 kJ/mol
# GULP energy per Si atom -12401.945607 kJ/mol
# Density = 1.631205 g / cm^3
# Si number density = 16.349263 Si / 1000 Ang^3
#
#
#
# Elastic Constant Matrix: (Units=GPa)
#
#
# Indices 1 2 3 4 5 6 
#
# 1 70.4746 48.1274 45.4497 0.0000 0.0000 0.0000
# 2 48.1274 141.1900 59.9174 0.0000 0.0000 0.0000
# 3 45.4497 59.9174 98.6330 0.0000 0.0000 0.0000
# 4 0.0000 0.0000 0.0000 32.3635 0.0000 0.0000
# 5 0.0000 0.0000 0.0000 0.0000 23.7946 0.0000
# 6 0.0000 0.0000 0.0000 0.0000 0.0000 18.9098
#
#
#
# Elastic Compliance Matrix: (Units=1/GPa)
#
#
# Indices 1 2 3 4 5 6 
#
# 1 0.021971 -0.004302 -0.007511 0.000000 0.000000 0.000000
# 2 -0.004302 0.010385 -0.004326 0.000000 0.000000 0.000000
# 3 -0.007511 -0.004326 0.016228 0.000000 0.000000 0.000000
# 4 0.000000 0.000000 0.000000 0.030899 0.000000 0.000000
# 5 0.000000 0.000000 0.000000 0.000000 0.042026 0.000000
# 6 0.000000 0.000000 0.000000 0.000000 0.000000 0.052883
#
#
# Mechanical properties :
#
#
# Convention : Reuss Voigt Hill
#
# Bulk Modulus (GPa) = 61.32868 68.58741 64.95805
# Shear Modulus (GPa) = 23.57318 25.46714 24.52016
#
# Velocity S-wave (km/s) = 3.80129 3.95104 3.87689
# Velocity P-wave (km/s) = 7.54052 7.92823 7.73680
#
# Compressibility (1/GPa) = 0.01630558
#
# Stress axis : x y z
#
# Youngs Moduli (GPa) = 45.51429 96.29244 61.62267
#
# Poissons Ratio (x) = 0.41423 0.46284
# Poissons Ratio (y) = 0.19580 0.26660
# Poissons Ratio (z) = 0.34186 0.41660
#
# Static dielectric constant tensor:
#      x y z
#    x 2.838870 0.000000 0.000000 
#    y 0.000000 3.197690 0.000000 
#    z 0.000000 0.000000 3.135200 
# 
# 
# High freq. dielectric constant tensor:
#      x y z
#    x 1.591310 0.000000 0.000000 
#    y 0.000000 1.631290 0.000000 
#    z 0.000000 0.000000 1.641760 
# 
# From -- ./inp_files/5414.got.cif
#   From: 2010.03.12/outbox.cif.g09.slc.cpg/sg49_3_cif.got.tgz:5414.got - 2010.04.14 03:58:27.
