data_PCOD8202258
_publ_section_title
;
Structure prediction by ZEFSAII (Michael W. Deem and Ramdas Pophale) SiO2 
 PCOD8202258
Probable space group: P C C M
;
_chemical_formula_sum "Si O2"
_cell_formula_units_Z 48
_cell_length_a 24.090071
_cell_length_b 13.571191
_cell_length_c 8.716474
_cell_angle_alpha 90.000000
_cell_angle_beta 90.000000
_cell_angle_gamma 90.000000
_cell_volume 2849.685167
_symmetry_space_group_name_H-M "P C C M"
_symmetry_group_IT_number 49
_symmetry_cell_setting 'orthorhombic'
loop_
_space_group_symop_operation_xyz
x,y,z
-x,-y,z
x,-y,1/2-z
-x,y,1/2-z
-x,-y,-z
x,y,-z
-x,y,1/2+z
x,-y,1/2+z
loop_
_atom_site_type_symbol
_atom_site_label
_atom_site_fract_x
_atom_site_fract_y
_atom_site_fract_z
Si Si1 0.614738 0.397272 0.821422
Si Si2 0.833452 0.392994 0.819403
Si Si3 0.721573 0.716423 0.679576
Si Si4 0.558744 0.801102 0.681518
Si Si5 0.334849 0.102858 0.818883
Si Si6 0.055144 0.609431 0.682370
O O1 0.596108 0.500000 0.750000
O O2 0.676857 0.366343 0.769754
O O3 0.572252 0.311542 0.770198
O O4 0.612473 0.413484 0.000000
O O5 0.821127 0.500000 0.750000
O O6 0.782476 0.322020 0.779861
O O7 0.887811 0.341458 0.742849
O O8 0.842799 0.404774 0.000000
O O9 0.714108 0.739837 0.500000
O O10 0.710905 0.815967 0.773162
O O11 0.500000 0.832667 0.750000
O O12 0.558537 0.814009 0.500000
O O13 0.605027 0.872800 0.749694
O O14 0.313920 0.000000 0.750000
O O15 0.339569 0.095939 0.000000
O O16 0.056281 0.500000 0.750000
O O17 0.052814 0.608969 0.500000
O O18 0.000000 0.663576 0.750000
#
# Coordination Sequence:
#
# PCOD8202258 Si02
#       6
#     8   8   8   8   8   8
#     4   9  18  31  47  67  94 126 157 190 226 268
#     4  10  18  28  44  67  97 131 165 200 237 276
#     4   9  19  34  49  69  97 125 156 195 234 277
#     4  10  21  37  53  73  98 122 154 192 230 274
#     4  11  22  37  57  76  95 120 149 186 235 286
#     4  10  17  26  39  57  86 124 167 206 240 277
#
# _framework density 16.843966999999999
#
# number of rings (size 3 to 8) (size 9 to 14) (size 15 to 20)
#    0.000    2.167    0.000    7.000    0.000    5.333 
#    0.000    3.333    0.000    0.000    0.000    0.000 
#    0.000    0.667    0.000    7.000    0.000    3.000 
#
# Total GULP energy -595138.327809 kJ/mol
# GULP energy per Si atom -12398.715163 kJ/mol
# Density = 1.680563 g / cm^3
# Si number density = 16.843967 Si / 1000 Ang^3
#
#
#
# Elastic Constant Matrix: (Units=GPa)
#
#
# Indices 1 2 3 4 5 6 
#
# 1 120.7611 24.0563 49.5143 0.0000 0.0000 0.0000
# 2 24.0563 69.2587 29.0791 0.0000 0.0000 0.0000
# 3 49.5143 29.0791 102.2825 0.0000 0.0000 0.0000
# 4 0.0000 0.0000 0.0000 24.4962 0.0000 0.0000
# 5 0.0000 0.0000 0.0000 0.0000 -3.9887 0.0000
# 6 0.0000 0.0000 0.0000 0.0000 0.0000 3.5575
#
#
#
# Elastic Compliance Matrix: (Units=1/GPa)
#
#
# Indices 1 2 3 4 5 6 
#
# 1 0.010509 -0.001719 -0.004598 0.000000 0.000000 0.000000
# 2 -0.001719 0.016677 -0.003909 0.000000 0.000000 0.000000
# 3 -0.004598 -0.003909 0.013114 0.000000 0.000000 0.000000
# 4 0.000000 0.000000 0.000000 0.040823 0.000000 0.000000
# 5 0.000000 0.000000 0.000000 0.000000 -0.250706 0.000000
# 6 0.000000 0.000000 0.000000 0.000000 0.000000 0.281094
#
#
# Mechanical properties :
#
#
# Convention : Reuss Voigt Hill
#
# Bulk Modulus (GPa) = 50.38672 55.28909 52.83790
# Shear Modulus (GPa) = 36.08026 17.45651 26.76838
#
# Velocity S-wave (km/s) = 4.63323 3.22276 3.99080
# Velocity P-wave (km/s) = 7.65514 6.83694 7.25758
#
# Compressibility (1/GPa) = 0.01984650
#
# Stress axis : x y z
#
# Youngs Moduli (GPa) = 95.15878 59.96261 76.25308
#
# Poissons Ratio (x) = 0.10310 0.35064
# Poissons Ratio (y) = 0.16362 0.29807
# Poissons Ratio (z) = 0.43758 0.23439
#
# Static dielectric constant tensor:
#      x y z
#    x 3.691780 0.000000 0.000000 
#    y 0.000000 3.178460 0.000000 
#    z 0.000000 0.000000 3.203820 
# 
# 
# High freq. dielectric constant tensor:
#      x y z
#    x 1.653100 0.000000 0.000000 
#    y 0.000000 1.610820 0.000000 
#    z 0.000000 0.000000 1.663170 
# 
# From -- ./inp_files/2909.got.cif
#   From: 2010.03.12/outbox.cif.g09.slc.cpg/sg49_2_cif.got.tgz:2909.got - 2010.04.14 03:58:27.
