data_PCOD8202509
_publ_section_title
;
Structure prediction by ZEFSAII (Michael W. Deem and Ramdas Pophale) SiO2 
 PCOD8202509
Probable space group: P C C M
;
_chemical_formula_sum "Si O2"
_cell_formula_units_Z 40
_cell_length_a 18.809126
_cell_length_b 13.727710
_cell_length_c 9.038493
_cell_angle_alpha 90.000000
_cell_angle_beta 90.000000
_cell_angle_gamma 90.000000
_cell_volume 2333.795176
_symmetry_space_group_name_H-M "P C C M"
_symmetry_group_IT_number 49
_symmetry_cell_setting 'orthorhombic'
loop_
_space_group_symop_operation_xyz
x,y,z
-x,-y,z
x,-y,1/2-z
-x,y,1/2-z
-x,-y,-z
x,y,-z
-x,y,1/2+z
x,-y,1/2+z
loop_
_atom_site_type_symbol
_atom_site_label
_atom_site_fract_x
_atom_site_fract_y
_atom_site_fract_z
Si Si1 0.213689 0.707716 0.325208
Si Si2 0.350673 0.400684 0.174113
Si Si3 0.713858 0.100271 0.674538
Si Si4 0.572304 0.206477 0.327103
Si Si5 0.928355 0.396093 0.322854
O O1 0.221809 0.707776 0.500000
O O2 0.272696 0.631485 0.265471
O O3 0.230653 0.816986 0.269020
O O4 0.135092 0.676094 0.276046
O O5 0.375320 0.500000 0.250000
O O6 0.406695 0.316641 0.217409
O O7 0.349124 0.417744 0.000000
O O8 0.718787 0.086776 0.500000
O O9 0.634622 0.132724 0.722216
O O10 0.735684 0.000000 0.750000
O O11 0.500000 0.173835 0.250000
O O12 0.560076 0.199095 0.500000
O O13 0.912142 0.500000 0.250000
O O14 0.936105 0.406487 0.500000
O O15 0.000000 0.352565 0.250000
#
# Coordination Sequence:
#
# PCOD8202509 Si02
#       5
#     8   8   8   8   8
#     4   8  16  31  49  66  91 123 152 184 226 268
#     4   9  17  30  46  65  88 119 154 187 221 263
#     4   9  18  34  52  70  89 114 149 190 232 273
#     4   9  19  33  47  64  91 120 148 183 227 274
#     4  10  18  29  46  70  99 129 155 183 218 261
#
# _framework density 17.139464
#
# number of rings (size 3 to 8) (size 9 to 14) (size 15 to 20)
#    0.000    3.000    0.000    4.200    0.000    2.400 
#    0.000   10.000    0.000    0.600    0.000    4.200 
#    0.000    0.000    0.000    0.000    0.000    0.000 
#
# Total GULP energy -495815.791977 kJ/mol
# GULP energy per Si atom -12395.394799 kJ/mol
# Density = 1.710045 g / cm^3
# Si number density = 17.139464 Si / 1000 Ang^3
#
#
#
# Elastic Constant Matrix: (Units=GPa)
#
#
# Indices 1 2 3 4 5 6 
#
# 1 118.5976 41.3963 32.2063 0.0000 0.0000 0.0000
# 2 41.3963 95.8894 24.6187 0.0000 0.0000 0.0000
# 3 32.2063 24.6187 37.6130 0.0000 0.0000 0.0000
# 4 0.0000 0.0000 0.0000 29.1586 0.0000 0.0000
# 5 0.0000 0.0000 0.0000 0.0000 -18.0634 0.0000
# 6 0.0000 0.0000 0.0000 0.0000 0.0000 19.2296
#
#
#
# Elastic Compliance Matrix: (Units=1/GPa)
#
#
# Indices 1 2 3 4 5 6 
#
# 1 0.011649 -0.002967 -0.008033 0.000000 0.000000 0.000000
# 2 -0.002967 0.013291 -0.006159 0.000000 0.000000 0.000000
# 3 -0.008033 -0.006159 0.037496 0.000000 0.000000 0.000000
# 4 0.000000 0.000000 0.000000 0.034295 0.000000 0.000000
# 5 0.000000 0.000000 0.000000 0.000000 -0.055361 0.000000
# 6 0.000000 0.000000 0.000000 0.000000 0.000000 0.052003
#
#
# Mechanical properties :
#
#
# Convention : Reuss Voigt Hill
#
# Bulk Modulus (GPa) = 35.56331 49.83808 42.70070
# Shear Modulus (GPa) = 36.47990 16.32354 26.40172
#
# Velocity S-wave (km/s) = 4.61848 3.08944 3.92906
# Velocity P-wave (km/s) = 7.01676 6.47049 6.74915
#
# Compressibility (1/GPa) = 0.02811887
#
# Stress axis : x y z
#
# Youngs Moduli (GPa) = 85.84684 75.24102 26.66976
#
# Poissons Ratio (x) = 0.22321 0.21423
# Poissons Ratio (y) = 0.25467 0.16426
# Poissons Ratio (z) = 0.68957 0.46341
#
# Static dielectric constant tensor:
#      x y z
#    x 3.412330 0.000000 0.000000 
#    y 0.000000 3.226310 0.000000 
#    z 0.000000 0.000000 2.940310 
# 
# 
# High freq. dielectric constant tensor:
#      x y z
#    x 1.657750 0.000000 0.000000 
#    y 0.000000 1.654120 0.000000 
#    z 0.000000 0.000000 1.643040 
# 
# From -- ./inp_files/2665.got.cif
#   From: 2010.03.12/outbox.cif.g09.slc.cpg/sg49_2_cif.got.tgz:2665.got - 2010.04.14 03:58:27.
