data_PCOD8202872
_publ_section_title
;
Structure prediction by ZEFSAII (Michael W. Deem and Ramdas Pophale) SiO2 
 PCOD8202872
Probable space group: P C C M
;
_chemical_formula_sum "Si O2"
_cell_formula_units_Z 64
_cell_length_a 17.287803
_cell_length_b 13.489299
_cell_length_c 14.640514
_cell_angle_alpha 90.000000
_cell_angle_beta 90.000000
_cell_angle_gamma 90.000000
_cell_volume 3414.172897
_symmetry_space_group_name_H-M "P C C M"
_symmetry_group_IT_number 49
_symmetry_cell_setting 'orthorhombic'
loop_
_space_group_symop_operation_xyz
x,y,z
-x,-y,z
x,-y,1/2-z
-x,y,1/2-z
-x,-y,-z
x,y,-z
-x,y,1/2+z
x,-y,1/2+z
loop_
_atom_site_type_symbol
_atom_site_label
_atom_site_fract_x
_atom_site_fract_y
_atom_site_fract_z
Si Si1 0.409597 0.500000 0.645435
Si Si2 0.176524 0.384556 0.250000
Si Si3 0.697449 0.777455 0.250000
Si Si4 0.091172 0.736658 0.894711
Si Si5 0.908828 0.736658 0.105289
Si Si6 0.588273 0.285795 0.601310
Si Si7 0.411726 0.714205 0.101309
Si Si8 0.150367 0.114740 0.750000
O O1 0.500000 0.500000 0.629049
O O2 0.385404 0.500000 0.750000
O O3 0.378033 0.601395 0.600716
O O4 0.378034 0.398606 0.600715
O O5 0.194753 0.500000 0.250000
O O6 0.257070 0.326416 0.249998
O O7 0.129158 0.356092 0.341709
O O8 0.129157 0.356093 0.158291
O O9 0.642383 0.784147 0.161944
O O10 0.642384 0.784145 0.338056
O O11 0.756914 0.869052 0.250000
O O12 0.114607 0.837142 0.841624
O O13 0.000000 0.722651 0.891623
O O14 0.120401 0.741305 0.000000
O O15 0.885393 0.837142 0.158376
O O16 0.879600 0.741306 0.000000
O O17 0.591604 0.242019 0.500000
O O18 0.500000 0.284433 0.639209
O O19 0.408396 0.757981 0.000000
O O20 0.129587 0.000000 0.750000
#
# Coordination Sequence:
#
# PCOD8202872 Si02
#       8
#     8   8   8   8   8   8   8   8
#     4   9  15  25  43  66  97 129 162 207 256 302
#     4  10  22  35  50  77 117 158 189 212 244 300
#     4  10  21  34  52  72 104 137 176 217 261 315
#     4   9  19  37  60  85 111 138 175 222 264 307
#     4   9  19  37  60  85 111 138 175 222 264 307
#     4  10  19  31  49  71  97 133 176 221 265 306
#     4  10  19  31  49  71  97 133 176 221 265 306
#     4  10  22  39  58  80 108 138 170 216 276 337
#
# _framework density 18.74539
#
# number of rings (size 3 to 8) (size 9 to 14) (size 15 to 20)
#    0.000    2.625    1.250    2.250    1.750    8.500 
#    0.000    2.500    0.000    1.500    0.000    1.750 
#    0.000    0.000    0.000    0.000    0.000    0.000 
#
# Total GULP energy -793241.874917 kJ/mol
# GULP energy per Si atom -12394.404296 kJ/mol
# Density = 1.870273 g / cm^3
# Si number density = 18.745390 Si / 1000 Ang^3
#
#
#
# Elastic Constant Matrix: (Units=GPa)
#
#
# Indices 1 2 3 4 5 6 
#
# 1 80.7313 2.3734 44.5508 0.0000 0.0000 0.0000
# 2 2.3734 64.1524 18.8841 0.0000 0.0000 0.0000
# 3 44.5508 18.8841 150.8394 0.0000 0.0000 0.0000
# 4 0.0000 0.0000 0.0000 12.4962 0.0000 0.0000
# 5 0.0000 0.0000 0.0000 0.0000 21.2326 0.0000
# 6 0.0000 0.0000 0.0000 0.0000 0.0000 13.1353
#
#
#
# Elastic Compliance Matrix: (Units=1/GPa)
#
#
# Indices 1 2 3 4 5 6 
#
# 1 0.014835 0.000769 -0.004478 0.000000 0.000000 0.000000
# 2 0.000769 0.016224 -0.002258 0.000000 0.000000 0.000000
# 3 -0.004478 -0.002258 0.008235 0.000000 0.000000 0.000000
# 4 0.000000 0.000000 0.000000 0.080024 0.000000 0.000000
# 5 0.000000 0.000000 0.000000 0.000000 0.047097 0.000000
# 6 0.000000 0.000000 0.000000 0.000000 0.000000 0.076131
#
#
# Mechanical properties :
#
#
# Convention : Reuss Voigt Hill
#
# Bulk Modulus (GPa) = 36.54934 47.48219 42.01577
# Shear Modulus (GPa) = 18.96808 24.70049 21.83429
#
# Velocity S-wave (km/s) = 3.18446 3.63393 3.41659
# Velocity P-wave (km/s) = 5.74988 6.55685 6.16658
#
# Compressibility (1/GPa) = 0.02736027
#
# Stress axis : x y z
#
# Youngs Moduli (GPa) = 67.40700 61.63635 121.43488
#
# Poissons Ratio (x) = -0.04742 0.54378
# Poissons Ratio (y) = -0.05185 0.27424
# Poissons Ratio (z) = 0.30184 0.13920
#
# Static dielectric constant tensor:
#      x y z
#    x 3.455230 0.000000 0.000000 
#    y 0.000000 3.005630 0.000000 
#    z 0.000000 0.000000 3.616360 
# 
# 
# High freq. dielectric constant tensor:
#      x y z
#    x 1.730650 0.000000 0.000000 
#    y 0.000000 1.678390 0.000000 
#    z 0.000000 0.000000 1.737700 
# 
# From -- ./inp_files/14236.got.cif
#   From: 2010.03.12/outbox.cif.g09.slc.cpg/sg49_8_cif.got.tgz:14236.got - 2010.04.14 03:58:27.
