data_PCOD8202228
_publ_section_title
;
Structure prediction by ZEFSAII (Michael W. Deem and Ramdas Pophale) SiO2 
 PCOD8202228
Probable space group: P C C M
;
_chemical_formula_sum "Si O2"
_cell_formula_units_Z 48
_cell_length_a 5.200922
_cell_length_b 21.721997
_cell_length_c 28.136762
_cell_angle_alpha 90.000000
_cell_angle_beta 90.000000
_cell_angle_gamma 90.000000
_cell_volume 3178.734145
_symmetry_space_group_name_H-M "P C C M"
_symmetry_group_IT_number 49
_symmetry_cell_setting 'orthorhombic'
loop_
_space_group_symop_operation_xyz
x,y,z
-x,-y,z
x,-y,1/2-z
-x,y,1/2-z
-x,-y,-z
x,y,-z
-x,y,1/2+z
x,-y,1/2+z
loop_
_atom_site_type_symbol
_atom_site_label
_atom_site_fract_x
_atom_site_fract_y
_atom_site_fract_z
Si Si1 0.747991 0.960022 0.623274
Si Si2 0.753281 0.069334 0.229287
Si Si3 0.967936 0.359144 0.556301
Si Si4 0.608859 0.851444 0.445275
Si Si5 0.876787 0.224159 0.445442
Si Si6 0.463416 0.568416 0.056228
O O1 0.789250 0.925261 0.672860
O O2 0.674074 0.914096 0.581411
O O3 0.500000 0.000000 0.632738
O O4 0.000000 0.000000 0.609209
O O5 0.500000 0.103059 0.250000
O O6 0.000000 0.104993 0.250000
O O7 0.752564 0.000000 0.250000
O O8 0.004048 0.353312 0.500000
O O9 0.921772 0.291061 0.578431
O O10 0.719152 0.396751 0.571080
O O11 0.217870 0.394505 0.577547
O O12 0.556107 0.869144 0.500000
O O13 0.359014 0.815940 0.423171
O O14 0.854827 0.809174 0.439428
O O15 0.797649 0.234200 0.500000
O O16 0.500000 0.500000 0.077682
O O17 0.427012 0.563748 0.000000
#
# Coordination Sequence:
#
# PCOD8202228 Si02
#       6
#     8   8   8   8   8   8
#     4  12  21  31  48  65  81 104 127 154 208 264
#     4  10  16  30  47  65  83  99 120 150 186 245
#     4   9  15  23  37  50  63  94 129 155 194 241
#     4  10  21  33  43  58  80 103 132 173 205 235
#     4   9  17  31  44  53  70 100 139 172 197 229
#     4   9  15  21  30  50  75  91 112 155 206 246
#
# _framework density 15.100351
#
# number of rings (size 3 to 8) (size 9 to 14) (size 15 to 20)
#    0.000    2.167    3.333    2.500    0.000    6.667 
#    0.000    0.000    0.000    0.000    0.000    0.000 
#    0.000    0.000    0.000    0.000    0.000    0.000 
#
# Total GULP energy -594752.860112 kJ/mol
# GULP energy per Si atom -12390.684586 kJ/mol
# Density = 1.506598 g / cm^3
# Si number density = 15.100351 Si / 1000 Ang^3
#
#
#
# Elastic Constant Matrix: (Units=GPa)
#
#
# Indices 1 2 3 4 5 6 
#
# 1 126.2742 34.9525 21.4575 0.0000 0.0000 0.0000
# 2 34.9525 61.4568 22.5489 0.0000 0.0000 0.0000
# 3 21.4575 22.5489 37.3074 0.0000 0.0000 0.0000
# 4 0.0000 0.0000 0.0000 0.0846 0.0000 0.0000
# 5 0.0000 0.0000 0.0000 0.0000 9.8159 0.0000
# 6 0.0000 0.0000 0.0000 0.0000 0.0000 20.7464
#
#
#
# Elastic Compliance Matrix: (Units=1/GPa)
#
#
# Indices 1 2 3 4 5 6 
#
# 1 0.009631 -0.004427 -0.002864 0.000000 0.000000 0.000000
# 2 -0.004427 0.022943 -0.011321 0.000000 0.000000 0.000000
# 3 -0.002864 -0.011321 0.035294 0.000000 0.000000 0.000000
# 4 0.000000 0.000000 0.000000 11.824304 0.000000 0.000000
# 5 0.000000 0.000000 0.000000 0.000000 0.101875 0.000000
# 6 0.000000 0.000000 0.000000 0.000000 0.000000 0.048201
#
#
# Mechanical properties :
#
#
# Convention : Reuss Voigt Hill
#
# Bulk Modulus (GPa) = 32.63164 42.55070 37.59117
# Shear Modulus (GPa) = 0.41358 15.86801 8.14079
#
# Velocity S-wave (km/s) = 0.52391 3.24518 2.32440
# Velocity P-wave (km/s) = 4.69284 6.50241 5.67028
#
# Compressibility (1/GPa) = 0.03064511
#
# Stress axis : x y z
#
# Youngs Moduli (GPa) = 103.82854 43.58635 28.33357
#
# Poissons Ratio (x) = 0.19295 0.08114
# Poissons Ratio (y) = 0.45963 0.32076
# Poissons Ratio (z) = 0.29735 0.49343
#
# Static dielectric constant tensor:
#      x y z
#    x 4.709700 0.000000 0.000000 
#    y 0.000000 2.911820 0.000000 
#    z 0.000000 0.000000 2.575550 
# 
# 
# High freq. dielectric constant tensor:
#      x y z
#    x 1.613550 0.000000 0.000000 
#    y 0.000000 1.560810 0.000000 
#    z 0.000000 0.000000 1.503370 
# 
# From -- ./inp_files/25870.got.cif
#   From: 2010.03.12/outbox.cif.g09.slc.cpg/sg49_13_cif.got.tgz:25870.got - 2010.04.14 03:58:27.
