data_PCOD8202932
_publ_section_title
;
Structure prediction by ZEFSAII (Michael W. Deem and Ramdas Pophale) SiO2 
 PCOD8202932
Probable space group: P C C M
;
_chemical_formula_sum "Si O2"
_cell_formula_units_Z 64
_cell_length_a 28.402439
_cell_length_b 14.836244
_cell_length_c 8.930147
_cell_angle_alpha 90.000000
_cell_angle_beta 90.000000
_cell_angle_gamma 90.000000
_cell_volume 3763.034594
_symmetry_space_group_name_H-M "P C C M"
_symmetry_group_IT_number 49
_symmetry_cell_setting 'orthorhombic'
loop_
_space_group_symop_operation_xyz
x,y,z
-x,-y,z
x,-y,1/2-z
-x,y,1/2-z
-x,-y,-z
x,y,-z
-x,y,1/2+z
x,-y,1/2+z
loop_
_atom_site_type_symbol
_atom_site_label
_atom_site_fract_x
_atom_site_fract_y
_atom_site_fract_z
Si Si1 0.591556 0.910560 0.175901
Si Si2 0.627381 0.591693 0.822866
Si Si3 0.234256 0.783408 0.324328
Si Si4 0.852133 0.095959 0.325917
Si Si5 0.547706 0.724615 0.173413
Si Si6 0.733957 0.409366 0.325755
Si Si7 0.691714 0.907794 0.678174
Si Si8 0.955755 0.097104 0.675164
O O1 0.555327 0.830131 0.205601
O O2 0.640313 0.887857 0.257156
O O3 0.569152 0.000000 0.250000
O O4 0.601239 0.925153 0.000000
O O5 0.608807 0.500000 0.750000
O O6 0.592981 0.670603 0.764425
O O7 0.680780 0.612125 0.769483
O O8 0.625206 0.582885 0.000000
O O9 0.244963 0.798869 0.500000
O O10 0.184993 0.828279 0.274550
O O11 0.233100 0.676546 0.287394
O O12 0.275323 0.826080 0.226025
O O13 0.847388 0.075444 0.500000
O O14 0.904003 0.138046 0.290186
O O15 0.842144 0.000000 0.250000
O O16 0.500000 0.691139 0.250000
O O17 0.541792 0.704523 0.000000
O O18 0.754259 0.500000 0.250000
O O19 0.733640 0.429409 0.500000
O O20 0.689981 0.916920 0.500000
O O21 0.711989 0.000000 0.750000
O O22 0.965266 0.089684 0.500000
O O23 0.000000 0.151893 0.750000
O O24 0.955107 0.000000 0.750000
#
# Coordination Sequence:
#
# PCOD8202932 Si02
#       8
#     8   8   8   8   8   8   8   8
#     4  10  20  36  54  71  92 121 155 190 224 264
#     4   9  18  34  53  73  93 117 145 177 217 265
#     4  10  19  32  48  67  95 129 157 190 234 278
#     4   9  18  29  42  62  91 126 163 196 232 275
#     4  10  22  37  53  72  96 121 147 179 221 268
#     4   9  18  33  53  72  93 119 151 188 228 273
#     4  11  21  32  48  71  96 124 157 192 226 269
#     4   9  15  24  38  57  81 115 158 199 234 272
#
# _framework density 17.007550999999999
#
# number of rings (size 3 to 8) (size 9 to 14) (size 15 to 20)
#    0.000    2.375    0.000    4.125    0.000    6.500 
#    0.000    5.000    0.000    0.000    0.000    0.000 
#    0.000    0.500    0.000    6.250    0.000    0.000 
#
# Total GULP energy -793310.962670 kJ/mol
# GULP energy per Si atom -12395.483792 kJ/mol
# Density = 1.696884 g / cm^3
# Si number density = 17.007551 Si / 1000 Ang^3
#
#
#
# Elastic Constant Matrix: (Units=GPa)
#
#
# Indices 1 2 3 4 5 6 
#
# 1 84.9237 51.0815 29.8142 0.0000 0.0000 0.0000
# 2 51.0815 97.2099 33.3972 0.0000 0.0000 0.0000
# 3 29.8142 33.3972 64.3905 0.0000 0.0000 0.0000
# 4 0.0000 0.0000 0.0000 24.7459 0.0000 0.0000
# 5 0.0000 0.0000 0.0000 0.0000 -13.1066 0.0000
# 6 0.0000 0.0000 0.0000 0.0000 0.0000 15.4445
#
#
#
# Elastic Compliance Matrix: (Units=1/GPa)
#
#
# Indices 1 2 3 4 5 6 
#
# 1 0.018103 -0.008071 -0.004196 0.000000 0.000000 0.000000
# 2 -0.008071 0.016116 -0.004622 0.000000 0.000000 0.000000
# 3 -0.004196 -0.004622 0.019870 0.000000 0.000000 0.000000
# 4 0.000000 0.000000 0.000000 0.040411 0.000000 0.000000
# 5 0.000000 0.000000 0.000000 0.000000 -0.076298 0.000000
# 6 0.000000 0.000000 0.000000 0.000000 0.000000 0.064748
#
#
# Mechanical properties :
#
#
# Convention : Reuss Voigt Hill
#
# Bulk Modulus (GPa) = 49.23263 52.79000 51.01131
# Shear Modulus (GPa) = 40.48610 14.23215 27.35913
#
# Velocity S-wave (km/s) = 4.88431 2.89591 4.01514
# Velocity P-wave (km/s) = 7.79865 6.50294 7.18009
#
# Compressibility (1/GPa) = 0.02031173
#
# Stress axis : x y z
#
# Youngs Moduli (GPa) = 55.23885 62.04969 50.32670
#
# Poissons Ratio (x) = 0.50082 0.21116
# Poissons Ratio (y) = 0.44585 0.23260
# Poissons Ratio (z) = 0.23178 0.28678
#
# Static dielectric constant tensor:
#      x y z
#    x 3.797960 0.000000 0.000000 
#    y 0.000000 3.129870 0.000000 
#    z 0.000000 0.000000 3.204980 
# 
# 
# High freq. dielectric constant tensor:
#      x y z
#    x 1.646600 0.000000 0.000000 
#    y 0.000000 1.632810 0.000000 
#    z 0.000000 0.000000 1.658620 
# 
# From -- ./inp_files/7081.got.cif
#   From: 2010.03.12/outbox.cif.g09.slc.cpg/sg49_4_cif.got.tgz:7081.got - 2010.04.14 03:58:27.
