data_PCOD8202214
_publ_section_title
;
Structure prediction by ZEFSAII (Michael W. Deem and Ramdas Pophale) SiO2 
 PCOD8202214
Probable space group: P C C M
;
_chemical_formula_sum "Si O2"
_cell_formula_units_Z 40
_cell_length_a 15.303901
_cell_length_b 20.702994
_cell_length_c 8.511789
_cell_angle_alpha 90.000000
_cell_angle_beta 90.000000
_cell_angle_gamma 90.000000
_cell_volume 2696.846036
_symmetry_space_group_name_H-M "P C C M"
_symmetry_group_IT_number 49
_symmetry_cell_setting 'orthorhombic'
loop_
_space_group_symop_operation_xyz
x,y,z
-x,-y,z
x,-y,1/2-z
-x,y,1/2-z
-x,-y,-z
x,y,-z
-x,y,1/2+z
x,-y,1/2+z
loop_
_atom_site_type_symbol
_atom_site_label
_atom_site_fract_x
_atom_site_fract_y
_atom_site_fract_z
Si Si1 0.402189 0.804468 0.686139
Si Si2 0.401938 0.934795 0.814149
Si Si3 0.088107 0.427671 0.686116
Si Si4 0.402510 0.672078 0.813887
Si Si5 0.732802 0.427966 0.313915
O O1 0.500000 0.805172 0.750000
O O2 0.400710 0.803590 0.500000
O O3 0.354340 0.869697 0.749586
O O4 0.358271 0.739081 0.752799
O O5 0.500000 0.934810 0.750000
O O6 0.354509 0.000000 0.750000
O O7 0.401490 0.934710 0.000000
O O8 0.087342 0.500000 0.750000
O O9 0.088915 0.426641 0.500000
O O10 0.176715 0.395236 0.752191
O O11 0.000000 0.392212 0.750000
O O12 0.500000 0.664373 0.750000
O O13 0.347691 0.612682 0.749477
O O14 0.403802 0.671664 0.000000
O O15 0.722015 0.500000 0.250000
O O16 0.732887 0.429074 0.500000
#
# Coordination Sequence:
#
# PCOD8202214 Si02
#       5
#     8   8   8   8   8
#     4  10  17  27  40  55  73  98 129 164 201 241
#     4  10  16  23  34  51  72  95 122 158 198 238
#     4  10  17  28  45  66  87 108 129 158 198 246
#     4  11  21  34  47  61  79 106 140 176 212 249
#     4  11  21  34  48  65  84 106 135 172 211 251
#
# _framework density 14.832141999999999
#
# number of rings (size 3 to 8) (size 9 to 14) (size 15 to 20)
#    0.000    1.600    0.000   13.800    0.000    0.400 
#    0.000    2.000    0.000    0.000    0.000    0.000 
#    0.000    0.000    0.000    0.000    0.000    1.000 
#
# Total GULP energy -495724.791993 kJ/mol
# GULP energy per Si atom -12393.119800 kJ/mol
# Density = 1.479838 g / cm^3
# Si number density = 14.832142 Si / 1000 Ang^3
#
#
#
# Elastic Constant Matrix: (Units=GPa)
#
#
# Indices 1 2 3 4 5 6 
#
# 1 62.0036 41.6360 37.2655 0.0000 0.0000 0.0000
# 2 41.6360 101.1126 52.4712 0.0000 0.0000 0.0000
# 3 37.2655 52.4712 184.8280 0.0000 0.0000 0.0000
# 4 0.0000 0.0000 0.0000 26.3885 0.0000 0.0000
# 5 0.0000 0.0000 0.0000 0.0000 21.3363 0.0000
# 6 0.0000 0.0000 0.0000 0.0000 0.0000 0.1935
#
#
#
# Elastic Compliance Matrix: (Units=1/GPa)
#
#
# Indices 1 2 3 4 5 6 
#
# 1 0.023093 -0.008319 -0.002295 0.000000 0.000000 0.000000
# 2 -0.008319 0.014595 -0.002466 0.000000 0.000000 0.000000
# 3 -0.002295 -0.002466 0.006573 0.000000 0.000000 0.000000
# 4 0.000000 0.000000 0.000000 0.037895 0.000000 0.000000
# 5 0.000000 0.000000 0.000000 0.000000 0.046868 0.000000
# 6 0.000000 0.000000 0.000000 0.000000 0.000000 5.168391
#
#
# Mechanical properties :
#
#
# Convention : Reuss Voigt Hill
#
# Bulk Modulus (GPa) = 55.23977 67.85441 61.54709
# Shear Modulus (GPa) = 0.93816 24.02176 12.47996
#
# Velocity S-wave (km/s) = 0.79617 4.02876 2.90386
# Velocity P-wave (km/s) = 6.17813 8.21515 7.26836
#
# Compressibility (1/GPa) = 0.01810290
#
# Stress axis : x y z
#
# Youngs Moduli (GPa) = 43.30284 68.51570 152.13251
#
# Poissons Ratio (x) = 0.56995 0.34907
# Poissons Ratio (y) = 0.36022 0.37520
# Poissons Ratio (z) = 0.09936 0.16898
#
# Static dielectric constant tensor:
#      x y z
#    x 2.964210 0.000000 0.000000 
#    y 0.000000 3.787500 0.000000 
#    z 0.000000 0.000000 3.070100 
# 
# 
# High freq. dielectric constant tensor:
#      x y z
#    x 1.510590 0.000000 0.000000 
#    y 0.000000 1.559620 0.000000 
#    z 0.000000 0.000000 1.599690 
# 
# From -- ./inp_files/3802.got.cif
#   From: 2010.03.12/outbox.cif.g09.slc.cpg/sg49_2_cif.got.tgz:3802.got - 2010.04.14 03:58:27.
