data_PCOD8202912
_publ_section_title
;
Structure prediction by ZEFSAII (Michael W. Deem and Ramdas Pophale) SiO2 
 PCOD8202912
Probable space group: P C C M
;
_chemical_formula_sum "Si O2"
_cell_formula_units_Z 64
_cell_length_a 15.302039
_cell_length_b 24.492322
_cell_length_c 8.816300
_cell_angle_alpha 90.000000
_cell_angle_beta 90.000000
_cell_angle_gamma 90.000000
_cell_volume 3304.194659
_symmetry_space_group_name_H-M "P C C M"
_symmetry_group_IT_number 49
_symmetry_cell_setting 'orthorhombic'
loop_
_space_group_symop_operation_xyz
x,y,z
-x,-y,z
x,-y,1/2-z
-x,y,1/2-z
-x,-y,-z
x,y,-z
-x,y,1/2+z
x,-y,1/2+z
loop_
_atom_site_type_symbol
_atom_site_label
_atom_site_fract_x
_atom_site_fract_y
_atom_site_fract_z
Si Si1 0.909687 0.940513 0.681391
Si Si2 0.769923 0.443186 0.180102
Si Si3 0.414023 0.598364 0.825974
Si Si4 0.356134 0.283809 0.328848
Si Si5 0.182943 0.738546 0.325446
Si Si6 0.410661 0.836346 0.175476
Si Si7 0.089431 0.355043 0.677858
Si Si8 0.228084 0.139757 0.179175
O O1 0.916219 0.943059 0.500000
O O2 0.827525 0.904664 0.731227
O O3 0.000000 0.916057 0.750000
O O4 0.894149 0.000000 0.750000
O O5 0.801780 0.500000 0.250000
O O6 0.673620 0.428227 0.243558
O O7 0.835005 0.395749 0.234979
O O8 0.770326 0.447184 0.000000
O O9 0.500000 0.572786 0.750000
O O10 0.415767 0.663627 0.799270
O O11 0.418850 0.582916 0.000000
O O12 0.316665 0.286159 0.500000
O O13 0.277511 0.286253 0.210472
O O14 0.412252 0.229176 0.306421
O O15 0.161294 0.729352 0.500000
O O16 0.109752 0.706883 0.229824
O O17 0.183230 0.802349 0.282490
O O18 0.500000 0.859039 0.250000
O O19 0.327599 0.862112 0.261297
O O20 0.407065 0.853952 0.000000
O O21 0.079152 0.355934 0.500000
O O22 0.000000 0.375936 0.750000
O O23 0.228386 0.127916 0.000000
#
# Coordination Sequence:
#
# PCOD8202912 Si02
#       8
#     8   8   8   8   8   8   8   8
#     4  11  22  39  63  90 120 157 200 247 298 347
#     4  10  23  42  61  79 107 141 179 229 282 335
#     4  10  20  35  54  80 109 142 180 222 275 330
#     4   9  17  32  52  75 111 149 185 228 277 332
#     4  10  20  34  56  85 116 150 188 228 278 335
#     4  10  19  31  51  80 116 159 199 241 290 340
#     4  11  23  41  62  84 112 143 180 227 280 342
#     4  10  21  37  57  86 122 158 200 245 288 343
#
# _framework density 19.369318
#
# number of rings (size 3 to 8) (size 9 to 14) (size 15 to 20)
#    0.000    1.875    1.250    3.375    0.000    5.000 
#    0.000    2.500    0.000    0.375    0.000    2.625 
#    0.000    0.000    0.000    0.000    0.000    0.000 
#
# Total GULP energy -793660.805487 kJ/mol
# GULP energy per Si atom -12400.950086 kJ/mol
# Density = 1.932523 g / cm^3
# Si number density = 19.369318 Si / 1000 Ang^3
#
#
#
# Elastic Constant Matrix: (Units=GPa)
#
#
# Indices 1 2 3 4 5 6 
#
# 1 134.4998 53.4697 56.8007 0.0000 0.0000 0.0000
# 2 53.4697 72.1529 41.7918 0.0000 0.0000 0.0000
# 3 56.8007 41.7918 93.0419 0.0000 0.0000 0.0000
# 4 0.0000 0.0000 0.0000 27.0740 0.0000 0.0000
# 5 0.0000 0.0000 0.0000 0.0000 37.9046 0.0000
# 6 0.0000 0.0000 0.0000 0.0000 0.0000 13.8827
#
#
#
# Elastic Compliance Matrix: (Units=1/GPa)
#
#
# Indices 1 2 3 4 5 6 
#
# 1 0.011739 -0.006148 -0.004405 0.000000 0.000000 0.000000
# 2 -0.006148 0.021953 -0.006107 0.000000 0.000000 0.000000
# 3 -0.004405 -0.006107 0.016180 0.000000 0.000000 0.000000
# 4 0.000000 0.000000 0.000000 0.036936 0.000000 0.000000
# 5 0.000000 0.000000 0.000000 0.000000 0.026382 0.000000
# 6 0.000000 0.000000 0.000000 0.000000 0.000000 0.072032
#
#
# Mechanical properties :
#
#
# Convention : Reuss Voigt Hill
#
# Bulk Modulus (GPa) = 60.41725 67.09099 63.75412
# Shear Modulus (GPa) = 22.31531 25.61442 23.96487
#
# Velocity S-wave (km/s) = 3.39794 3.64046 3.52129
# Velocity P-wave (km/s) = 6.83042 7.23765 7.03698
#
# Compressibility (1/GPa) = 0.01655156
#
# Stress axis : x y z
#
# Youngs Moduli (GPa) = 85.18258 45.55182 61.80310
#
# Poissons Ratio (x) = 0.28006 0.27226
# Poissons Ratio (y) = 0.52371 0.37745
# Poissons Ratio (z) = 0.37525 0.27820
#
# Static dielectric constant tensor:
#      x y z
#    x 3.550260 0.000000 0.000000 
#    y 0.000000 3.409480 0.000000 
#    z 0.000000 0.000000 3.539720 
# 
# 
# High freq. dielectric constant tensor:
#      x y z
#    x 1.756250 0.000000 0.000000 
#    y 0.000000 1.734620 0.000000 
#    z 0.000000 0.000000 1.758780 
# 
# From -- ./inp_files/4431.got.cif
#   From: 2010.03.12/outbox.cif.g09.slc.cpg/sg49_3_cif.got.tgz:4431.got - 2010.04.14 03:58:27.
