data_PCOD8202074
_publ_section_title
;
Structure prediction by ZEFSAII (Michael W. Deem and Ramdas Pophale) SiO2 
 PCOD8202074
Probable space group: P N N N
;
_chemical_formula_sum "Si O2"
_cell_formula_units_Z 34
_cell_length_a 16.520434
_cell_length_b 14.506946
_cell_length_c 6.770853
_cell_angle_alpha 90.000000
_cell_angle_beta 90.000000
_cell_angle_gamma 90.000000
_cell_volume 1622.709698
_symmetry_space_group_name_H-M "P N N N"
_symmetry_group_IT_number 48
_space_group.IT_coordinate_system_code '2'
_symmetry_cell_setting 'orthorhombic'
loop_
_space_group_symop_operation_xyz
x,y,z
1/2-x,1/2-y,z
x,1/2-y,1/2-z
1/2-x,y,1/2-z
-x,-y,-z
1/2+x,1/2+y,-z
-x,1/2+y,1/2+z
1/2+x,-y,1/2+z
loop_
_atom_site_type_symbol
_atom_site_label
_atom_site_fract_x
_atom_site_fract_y
_atom_site_fract_z
Si Si1 0.250000 0.250000 0.750000
Si Si2 0.637848 0.250000 0.250000
Si Si3 0.750000 0.403867 0.250000
Si Si4 0.462450 0.831045 0.096560
Si Si5 0.634690 0.829621 0.919602
Si Si6 0.174064 0.971359 0.369057
O O1 0.306050 0.308530 0.602115
O O2 0.688623 0.331957 0.143398
O O3 0.584326 0.293904 0.413324
O O4 0.699815 0.466695 0.401060
O O5 0.474680 0.750000 0.250000
O O6 0.409396 0.916641 0.181097
O O7 0.550249 0.859452 0.018782
O O8 0.630449 0.750000 0.750000
O O9 0.663417 0.921949 0.807794
O O10 0.250000 0.928905 0.250000
#
# Coordination Sequence:
#
# PCOD8202074 Si02
#       6
#     2   4   4   8   8   8
#     4  12  24  44  70  86 126 174 216 256 318 366
#     4   9  18  36  62  91 130 162 198 255 316 368
#     4   9  19  36  61  93 126 164 203 253 311 377
#     4  11  22  41  65  94 127 166 207 259 317 376
#     4  12  25  44  65  92 127 169 215 265 310 372
#     4  11  23  40  64  96 128 166 212 259 313 375
#
# _framework density 20.952607
#
# number of rings (size 3 to 8) (size 9 to 14) (size 15 to 20)
#    0.000    1.176    2.353    4.588    0.000    2.353 
#    0.000    1.176    0.000    0.000    0.000    0.000 
#    0.000    0.000    0.000    0.000    0.000    0.000 
#
# Total GULP energy -421226.768065 kJ/mol
# GULP energy per Si atom -12389.022590 kJ/mol
# Density = 2.090492 g / cm^3
# Si number density = 20.952607 Si / 1000 Ang^3
#
#
#
# Elastic Constant Matrix: (Units=GPa)
#
#
# Indices 1 2 3 4 5 6 
#
# 1 143.7128 31.5656 32.1635 0.0000 0.0000 0.0000
# 2 31.5656 100.1120 31.1213 0.0000 0.0000 0.0000
# 3 32.1635 31.1213 57.5733 0.0000 0.0000 0.0000
# 4 0.0000 0.0000 0.0000 46.0232 0.0000 0.0000
# 5 0.0000 0.0000 0.0000 0.0000 52.7662 0.0000
# 6 0.0000 0.0000 0.0000 0.0000 0.0000 23.4942
#
#
#
# Elastic Compliance Matrix: (Units=1/GPa)
#
#
# Indices 1 2 3 4 5 6 
#
# 1 0.008108 -0.001380 -0.003784 0.000000 0.000000 0.000000
# 2 -0.001380 0.012241 -0.005846 0.000000 0.000000 0.000000
# 3 -0.003784 -0.005846 0.022643 0.000000 0.000000 0.000000
# 4 0.000000 0.000000 0.000000 0.021728 0.000000 0.000000
# 5 0.000000 0.000000 0.000000 0.000000 0.018952 0.000000
# 6 0.000000 0.000000 0.000000 0.000000 0.000000 0.042564
#
#
# Mechanical properties :
#
#
# Convention : Reuss Voigt Hill
#
# Bulk Modulus (GPa) = 47.68083 54.56655 51.12369
# Shear Modulus (GPa) = 32.20683 38.22655 35.21669
#
# Velocity S-wave (km/s) = 3.92488 4.27597 4.10418
# Velocity P-wave (km/s) = 6.58373 7.10478 6.84921
#
# Compressibility (1/GPa) = 0.02097279
#
# Stress axis : x y z
#
# Youngs Moduli (GPa) = 123.33057 81.69039 44.16405
#
# Poissons Ratio (x) = 0.11276 0.16710
# Poissons Ratio (y) = 0.17024 0.25818
# Poissons Ratio (z) = 0.46663 0.47755
#
# Static dielectric constant tensor:
#      x y z
#    x 4.356840 0.000000 0.000000 
#    y 0.000000 3.129480 0.000000 
#    z 0.000000 0.000000 3.540500 
# 
# 
# High freq. dielectric constant tensor:
#      x y z
#    x 1.843600 0.000000 0.000000 
#    y 0.000000 1.822800 0.000000 
#    z 0.000000 0.000000 1.806940 
# 
# From -- ./inp_files/4070.got.cif
#   From: 2010.06.25/outbox.cif.g09.slc.cpg/sg48_3_cif.got.tgz:4070.got - 2010.06.26 18:06:46.
