data_PCOD8202138
_publ_section_title
;
Structure prediction by ZEFSAII (Michael W. Deem and Ramdas Pophale) SiO2 
 PCOD8202138
Probable space group: P N N N
;
_chemical_formula_sum "Si O2"
_cell_formula_units_Z 40
_cell_length_a 25.869920
_cell_length_b 7.636574
_cell_length_c 10.026914
_cell_angle_alpha 90.000000
_cell_angle_beta 90.000000
_cell_angle_gamma 90.000000
_cell_volume 1980.892649
_symmetry_space_group_name_H-M "P N N N"
_symmetry_group_IT_number 48
_space_group.IT_coordinate_system_code '2'
_symmetry_cell_setting 'orthorhombic'
loop_
_space_group_symop_operation_xyz
x,y,z
1/2-x,1/2-y,z
x,1/2-y,1/2-z
1/2-x,y,1/2-z
-x,-y,-z
1/2+x,1/2+y,-z
-x,1/2+y,1/2+z
1/2+x,-y,1/2+z
loop_
_atom_site_type_symbol
_atom_site_label
_atom_site_fract_x
_atom_site_fract_y
_atom_site_fract_z
Si Si1 0.190659 0.751374 0.907844
Si Si2 0.559914 0.046544 0.734674
Si Si3 0.945442 0.446593 0.227502
Si Si4 0.883615 0.942022 0.028282
Si Si5 0.619777 0.951043 0.988531
O O1 0.250000 0.750000 0.951800
O O2 0.184123 0.750000 0.750000
O O3 0.166404 0.577091 0.970796
O O4 0.164491 0.926111 0.965518
O O5 0.548919 0.250000 0.750000
O O6 0.506879 0.945865 0.761264
O O7 0.577699 0.003931 0.586374
O O8 0.603849 0.982435 0.836050
O O9 0.924608 0.250000 0.250000
O O10 0.917276 0.566674 0.336846
O O11 0.930067 0.511254 0.080565
O O12 0.861153 0.748612 0.002950
#
# Coordination Sequence:
#
# PCOD8202138 Si02
#       5
#     8   8   8   8   8
#     4  11  24  45  71  97 127 169 217 273 326 372
#     4  12  24  40  62  94 133 175 212 258 324 385
#     4  12  22  40  62  94 133 175 216 260 312 383
#     4  12  23  42  64  95 132 167 215 269 315 383
#     4  12  23  42  64  95 132 167 215 269 315 383
#
# _framework density 20.192917999999999
#
# number of rings (size 3 to 8) (size 9 to 14) (size 15 to 20)
#    0.000    0.200    6.000    4.800    0.000    0.800 
#    0.000    4.000    0.000    2.400    0.000    0.000 
#    0.000    0.000    0.000    0.000    0.000    0.000 
#
# Total GULP energy -496333.453994 kJ/mol
# GULP energy per Si atom -12408.336350 kJ/mol
# Density = 2.014696 g / cm^3
# Si number density = 20.192918 Si / 1000 Ang^3
#
#
#
# Elastic Constant Matrix: (Units=GPa)
#
#
# Indices 1 2 3 4 5 6 
#
# 1 129.6141 32.0195 19.8943 0.0000 0.0000 0.0000
# 2 32.0195 137.3246 3.9448 0.0000 0.0000 0.0000
# 3 19.8943 3.9448 66.9438 0.0000 0.0000 0.0000
# 4 0.0000 0.0000 0.0000 27.9806 0.0000 0.0000
# 5 0.0000 0.0000 0.0000 0.0000 101.0146 0.0000
# 6 0.0000 0.0000 0.0000 0.0000 0.0000 -3.0010
#
#
#
# Elastic Compliance Matrix: (Units=1/GPa)
#
#
# Indices 1 2 3 4 5 6 
#
# 1 0.008565 -0.001927 -0.002432 0.000000 0.000000 0.000000
# 2 -0.001927 0.007728 0.000117 0.000000 0.000000 0.000000
# 3 -0.002432 0.000117 0.015654 0.000000 0.000000 0.000000
# 4 0.000000 0.000000 0.000000 0.035739 0.000000 0.000000
# 5 0.000000 0.000000 0.000000 0.000000 0.009900 0.000000
# 6 0.000000 0.000000 0.000000 0.000000 0.000000 -0.333226
#
#
# Mechanical properties :
#
#
# Convention : Reuss Voigt Hill
#
# Bulk Modulus (GPa) = 42.61983 49.51106 46.06544
# Shear Modulus (GPa) = -20.89100 43.73377 11.42139
#
# Velocity S-wave (km/s) = -3.21996 4.65886 2.38084
# Velocity P-wave (km/s) = 2.70701 7.31521 5.51544
#
# Compressibility (1/GPa) = 0.02346326
#
# Stress axis : x y z
#
# Youngs Moduli (GPa) = 116.76098 129.39985 63.88297
#
# Poissons Ratio (x) = 0.24937 0.15534
# Poissons Ratio (y) = 0.22501 -0.00749
# Poissons Ratio (z) = 0.28392 -0.01518
#
# Static dielectric constant tensor:
#      x y z
#    x 3.476890 0.000000 0.000000 
#    y 0.000000 3.891370 0.000000 
#    z 0.000000 0.000000 3.777450 
# 
# 
# High freq. dielectric constant tensor:
#      x y z
#    x 1.770700 0.000000 0.000000 
#    y 0.000000 1.808350 0.000000 
#    z 0.000000 0.000000 1.796820 
# 
# From -- ./inp_files/9036.got.cif
#   From: 2010.06.25/outbox.cif.g09.slc.cpg/sg48_5_cif.got.tgz:9036.got - 2010.06.26 18:06:46.
