data_PCOD8203659
_publ_section_title
;
Structure prediction by ZEFSAII (Michael W. Deem and Ramdas Pophale) SiO2 
 PCOD8203659
Probable space group: P C C M
;
_chemical_formula_sum "Si O2"
_cell_formula_units_Z 48
_cell_length_a 9.071502
_cell_length_b 29.007610
_cell_length_c 9.375371
_cell_angle_alpha 90.000000
_cell_angle_beta 90.000000
_cell_angle_gamma 90.000000
_cell_volume 2467.059427
_symmetry_space_group_name_H-M "P C C M"
_symmetry_group_IT_number 49
_symmetry_cell_setting 'orthorhombic'
loop_
_space_group_symop_operation_xyz
x,y,z
-x,-y,z
x,-y,1/2-z
-x,y,1/2-z
-x,-y,-z
x,y,-z
-x,y,1/2+z
x,-y,1/2+z
loop_
_atom_site_type_symbol
_atom_site_label
_atom_site_fract_x
_atom_site_fract_y
_atom_site_fract_z
Si Si1 0.349494 0.641794 0.833118
Si Si2 0.149776 0.935269 0.000000
Si Si3 0.816025 0.955900 0.000000
Si Si4 0.653939 0.459197 0.166203
Si Si5 0.860077 0.816412 0.160511
Si Si6 0.675115 0.900202 0.764430
Si Si7 0.148704 0.288154 0.830713
O O1 0.500000 0.636885 0.750000
O O2 0.269359 0.591413 0.823837
O O3 0.267692 0.680738 0.745407
O O4 0.370045 0.655867 0.000000
O O5 0.229757 0.909678 0.126536
O O6 0.972565 0.928367 0.000000
O O7 0.171097 0.989720 0.000000
O O8 0.720191 0.941846 0.865648
O O9 0.745329 0.500000 0.250000
O O10 0.500000 0.456334 0.250000
O O11 0.631831 0.472419 0.000000
O O12 0.720322 0.849944 0.178185
O O13 0.808378 0.764933 0.200876
O O14 0.000000 0.833531 0.250000
O O15 0.917507 0.817172 0.000000
O O16 0.500000 0.901030 0.750000
O O17 0.000000 0.300727 0.750000
O O18 0.137180 0.298511 0.000000
#
# Coordination Sequence:
#
# PCOD8203659 Si02
#       7
#     8   4   4   8   8   8   8
#     4  10  20  34  53  82 116 153 194 243 300 354
#     4  11  25  41  67  91 115 163 205 239 290 347
#     4  11  23  45  65  87 121 159 207 243 280 359
#     4   9  16  26  44  71 106 145 190 238 289 349
#     4  10  22  41  64  87 114 152 196 237 285 354
#     4  12  25  40  61  93 126 154 191 248 304 349
#     4  10  21  38  60  85 112 150 195 242 291 352
#
# _framework density 19.456363
#
# number of rings (size 3 to 8) (size 9 to 14) (size 15 to 20)
#    0.000    1.667    0.833    4.500    1.167    6.667 
#    0.000    0.000    0.000    0.500    0.000    3.500 
#    0.000    0.000    0.000    0.000    0.000    0.000 
#
# Total GULP energy -594741.416973 kJ/mol
# GULP energy per Si atom -12390.446187 kJ/mol
# Density = 1.941208 g / cm^3
# Si number density = 19.456363 Si / 1000 Ang^3
#
#
#
# Elastic Constant Matrix: (Units=GPa)
#
#
# Indices 1 2 3 4 5 6 
#
# 1 88.7612 34.7777 25.4760 0.0000 0.0000 0.0000
# 2 34.7777 89.0751 28.6518 0.0000 0.0000 0.0000
# 3 25.4760 28.6518 125.9869 0.0000 0.0000 0.0000
# 4 0.0000 0.0000 0.0000 45.3861 0.0000 0.0000
# 5 0.0000 0.0000 0.0000 0.0000 33.3473 0.0000
# 6 0.0000 0.0000 0.0000 0.0000 0.0000 9.8354
#
#
#
# Elastic Compliance Matrix: (Units=1/GPa)
#
#
# Indices 1 2 3 4 5 6 
#
# 1 0.013618 -0.004781 -0.001666 0.000000 0.000000 0.000000
# 2 -0.004781 0.013791 -0.002170 0.000000 0.000000 0.000000
# 3 -0.001666 -0.002170 0.008768 0.000000 0.000000 0.000000
# 4 0.000000 0.000000 0.000000 0.022033 0.000000 0.000000
# 5 0.000000 0.000000 0.000000 0.000000 0.029987 0.000000
# 6 0.000000 0.000000 0.000000 0.000000 0.000000 0.101674
#
#
# Mechanical properties :
#
#
# Convention : Reuss Voigt Hill
#
# Bulk Modulus (GPa) = 52.79065 53.51494 53.15279
# Shear Modulus (GPa) = 23.42818 32.04160 27.73489
#
# Velocity S-wave (km/s) = 3.47384 4.06254 3.77966
# Velocity P-wave (km/s) = 6.57889 7.04063 6.81367
#
# Compressibility (1/GPa) = 0.01894275
#
# Stress axis : x y z
#
# Youngs Moduli (GPa) = 73.43429 72.51159 114.05489
#
# Poissons Ratio (x) = 0.34666 0.19006
# Poissons Ratio (y) = 0.35107 0.24745
# Poissons Ratio (z) = 0.12237 0.15732
#
# Static dielectric constant tensor:
#      x y z
#    x 3.200310 0.000000 0.000000 
#    y 0.000000 4.126050 0.000000 
#    z 0.000000 0.000000 3.755990 
# 
# 
# High freq. dielectric constant tensor:
#      x y z
#    x 1.719520 0.000000 0.000000 
#    y 0.000000 1.779710 0.000000 
#    z 0.000000 0.000000 1.780850 
# 
# From -- ./inp_files/2143.got.cif
#   From: 2010.03.12/outbox.cif.g09.slc.cpg/sg49_2_cif.got.tgz:2143.got - 2010.04.14 03:58:27.
