data_PCOD8203205
_publ_section_title
;
Structure prediction by ZEFSAII (Michael W. Deem and Ramdas Pophale) SiO2 
 PCOD8203205
Probable space group: P C C M
;
_chemical_formula_sum "Si O2"
_cell_formula_units_Z 64
_cell_length_a 14.882830
_cell_length_b 24.906906
_cell_length_c 8.742215
_cell_angle_alpha 90.000000
_cell_angle_beta 90.000000
_cell_angle_gamma 90.000000
_cell_volume 3240.610134
_symmetry_space_group_name_H-M "P C C M"
_symmetry_group_IT_number 49
_symmetry_cell_setting 'orthorhombic'
loop_
_space_group_symop_operation_xyz
x,y,z
-x,-y,z
x,-y,1/2-z
-x,y,1/2-z
-x,-y,-z
x,y,-z
-x,y,1/2+z
x,-y,1/2+z
loop_
_atom_site_type_symbol
_atom_site_label
_atom_site_fract_x
_atom_site_fract_y
_atom_site_fract_z
Si Si1 0.282298 0.055402 0.817899
Si Si2 0.268829 0.649713 0.678440
Si Si3 0.328992 0.162679 0.679838
Si Si4 0.091537 0.311684 0.681490
Si Si5 0.404795 0.557148 0.681629
Si Si6 0.911895 0.086176 0.328969
Si Si7 0.411360 0.739091 0.678977
Si Si8 0.148961 0.202122 0.175101
O O1 0.342687 0.104405 0.757044
O O2 0.180438 0.064195 0.754467
O O3 0.320590 0.000000 0.750000
O O4 0.285850 0.055422 0.000000
O O5 0.245571 0.646441 0.500000
O O6 0.176077 0.651129 0.772495
O O7 0.327359 0.598661 0.730242
O O8 0.324284 0.703435 0.717261
O O9 0.337737 0.156151 0.500000
O O10 0.404672 0.202532 0.743185
O O11 0.234665 0.189035 0.723227
O O12 0.084993 0.307484 0.500000
O O13 0.098618 0.252736 0.754716
O O14 0.000000 0.337545 0.750000
O O15 0.376353 0.500000 0.750000
O O16 0.500000 0.576292 0.750000
O O17 0.414946 0.553495 0.500000
O O18 0.914638 0.064864 0.500000
O O19 0.916405 0.150863 0.321592
O O20 0.000000 0.061790 0.250000
O O21 0.500000 0.710976 0.750000
O O22 0.424659 0.745228 0.500000
O O23 0.179321 0.214547 0.000000
#
# Coordination Sequence:
#
# PCOD8203205 Si02
#       8
#     8   8   8   8   8   8   8   8
#     4  10  21  37  54  74  99 135 180 231 286 343
#     4  10  22  39  59  85 123 163 201 247 298 345
#     4  11  21  35  56  82 110 145 186 228 284 348
#     4  12  24  36  55  81 114 157 203 248 296 350
#     4  10  20  36  60  91 125 165 205 249 297 351
#     4   9  19  31  46  68  97 132 172 221 277 334
#     4  11  22  37  59  87 122 157 190 235 287 350
#     4  10  19  34  52  74 107 145 188 236 285 338
#
# _framework density 19.749368
#
# number of rings (size 3 to 8) (size 9 to 14) (size 15 to 20)
#    0.000    1.625    1.250    5.625    0.000    5.750 
#    0.000    1.250    0.000    0.750    0.000    5.250 
#    0.000    0.000    0.000    0.000    0.000    0.000 
#
# Total GULP energy -793638.332064 kJ/mol
# GULP energy per Si atom -12400.598938 kJ/mol
# Density = 1.970442 g / cm^3
# Si number density = 19.749368 Si / 1000 Ang^3
#
#
#
# Elastic Constant Matrix: (Units=GPa)
#
#
# Indices 1 2 3 4 5 6 
#
# 1 89.4237 38.8776 41.3523 0.0000 0.0000 0.0000
# 2 38.8776 109.5717 44.8346 0.0000 0.0000 0.0000
# 3 41.3523 44.8346 116.9535 0.0000 0.0000 0.0000
# 4 0.0000 0.0000 0.0000 27.5551 0.0000 0.0000
# 5 0.0000 0.0000 0.0000 0.0000 31.1125 0.0000
# 6 0.0000 0.0000 0.0000 0.0000 0.0000 25.8753
#
#
#
# Elastic Compliance Matrix: (Units=1/GPa)
#
#
# Indices 1 2 3 4 5 6 
#
# 1 0.014479 -0.003609 -0.003736 0.000000 0.000000 0.000000
# 2 -0.003609 0.011724 -0.003218 0.000000 0.000000 0.000000
# 3 -0.003736 -0.003218 0.011105 0.000000 0.000000 0.000000
# 4 0.000000 0.000000 0.000000 0.036291 0.000000 0.000000
# 5 0.000000 0.000000 0.000000 0.000000 0.032141 0.000000
# 6 0.000000 0.000000 0.000000 0.000000 0.000000 0.038647
#
#
# Mechanical properties :
#
#
# Convention : Reuss Voigt Hill
#
# Bulk Modulus (GPa) = 61.79787 62.89754 62.34770
# Shear Modulus (GPa) = 29.25550 29.63421 29.44486
#
# Velocity S-wave (km/s) = 3.85299 3.87785 3.86544
# Velocity P-wave (km/s) = 7.15214 7.20884 7.18054
#
# Compressibility (1/GPa) = 0.01618179
#
# Stress axis : x y z
#
# Youngs Moduli (GPa) = 69.06381 85.29675 90.04774
#
# Poissons Ratio (x) = 0.30781 0.33643
# Poissons Ratio (y) = 0.24923 0.28981
# Poissons Ratio (z) = 0.25803 0.27452
#
# Static dielectric constant tensor:
#      x y z
#    x 3.522590 0.000000 0.000000 
#    y 0.000000 3.607030 0.000000 
#    z 0.000000 0.000000 3.565010 
# 
# 
# High freq. dielectric constant tensor:
#      x y z
#    x 1.758240 0.000000 0.000000 
#    y 0.000000 1.754670 0.000000 
#    z 0.000000 0.000000 1.776740 
# 
# From -- ./inp_files/4424.got.cif
#   From: 2010.03.12/outbox.cif.g09.slc.cpg/sg49_3_cif.got.tgz:4424.got - 2010.04.14 03:58:27.
