data_PCOD8203008
_publ_section_title
;
Structure prediction by ZEFSAII (Michael W. Deem and Ramdas Pophale) SiO2 
 PCOD8203008
Probable space group: P C C M
;
_chemical_formula_sum "Si O2"
_cell_formula_units_Z 64
_cell_length_a 14.591042
_cell_length_b 28.419435
_cell_length_c 8.824130
_cell_angle_alpha 90.000000
_cell_angle_beta 90.000000
_cell_angle_gamma 90.000000
_cell_volume 3659.094660
_symmetry_space_group_name_H-M "P C C M"
_symmetry_group_IT_number 49
_symmetry_cell_setting 'orthorhombic'
loop_
_space_group_symop_operation_xyz
x,y,z
-x,-y,z
x,-y,1/2-z
-x,y,1/2-z
-x,-y,-z
x,y,-z
-x,y,1/2+z
x,-y,1/2+z
loop_
_atom_site_type_symbol
_atom_site_label
_atom_site_fract_x
_atom_site_fract_y
_atom_site_fract_z
Si Si1 0.718337 0.451493 0.319221
Si Si2 0.351931 0.638054 0.830743
Si Si3 0.849729 0.321722 0.834619
Si Si4 0.900732 0.148095 0.677921
Si Si5 0.092394 0.579143 0.819936
Si Si6 0.409046 0.270178 0.179804
Si Si7 0.099377 0.044719 0.823155
Si Si8 0.785162 0.765566 0.821983
O O1 0.680395 0.500000 0.250000
O O2 0.717448 0.452350 0.500000
O O3 0.649669 0.411053 0.259764
O O4 0.821971 0.444845 0.261376
O O5 0.250233 0.656703 0.845757
O O6 0.409975 0.675919 0.736340
O O7 0.393632 0.631233 0.000000
O O8 0.912716 0.364932 0.780339
O O9 0.852226 0.277687 0.720832
O O10 0.880648 0.303213 0.000000
O O11 0.914676 0.155056 0.500000
O O12 0.857586 0.096168 0.712221
O O13 0.828454 0.186188 0.743594
O O14 0.000000 0.155547 0.750000
O O15 0.000000 0.556590 0.750000
O O16 0.099489 0.570529 0.000000
O O17 0.500000 0.245538 0.250000
O O18 0.318255 0.242642 0.240659
O O19 0.413842 0.268955 0.000000
O O20 0.000000 0.045538 0.750000
O O21 0.154595 0.000000 0.750000
O O22 0.091646 0.035639 0.000000
O O23 0.780072 0.768176 0.000000
#
# Coordination Sequence:
#
# PCOD8203008 Si02
#       8
#     8   8   8   8   8   8   8   8
#     4  11  21  34  51  70  91 117 148 183 227 277
#     4   9  17  32  51  71  93 116 145 180 216 263
#     4   8  16  29  44  61  83 111 144 181 222 264
#     4   9  18  30  42  61  90 126 163 199 236 279
#     4  10  20  33  46  63  86 114 150 192 233 275
#     4  10  19  32  52  76  99 126 157 192 233 279
#     4   9  15  24  39  57  81 113 154 199 241 279
#     4   9  18  31  46  65  93 126 159 191 231 281
#
# _framework density 17.490666000000001
#
# number of rings (size 3 to 8) (size 9 to 14) (size 15 to 20)
#    0.000    2.625    0.000    3.750    0.000    5.750 
#    0.000    3.750    0.000    0.375    0.000    2.625 
#    0.000    0.500    0.000    6.250    0.000    0.000 
#
# Total GULP energy -793025.722750 kJ/mol
# GULP energy per Si atom -12391.026918 kJ/mol
# Density = 1.745086 g / cm^3
# Si number density = 17.490666 Si / 1000 Ang^3
#
#
#
# Elastic Constant Matrix: (Units=GPa)
#
#
# Indices 1 2 3 4 5 6 
#
# 1 52.0667 30.6683 21.2748 0.0000 0.0000 0.0000
# 2 30.6683 128.6108 41.7970 0.0000 0.0000 0.0000
# 3 21.2748 41.7970 83.4085 0.0000 0.0000 0.0000
# 4 0.0000 0.0000 0.0000 18.2273 0.0000 0.0000
# 5 0.0000 0.0000 0.0000 0.0000 17.8307 0.0000
# 6 0.0000 0.0000 0.0000 0.0000 0.0000 13.1087
#
#
#
# Elastic Compliance Matrix: (Units=1/GPa)
#
#
# Indices 1 2 3 4 5 6 
#
# 1 0.023298 -0.004329 -0.003773 0.000000 0.000000 0.000000
# 2 -0.004329 0.010093 -0.003953 0.000000 0.000000 0.000000
# 3 -0.003773 -0.003953 0.014933 0.000000 0.000000 0.000000
# 4 0.000000 0.000000 0.000000 0.054863 0.000000 0.000000
# 5 0.000000 0.000000 0.000000 0.000000 0.056083 0.000000
# 6 0.000000 0.000000 0.000000 0.000000 0.000000 0.076285
#
#
# Mechanical properties :
#
#
# Convention : Reuss Voigt Hill
#
# Bulk Modulus (GPa) = 41.30224 50.17400 45.73812
# Shear Modulus (GPa) = 18.67516 21.18975 19.93246
#
# Velocity S-wave (km/s) = 3.27115 3.48442 3.37947
# Velocity P-wave (km/s) = 6.15892 6.70348 6.43696
#
# Compressibility (1/GPa) = 0.02421176
#
# Stress axis : x y z
#
# Youngs Moduli (GPa) = 42.92229 99.08334 66.96773
#
# Poissons Ratio (x) = 0.42897 0.25267
# Poissons Ratio (y) = 0.18583 0.26474
# Poissons Ratio (z) = 0.16195 0.39170
#
# Static dielectric constant tensor:
#      x y z
#    x 3.135070 0.000000 0.000000 
#    y 0.000000 3.953490 0.000000 
#    z 0.000000 0.000000 3.319280 
# 
# 
# High freq. dielectric constant tensor:
#      x y z
#    x 1.637080 0.000000 0.000000 
#    y 0.000000 1.667930 0.000000 
#    z 0.000000 0.000000 1.684320 
# 
# From -- ./inp_files/5455.got.cif
#   From: 2010.03.12/outbox.cif.g09.slc.cpg/sg49_3_cif.got.tgz:5455.got - 2010.04.14 03:58:27.
