data_PCOD8203453
_publ_section_title
;
Structure prediction by ZEFSAII (Michael W. Deem and Ramdas Pophale) SiO2 
 PCOD8203453
Probable space group: P C C M
;
_chemical_formula_sum "Si O2"
_cell_formula_units_Z 64
_cell_length_a 14.265488
_cell_length_b 28.235848
_cell_length_c 9.012835
_cell_angle_alpha 90.000000
_cell_angle_beta 90.000000
_cell_angle_gamma 90.000000
_cell_volume 3630.353272
_symmetry_space_group_name_H-M "P C C M"
_symmetry_group_IT_number 49
_symmetry_cell_setting 'orthorhombic'
loop_
_space_group_symop_operation_xyz
x,y,z
-x,-y,z
x,-y,1/2-z
-x,y,1/2-z
-x,-y,-z
x,y,-z
-x,y,1/2+z
x,-y,1/2+z
loop_
_atom_site_type_symbol
_atom_site_label
_atom_site_fract_x
_atom_site_fract_y
_atom_site_fract_z
Si Si1 0.089749 0.418974 0.166555
Si Si2 0.900475 0.043532 0.328876
Si Si3 0.164747 0.321064 0.170280
Si Si4 0.590254 0.263315 0.831166
Si Si5 0.293782 0.451455 0.824124
Si Si6 0.899010 0.148742 0.326326
Si Si7 0.341076 0.637246 0.829916
Si Si8 0.204268 0.768220 0.822950
O O1 0.084824 0.361437 0.174915
O O2 0.187843 0.439274 0.230430
O O3 0.000000 0.440426 0.250000
O O4 0.080971 0.436982 0.000000
O O5 0.912611 0.030705 0.500000
O O6 0.855841 0.095676 0.309167
O O7 0.000000 0.045985 0.250000
O O8 0.842852 0.000000 0.250000
O O9 0.245569 0.340461 0.274090
O O10 0.135671 0.270975 0.244953
O O11 0.198021 0.313496 0.000000
O O12 0.500000 0.240927 0.750000
O O13 0.583713 0.320566 0.812367
O O14 0.688551 0.242049 0.771213
O O15 0.581239 0.248058 0.000000
O O16 0.327146 0.500000 0.750000
O O17 0.363513 0.409696 0.767182
O O18 0.301707 0.454546 0.000000
O O19 0.908488 0.162334 0.500000
O O20 0.824671 0.181210 0.241070
O O21 0.000000 0.154121 0.250000
O O22 0.330463 0.621459 0.000000
O O23 0.192275 0.765988 0.000000
#
# Coordination Sequence:
#
# PCOD8203453 Si02
#       8
#     8   8   8   8   8   8   8   8
#     4   9  19  31  43  60  82 109 145 184 224 268
#     4   9  16  26  42  63  88 121 165 210 253 294
#     4   9  17  30  45  62  84 114 150 185 225 274
#     4   9  19  33  52  77 101 126 157 192 236 286
#     4  10  20  33  48  67  87 113 146 181 226 278
#     4  10  20  32  46  67  96 134 174 211 250 293
#     4   9  17  31  49  70  92 114 143 179 217 265
#     4  10  20  33  48  70  99 130 164 203 244 289
#
# _framework density 17.629138999999999
#
# number of rings (size 3 to 8) (size 9 to 14) (size 15 to 20)
#    0.000    2.625    0.000    4.125    0.000    8.250 
#    0.000    2.500    0.000    0.375    0.000    2.625 
#    0.000    0.500    0.000    5.500    0.000    4.000 
#
# Total GULP energy -792894.189231 kJ/mol
# GULP energy per Si atom -12388.971707 kJ/mol
# Density = 1.758901 g / cm^3
# Si number density = 17.629139 Si / 1000 Ang^3
#
#
#
# Elastic Constant Matrix: (Units=GPa)
#
#
# Indices 1 2 3 4 5 6 
#
# 1 38.8174 16.9325 25.6236 0.0000 0.0000 0.0000
# 2 16.9325 108.4571 41.5059 0.0000 0.0000 0.0000
# 3 25.6236 41.5059 91.3666 0.0000 0.0000 0.0000
# 4 0.0000 0.0000 0.0000 32.0296 0.0000 0.0000
# 5 0.0000 0.0000 0.0000 0.0000 21.1807 0.0000
# 6 0.0000 0.0000 0.0000 0.0000 0.0000 10.5333
#
#
#
# Elastic Compliance Matrix: (Units=1/GPa)
#
#
# Indices 1 2 3 4 5 6 
#
# 1 0.031930 -0.001886 -0.008098 0.000000 0.000000 0.000000
# 2 -0.001886 0.011272 -0.004592 0.000000 0.000000 0.000000
# 3 -0.008098 -0.004592 0.015302 0.000000 0.000000 0.000000
# 4 0.000000 0.000000 0.000000 0.031221 0.000000 0.000000
# 5 0.000000 0.000000 0.000000 0.000000 0.047213 0.000000
# 6 0.000000 0.000000 0.000000 0.000000 0.000000 0.094937
#
#
# Mechanical properties :
#
#
# Convention : Reuss Voigt Hill
#
# Bulk Modulus (GPa) = 34.06860 45.19611 39.63235
# Shear Modulus (GPa) = 18.46316 23.05399 20.75858
#
# Velocity S-wave (km/s) = 3.23973 3.62017 3.43522
# Velocity P-wave (km/s) = 5.77595 6.57016 6.18581
#
# Compressibility (1/GPa) = 0.02935254
#
# Stress axis : x y z
#
# Youngs Moduli (GPa) = 31.31871 88.71633 65.35144
#
# Poissons Ratio (x) = 0.16731 0.52921
# Poissons Ratio (y) = 0.05906 0.30007
# Poissons Ratio (z) = 0.25362 0.40736
#
# Static dielectric constant tensor:
#      x y z
#    x 2.848750 0.000000 0.000000 
#    y 0.000000 3.928850 0.000000 
#    z 0.000000 0.000000 3.381960 
# 
# 
# High freq. dielectric constant tensor:
#      x y z
#    x 1.627560 0.000000 0.000000 
#    y 0.000000 1.677420 0.000000 
#    z 0.000000 0.000000 1.697700 
# 
# From -- ./inp_files/4519.got.cif
#   From: 2010.03.12/outbox.cif.g09.slc.cpg/sg49_3_cif.got.tgz:4519.got - 2010.04.14 03:58:27.
