data_PCOD8203464
_publ_section_title
;
Structure prediction by ZEFSAII (Michael W. Deem and Ramdas Pophale) SiO2 
 PCOD8203464
Probable space group: P C C M
;
_chemical_formula_sum "Si O2"
_cell_formula_units_Z 64
_cell_length_a 26.068224
_cell_length_b 9.086865
_cell_length_c 14.693562
_cell_angle_alpha 90.000000
_cell_angle_beta 90.000000
_cell_angle_gamma 90.000000
_cell_volume 3480.587931
_symmetry_space_group_name_H-M "P C C M"
_symmetry_group_IT_number 49
_symmetry_cell_setting 'orthorhombic'
loop_
_space_group_symop_operation_xyz
x,y,z
-x,-y,z
x,-y,1/2-z
-x,y,1/2-z
-x,-y,-z
x,y,-z
-x,y,1/2+z
x,-y,1/2+z
loop_
_atom_site_type_symbol
_atom_site_label
_atom_site_fract_x
_atom_site_fract_y
_atom_site_fract_z
Si Si1 1.000000 0.325249 0.397429
Si Si2 0.812235 0.170761 0.750000
Si Si3 0.919986 0.325797 0.250000
Si Si4 0.373272 0.671445 0.105810
Si Si5 0.560265 0.829198 0.750000
Si Si6 0.729752 0.169708 0.104176
Si Si7 0.270248 0.830292 0.604176
Si Si8 0.626728 0.671445 0.105810
O O1 1.000000 0.257558 0.500000
O O2 0.050110 0.272300 0.341070
O O3 0.000000 0.500000 0.403503
O O4 0.949890 0.272300 0.341070
O O5 0.863621 0.262350 0.750000
O O6 0.779566 0.214272 0.838702
O O7 0.779566 0.214272 0.661298
O O8 0.826752 0.000000 0.750000
O O9 0.916536 0.500000 0.250000
O O10 0.417716 0.753987 0.159711
O O11 0.318121 0.732908 0.136609
O O12 0.375008 0.500000 0.129311
O O13 0.382895 0.703156 0.000000
O O14 0.500000 0.804050 0.750000
O O15 0.582284 0.753987 0.840289
O O16 0.575109 0.000000 0.750000
O O17 0.714869 1.000000 0.121182
O O18 0.743695 0.201471 0.000000
O O19 0.256305 0.798529 0.500000
O O20 0.318121 0.732908 0.636609
O O21 0.617105 0.703156 0.000000
#
# Coordination Sequence:
#
# PCOD8203464 Si02
#       8
#     8   8   8   8   8   8   8   8
#     4   8  15  31  52  70  92 124 162 204 248 294
#     4  10  20  32  47  71 105 137 163 202 253 296
#     4   9  18  31  49  73  95 122 164 205 244 295
#     4  10  21  37  58  83 109 137 172 219 271 316
#     4  11  24  39  56  79 106 140 181 219 258 312
#     4   9  18  33  52  73 100 137 175 205 242 302
#     4   9  18  33  52  73 100 137 175 205 242 302
#     4  10  21  37  58  83 109 137 172 219 271 316
#
# _framework density 18.387698
#
# number of rings (size 3 to 8) (size 9 to 14) (size 15 to 20)
#    0.000    2.500    0.000    2.625    0.000    6.000 
#    0.000    3.750    0.000    0.750    0.000    0.000 
#    0.000    0.000    0.000    0.000    0.000    0.000 
#
# Total GULP energy -793655.955692 kJ/mol
# GULP energy per Si atom -12400.874308 kJ/mol
# Density = 1.834585 g / cm^3
# Si number density = 18.387698 Si / 1000 Ang^3
#
#
#
# Elastic Constant Matrix: (Units=GPa)
#
#
# Indices 1 2 3 4 5 6 
#
# 1 143.7997 68.0110 75.3418 0.0000 0.0000 0.0000
# 2 68.0110 82.3772 47.4537 0.0000 0.0000 0.0000
# 3 75.3418 47.4537 128.2570 0.0000 0.0000 0.0000
# 4 0.0000 0.0000 0.0000 22.9119 0.0000 0.0000
# 5 0.0000 0.0000 0.0000 0.0000 13.8039 0.0000
# 6 0.0000 0.0000 0.0000 0.0000 0.0000 36.4300
#
#
#
# Elastic Compliance Matrix: (Units=1/GPa)
#
#
# Indices 1 2 3 4 5 6 
#
# 1 0.013389 -0.008290 -0.004798 0.000000 0.000000 0.000000
# 2 -0.008290 0.020560 -0.002737 0.000000 0.000000 0.000000
# 3 -0.004798 -0.002737 0.011628 0.000000 0.000000 0.000000
# 4 0.000000 0.000000 0.000000 0.043646 0.000000 0.000000
# 5 0.000000 0.000000 0.000000 0.000000 0.072443 0.000000
# 6 0.000000 0.000000 0.000000 0.000000 0.000000 0.027450
#
#
# Mechanical properties :
#
#
# Convention : Reuss Voigt Hill
#
# Bulk Modulus (GPa) = 71.80322 81.78299 76.79311
# Shear Modulus (GPa) = 22.18202 25.53764 23.85983
#
# Velocity S-wave (km/s) = 3.47702 3.73076 3.60613
# Velocity P-wave (km/s) = 7.43330 7.94555 7.69369
#
# Compressibility (1/GPa) = 0.01392695
#
# Stress axis : x y z
#
# Youngs Moduli (GPa) = 74.69061 48.63720 86.00010
#
# Poissons Ratio (x) = 0.40320 0.41260
# Poissons Ratio (y) = 0.61918 0.23541
# Poissons Ratio (z) = 0.35834 0.13314
#
# Static dielectric constant tensor:
#      x y z
#    x 3.294220 0.000000 0.000000 
#    y 0.000000 3.280750 0.000000 
#    z 0.000000 0.000000 4.483430 
# 
# 
# High freq. dielectric constant tensor:
#      x y z
#    x 1.708420 0.000000 0.000000 
#    y 0.000000 1.700590 0.000000 
#    z 0.000000 0.000000 1.727970 
# 
# From -- ./inp_files/14543.got.cif
#   From: 2010.03.12/outbox.cif.g09.slc.cpg/sg49_8_cif.got.tgz:14543.got - 2010.04.14 03:58:27.
