data_PCOD8203740
_publ_section_title
;
Structure prediction by ZEFSAII (Michael W. Deem and Ramdas Pophale) SiO2 
 PCOD8203740
Probable space group: P C C M
;
_chemical_formula_sum "Si O2"
_cell_formula_units_Z 48
_cell_length_a 10.203447
_cell_length_b 29.011805
_cell_length_c 8.695819
_cell_angle_alpha 90.000000
_cell_angle_beta 90.000000
_cell_angle_gamma 90.000000
_cell_volume 2574.139946
_symmetry_space_group_name_H-M "P C C M"
_symmetry_group_IT_number 49
_symmetry_cell_setting 'orthorhombic'
loop_
_space_group_symop_operation_xyz
x,y,z
-x,-y,z
x,-y,1/2-z
-x,y,1/2-z
-x,-y,-z
x,y,-z
-x,y,1/2+z
x,-y,1/2+z
loop_
_atom_site_type_symbol
_atom_site_label
_atom_site_fract_x
_atom_site_fract_y
_atom_site_fract_z
Si Si1 0.364041 0.881983 0.318690
Si Si2 0.639415 0.549256 0.817672
Si Si3 0.636034 0.222325 0.681161
Si Si4 0.138857 0.950641 0.682932
Si Si5 0.137584 0.389631 0.678293
Si Si6 0.863775 0.718554 0.322802
O O1 0.500000 0.900742 0.250000
O O2 0.375890 0.884219 0.500000
O O3 0.336464 0.829864 0.261847
O O4 0.246116 0.913960 0.260046
O O5 0.681337 0.500000 0.750000
O O6 0.500000 0.565169 0.750000
O O7 0.746769 0.586420 0.771117
O O8 0.628400 0.545724 0.000000
O O9 0.500000 0.240695 0.750000
O O10 0.626218 0.224737 0.500000
O O11 0.749546 0.255390 0.736466
O O12 0.129458 0.953771 0.500000
O O13 0.000000 0.934269 0.750000
O O14 0.179544 0.000000 0.750000
O O15 0.141426 0.403963 0.500000
O O16 0.157563 0.335499 0.701057
O O17 0.000000 0.405863 0.750000
O O18 0.863478 0.732611 0.500000
O O19 0.000000 0.734843 0.250000
#
# Coordination Sequence:
#
# PCOD8203740 Si02
#       6
#     8   8   8   8   8   8
#     4   9  20  36  54  77 105 137 174 216 261 312
#     4  11  22  38  59  83 112 145 182 224 270 319
#     4  10  20  36  56  79 108 141 179 221 266 317
#     4  10  20  35  53  76 104 135 173 214 260 311
#     4  10  21  38  58  82 111 143 181 223 269 319
#     4  10  21  37  57  81 110 143 179 222 269 318
#
# _framework density 18.647003999999999
#
# number of rings (size 3 to 8) (size 9 to 14) (size 15 to 20)
#    0.000    2.000    0.000    4.500    0.000    6.000 
#    0.000    5.000    0.000    0.000    0.000    0.000 
#    0.000    0.000    0.000    0.000    0.000    0.000 
#
# Total GULP energy -595386.304646 kJ/mol
# GULP energy per Si atom -12403.881347 kJ/mol
# Density = 1.860456 g / cm^3
# Si number density = 18.647004 Si / 1000 Ang^3
#
#
#
# Elastic Constant Matrix: (Units=GPa)
#
#
# Indices 1 2 3 4 5 6 
#
# 1 151.5001 66.4475 57.1484 0.0000 0.0000 0.0000
# 2 66.4475 57.0006 37.7109 0.0000 0.0000 0.0000
# 3 57.1484 37.7109 108.0243 0.0000 0.0000 0.0000
# 4 0.0000 0.0000 0.0000 36.4040 0.0000 0.0000
# 5 0.0000 0.0000 0.0000 0.0000 38.5021 0.0000
# 6 0.0000 0.0000 0.0000 0.0000 0.0000 40.9570
#
#
#
# Elastic Compliance Matrix: (Units=1/GPa)
#
#
# Indices 1 2 3 4 5 6 
#
# 1 0.013899 -0.014743 -0.002206 0.000000 0.000000 0.000000
# 2 -0.014743 0.038450 -0.005623 0.000000 0.000000 0.000000
# 3 -0.002206 -0.005623 0.012388 0.000000 0.000000 0.000000
# 4 0.000000 0.000000 0.000000 0.027469 0.000000 0.000000
# 5 0.000000 0.000000 0.000000 0.000000 0.025973 0.000000
# 6 0.000000 0.000000 0.000000 0.000000 0.000000 0.024416
#
#
# Mechanical properties :
#
#
# Convention : Reuss Voigt Hill
#
# Bulk Modulus (GPa) = 51.04230 71.01541 61.02885
# Shear Modulus (GPa) = 25.73722 33.52050 29.62886
#
# Velocity S-wave (km/s) = 3.71918 4.24445 3.99047
# Velocity P-wave (km/s) = 6.77314 7.88589 7.35060
#
# Compressibility (1/GPa) = 0.01959159
#
# Stress axis : x y z
#
# Youngs Moduli (GPa) = 71.94669 26.00751 80.72626
#
# Poissons Ratio (x) = 0.38343 0.17811
# Poissons Ratio (y) = 1.06071 0.45395
# Poissons Ratio (z) = 0.15874 0.14625
#
# Static dielectric constant tensor:
#      x y z
#    x 3.533610 0.000000 0.000000 
#    y 0.000000 3.452230 0.000000 
#    z 0.000000 0.000000 3.554120 
# 
# 
# High freq. dielectric constant tensor:
#      x y z
#    x 1.734600 0.000000 0.000000 
#    y 0.000000 1.719070 0.000000 
#    z 0.000000 0.000000 1.739220 
# 
# From -- ./inp_files/2015.got.cif
#   From: 2010.03.12/outbox.cif.g09.slc.cpg/sg49_2_cif.got.tgz:2015.got - 2010.04.14 03:58:27.
