data_PCOD8203445
_publ_section_title
;
Structure prediction by ZEFSAII (Michael W. Deem and Ramdas Pophale) SiO2 
 PCOD8203445
Probable space group: P C C M
;
_chemical_formula_sum "Si O2"
_cell_formula_units_Z 64
_cell_length_a 23.296412
_cell_length_b 15.309698
_cell_length_c 8.963469
_cell_angle_alpha 90.000000
_cell_angle_beta 90.000000
_cell_angle_gamma 90.000000
_cell_volume 3196.920106
_symmetry_space_group_name_H-M "P C C M"
_symmetry_group_IT_number 49
_symmetry_cell_setting 'orthorhombic'
loop_
_space_group_symop_operation_xyz
x,y,z
-x,-y,z
x,-y,1/2-z
-x,y,1/2-z
-x,-y,-z
x,y,-z
-x,y,1/2+z
x,-y,1/2+z
loop_
_atom_site_type_symbol
_atom_site_label
_atom_site_fract_x
_atom_site_fract_y
_atom_site_fract_z
Si Si1 0.325986 0.225720 0.823989
Si Si2 0.219727 0.846008 0.166785
Si Si3 0.834129 0.343341 0.167402
Si Si4 0.113571 0.914823 0.324796
Si Si5 0.726155 0.412466 0.676143
Si Si6 0.561125 0.228816 0.170035
Si Si7 0.559647 0.575674 0.334354
Si Si8 0.060280 0.729784 0.676173
O O1 0.279558 0.160710 0.753847
O O2 0.312362 0.327404 0.782371
O O3 0.386698 0.187054 0.762372
O O4 0.325767 0.214526 0.000000
O O5 0.191582 0.752127 0.156967
O O6 0.177650 0.908912 0.258010
O O7 0.230011 0.883198 0.000000
O O8 0.790464 0.403583 0.259227
O O9 0.894216 0.338381 0.255380
O O10 0.843333 0.381018 0.000000
O O11 0.118061 0.928467 0.500000
O O12 0.076556 0.829633 0.284019
O O13 0.083791 0.000000 0.250000
O O14 0.698933 0.500000 0.750000
O O15 0.729557 0.425123 0.500000
O O16 0.500000 0.214139 0.250000
O O17 0.584902 0.328038 0.168762
O O18 0.556129 0.193699 0.000000
O O19 0.597135 0.500000 0.250000
O O20 0.500000 0.583153 0.250000
O O21 0.550430 0.541356 0.500000
O O22 0.057603 0.715439 0.500000
O O23 0.000000 0.707478 0.750000
#
# Coordination Sequence:
#
# PCOD8203445 Si02
#       8
#     8   8   8   8   8   8   8   8
#     4  10  20  33  49  69  94 124 159 200 245 295
#     4   9  17  31  51  72  95 125 161 200 243 290
#     4   9  17  31  51  72  95 125 162 204 250 297
#     4  10  20  33  50  74 105 138 170 204 241 281
#     4  10  20  33  50  72  96 122 157 204 256 304
#     4  10  20  32  45  62  86 117 153 193 238 288
#     4   9  16  25  37  51  69  97 134 174 216 265
#     4  10  20  33  50  73 102 137 175 209 241 283
#
# _framework density 20.019268
#
# number of rings (size 3 to 8) (size 9 to 14) (size 15 to 20)
#    0.000    2.375    0.000    3.375    0.000    8.250 
#    0.000    3.750    0.000    0.375    0.000    2.625 
#    0.000    0.500    0.000    5.000    0.000    3.000 
#
# Total GULP energy -793091.887720 kJ/mol
# GULP energy per Si atom -12392.060746 kJ/mol
# Density = 1.997370 g / cm^3
# Si number density = 20.019268 Si / 1000 Ang^3
#
#
#
# Elastic Constant Matrix: (Units=GPa)
#
#
# Indices 1 2 3 4 5 6 
#
# 1 129.1619 -2.3070 54.9711 0.0000 0.0000 0.0000
# 2 -2.3070 13.8773 5.7793 0.0000 0.0000 0.0000
# 3 54.9711 5.7793 137.0595 0.0000 0.0000 0.0000
# 4 0.0000 0.0000 0.0000 24.3351 0.0000 0.0000
# 5 0.0000 0.0000 0.0000 0.0000 29.1586 0.0000
# 6 0.0000 0.0000 0.0000 0.0000 0.0000 7.3707
#
#
#
# Elastic Compliance Matrix: (Units=1/GPa)
#
#
# Indices 1 2 3 4 5 6 
#
# 1 0.009475 0.003214 -0.003936 0.000000 0.000000 0.000000
# 2 0.003214 0.074438 -0.004428 0.000000 0.000000 0.000000
# 3 -0.003936 -0.004428 0.009061 0.000000 0.000000 0.000000
# 4 0.000000 0.000000 0.000000 0.041093 0.000000 0.000000
# 5 0.000000 0.000000 0.000000 0.000000 0.034295 0.000000
# 6 0.000000 0.000000 0.000000 0.000000 0.000000 0.135672
#
#
# Mechanical properties :
#
#
# Convention : Reuss Voigt Hill
#
# Bulk Modulus (GPa) = 12.09549 44.10953 28.10251
# Shear Modulus (GPa) = 14.62451 26.94990 20.78721
#
# Velocity S-wave (km/s) = 2.70575 3.67304 3.22586
# Velocity P-wave (km/s) = 3.97699 6.33006 5.28612
#
# Compressibility (1/GPa) = 0.08267544
#
# Stress axis : x y z
#
# Youngs Moduli (GPa) = 105.54551 13.43394 110.35999
#
# Poissons Ratio (x) = -0.04318 0.43433
# Poissons Ratio (y) = -0.33923 0.48866
# Poissons Ratio (z) = 0.41538 0.05948
#
# Static dielectric constant tensor:
#      x y z
#    x 3.538480 0.000000 0.000000 
#    y 0.000000 3.880610 0.000000 
#    z 0.000000 0.000000 3.835070 
# 
# 
# High freq. dielectric constant tensor:
#      x y z
#    x 1.776030 0.000000 0.000000 
#    y 0.000000 1.732090 0.000000 
#    z 0.000000 0.000000 1.799930 
# 
# From -- ./inp_files/6487.got.cif
#   From: 2010.03.12/outbox.cif.g09.slc.cpg/sg49_4_cif.got.tgz:6487.got - 2010.04.14 03:58:27.
