data_PCOD8203677
_publ_section_title
;
Structure prediction by ZEFSAII (Michael W. Deem and Ramdas Pophale) SiO2 
 PCOD8203677
Probable space group: P C C M
;
_chemical_formula_sum "Si O2"
_cell_formula_units_Z 58
_cell_length_a 25.710904
_cell_length_b 14.461359
_cell_length_c 8.813846
_cell_angle_alpha 90.000000
_cell_angle_beta 90.000000
_cell_angle_gamma 90.000000
_cell_volume 3277.116739
_symmetry_space_group_name_H-M "P C C M"
_symmetry_group_IT_number 49
_symmetry_cell_setting 'orthorhombic'
loop_
_space_group_symop_operation_xyz
x,y,z
-x,-y,z
x,-y,1/2-z
-x,y,1/2-z
-x,-y,-z
x,y,-z
-x,y,1/2+z
x,-y,1/2+z
loop_
_atom_site_type_symbol
_atom_site_label
_atom_site_fract_x
_atom_site_fract_y
_atom_site_fract_z
Si Si1 0.797816 0.904996 0.675866
Si Si2 0.444253 0.596783 0.180916
Si Si3 0.643216 0.282230 0.320637
Si Si4 0.324014 0.096136 0.322733
Si Si5 0.256130 0.399861 0.821317
Si Si6 0.000000 0.500000 0.750000
Si Si7 0.048815 0.676912 0.334773
Si Si8 0.161207 0.277261 0.819173
O O1 0.812055 0.906147 0.500000
O O2 0.737003 0.890468 0.704083
O O3 0.828610 0.824125 0.757633
O O4 0.817059 0.000000 0.750000
O O5 0.424163 0.500000 0.250000
O O6 0.500000 0.622322 0.250000
O O7 0.404811 0.676026 0.229354
O O8 0.447914 0.588904 0.000000
O O9 0.633216 0.286867 0.500000
O O10 0.646991 0.176718 0.267590
O O11 0.694977 0.337449 0.273306
O O12 0.338462 0.098429 0.500000
O O13 0.343005 0.000000 0.250000
O O14 0.261984 0.500000 0.750000
O O15 0.204257 0.349630 0.758164
O O16 0.253442 0.412140 0.000000
O O17 0.037413 0.566562 0.650749
O O18 0.051449 0.722146 0.500000
O O19 0.104601 0.692250 0.254960
O O20 0.000000 0.725799 0.250000
O O21 0.163159 0.275921 0.000000
#
# Coordination Sequence:
#
# PCOD8203677 Si02
#       8
#     8   8   8   8   8   2   8   8
#     4  10  20  34  55  81 107 141 178 222 270 324
#     4  11  22  38  59  84 112 147 193 238 280 327
#     4  11  21  36  56  80 112 149 185 227 277 327
#     4  10  20  34  54  81 111 144 184 227 273 327
#     4  10  22  34  49  73 108 146 180 216 266 321
#     4   8  18  32  50  72 100 132 186 220 272 308
#     4   9  19  32  51  72  99 133 175 221 265 312
#     4  10  20  36  52  76 108 142 178 222 271 324
#
# _framework density 17.698484000000001
#
# number of rings (size 3 to 8) (size 9 to 14) (size 15 to 20)
#    0.414    1.517    1.379    3.517    0.966    4.414 
#    0.000    0.000    0.000    0.828    0.000    5.793 
#    0.000    0.000    0.000    0.000    0.000    0.000 
#
# Total GULP energy -719073.843167 kJ/mol
# GULP energy per Si atom -12397.824882 kJ/mol
# Density = 1.765820 g / cm^3
# Si number density = 17.698484 Si / 1000 Ang^3
#
#
#
# Elastic Constant Matrix: (Units=GPa)
#
#
# Indices 1 2 3 4 5 6 
#
# 1 99.2675 57.5830 40.6976 0.0000 0.0000 0.0000
# 2 57.5830 129.2510 36.9078 0.0000 0.0000 0.0000
# 3 40.6976 36.9078 76.1306 0.0000 0.0000 0.0000
# 4 0.0000 0.0000 0.0000 33.3881 0.0000 0.0000
# 5 0.0000 0.0000 0.0000 0.0000 24.2771 0.0000
# 6 0.0000 0.0000 0.0000 0.0000 0.0000 28.0903
#
#
#
# Elastic Compliance Matrix: (Units=1/GPa)
#
#
# Indices 1 2 3 4 5 6 
#
# 1 0.015469 -0.005258 -0.005720 0.000000 0.000000 0.000000
# 2 -0.005258 0.010767 -0.002409 0.000000 0.000000 0.000000
# 3 -0.005720 -0.002409 0.017361 0.000000 0.000000 0.000000
# 4 0.000000 0.000000 0.000000 0.029951 0.000000 0.000000
# 5 0.000000 0.000000 0.000000 0.000000 0.041191 0.000000
# 6 0.000000 0.000000 0.000000 0.000000 0.000000 0.035600
#
#
# Mechanical properties :
#
#
# Convention : Reuss Voigt Hill
#
# Bulk Modulus (GPa) = 59.44403 63.89179 61.66791
# Shear Modulus (GPa) = 27.36399 28.44848 27.90623
#
# Velocity S-wave (km/s) = 3.93634 4.01358 3.97515
# Velocity P-wave (km/s) = 7.37019 7.59322 7.48254
#
# Compressibility (1/GPa) = 0.01682255
#
# Stress axis : x y z
#
# Youngs Moduli (GPa) = 64.64456 92.87272 57.59985
#
# Poissons Ratio (x) = 0.48835 0.32949
# Poissons Ratio (y) = 0.33992 0.13876
# Poissons Ratio (z) = 0.36978 0.22373
#
# Static dielectric constant tensor:
#      x y z
#    x 3.299340 0.000000 0.000000 
#    y 0.000000 3.209770 0.000000 
#    z 0.000000 0.000000 3.253600 
# 
# 
# High freq. dielectric constant tensor:
#      x y z
#    x 1.674380 0.000000 0.000000 
#    y 0.000000 1.679420 0.000000 
#    z 0.000000 0.000000 1.689300 
# 
# From -- ./inp_files/6439.got.cif
#   From: 2010.03.12/outbox.cif.g09.slc.cpg/sg49_4_cif.got.tgz:6439.got - 2010.04.14 03:58:27.
