data_PCOD8203891
_publ_section_title
;
Structure prediction by ZEFSAII (Michael W. Deem and Ramdas Pophale) SiO2 
 PCOD8203891
Probable space group: P C C M
;
_chemical_formula_sum "Si O2"
_cell_formula_units_Z 48
_cell_length_a 30.505775
_cell_length_b 9.123835
_cell_length_c 8.657807
_cell_angle_alpha 90.000000
_cell_angle_beta 90.000000
_cell_angle_gamma 90.000000
_cell_volume 2409.724458
_symmetry_space_group_name_H-M "P C C M"
_symmetry_group_IT_number 49
_symmetry_cell_setting 'orthorhombic'
loop_
_space_group_symop_operation_xyz
x,y,z
-x,-y,z
x,-y,1/2-z
-x,y,1/2-z
-x,-y,-z
x,y,-z
-x,y,1/2+z
x,-y,1/2+z
loop_
_atom_site_type_symbol
_atom_site_label
_atom_site_fract_x
_atom_site_fract_y
_atom_site_fract_z
Si Si1 0.545784 0.158890 0.683136
Si Si2 0.952676 0.345324 0.682847
Si Si3 0.878103 0.844244 0.320514
Si Si4 0.208410 0.340348 0.679289
Si Si5 0.287299 0.160683 0.182337
Si Si6 0.629218 0.340102 0.317607
O O1 0.500000 0.219274 0.750000
O O2 0.542622 0.147055 0.500000
O O3 0.583620 0.269191 0.738113
O O4 0.556846 0.000000 0.750000
O O5 0.935700 0.500000 0.750000
O O6 0.955604 0.358084 0.500000
O O7 0.920034 0.216863 0.730726
O O8 0.000000 0.305345 0.750000
O O9 0.889644 0.860734 0.500000
O O10 0.837884 0.736051 0.293216
O O11 0.865044 0.000000 0.250000
O O12 0.205441 0.500000 0.750000
O O13 0.220783 0.349757 0.500000
O O14 0.245141 0.249925 0.766764
O O15 0.330870 0.241217 0.244529
O O16 0.285367 0.000000 0.250000
O O17 0.287859 0.148471 0.000000
O O18 0.634196 0.500000 0.250000
O O19 0.630878 0.351418 0.500000
#
# Coordination Sequence:
#
# PCOD8203891 Si02
#       6
#     8   8   8   8   8   8
#     4  10  20  36  57  83 112 146 189 234 285 341
#     4  11  22  39  63  90 121 157 199 245 295 350
#     4  11  24  41  61  88 121 157 198 243 293 347
#     4  11  24  41  63  90 121 156 195 241 291 346
#     4  11  23  40  62  88 118 153 194 239 290 346
#     4  10  23  39  57  83 115 151 191 236 286 342
#
# _framework density 19.919288999999999
#
# number of rings (size 3 to 8) (size 9 to 14) (size 15 to 20)
#    0.000    1.333    0.000    6.500    0.000   10.000 
#    0.000    3.333    0.000    0.000    0.000    0.000 
#    0.000    0.000    0.000    0.000    0.000    0.000 
#
# Total GULP energy -595481.831175 kJ/mol
# GULP energy per Si atom -12405.871483 kJ/mol
# Density = 1.987395 g / cm^3
# Si number density = 19.919289 Si / 1000 Ang^3
#
#
#
# Elastic Constant Matrix: (Units=GPa)
#
#
# Indices 1 2 3 4 5 6 
#
# 1 113.4425 64.6523 52.8411 0.0000 0.0000 0.0000
# 2 64.6523 151.3839 52.3305 0.0000 0.0000 0.0000
# 3 52.8411 52.3305 109.1773 0.0000 0.0000 0.0000
# 4 0.0000 0.0000 0.0000 37.2601 0.0000 0.0000
# 5 0.0000 0.0000 0.0000 0.0000 33.7823 0.0000
# 6 0.0000 0.0000 0.0000 0.0000 0.0000 38.4886
#
#
#
# Elastic Compliance Matrix: (Units=1/GPa)
#
#
# Indices 1 2 3 4 5 6 
#
# 1 0.013223 -0.004117 -0.004427 0.000000 0.000000 0.000000
# 2 -0.004117 0.009200 -0.002417 0.000000 0.000000 0.000000
# 3 -0.004427 -0.002417 0.012460 0.000000 0.000000 0.000000
# 4 0.000000 0.000000 0.000000 0.026838 0.000000 0.000000
# 5 0.000000 0.000000 0.000000 0.000000 0.029601 0.000000
# 6 0.000000 0.000000 0.000000 0.000000 0.000000 0.025982
#
#
# Mechanical properties :
#
#
# Convention : Reuss Voigt Hill
#
# Bulk Modulus (GPa) = 77.14853 79.29464 78.22158
# Shear Modulus (GPa) = 34.83195 35.51816 35.17506
#
# Velocity S-wave (km/s) = 4.18623 4.22726 4.20680
# Velocity P-wave (km/s) = 7.88547 7.98253 7.93415
#
# Compressibility (1/GPa) = 0.01296201
#
# Stress axis : x y z
#
# Youngs Moduli (GPa) = 75.62374 108.70146 80.25518
#
# Poissons Ratio (x) = 0.44754 0.35526
# Poissons Ratio (y) = 0.31136 0.19396
# Poissons Ratio (z) = 0.33475 0.26271
#
# Static dielectric constant tensor:
#      x y z
#    x 3.898490 0.000000 0.000000 
#    y 0.000000 3.669240 0.000000 
#    z 0.000000 0.000000 3.740670 
# 
# 
# High freq. dielectric constant tensor:
#      x y z
#    x 1.793850 0.000000 0.000000 
#    y 0.000000 1.786070 0.000000 
#    z 0.000000 0.000000 1.789740 
# 
# From -- ./inp_files/6861.got.cif
#   From: 2010.03.12/outbox.cif.g09.slc.cpg/sg49_4_cif.got.tgz:6861.got - 2010.04.14 03:58:27.
