data_PCOD8203566
_publ_section_title
;
Structure prediction by ZEFSAII (Michael W. Deem and Ramdas Pophale) SiO2 
 PCOD8203566
Probable space group: P C C M
;
_chemical_formula_sum "Si O2"
_cell_formula_units_Z 40
_cell_length_a 9.805256
_cell_length_b 25.670908
_cell_length_c 8.661500
_cell_angle_alpha 90.000000
_cell_angle_beta 90.000000
_cell_angle_gamma 90.000000
_cell_volume 2180.184647
_symmetry_space_group_name_H-M "P C C M"
_symmetry_group_IT_number 49
_symmetry_cell_setting 'orthorhombic'
loop_
_space_group_symop_operation_xyz
x,y,z
-x,-y,z
x,-y,1/2-z
-x,y,1/2-z
-x,-y,-z
x,y,-z
-x,y,1/2+z
x,-y,1/2+z
loop_
_atom_site_type_symbol
_atom_site_label
_atom_site_fract_x
_atom_site_fract_y
_atom_site_fract_z
Si Si1 0.349731 0.136900 0.319696
Si Si2 0.349455 0.355061 0.818276
Si Si3 0.647407 0.748130 0.321729
Si Si4 0.853728 0.555230 0.816758
Si Si5 0.145278 0.055326 0.817749
O O1 0.500000 0.133125 0.250000
O O2 0.355194 0.122042 0.500000
O O3 0.284361 0.195011 0.297921
O O4 0.255735 0.097891 0.226431
O O5 0.500000 0.362124 0.750000
O O6 0.278814 0.300535 0.762535
O O7 0.255156 0.402152 0.760611
O O8 0.360534 0.354635 0.000000
O O9 0.500000 0.752954 0.250000
O O10 0.635184 0.733690 0.500000
O O11 0.804953 0.500000 0.750000
O O12 0.000000 0.571338 0.750000
O O13 0.864027 0.551609 0.000000
O O14 0.000000 0.072493 0.750000
O O15 0.192286 0.000000 0.750000
O O16 0.132772 0.050534 0.000000
#
# Coordination Sequence:
#
# PCOD8203566 Si02
#       5
#     8   8   8   8   8
#     4  10  20  35  55  82 110 139 177 218 261 310
#     4  10  20  33  52  78 105 134 171 211 254 303
#     4   9  17  30  51  76 105 138 170 208 256 305
#     4  10  21  36  54  75 100 134 171 210 256 307
#     4  11  22  38  58  79 106 141 177 217 264 315
#
# _framework density 18.347069999999999
#
# number of rings (size 3 to 8) (size 9 to 14) (size 15 to 20)
#    0.000    2.000    0.000    6.600    0.000    6.400 
#    0.000    5.000    0.000    2.400    0.000    0.000 
#    0.000    0.000    0.000    0.000    0.000    0.000 
#
# Total GULP energy -495846.733705 kJ/mol
# GULP energy per Si atom -12396.168343 kJ/mol
# Density = 1.830531 g / cm^3
# Si number density = 18.347070 Si / 1000 Ang^3
#
#
#
# Elastic Constant Matrix: (Units=GPa)
#
#
# Indices 1 2 3 4 5 6 
#
# 1 76.2947 76.7059 38.2451 0.0000 0.0000 0.0000
# 2 76.7059 150.3832 57.7999 0.0000 0.0000 0.0000
# 3 38.2451 57.7999 118.5699 0.0000 0.0000 0.0000
# 4 0.0000 0.0000 0.0000 35.2038 0.0000 0.0000
# 5 0.0000 0.0000 0.0000 0.0000 22.0766 0.0000
# 6 0.0000 0.0000 0.0000 0.0000 0.0000 -7.5161
#
#
#
# Elastic Compliance Matrix: (Units=1/GPa)
#
#
# Indices 1 2 3 4 5 6 
#
# 1 0.027493 -0.013062 -0.002500 0.000000 0.000000 0.000000
# 2 -0.013062 0.014389 -0.002801 0.000000 0.000000 0.000000
# 3 -0.002500 -0.002801 0.010606 0.000000 0.000000 0.000000
# 4 0.000000 0.000000 0.000000 0.028406 0.000000 0.000000
# 5 0.000000 0.000000 0.000000 0.000000 0.045297 0.000000
# 6 0.000000 0.000000 0.000000 0.000000 0.000000 -0.133048
#
#
# Mechanical properties :
#
#
# Convention : Reuss Voigt Hill
#
# Bulk Modulus (GPa) = 63.45012 76.74995 70.10004
# Shear Modulus (GPa) = 142.35128 21.45266 81.90197
#
# Velocity S-wave (km/s) = 8.81796 3.42317 6.68859
# Velocity P-wave (km/s) = 11.76153 7.58599 9.89648
#
# Compressibility (1/GPa) = 0.01576041
#
# Stress axis : x y z
#
# Youngs Moduli (GPa) = 36.37240 69.49752 94.28841
#
# Poissons Ratio (x) = 0.90781 0.23576
# Poissons Ratio (y) = 0.47511 0.26410
# Poissons Ratio (z) = 0.09095 0.19466
#
# Static dielectric constant tensor:
#      x y z
#    x 3.152330 0.000000 0.000000 
#    y 0.000000 4.041900 0.000000 
#    z 0.000000 0.000000 3.578810 
# 
# 
# High freq. dielectric constant tensor:
#      x y z
#    x 1.679310 0.000000 0.000000 
#    y 0.000000 1.730800 0.000000 
#    z 0.000000 0.000000 1.733300 
# 
# From -- ./inp_files/1689.got.cif
#   From: 2010.03.12/outbox.cif.g09.slc.cpg/sg49_1_cif.got.tgz:1689.got - 2010.04.14 03:58:27.
