data_PCOD8203931
_publ_section_title
;
Structure prediction by ZEFSAII (Michael W. Deem and Ramdas Pophale) SiO2 
 PCOD8203931
Probable space group: P C C M
;
_chemical_formula_sum "Si O2"
_cell_formula_units_Z 48
_cell_length_a 12.014733
_cell_length_b 12.017289
_cell_length_c 16.892001
_cell_angle_alpha 90.000000
_cell_angle_beta 90.000000
_cell_angle_gamma 90.000000
_cell_volume 2438.943435
_symmetry_space_group_name_H-M "P C C M"
_symmetry_group_IT_number 49
_symmetry_cell_setting 'orthorhombic'
loop_
_space_group_symop_operation_xyz
x,y,z
-x,-y,z
x,-y,1/2-z
-x,y,1/2-z
-x,-y,-z
x,y,-z
-x,y,1/2+z
x,-y,1/2+z
loop_
_atom_site_type_symbol
_atom_site_label
_atom_site_fract_x
_atom_site_fract_y
_atom_site_fract_z
Si Si1 0.590785 0.586713 0.905575
Si Si2 0.673001 0.962321 0.405996
Si Si3 0.916141 0.099406 0.092782
Si Si4 0.462144 0.829841 0.594251
Si Si5 0.832962 0.519012 0.092696
Si Si6 0.978783 0.665973 0.341762
O O1 0.500000 0.500000 0.872960
O O2 0.563000 0.708448 0.870270
O O3 0.711437 0.549891 0.874689
O O4 0.588668 0.590757 0.000000
O O5 0.678152 0.965530 0.500000
O O6 0.795113 0.934242 0.372696
O O7 0.584759 0.868924 0.377497
O O8 0.631479 0.083075 0.374985
O O9 0.960086 0.206049 0.138819
O O10 0.910590 0.127195 0.000000
O O11 0.000000 0.000000 0.111015
O O12 0.459214 0.827055 0.500000
O O13 0.870571 0.406253 0.135953
O O14 0.915562 0.621492 0.109187
O O15 0.830209 0.494279 0.000000
O O16 0.000000 0.649373 0.250000
#
# Coordination Sequence:
#
# PCOD8203931 Si02
#       6
#     8   8   8   8   8   8
#     4   9  18  28  47  82 116 139 169 225 285 333
#     4   8  15  27  46  73 107 144 172 214 273 327
#     4  10  21  34  55  85 113 140 183 236 280 324
#     4   8  14  26  44  71 110 144 170 208 273 335
#     4  10  20  36  60  85 110 142 186 234 281 325
#     4  11  23  39  57  77 111 151 191 226 279 338
#
# _framework density 19.680654000000001
#
# number of rings (size 3 to 8) (size 9 to 14) (size 15 to 20)
#    0.000    2.667    0.000    4.000    4.667    0.333 
#    0.000    0.000    0.000    2.000    0.000    0.000 
#    0.000    0.000    0.000    0.000    0.000    0.000 
#
# Total GULP energy -595146.273192 kJ/mol
# GULP energy per Si atom -12398.880692 kJ/mol
# Density = 1.963586 g / cm^3
# Si number density = 19.680654 Si / 1000 Ang^3
#
#
#
# Elastic Constant Matrix: (Units=GPa)
#
#
# Indices 1 2 3 4 5 6 
#
# 1 160.8526 82.4916 19.5541 0.0000 0.0000 0.0000
# 2 82.4916 166.6932 29.9214 0.0000 0.0000 0.0000
# 3 19.5541 29.9214 39.5926 0.0000 0.0000 0.0000
# 4 0.0000 0.0000 0.0000 11.5170 0.0000 0.0000
# 5 0.0000 0.0000 0.0000 0.0000 1.3770 0.0000
# 6 0.0000 0.0000 0.0000 0.0000 0.0000 27.9771
#
#
#
# Elastic Compliance Matrix: (Units=1/GPa)
#
#
# Indices 1 2 3 4 5 6 
#
# 1 0.008377 -0.003937 -0.001162 0.000000 0.000000 0.000000
# 2 -0.003937 0.008791 -0.004699 0.000000 0.000000 0.000000
# 3 -0.001162 -0.004699 0.029382 0.000000 0.000000 0.000000
# 4 0.000000 0.000000 0.000000 0.086828 0.000000 0.000000
# 5 0.000000 0.000000 0.000000 0.000000 0.726234 0.000000
# 6 0.000000 0.000000 0.000000 0.000000 0.000000 0.035744
#
#
# Mechanical properties :
#
#
# Convention : Reuss Voigt Hill
#
# Bulk Modulus (GPa) = 37.09999 70.11917 53.60958
# Shear Modulus (GPa) = 5.41162 23.85230 14.63196
#
# Velocity S-wave (km/s) = 1.66003 3.48511 2.72962
# Velocity P-wave (km/s) = 4.75039 7.20420 6.10191
#
# Compressibility (1/GPa) = 0.02695419
#
# Stress axis : x y z
#
# Youngs Moduli (GPa) = 119.37154 113.75446 34.03398
#
# Poissons Ratio (x) = 0.44786 0.03955
# Poissons Ratio (y) = 0.46997 0.15993
# Poissons Ratio (z) = 0.13871 0.53454
#
# Static dielectric constant tensor:
#      x y z
#    x 3.892560 0.000000 0.000000 
#    y 0.000000 3.765560 0.000000 
#    z 0.000000 0.000000 3.010040 
# 
# 
# High freq. dielectric constant tensor:
#      x y z
#    x 1.777760 0.000000 0.000000 
#    y 0.000000 1.776970 0.000000 
#    z 0.000000 0.000000 1.711510 
# 
# From -- ./inp_files/17090.got.cif
#   From: 2010.03.12/outbox.cif.g09.slc.cpg/sg49_9_cif.got.tgz:17090.got - 2010.04.14 03:58:27.
