data_PCOD8203833
_publ_section_title
;
Structure prediction by ZEFSAII (Michael W. Deem and Ramdas Pophale) SiO2 
 PCOD8203833
Probable space group: P C C M
;
_chemical_formula_sum "Si O2"
_cell_formula_units_Z 64
_cell_length_a 12.087000
_cell_length_b 16.055039
_cell_length_c 17.549569
_cell_angle_alpha 90.000000
_cell_angle_beta 90.000000
_cell_angle_gamma 90.000000
_cell_volume 3405.621211
_symmetry_space_group_name_H-M "P C C M"
_symmetry_group_IT_number 49
_symmetry_cell_setting 'orthorhombic'
loop_
_space_group_symop_operation_xyz
x,y,z
-x,-y,z
x,-y,1/2-z
-x,y,1/2-z
-x,-y,-z
x,y,-z
-x,y,1/2+z
x,-y,1/2+z
loop_
_atom_site_type_symbol
_atom_site_label
_atom_site_fract_x
_atom_site_fract_y
_atom_site_fract_z
Si Si1 0.819774 0.190095 0.411218
Si Si2 0.977023 0.261526 0.838718
Si Si3 0.368559 0.274969 0.412383
Si Si4 0.384159 0.303459 0.088632
Si Si5 0.872768 0.983718 0.838213
Si Si6 0.805860 0.141836 0.087614
Si Si7 0.801207 0.608900 0.332956
Si Si8 0.282203 0.557095 0.686958
O O1 0.829492 0.166763 0.500000
O O2 0.701616 0.230430 0.391431
O O3 0.836782 0.109303 0.359300
O O4 0.911867 0.258658 0.388801
O O5 0.899187 0.184324 0.860690
O O6 0.915037 0.348155 0.859796
O O7 0.000000 0.251663 0.750000
O O8 0.360356 0.301856 0.500000
O O9 0.495902 0.270469 0.385903
O O10 0.313379 0.184629 0.399027
O O11 0.305834 0.344417 0.364804
O O12 0.359214 0.389595 0.132234
O O13 0.378598 0.325841 0.000000
O O14 0.849990 0.000000 0.750000
O O15 0.796418 0.045866 0.887584
O O16 0.000000 0.000000 0.859996
O O17 0.842657 0.149338 0.000000
O O18 0.793585 0.511255 0.359253
O O19 0.796797 0.616027 0.239611
O O20 0.350968 0.500000 0.750000
#
# Coordination Sequence:
#
# PCOD8203833 Si02
#       8
#     8   8   8   8   8   8   8   8
#     4  11  23  36  56  84 114 148 185 229 281 334
#     4  11  19  32  55  79 111 147 185 229 281 335
#     4   9  19  36  58  83 109 146 186 225 278 329
#     4  10  21  39  58  80 114 150 186 229 281 338
#     4  11  22  37  56  85 114 145 182 227 275 328
#     4  10  20  35  57  83 112 143 184 231 274 328
#     4   8  19  35  53  79 109 142 187 235 275 329
#     4   8  19  38  54  82 111 144 187 235 282 334
#
# _framework density 18.792459999999998
#
# number of rings (size 3 to 8) (size 9 to 14) (size 15 to 20)
#    0.750    1.375    1.250    2.250    0.000    3.500 
#    2.250    6.250    0.000    5.250    0.000    0.000 
#    0.000    0.000    0.000    0.000    0.000    0.000 
#
# Total GULP energy -793143.546018 kJ/mol
# GULP energy per Si atom -12392.867907 kJ/mol
# Density = 1.874969 g / cm^3
# Si number density = 18.792460 Si / 1000 Ang^3
#
#
#
# Elastic Constant Matrix: (Units=GPa)
#
#
# Indices 1 2 3 4 5 6 
#
# 1 116.7568 66.7610 47.1574 0.0000 0.0000 0.0000
# 2 66.7610 119.5196 53.5408 0.0000 0.0000 0.0000
# 3 47.1574 53.5408 71.8906 0.0000 0.0000 0.0000
# 4 0.0000 0.0000 0.0000 36.1073 0.0000 0.0000
# 5 0.0000 0.0000 0.0000 0.0000 11.4700 0.0000
# 6 0.0000 0.0000 0.0000 0.0000 0.0000 20.9333
#
#
#
# Elastic Compliance Matrix: (Units=1/GPa)
#
#
# Indices 1 2 3 4 5 6 
#
# 1 0.013651 -0.005423 -0.004916 0.000000 0.000000 0.000000
# 2 -0.005423 0.014710 -0.007398 0.000000 0.000000 0.000000
# 3 -0.004916 -0.007398 0.022644 0.000000 0.000000 0.000000
# 4 0.000000 0.000000 0.000000 0.027695 0.000000 0.000000
# 5 0.000000 0.000000 0.000000 0.000000 0.087184 0.000000
# 6 0.000000 0.000000 0.000000 0.000000 0.000000 0.047771
#
#
# Mechanical properties :
#
#
# Convention : Reuss Voigt Hill
#
# Bulk Modulus (GPa) = 64.38435 71.45393 67.91914
# Shear Modulus (GPa) = 19.66129 23.08264 21.37196
#
# Velocity S-wave (km/s) = 3.23806 3.50850 3.37599
# Velocity P-wave (km/s) = 6.95091 7.38363 7.17054
#
# Compressibility (1/GPa) = 0.01553173
#
# Stress axis : x y z
#
# Youngs Moduli (GPa) = 73.25368 67.98018 44.16131
#
# Poissons Ratio (x) = 0.36867 0.21708
# Poissons Ratio (y) = 0.39727 0.32671
# Poissons Ratio (z) = 0.36009 0.50292
#
# Static dielectric constant tensor:
#      x y z
#    x 3.400490 0.000000 0.000000 
#    y 0.000000 3.465070 0.000000 
#    z 0.000000 0.000000 3.434910 
# 
# 
# High freq. dielectric constant tensor:
#      x y z
#    x 1.710950 0.000000 0.000000 
#    y 0.000000 1.730150 0.000000 
#    z 0.000000 0.000000 1.730250 
# 
# From -- ./inp_files/17289.got.cif
#   From: 2010.03.12/outbox.cif.g09.slc.cpg/sg49_9_cif.got.tgz:17289.got - 2010.04.14 03:58:27.
