data_PCOD8203918
_publ_section_title
;
Structure prediction by ZEFSAII (Michael W. Deem and Ramdas Pophale) SiO2 
 PCOD8203918
Probable space group: P C C M
;
_chemical_formula_sum "Si O2"
_cell_formula_units_Z 58
_cell_length_a 23.293212
_cell_length_b 14.946193
_cell_length_c 8.774536
_cell_angle_alpha 90.000000
_cell_angle_beta 90.000000
_cell_angle_gamma 90.000000
_cell_volume 3054.809451
_symmetry_space_group_name_H-M "P C C M"
_symmetry_group_IT_number 49
_symmetry_cell_setting 'orthorhombic'
loop_
_space_group_symop_operation_xyz
x,y,z
-x,-y,z
x,-y,1/2-z
-x,y,1/2-z
-x,-y,-z
x,y,-z
-x,y,1/2+z
x,-y,1/2+z
loop_
_atom_site_type_symbol
_atom_site_label
_atom_site_fract_x
_atom_site_fract_y
_atom_site_fract_z
Si Si1 0.395994 0.906208 0.319704
Si Si2 0.000000 0.000000 0.750000
Si Si3 0.228612 0.410444 0.322642
Si Si4 0.440547 0.270145 0.318485
Si Si5 0.054135 0.172757 0.333459
Si Si6 0.263407 0.907984 0.322536
Si Si7 0.351517 0.593863 0.681734
Si Si8 0.823546 0.775913 0.676513
O O1 0.407370 0.903623 0.500000
O O2 0.433142 0.831657 0.235220
O O3 0.329340 0.889885 0.279693
O O4 0.416539 0.000000 0.250000
O O5 0.957892 0.065352 0.846388
O O6 0.200818 0.500000 0.250000
O O7 0.243567 0.426172 0.500000
O O8 0.286563 0.387501 0.232377
O O9 0.183506 0.330320 0.301113
O O10 0.500000 0.307515 0.250000
O O11 0.440892 0.276899 0.500000
O O12 0.389226 0.327262 0.249407
O O13 0.057291 0.215586 0.500000
O O14 0.114891 0.194138 0.252269
O O15 0.000000 0.219655 0.250000
O O16 0.254393 0.917425 0.500000
O O17 0.227265 0.824815 0.263428
O O18 0.240906 0.000000 0.250000
O O19 0.373677 0.500000 0.750000
O O20 0.356088 0.593115 0.500000
O O21 0.819764 0.803711 0.500000
#
# Coordination Sequence:
#
# PCOD8203918 Si02
#       8
#     8   2   8   8   8   8   8   8
#     4  10  21  39  59  81 110 146 187 232 280 332
#     4   8  18  32  54  68 104 140 190 224 272 312
#     4  10  20  36  59  84 113 146 181 226 278 330
#     4  12  25  41  60  84 112 145 186 231 279 329
#     4   9  19  33  50  74 105 141 183 226 271 320
#     4  10  21  34  52  79 111 145 180 221 270 327
#     4  11  22  39  62  88 117 147 182 223 274 336
#     4  10  21  35  52  79 113 145 181 229 279 328
#
# _framework density 18.986454999999999
#
# number of rings (size 3 to 8) (size 9 to 14) (size 15 to 20)
#    0.414    1.379    0.000    5.586    0.966    6.069 
#    0.000    2.759    0.000    0.414    0.000    2.897 
#    0.000    0.000    0.000    0.000    0.000    0.000 
#
# Total GULP energy -719115.751861 kJ/mol
# GULP energy per Si atom -12398.547446 kJ/mol
# Density = 1.894324 g / cm^3
# Si number density = 18.986455 Si / 1000 Ang^3
#
#
#
# Elastic Constant Matrix: (Units=GPa)
#
#
# Indices 1 2 3 4 5 6 
#
# 1 64.9388 35.6035 29.0981 0.0000 0.0000 0.0000
# 2 35.6035 95.6452 32.1734 0.0000 0.0000 0.0000
# 3 29.0981 32.1734 114.6395 0.0000 0.0000 0.0000
# 4 0.0000 0.0000 0.0000 34.2566 0.0000 0.0000
# 5 0.0000 0.0000 0.0000 0.0000 13.7191 0.0000
# 6 0.0000 0.0000 0.0000 0.0000 0.0000 31.3315
#
#
#
# Elastic Compliance Matrix: (Units=1/GPa)
#
#
# Indices 1 2 3 4 5 6 
#
# 1 0.020466 -0.006483 -0.003375 0.000000 0.000000 0.000000
# 2 -0.006483 0.013599 -0.002171 0.000000 0.000000 0.000000
# 3 -0.003375 -0.002171 0.010189 0.000000 0.000000 0.000000
# 4 0.000000 0.000000 0.000000 0.029191 0.000000 0.000000
# 5 0.000000 0.000000 0.000000 0.000000 0.072891 0.000000
# 6 0.000000 0.000000 0.000000 0.000000 0.000000 0.031917
#
#
# Mechanical properties :
#
#
# Convention : Reuss Voigt Hill
#
# Bulk Modulus (GPa) = 49.51643 52.10819 50.81231
# Shear Modulus (GPa) = 23.91849 27.75134 25.83491
#
# Velocity S-wave (km/s) = 3.55317 3.82729 3.69277
# Velocity P-wave (km/s) = 6.55514 6.85823 6.70840
#
# Compressibility (1/GPa) = 0.02019532
#
# Stress axis : x y z
#
# Youngs Moduli (GPa) = 48.86176 73.53573 98.14503
#
# Poissons Ratio (x) = 0.47673 0.33127
# Poissons Ratio (y) = 0.31677 0.21307
# Poissons Ratio (z) = 0.16492 0.15964
#
# Static dielectric constant tensor:
#      x y z
#    x 3.472060 0.000000 0.000000 
#    y 0.000000 3.515010 0.000000 
#    z 0.000000 0.000000 3.518860 
# 
# 
# High freq. dielectric constant tensor:
#      x y z
#    x 1.727990 0.000000 0.000000 
#    y 0.000000 1.733410 0.000000 
#    z 0.000000 0.000000 1.746880 
# 
# From -- ./inp_files/6461.got.cif
#   From: 2010.03.12/outbox.cif.g09.slc.cpg/sg49_4_cif.got.tgz:6461.got - 2010.04.14 03:58:27.
