data_PCOD8203818
_publ_section_title
;
Structure prediction by ZEFSAII (Michael W. Deem and Ramdas Pophale) SiO2 
 PCOD8203818
Probable space group: P C C M
;
_chemical_formula_sum "Si O2"
_cell_formula_units_Z 48
_cell_length_a 8.664815
_cell_length_b 17.315605
_cell_length_c 16.553279
_cell_angle_alpha 90.000000
_cell_angle_beta 90.000000
_cell_angle_gamma 90.000000
_cell_volume 2483.596275
_symmetry_space_group_name_H-M "P C C M"
_symmetry_group_IT_number 49
_symmetry_cell_setting 'orthorhombic'
loop_
_space_group_symop_operation_xyz
x,y,z
-x,-y,z
x,-y,1/2-z
-x,y,1/2-z
-x,-y,-z
x,y,-z
-x,y,1/2+z
x,-y,1/2+z
loop_
_atom_site_type_symbol
_atom_site_label
_atom_site_fract_x
_atom_site_fract_y
_atom_site_fract_z
Si Si1 0.653549 0.829269 0.595186
Si Si2 0.894136 0.705259 0.174733
Si Si3 0.191521 0.674587 0.093293
Si Si4 0.678735 0.410993 0.237443
Si Si5 0.295107 0.161100 0.904997
Si Si6 0.670966 0.994161 0.404233
O O1 0.670576 0.824791 0.500000
O O2 0.743751 0.755717 0.630308
O O3 0.473593 0.826651 0.619202
O O4 0.734571 0.910229 0.626023
O O5 0.774476 0.638126 0.197386
O O6 0.806477 0.781090 0.146238
O O7 0.000000 0.728201 0.250000
O O8 0.006260 0.673740 0.103825
O O9 0.272304 0.607972 0.145599
O O10 0.234915 0.660924 0.000000
O O11 0.718131 0.500000 0.250000
O O12 0.500000 0.392521 0.250000
O O13 0.239673 0.073281 0.880568
O O14 0.269939 0.176150 0.000000
O O15 0.659755 0.991464 0.500000
O O16 0.500000 0.000000 0.367926
#
# Coordination Sequence:
#
# PCOD8203818 Si02
#       6
#     8   8   8   8   8   8
#     4   8  14  26  48  77 105 133 172 222 263 297
#     4  10  21  34  51  75 106 141 172 211 267 324
#     4  10  20  35  56  83 113 143 178 216 258 314
#     4  10  22  42  63  81 104 137 174 216 270 324
#     4   9  15  27  49  75 102 136 181 223 257 302
#     4   7  11  21  41  71 102 131 169 218 263 297
#
# _framework density 19.326812
#
# number of rings (size 3 to 8) (size 9 to 14) (size 15 to 20)
#    0.000    3.000    0.000    3.500    0.000    3.000 
#    0.000    5.833    0.000   11.000    0.000   15.167 
#    0.000    0.000    0.000    0.000    0.000    1.500 
#
# Total GULP energy -594629.244369 kJ/mol
# GULP energy per Si atom -12388.109258 kJ/mol
# Density = 1.928282 g / cm^3
# Si number density = 19.326812 Si / 1000 Ang^3
#
#
#
# Elastic Constant Matrix: (Units=GPa)
#
#
# Indices 1 2 3 4 5 6 
#
# 1 91.1640 76.1506 32.9450 0.0000 0.0000 0.0000
# 2 76.1506 174.7281 58.4923 0.0000 0.0000 0.0000
# 3 32.9450 58.4923 58.5523 0.0000 0.0000 0.0000
# 4 0.0000 0.0000 0.0000 29.4173 0.0000 0.0000
# 5 0.0000 0.0000 0.0000 0.0000 21.5090 0.0000
# 6 0.0000 0.0000 0.0000 0.0000 0.0000 10.1219
#
#
#
# Elastic Compliance Matrix: (Units=1/GPa)
#
#
# Indices 1 2 3 4 5 6 
#
# 1 0.017683 -0.006575 -0.003382 0.000000 0.000000 0.000000
# 2 -0.006575 0.011043 -0.007333 0.000000 0.000000 0.000000
# 3 -0.003382 -0.007333 0.026307 0.000000 0.000000 0.000000
# 4 0.000000 0.000000 0.000000 0.033994 0.000000 0.000000
# 5 0.000000 0.000000 0.000000 0.000000 0.046492 0.000000
# 6 0.000000 0.000000 0.000000 0.000000 0.000000 0.098795
#
#
# Mechanical properties :
#
#
# Convention : Reuss Voigt Hill
#
# Bulk Modulus (GPa) = 48.88760 73.29113 61.08936
# Shear Modulus (GPa) = 18.13496 22.66675 20.40086
#
# Velocity S-wave (km/s) = 3.06654 3.42835 3.25248
# Velocity P-wave (km/s) = 6.15535 7.32638 6.76625
#
# Compressibility (1/GPa) = 0.02045508
#
# Stress axis : x y z
#
# Youngs Moduli (GPa) = 56.55056 90.55276 38.01332
#
# Poissons Ratio (x) = 0.59536 0.12855
# Poissons Ratio (y) = 0.37181 0.27874
# Poissons Ratio (z) = 0.19124 0.66399
#
# Static dielectric constant tensor:
#      x y z
#    x 3.617260 0.000000 0.000000 
#    y 0.000000 4.018220 0.000000 
#    z 0.000000 0.000000 3.222700 
# 
# 
# High freq. dielectric constant tensor:
#      x y z
#    x 1.734940 0.000000 0.000000 
#    y 0.000000 1.763650 0.000000 
#    z 0.000000 0.000000 1.724250 
# 
# From -- ./inp_files/16282.got.cif
#   From: 2010.03.12/outbox.cif.g09.slc.cpg/sg49_9_cif.got.tgz:16282.got - 2010.04.14 03:58:27.
