data_PCOD8203892
_publ_section_title
;
Structure prediction by ZEFSAII (Michael W. Deem and Ramdas Pophale) SiO2 
 PCOD8203892
Probable space group: P C C M
;
_chemical_formula_sum "Si O2"
_cell_formula_units_Z 56
_cell_length_a 15.697541
_cell_length_b 19.631864
_cell_length_c 8.715918
_cell_angle_alpha 90.000000
_cell_angle_beta 90.000000
_cell_angle_gamma 90.000000
_cell_volume 2686.001795
_symmetry_space_group_name_H-M "P C C M"
_symmetry_group_IT_number 49
_symmetry_cell_setting 'orthorhombic'
loop_
_space_group_symop_operation_xyz
x,y,z
-x,-y,z
x,-y,1/2-z
-x,y,1/2-z
-x,-y,-z
x,y,-z
-x,y,1/2+z
x,-y,1/2+z
loop_
_atom_site_type_symbol
_atom_site_label
_atom_site_fract_x
_atom_site_fract_y
_atom_site_fract_z
Si Si1 0.412173 0.812138 0.180422
Si Si2 0.091454 0.196797 0.318568
Si Si3 0.146869 0.064901 0.832160
Si Si4 0.754728 0.574452 0.316998
Si Si5 0.341030 0.064401 0.833766
Si Si6 0.094125 0.338652 0.183137
Si Si7 0.410539 0.341282 0.681104
O O1 0.500000 0.839115 0.250000
O O2 0.342368 0.865619 0.237336
O O3 0.392631 0.735730 0.239670
O O4 0.415812 0.812409 0.000000
O O5 0.089099 0.208277 0.500000
O O6 0.146887 0.131529 0.275096
O O7 0.128089 0.265245 0.240610
O O8 0.000000 0.180727 0.250000
O O9 0.243734 0.044740 0.859943
O O10 0.101235 0.000000 0.750000
O O11 0.103773 0.078165 0.000000
O O12 0.743981 0.500000 0.250000
O O13 0.764022 0.573867 0.500000
O O14 0.839806 0.605804 0.244059
O O15 0.669932 0.614607 0.263438
O O16 0.386218 0.000000 0.750000
O O17 0.385161 0.074964 0.000000
O O18 0.000000 0.353724 0.250000
O O19 0.089531 0.340538 0.000000
O O20 0.500000 0.368847 0.750000
O O21 0.420007 0.344501 0.500000
#
# Coordination Sequence:
#
# PCOD8203892 Si02
#       7
#     8   8   8   8   8   8   8
#     4  10  20  36  57  83 112 149 193 243 297 355
#     4  11  22  38  60  86 117 154 197 247 298 357
#     4  10  21  37  55  81 114 152 198 246 301 358
#     4  11  24  43  65  97 130 166 209 252 304 369
#     4  10  21  36  54  79 111 149 192 243 295 355
#     4  11  23  42  66  95 128 166 207 257 310 368
#     4   9  21  40  63  91 126 164 206 254 308 364
#
# _framework density 20.848831000000001
#
# number of rings (size 3 to 8) (size 9 to 14) (size 15 to 20)
#    0.000    1.714    0.000    5.143    2.000    4.571 
#    0.000    5.714    0.000    0.000    0.000    0.000 
#    0.000    0.000    0.000    0.000    0.000    0.000 
#
# Total GULP energy -694272.314031 kJ/mol
# GULP energy per Si atom -12397.719893 kJ/mol
# Density = 2.080138 g / cm^3
# Si number density = 20.848831 Si / 1000 Ang^3
#
#
#
# Elastic Constant Matrix: (Units=GPa)
#
#
# Indices 1 2 3 4 5 6 
#
# 1 78.4600 55.8620 41.4012 0.0000 0.0000 0.0000
# 2 55.8620 146.7786 57.6334 0.0000 0.0000 0.0000
# 3 41.4012 57.6334 140.9936 0.0000 0.0000 0.0000
# 4 0.0000 0.0000 0.0000 37.7054 0.0000 0.0000
# 5 0.0000 0.0000 0.0000 0.0000 29.2239 0.0000
# 6 0.0000 0.0000 0.0000 0.0000 0.0000 14.4376
#
#
#
# Elastic Compliance Matrix: (Units=1/GPa)
#
#
# Indices 1 2 3 4 5 6 
#
# 1 0.018519 -0.005852 -0.003046 0.000000 0.000000 0.000000
# 2 -0.005852 0.009965 -0.002355 0.000000 0.000000 0.000000
# 3 -0.003046 -0.002355 0.008949 0.000000 0.000000 0.000000
# 4 0.000000 0.000000 0.000000 0.026521 0.000000 0.000000
# 5 0.000000 0.000000 0.000000 0.000000 0.034219 0.000000
# 6 0.000000 0.000000 0.000000 0.000000 0.000000 0.069263
#
#
# Mechanical properties :
#
#
# Convention : Reuss Voigt Hill
#
# Bulk Modulus (GPa) = 66.98892 75.11392 71.05142
# Shear Modulus (GPa) = 25.65172 30.36242 28.00707
#
# Velocity S-wave (km/s) = 3.51146 3.82031 3.66914
# Velocity P-wave (km/s) = 6.97431 7.45424 7.21827
#
# Compressibility (1/GPa) = 0.01492784
#
# Stress axis : x y z
#
# Youngs Moduli (GPa) = 53.99805 100.35209 111.73841
#
# Poissons Ratio (x) = 0.58728 0.34033
# Poissons Ratio (y) = 0.31601 0.26313
# Poissons Ratio (z) = 0.16447 0.23632
#
# Static dielectric constant tensor:
#      x y z
#    x 3.609610 0.000000 0.000000 
#    y 0.000000 3.900140 0.000000 
#    z 0.000000 0.000000 4.064070 
# 
# 
# High freq. dielectric constant tensor:
#      x y z
#    x 1.802520 0.000000 0.000000 
#    y 0.000000 1.820150 0.000000 
#    z 0.000000 0.000000 1.831600 
# 
# From -- ./inp_files/4037.got.cif
#   From: 2010.03.12/outbox.cif.g09.slc.cpg/sg49_3_cif.got.tgz:4037.got - 2010.04.14 03:58:27.
