data_PCOD8203272
_publ_section_title
;
Structure prediction by ZEFSAII (Michael W. Deem and Ramdas Pophale) SiO2 
 PCOD8203272
Probable space group: P C C M
;
_chemical_formula_sum "Si O2"
_cell_formula_units_Z 48
_cell_length_a 29.234317
_cell_length_b 8.947619
_cell_length_c 9.295087
_cell_angle_alpha 90.000000
_cell_angle_beta 90.000000
_cell_angle_gamma 90.000000
_cell_volume 2431.385901
_symmetry_space_group_name_H-M "P C C M"
_symmetry_group_IT_number 49
_symmetry_cell_setting 'orthorhombic'
loop_
_space_group_symop_operation_xyz
x,y,z
-x,-y,z
x,-y,1/2-z
-x,y,1/2-z
-x,-y,-z
x,y,-z
-x,y,1/2+z
x,-y,1/2+z
loop_
_atom_site_type_symbol
_atom_site_label
_atom_site_fract_x
_atom_site_fract_y
_atom_site_fract_z
Si Si1 0.795193 0.346579 0.332819
Si Si2 0.887017 0.824281 0.237351
Si Si3 0.955675 0.831646 0.000000
Si Si4 0.289240 0.847709 0.664734
Si Si5 0.549078 0.848384 0.322414
Si Si6 0.943338 0.814541 0.500000
Si Si7 0.378518 0.349005 0.830361
O O1 0.798733 0.500000 0.250000
O O2 0.789204 0.382778 0.500000
O O3 0.839906 0.250194 0.304854
O O4 0.751638 0.254751 0.274151
O O5 0.927465 0.776237 0.133884
O O6 0.909738 0.758127 0.377776
O O7 0.877350 0.000000 0.250000
O O8 0.005198 0.748642 0.000000
O O9 0.955466 0.010870 0.000000
O O10 0.279281 0.888258 0.500000
O O11 0.336723 0.763374 0.683201
O O12 0.291746 0.000000 0.750000
O O13 0.500000 0.821459 0.250000
O O14 0.547366 0.856293 0.500000
O O15 0.579731 0.712954 0.265460
O O16 0.569144 0.000000 0.250000
O O17 0.363714 0.500000 0.750000
O O18 0.391440 0.373266 0.000000
#
# Coordination Sequence:
#
# PCOD8203272 Si02
#       7
#     8   8   4   8   8   4   8
#     4  11  24  41  59  83 116 153 193 237 290 349
#     4  10  19  34  57  83 115 145 188 238 287 342
#     4   9  16  32  51  85 115 147 179 245 276 343
#     4  10  23  42  65  92 120 152 196 247 298 357
#     4  11  22  39  63  92 127 168 217 266 315 365
#     4   9  18  28  55  85 113 143 191 225 298 333
#     4  11  23  40  62  91 128 166 207 253 308 367
#
# _framework density 19.741826
#
# number of rings (size 3 to 8) (size 9 to 14) (size 15 to 20)
#    0.000    1.667    0.833    4.500    1.167    5.667 
#    0.000    1.667    0.000    3.000    0.000    0.000 
#    0.000    0.000    0.000    0.000    0.000    0.000 
#
# Total GULP energy -594732.149384 kJ/mol
# GULP energy per Si atom -12390.253112 kJ/mol
# Density = 1.969689 g / cm^3
# Si number density = 19.741826 Si / 1000 Ang^3
#
#
#
# Elastic Constant Matrix: (Units=GPa)
#
#
# Indices 1 2 3 4 5 6 
#
# 1 77.7589 21.3305 23.1368 0.0000 0.0000 0.0000
# 2 21.3305 78.6840 32.2207 0.0000 0.0000 0.0000
# 3 23.1368 32.2207 127.1344 0.0000 0.0000 0.0000
# 4 0.0000 0.0000 0.0000 30.8845 0.0000 0.0000
# 5 0.0000 0.0000 0.0000 0.0000 15.8519 0.0000
# 6 0.0000 0.0000 0.0000 0.0000 0.0000 -4.5354
#
#
#
# Elastic Compliance Matrix: (Units=1/GPa)
#
#
# Indices 1 2 3 4 5 6 
#
# 1 0.014254 -0.003126 -0.001802 0.000000 0.000000 0.000000
# 2 -0.003126 0.014866 -0.003199 0.000000 0.000000 0.000000
# 3 -0.001802 -0.003199 0.009004 0.000000 0.000000 0.000000
# 4 0.000000 0.000000 0.000000 0.032379 0.000000 0.000000
# 5 0.000000 0.000000 0.000000 0.000000 0.063084 0.000000
# 6 0.000000 0.000000 0.000000 0.000000 0.000000 -0.220487
#
#
# Mechanical properties :
#
#
# Convention : Reuss Voigt Hill
#
# Bulk Modulus (GPa) = 45.72250 48.55037 47.13643
# Shear Modulus (GPa) = -78.91941 22.23282 -28.34329
#
# Velocity S-wave (km/s) = -6.32950 3.35950 -3.79317
# Velocity P-wave (km/s) = 5.49602 6.30034 2.17809
#
# Compressibility (1/GPa) = 0.02187107
#
# Stress axis : x y z
#
# Youngs Moduli (GPa) = 70.15599 67.26550 111.05844
#
# Poissons Ratio (x) = 0.21029 0.20009
# Poissons Ratio (y) = 0.21933 0.35525
# Poissons Ratio (z) = 0.12640 0.21517
#
# Static dielectric constant tensor:
#      x y z
#    x 3.762620 0.000000 0.000000 
#    y 0.000000 3.374650 0.000000 
#    z 0.000000 0.000000 3.884400 
# 
# 
# High freq. dielectric constant tensor:
#      x y z
#    x 1.788350 0.000000 0.000000 
#    y 0.000000 1.749860 0.000000 
#    z 0.000000 0.000000 1.785600 
# 
# From -- ./inp_files/6909.got.cif
#   From: 2010.03.12/outbox.cif.g09.slc.cpg/sg49_4_cif.got.tgz:6909.got - 2010.04.14 03:58:27.
