data_PCOD8203606
_publ_section_title
;
Structure prediction by ZEFSAII (Michael W. Deem and Ramdas Pophale) SiO2 
 PCOD8203606
Probable space group: P C C M
;
_chemical_formula_sum "Si O2"
_cell_formula_units_Z 64
_cell_length_a 9.290636
_cell_length_b 21.331147
_cell_length_c 16.311182
_cell_angle_alpha 90.000000
_cell_angle_beta 90.000000
_cell_angle_gamma 90.000000
_cell_volume 3232.548780
_symmetry_space_group_name_H-M "P C C M"
_symmetry_group_IT_number 49
_symmetry_cell_setting 'orthorhombic'
loop_
_space_group_symop_operation_xyz
x,y,z
-x,-y,z
x,-y,1/2-z
-x,y,1/2-z
-x,-y,-z
x,y,-z
-x,y,1/2+z
x,-y,1/2+z
loop_
_atom_site_type_symbol
_atom_site_label
_atom_site_fract_x
_atom_site_fract_y
_atom_site_fract_z
Si Si1 0.516363 0.143644 0.591909
Si Si2 0.331701 0.497440 0.902392
Si Si3 0.257112 0.088964 0.677514
Si Si4 0.757787 0.764429 0.902506
Si Si5 0.821355 0.370986 0.594877
Si Si6 0.934119 0.561231 0.658582
Si Si7 0.013266 0.864331 0.592788
Si Si8 0.255002 0.950471 0.634650
O O1 0.457573 0.156538 0.500000
O O2 0.388804 0.134263 0.655888
O O3 0.609452 0.202667 0.625350
O O4 0.612720 0.080946 0.587467
O O5 0.500000 0.500000 0.877283
O O6 0.271882 0.429839 0.871663
O O7 0.239666 0.552808 0.854261
O O8 0.313202 0.507322 0.000000
O O9 0.259764 0.071662 0.771672
O O10 0.116537 0.128386 0.655663
O O11 0.265520 0.025132 0.624533
O O12 0.769049 0.694409 0.864135
O O13 0.892887 0.806092 0.873213
O O14 0.761802 0.763365 0.000000
O O15 0.792438 0.364657 0.500000
O O16 0.993422 0.379583 0.612343
O O17 0.000000 0.500000 0.613739
O O18 0.000000 0.563959 0.750000
O O19 0.957839 0.852910 0.500000
O O20 0.106956 0.927936 0.593978
#
# Coordination Sequence:
#
# PCOD8203606 Si02
#       8
#     8   8   8   8   8   8   8   8
#     4  10  20  34  52  72  96 127 166 208 249 299
#     4   9  17  30  52  82 109 134 171 220 269 313
#     4  11  21  33  51  75  99 125 161 207 254 302
#     4   8  17  34  52  71  97 133 172 210 256 302
#     4   9  16  31  54  72  96 138 179 210 247 308
#     4   9  17  30  48  75 107 138 172 210 257 310
#     4  10  20  34  52  73  97 125 163 208 249 297
#     4  10  21  35  50  71 101 132 158 193 256 321
#
# _framework density 19.798618999999999
#
# number of rings (size 3 to 8) (size 9 to 14) (size 15 to 20)
#    0.000    2.500    0.000    3.375    0.000    6.500 
#    0.000    8.750    0.000    7.500    0.000    0.000 
#    0.000    0.000    0.000    0.000    0.000    0.000 
#
# Total GULP energy -793046.518499 kJ/mol
# GULP energy per Si atom -12391.351852 kJ/mol
# Density = 1.975356 g / cm^3
# Si number density = 19.798619 Si / 1000 Ang^3
#
#
#
# Elastic Constant Matrix: (Units=GPa)
#
#
# Indices 1 2 3 4 5 6 
#
# 1 143.7787 50.7380 23.8257 0.0000 0.0000 0.0000
# 2 50.7380 116.4652 15.2186 0.0000 0.0000 0.0000
# 3 23.8257 15.2186 44.2175 0.0000 0.0000 0.0000
# 4 0.0000 0.0000 0.0000 16.1942 0.0000 0.0000
# 5 0.0000 0.0000 0.0000 0.0000 98.1595 0.0000
# 6 0.0000 0.0000 0.0000 0.0000 0.0000 32.3177
#
#
#
# Elastic Compliance Matrix: (Units=1/GPa)
#
#
# Indices 1 2 3 4 5 6 
#
# 1 0.008720 -0.003335 -0.003551 0.000000 0.000000 0.000000
# 2 -0.003335 0.010266 -0.001736 0.000000 0.000000 0.000000
# 3 -0.003551 -0.001736 0.025126 0.000000 0.000000 0.000000
# 4 0.000000 0.000000 0.000000 0.061750 0.000000 0.000000
# 5 0.000000 0.000000 0.000000 0.000000 0.010188 0.000000
# 6 0.000000 0.000000 0.000000 0.000000 0.000000 0.030943
#
#
# Mechanical properties :
#
#
# Convention : Reuss Voigt Hill
#
# Bulk Modulus (GPa) = 37.21864 53.78066 45.49965
# Shear Modulus (GPa) = 28.86927 43.64621 36.25774
#
# Velocity S-wave (km/s) = 3.82271 4.70031 4.28404
# Velocity P-wave (km/s) = 6.19060 7.52862 6.89216
#
# Compressibility (1/GPa) = 0.02686825
#
# Stress axis : x y z
#
# Youngs Moduli (GPa) = 114.67262 97.40836 39.79870
#
# Poissons Ratio (x) = 0.32486 0.14132
# Poissons Ratio (y) = 0.38244 0.06910
# Poissons Ratio (z) = 0.40720 0.16913
#
# Static dielectric constant tensor:
#      x y z
#    x 3.951410 0.000000 0.000000 
#    y 0.000000 3.932580 0.000000 
#    z 0.000000 0.000000 3.360310 
# 
# 
# High freq. dielectric constant tensor:
#      x y z
#    x 1.767300 0.000000 0.000000 
#    y 0.000000 1.749420 0.000000 
#    z 0.000000 0.000000 1.756770 
# 
# From -- ./inp_files/16590.got.cif
#   From: 2010.03.12/outbox.cif.g09.slc.cpg/sg49_9_cif.got.tgz:16590.got - 2010.04.14 03:58:27.
