data_PCOD8203793
_publ_section_title
;
Structure prediction by ZEFSAII (Michael W. Deem and Ramdas Pophale) SiO2 
 PCOD8203793
Probable space group: P C C M
;
_chemical_formula_sum "Si O2"
_cell_formula_units_Z 48
_cell_length_a 8.878696
_cell_length_b 29.226572
_cell_length_c 9.090297
_cell_angle_alpha 90.000000
_cell_angle_beta 90.000000
_cell_angle_gamma 90.000000
_cell_volume 2358.876147
_symmetry_space_group_name_H-M "P C C M"
_symmetry_group_IT_number 49
_symmetry_cell_setting 'orthorhombic'
loop_
_space_group_symop_operation_xyz
x,y,z
-x,-y,z
x,-y,1/2-z
-x,y,1/2-z
-x,-y,-z
x,y,-z
-x,y,1/2+z
x,-y,1/2+z
loop_
_atom_site_type_symbol
_atom_site_label
_atom_site_fract_x
_atom_site_fract_y
_atom_site_fract_z
Si Si1 0.153524 0.309578 0.667248
Si Si2 0.195094 0.541051 0.000000
Si Si3 0.322345 0.601821 0.230960
Si Si4 0.340261 0.857269 0.172044
Si Si5 0.852701 0.566038 0.000000
Si Si6 0.659498 0.958243 0.330104
Si Si7 0.162370 0.222341 0.823217
O O1 0.116083 0.293483 0.500000
O O2 0.268138 0.351705 0.654733
O O3 0.238279 0.268908 0.759708
O O4 0.000000 0.324153 0.750000
O O5 0.290756 0.556348 0.138845
O O6 0.190270 0.486888 0.000000
O O7 0.033845 0.567281 0.000000
O O8 0.500000 0.605500 0.250000
O O9 0.219172 0.594897 0.371043
O O10 0.500000 0.856181 0.250000
O O11 0.265096 0.908036 0.186115
O O12 0.238233 0.822851 0.261801
O O13 0.355402 0.843522 0.000000
O O14 0.500000 0.955414 0.250000
O O15 0.638394 0.970927 0.500000
O O16 0.751863 0.000000 0.250000
O O17 0.000000 0.224492 0.750000
O O18 0.160733 0.221282 0.000000
#
# Coordination Sequence:
#
# PCOD8203793 Si02
#       7
#     8   4   8   8   4   8   8
#     4  11  23  42  66  89 118 156 203 246 296 368
#     4  11  23  47  63  99 117 169 215 245 300 359
#     4  12  26  41  63  96 130 161 198 254 317 360
#     4  10  20  35  55  84 120 158 201 252 311 366
#     4  11  25  41  73  87 129 163 211 255 288 371
#     4   9  16  26  45  73 109 151 196 247 300 361
#     4  11  23  40  63  90 118 156 203 249 304 364
#
# _framework density 20.348673000000002
#
# number of rings (size 3 to 8) (size 9 to 14) (size 15 to 20)
#    0.000    1.333    0.833    7.000    2.333    6.000 
#    0.000    1.667    0.000    0.500    0.000    3.500 
#    0.000    0.000    0.000    0.000    0.000    0.000 
#
# Total GULP energy -594736.015783 kJ/mol
# GULP energy per Si atom -12390.333662 kJ/mol
# Density = 2.030236 g / cm^3
# Si number density = 20.348673 Si / 1000 Ang^3
#
#
#
# Elastic Constant Matrix: (Units=GPa)
#
#
# Indices 1 2 3 4 5 6 
#
# 1 59.9653 36.3295 25.7392 0.0000 0.0000 0.0000
# 2 36.3295 119.7773 50.8466 0.0000 0.0000 0.0000
# 3 25.7392 50.8466 174.8568 0.0000 0.0000 0.0000
# 4 0.0000 0.0000 0.0000 39.9077 0.0000 0.0000
# 5 0.0000 0.0000 0.0000 0.0000 27.8094 0.0000
# 6 0.0000 0.0000 0.0000 0.0000 0.0000 24.8612
#
#
#
# Elastic Compliance Matrix: (Units=1/GPa)
#
#
# Indices 1 2 3 4 5 6 
#
# 1 0.020725 -0.005694 -0.001395 0.000000 0.000000 0.000000
# 2 -0.005694 0.011089 -0.002386 0.000000 0.000000 0.000000
# 3 -0.001395 -0.002386 0.006618 0.000000 0.000000 0.000000
# 4 0.000000 0.000000 0.000000 0.025058 0.000000 0.000000
# 5 0.000000 0.000000 0.000000 0.000000 0.035959 0.000000
# 6 0.000000 0.000000 0.000000 0.000000 0.000000 0.040223
#
#
# Mechanical properties :
#
#
# Convention : Reuss Voigt Hill
#
# Bulk Modulus (GPa) = 51.33104 64.49222 57.91163
# Shear Modulus (GPa) = 30.28172 34.62793 32.45483
#
# Velocity S-wave (km/s) = 3.86183 4.12968 3.99800
# Velocity P-wave (km/s) = 6.72053 7.38250 7.05928
#
# Compressibility (1/GPa) = 0.01948139
#
# Stress axis : x y z
#
# Youngs Moduli (GPa) = 48.25176 90.18064 151.09729
#
# Poissons Ratio (x) = 0.51347 0.21078
# Poissons Ratio (y) = 0.27473 0.36058
# Poissons Ratio (z) = 0.06731 0.21521
#
# Static dielectric constant tensor:
#      x y z
#    x 3.284890 0.000000 0.000000 
#    y 0.000000 4.706070 0.000000 
#    z 0.000000 0.000000 3.868070 
# 
# 
# High freq. dielectric constant tensor:
#      x y z
#    x 1.753160 0.000000 0.000000 
#    y 0.000000 1.820460 0.000000 
#    z 0.000000 0.000000 1.819400 
# 
# From -- ./inp_files/2160.got.cif
#   From: 2010.03.12/outbox.cif.g09.slc.cpg/sg49_2_cif.got.tgz:2160.got - 2010.04.14 03:58:27.
