data_PCOD8203349
_publ_section_title
;
Structure prediction by ZEFSAII (Michael W. Deem and Ramdas Pophale) SiO2 
 PCOD8203349
Probable space group: P C C M
;
_chemical_formula_sum "Si O2"
_cell_formula_units_Z 52
_cell_length_a 9.293271
_cell_length_b 10.676099
_cell_length_c 23.736961
_cell_angle_alpha 90.000000
_cell_angle_beta 90.000000
_cell_angle_gamma 90.000000
_cell_volume 2355.083503
_symmetry_space_group_name_H-M "P C C M"
_symmetry_group_IT_number 49
_symmetry_cell_setting 'orthorhombic'
loop_
_space_group_symop_operation_xyz
x,y,z
-x,-y,z
x,-y,1/2-z
-x,y,1/2-z
-x,-y,-z
x,y,-z
-x,y,1/2+z
x,-y,1/2+z
loop_
_atom_site_type_symbol
_atom_site_label
_atom_site_fract_x
_atom_site_fract_y
_atom_site_fract_z
Si Si1 0.155847 0.027051 0.913214
Si Si2 0.903557 0.151865 0.697525
Si Si3 0.732870 0.500000 0.250000
Si Si4 0.353841 0.235958 0.271373
Si Si5 0.410538 0.123982 0.614090
Si Si6 0.674175 0.269073 0.436885
Si Si7 0.887350 0.598844 0.857452
O O1 0.131020 0.037941 0.845086
O O2 0.216016 0.153646 0.939650
O O3 0.275283 0.918577 0.925487
O O4 0.000000 0.000000 0.941519
O O5 0.755424 0.194636 0.723915
O O6 0.965547 0.269432 0.660618
O O7 0.000000 0.108624 0.750000
O O8 0.634782 0.613734 0.271424
O O9 0.836370 0.534293 0.199095
O O10 0.500000 0.175416 0.250000
O O11 0.326925 0.185150 0.333605
O O12 0.517355 0.225932 0.586133
O O13 0.500000 0.000000 0.630810
O O14 0.652645 0.321885 0.500000
O O15 0.749799 0.375417 0.398383
O O16 0.000000 0.500000 0.886073
#
# Coordination Sequence:
#
# PCOD8203349 Si02
#       7
#     8   8   4   8   8   8   8
#     4  10  21  35  56  88 117 150 200 251 305 371
#     4  10  20  33  51  83 125 159 186 235 308 375
#     4  10  20  34  56  88 123 154 185 238 309 368
#     4  11  20  31  51  81 116 155 197 235 286 364
#     4  10  21  37  57  82 115 158 204 250 305 368
#     4  10  23  42  60  81 113 155 205 258 312 368
#     4  10  19  35  60  87 115 153 200 244 300 378
#
# _framework density 22.079896999999999
#
# number of rings (size 3 to 8) (size 9 to 14) (size 15 to 20)
#    0.000    1.846    0.000    6.923    0.000    8.308 
#    0.000    0.000    0.000    1.846    0.000    0.000 
#    0.000    0.000    0.000    0.000    0.000    0.000 
#
# Total GULP energy -644336.926985 kJ/mol
# GULP energy per Si atom -12391.094750 kJ/mol
# Density = 2.202964 g / cm^3
# Si number density = 22.079897 Si / 1000 Ang^3
#
#
#
# Elastic Constant Matrix: (Units=GPa)
#
#
# Indices 1 2 3 4 5 6 
#
# 1 122.1885 49.8661 9.6112 0.0000 0.0000 0.0000
# 2 49.8661 71.1836 28.1111 0.0000 0.0000 0.0000
# 3 9.6112 28.1111 96.1826 0.0000 0.0000 0.0000
# 4 0.0000 0.0000 0.0000 13.9908 0.0000 0.0000
# 5 0.0000 0.0000 0.0000 0.0000 11.7059 0.0000
# 6 0.0000 0.0000 0.0000 0.0000 0.0000 52.4959
#
#
#
# Elastic Compliance Matrix: (Units=1/GPa)
#
#
# Indices 1 2 3 4 5 6 
#
# 1 0.011620 -0.008684 0.001377 0.000000 0.000000 0.000000
# 2 -0.008684 0.022371 -0.005671 0.000000 0.000000 0.000000
# 3 0.001377 -0.005671 0.011917 0.000000 0.000000 0.000000
# 4 0.000000 0.000000 0.000000 0.071476 0.000000 0.000000
# 5 0.000000 0.000000 0.000000 0.000000 0.085427 0.000000
# 6 0.000000 0.000000 0.000000 0.000000 0.000000 0.019049
#
#
# Mechanical properties :
#
#
# Convention : Reuss Voigt Hill
#
# Bulk Modulus (GPa) = 50.11948 51.63685 50.87816
# Shear Modulus (GPa) = 19.64915 29.10293 24.37604
#
# Velocity S-wave (km/s) = 2.98637 3.63447 3.32624
# Velocity P-wave (km/s) = 5.88555 6.40700 6.15180
#
# Compressibility (1/GPa) = 0.01995232
#
# Stress axis : x y z
#
# Youngs Moduli (GPa) = 86.06132 44.70147 83.91642
#
# Poissons Ratio (x) = 0.38817 -0.11554
# Poissons Ratio (y) = 0.74732 0.47585
# Poissons Ratio (z) = -0.11849 0.25348
#
# Static dielectric constant tensor:
#      x y z
#    x 4.030040 0.000000 0.000000 
#    y 0.000000 4.177430 0.000000 
#    z 0.000000 0.000000 3.748070 
# 
# 
# High freq. dielectric constant tensor:
#      x y z
#    x 1.875920 0.000000 0.000000 
#    y 0.000000 1.856290 0.000000 
#    z 0.000000 0.000000 1.843900 
# 
# From -- ./inp_files/24523.got.cif
#   From: 2010.03.12/outbox.cif.g09.slc.cpg/sg49_13_cif.got.tgz:24523.got - 2010.04.14 03:58:27.
