data_PCOD8203337
_publ_section_title
;
Structure prediction by ZEFSAII (Michael W. Deem and Ramdas Pophale) SiO2 
 PCOD8203337
Probable space group: P C C M
;
_chemical_formula_sum "Si O2"
_cell_formula_units_Z 56
_cell_length_a 20.192848
_cell_length_b 8.942405
_cell_length_c 15.456637
_cell_angle_alpha 90.000000
_cell_angle_beta 90.000000
_cell_angle_gamma 90.000000
_cell_volume 2791.045516
_symmetry_space_group_name_H-M "P C C M"
_symmetry_group_IT_number 49
_symmetry_cell_setting 'orthorhombic'
loop_
_space_group_symop_operation_xyz
x,y,z
-x,-y,z
x,-y,1/2-z
-x,y,1/2-z
-x,-y,-z
x,y,-z
-x,y,1/2+z
x,-y,1/2+z
loop_
_atom_site_type_symbol
_atom_site_label
_atom_site_fract_x
_atom_site_fract_y
_atom_site_fract_z
Si Si1 0.065670 0.933824 0.845076
Si Si2 0.660841 0.429245 0.841739
Si Si3 0.202899 0.106852 0.400793
Si Si4 0.340324 0.927015 0.159861
Si Si5 0.192534 0.570316 0.158564
Si Si6 0.428712 0.572103 0.000000
Si Si7 0.057064 0.392421 0.402106
Si Si8 0.428964 0.926420 0.000000
O O1 0.133603 0.984132 0.894017
O O2 0.058736 0.754393 0.842575
O O3 0.069613 0.000000 0.750000
O O4 0.000000 0.000000 0.892200
O O5 0.640191 0.500000 0.750000
O O6 0.659193 0.251192 0.832363
O O7 0.734441 0.485500 0.871345
O O8 0.610024 0.484070 0.914774
O O9 0.215167 0.157272 0.500000
O O10 0.266593 0.014671 0.366915
O O11 0.195832 0.249851 0.338539
O O12 0.390662 0.981124 0.085754
O O13 0.362559 0.000000 0.250000
O O14 0.175600 0.500000 0.250000
O O15 0.129503 0.525824 0.098901
O O16 0.500000 0.500000 0.000000
O O17 0.435757 0.749076 0.000000
O O18 0.040707 0.344536 0.500000
O O19 0.000000 0.500000 0.365382
O O20 0.500000 0.000000 0.000000
#
# Coordination Sequence:
#
# PCOD8203337 Si02
#       8
#     8   8   8   8   8   4   8   4
#     4  10  21  35  54  83 113 151 194 242 297 350
#     4   9  20  37  58  87 115 148 190 237 282 334
#     4  10  19  35  59  82 110 152 196 240 293 348
#     4  10  20  37  62  88 115 151 198 238 285 342
#     4   9  18  31  55  84 108 143 190 236 285 337
#     4  10  22  38  62  86 113 156 188 224 279 346
#     4  10  22  38  57  81 112 153 196 243 297 352
#     4  10  22  40  60  88 121 154 190 232 287 344
#
# _framework density 20.064166
#
# number of rings (size 3 to 8) (size 9 to 14) (size 15 to 20)
#    0.000    2.286    0.714    2.143    4.000    7.714 
#    0.000    4.286    0.000    0.000    0.000    0.000 
#    0.000    0.000    0.000    0.000    0.000    0.000 
#
# Total GULP energy -693927.148228 kJ/mol
# GULP energy per Si atom -12391.556218 kJ/mol
# Density = 2.001850 g / cm^3
# Si number density = 20.064166 Si / 1000 Ang^3
#
#
#
# Elastic Constant Matrix: (Units=GPa)
#
#
# Indices 1 2 3 4 5 6 
#
# 1 197.7649 39.1325 72.6830 0.0000 0.0000 0.0000
# 2 39.1325 43.7439 46.0809 0.0000 0.0000 0.0000
# 3 72.6830 46.0809 131.7295 0.0000 0.0000 0.0000
# 4 0.0000 0.0000 0.0000 28.2148 0.0000 0.0000
# 5 0.0000 0.0000 0.0000 0.0000 32.0192 0.0000
# 6 0.0000 0.0000 0.0000 0.0000 0.0000 31.4908
#
#
#
# Elastic Compliance Matrix: (Units=1/GPa)
#
#
# Indices 1 2 3 4 5 6 
#
# 1 0.006629 -0.003289 -0.002507 0.000000 0.000000 0.000000
# 2 -0.003289 0.037832 -0.011419 0.000000 0.000000 0.000000
# 3 -0.002507 -0.011419 0.012969 0.000000 0.000000 0.000000
# 4 0.000000 0.000000 0.000000 0.035442 0.000000 0.000000
# 5 0.000000 0.000000 0.000000 0.000000 0.031231 0.000000
# 6 0.000000 0.000000 0.000000 0.000000 0.000000 0.031755
#
#
# Mechanical properties :
#
#
# Convention : Reuss Voigt Hill
#
# Bulk Modulus (GPa) = 43.47972 76.55900 60.01936
# Shear Modulus (GPa) = 25.25810 32.70109 28.97959
#
# Velocity S-wave (km/s) = 3.55190 4.04149 3.80458
# Velocity P-wave (km/s) = 6.20795 7.74713 7.01986
#
# Compressibility (1/GPa) = 0.02299923
#
# Stress axis : x y z
#
# Youngs Moduli (GPa) = 150.86012 26.43248 77.10576
#
# Poissons Ratio (x) = 0.08694 0.19329
# Poissons Ratio (y) = 0.49619 0.88051
# Poissons Ratio (z) = 0.37818 0.30185
#
# Static dielectric constant tensor:
#      x y z
#    x 4.225580 0.000000 0.000000 
#    y 0.000000 3.279220 0.000000 
#    z 0.000000 0.000000 3.590810 
# 
# 
# High freq. dielectric constant tensor:
#      x y z
#    x 1.806560 0.000000 0.000000 
#    y 0.000000 1.742170 0.000000 
#    z 0.000000 0.000000 1.778670 
# 
# From -- ./inp_files/14435.got.cif
#   From: 2010.03.12/outbox.cif.g09.slc.cpg/sg49_8_cif.got.tgz:14435.got - 2010.04.14 03:58:27.
