data_PCOD8203170
_publ_section_title
;
Structure prediction by ZEFSAII (Michael W. Deem and Ramdas Pophale) SiO2 
 PCOD8203170
Probable space group: P C C M
;
_chemical_formula_sum "Si O2"
_cell_formula_units_Z 32
_cell_length_a 5.079655
_cell_length_b 17.703928
_cell_length_c 17.027458
_cell_angle_alpha 90.000000
_cell_angle_beta 90.000000
_cell_angle_gamma 90.000000
_cell_volume 1531.276682
_symmetry_space_group_name_H-M "P C C M"
_symmetry_group_IT_number 49
_symmetry_cell_setting 'orthorhombic'
loop_
_space_group_symop_operation_xyz
x,y,z
-x,-y,z
x,-y,1/2-z
-x,y,1/2-z
-x,-y,-z
x,y,-z
-x,y,1/2+z
x,-y,1/2+z
loop_
_atom_site_type_symbol
_atom_site_label
_atom_site_fract_x
_atom_site_fract_y
_atom_site_fract_z
Si Si1 0.028518 0.916550 0.907791
Si Si2 0.461830 0.823406 0.407571
Si Si3 0.538959 0.339205 0.658957
Si Si4 0.039622 0.585661 0.908292
O O1 0.312247 0.883504 0.887622
O O2 0.806741 0.859959 0.874972
O O3 0.979625 0.923436 0.000000
O O4 0.000000 0.000000 0.869816
O O5 0.451993 0.804159 0.500000
O O6 0.517752 0.747630 0.360196
O O7 0.500000 0.354810 0.750000
O O8 0.836959 0.360138 0.636671
O O9 0.337492 0.390919 0.610366
O O10 0.000000 0.500000 0.880064
O O11 0.984363 0.594480 0.000000
#
# Coordination Sequence:
#
# PCOD8203170 Si02
#       4
#     8   8   8   8
#     4   9  17  30  52  82 110 141 190 247 292 334
#     4  10  19  33  55  80 111 151 193 238 288 346
#     4  12  25  40  61  90 125 160 197 244 296 354
#     4  11  24  43  66  90 118 155 200 247 296 354
#
# _framework density 20.897593000000001
#
# number of rings (size 3 to 8) (size 9 to 14) (size 15 to 20)
#    0.000    1.500    0.000    6.000    0.000   10.000 
#    0.000    0.000    0.000    4.500    0.000    0.000 
#    0.000    0.000    0.000    0.000    0.000    0.000 
#
# Total GULP energy -396996.035825 kJ/mol
# GULP energy per Si atom -12406.126120 kJ/mol
# Density = 2.085003 g / cm^3
# Si number density = 20.897593 Si / 1000 Ang^3
#
#
#
# Elastic Constant Matrix: (Units=GPa)
#
#
# Indices 1 2 3 4 5 6 
#
# 1 84.4891 5.9272 9.5378 0.0000 0.0000 0.0000
# 2 5.9272 112.5035 19.7013 0.0000 0.0000 0.0000
# 3 9.5378 19.7013 53.4762 0.0000 0.0000 0.0000
# 4 0.0000 0.0000 0.0000 -3.1372 0.0000 0.0000
# 5 0.0000 0.0000 0.0000 0.0000 20.2616 0.0000
# 6 0.0000 0.0000 0.0000 0.0000 0.0000 39.4791
#
#
#
# Elastic Compliance Matrix: (Units=1/GPa)
#
#
# Indices 1 2 3 4 5 6 
#
# 1 0.012087 -0.000277 -0.002054 0.000000 0.000000 0.000000
# 2 -0.000277 0.009508 -0.003453 0.000000 0.000000 0.000000
# 3 -0.002054 -0.003453 0.020338 0.000000 0.000000 0.000000
# 4 0.000000 0.000000 0.000000 -0.318757 0.000000 0.000000
# 5 0.000000 0.000000 0.000000 0.000000 0.049354 0.000000
# 6 0.000000 0.000000 0.000000 0.000000 0.000000 0.025330
#
#
# Mechanical properties :
#
#
# Convention : Reuss Voigt Hill
#
# Bulk Modulus (GPa) = 32.93265 35.64461 34.28863
# Shear Modulus (GPa) = -27.70867 25.67420 -1.01724
#
# Velocity S-wave (km/s) = -3.64528 3.50890 -0.69845
# Velocity P-wave (km/s) = 1.38713 5.78881 3.97406
#
# Compressibility (1/GPa) = 0.03036500
#
# Stress axis : x y z
#
# Youngs Moduli (GPa) = 82.73265 105.17499 49.16787
#
# Poissons Ratio (x) = 0.02915 0.10098
# Poissons Ratio (y) = 0.02293 0.16980
# Poissons Ratio (z) = 0.16991 0.36321
#
# Static dielectric constant tensor:
#      x y z
#    x 3.859960 0.000000 0.000000 
#    y 0.000000 3.910110 0.000000 
#    z 0.000000 0.000000 3.444460 
# 
# 
# High freq. dielectric constant tensor:
#      x y z
#    x 1.834330 0.000000 0.000000 
#    y 0.000000 1.834590 0.000000 
#    z 0.000000 0.000000 1.783010 
# 
# From -- ./inp_files/10591.got.cif
#   From: 2010.03.12/outbox.cif.g09.slc.cpg/sg49_6_cif.got.tgz:10591.got - 2010.04.14 03:58:27.
