data_PCOD8203553
_publ_section_title
;
Structure prediction by ZEFSAII (Michael W. Deem and Ramdas Pophale) SiO2 
 PCOD8203553
Probable space group: P C C M
;
_chemical_formula_sum "Si O2"
_cell_formula_units_Z 48
_cell_length_a 19.559103
_cell_length_b 15.513768
_cell_length_c 8.771066
_cell_angle_alpha 90.000000
_cell_angle_beta 90.000000
_cell_angle_gamma 90.000000
_cell_volume 2661.451799
_symmetry_space_group_name_H-M "P C C M"
_symmetry_group_IT_number 49
_symmetry_cell_setting 'orthorhombic'
loop_
_space_group_symop_operation_xyz
x,y,z
-x,-y,z
x,-y,1/2-z
-x,y,1/2-z
-x,-y,-z
x,y,-z
-x,y,1/2+z
x,-y,1/2+z
loop_
_atom_site_type_symbol
_atom_site_label
_atom_site_fract_x
_atom_site_fract_y
_atom_site_fract_z
Si Si1 0.927454 0.409523 0.680022
Si Si2 0.428315 0.408792 0.180454
Si Si3 0.174662 0.081893 0.323084
Si Si4 0.683269 0.269750 0.322328
Si Si5 0.829910 0.273291 0.823417
Si Si6 0.322495 0.918558 0.675347
O O1 0.902299 0.500000 0.750000
O O2 0.934876 0.419592 0.500000
O O3 0.872763 0.336617 0.717885
O O4 0.000000 0.382209 0.750000
O O5 0.406166 0.500000 0.250000
O O6 0.500000 0.377428 0.250000
O O7 0.370657 0.341180 0.228752
O O8 0.435968 0.417074 0.000000
O O9 0.185335 0.064195 0.500000
O O10 0.140739 0.175941 0.296626
O O11 0.246609 0.084397 0.239713
O O12 0.132714 0.000000 0.250000
O O13 0.703691 0.278399 0.500000
O O14 0.750590 0.280977 0.221028
O O15 0.646595 0.176551 0.292760
O O16 0.837574 0.299557 0.000000
O O17 0.319789 0.939992 0.500000
O O18 0.363350 0.000000 0.750000
#
# Coordination Sequence:
#
# PCOD8203553 Si02
#       6
#     8   8   8   8   8   8
#     4  11  22  38  58  77 101 133 169 207 249 299
#     4  10  20  35  53  72  95 126 164 202 245 297
#     4   9  16  26  43  68  99 132 165 201 241 289
#     4   9  19  33  49  72 102 133 164 203 250 295
#     4  10  20  33  51  78 107 134 168 208 250 295
#     4   9  15  25  42  65  94 126 160 197 240 289
#
# _framework density 18.035270000000001
#
# number of rings (size 3 to 8) (size 9 to 14) (size 15 to 20)
#    0.000    2.333    0.000    5.500    0.000    4.667 
#    0.000    1.667    0.000    1.000    0.000    7.000 
#    0.000    0.000    0.000    0.000    0.000    0.000 
#
# Total GULP energy -594816.810297 kJ/mol
# GULP energy per Si atom -12392.016881 kJ/mol
# Density = 1.799422 g / cm^3
# Si number density = 18.035270 Si / 1000 Ang^3
#
#
#
# Elastic Constant Matrix: (Units=GPa)
#
#
# Indices 1 2 3 4 5 6 
#
# 1 53.6238 59.2743 33.6244 0.0000 0.0000 0.0000
# 2 59.2743 145.6595 61.3837 0.0000 0.0000 0.0000
# 3 33.6244 61.3837 115.2999 0.0000 0.0000 0.0000
# 4 0.0000 0.0000 0.0000 37.0993 0.0000 0.0000
# 5 0.0000 0.0000 0.0000 0.0000 19.3582 0.0000
# 6 0.0000 0.0000 0.0000 0.0000 0.0000 4.1050
#
#
#
# Elastic Compliance Matrix: (Units=1/GPa)
#
#
# Indices 1 2 3 4 5 6 
#
# 1 0.034883 -0.012774 -0.003372 0.000000 0.000000 0.000000
# 2 -0.012774 0.013529 -0.003477 0.000000 0.000000 0.000000
# 3 -0.003372 -0.003477 0.011508 0.000000 0.000000 0.000000
# 4 0.000000 0.000000 0.000000 0.026955 0.000000 0.000000
# 5 0.000000 0.000000 0.000000 0.000000 0.051658 0.000000
# 6 0.000000 0.000000 0.000000 0.000000 0.000000 0.243604
#
#
# Mechanical properties :
#
#
# Convention : Reuss Voigt Hill
#
# Bulk Modulus (GPa) = 48.37308 69.23865 58.80586
# Shear Modulus (GPa) = 11.67475 22.79921 17.23698
#
# Velocity S-wave (km/s) = 2.54703 3.55934 3.09485
# Velocity P-wave (km/s) = 5.96065 7.44083 6.74149
#
# Compressibility (1/GPa) = 0.02067266
#
# Stress axis : x y z
#
# Youngs Moduli (GPa) = 28.66718 73.91512 86.89837
#
# Poissons Ratio (x) = 0.94420 0.29303
# Poissons Ratio (y) = 0.36620 0.30218
# Poissons Ratio (z) = 0.09667 0.25703
#
# Static dielectric constant tensor:
#      x y z
#    x 2.867630 0.000000 0.000000 
#    y 0.000000 4.360680 0.000000 
#    z 0.000000 0.000000 3.461190 
# 
# 
# High freq. dielectric constant tensor:
#      x y z
#    x 1.641050 0.000000 0.000000 
#    y 0.000000 1.725030 0.000000 
#    z 0.000000 0.000000 1.716560 
# 
# From -- ./inp_files/6359.got.cif
#   From: 2010.03.12/outbox.cif.g09.slc.cpg/sg49_4_cif.got.tgz:6359.got - 2010.04.14 03:58:27.
