data_PCOD8203528
_publ_section_title
;
Structure prediction by ZEFSAII (Michael W. Deem and Ramdas Pophale) SiO2 
 PCOD8203528
Probable space group: P C C M
;
_chemical_formula_sum "Si O2"
_cell_formula_units_Z 64
_cell_length_a 21.759297
_cell_length_b 16.305383
_cell_length_c 8.825557
_cell_angle_alpha 90.000000
_cell_angle_beta 90.000000
_cell_angle_gamma 90.000000
_cell_volume 3131.251770
_symmetry_space_group_name_H-M "P C C M"
_symmetry_group_IT_number 49
_symmetry_cell_setting 'orthorhombic'
loop_
_space_group_symop_operation_xyz
x,y,z
-x,-y,z
x,-y,1/2-z
-x,y,1/2-z
-x,-y,-z
x,y,-z
-x,y,1/2+z
x,-y,1/2+z
loop_
_atom_site_type_symbol
_atom_site_label
_atom_site_fract_x
_atom_site_fract_y
_atom_site_fract_z
Si Si1 0.857834 0.583044 0.322511
Si Si2 0.900950 0.916313 0.829580
Si Si3 0.693878 0.776930 0.673732
Si Si4 0.440412 0.746437 0.174102
Si Si5 0.266638 0.382664 0.171218
Si Si6 0.935177 0.257458 0.180479
Si Si7 0.596151 0.420391 0.326604
Si Si8 0.755838 0.920084 0.170212
O O1 0.887693 0.500000 0.250000
O O2 0.866189 0.574481 0.500000
O O3 0.785579 0.582862 0.282045
O O4 0.888669 0.669218 0.267507
O O5 0.917551 0.832952 0.740894
O O6 0.828462 0.922416 0.838536
O O7 0.926704 0.000000 0.750000
O O8 0.928585 0.911569 0.000000
O O9 0.703624 0.748250 0.500000
O O10 0.621886 0.797971 0.703353
O O11 0.718441 0.710424 0.789533
O O12 0.735317 0.853494 0.709478
O O13 0.500000 0.789290 0.250000
O O14 0.430662 0.656287 0.238854
O O15 0.455816 0.738037 0.000000
O O16 0.330227 0.430926 0.190007
O O17 0.241244 0.387232 0.000000
O O18 0.000000 0.283611 0.250000
O O19 0.938373 0.252178 0.000000
O O20 0.566038 0.500000 0.250000
O O21 0.576075 0.413126 0.500000
O O22 0.728950 0.000000 0.250000
O O23 0.728602 0.908791 0.000000
#
# Coordination Sequence:
#
# PCOD8203528 Si02
#       8
#     8   8   8   8   8   8   8   8
#     4  11  24  40  60  85 114 150 192 241 293 344
#     4  10  21  38  62  92 124 155 187 227 277 337
#     4  10  20  34  54  80 111 145 181 224 274 328
#     4  10  21  36  53  73  99 135 179 224 268 316
#     4  10  20  34  55  82 111 143 180 224 276 333
#     4  11  25  43  62  85 114 151 195 241 286 335
#     4  10  20  33  50  74 104 136 172 216 266 321
#     4  10  20  34  56  86 118 149 179 216 266 324
#
# _framework density 20.439111
#
# number of rings (size 3 to 8) (size 9 to 14) (size 15 to 20)
#    0.000    1.750    0.000    4.125    0.000   10.250 
#    0.000    3.750    0.000    0.375    0.000    2.625 
#    0.000    0.000    0.000    0.000    0.000    0.000 
#
# Total GULP energy -793299.485651 kJ/mol
# GULP energy per Si atom -12395.304463 kJ/mol
# Density = 2.039259 g / cm^3
# Si number density = 20.439111 Si / 1000 Ang^3
#
#
#
# Elastic Constant Matrix: (Units=GPa)
#
#
# Indices 1 2 3 4 5 6 
#
# 1 41.9612 9.8727 29.5974 0.0000 0.0000 0.0000
# 2 9.8727 88.5507 40.2358 0.0000 0.0000 0.0000
# 3 29.5974 40.2358 98.8517 0.0000 0.0000 0.0000
# 4 0.0000 0.0000 0.0000 30.7018 0.0000 0.0000
# 5 0.0000 0.0000 0.0000 0.0000 30.6504 0.0000
# 6 0.0000 0.0000 0.0000 0.0000 0.0000 14.0962
#
#
#
# Elastic Compliance Matrix: (Units=1/GPa)
#
#
# Indices 1 2 3 4 5 6 
#
# 1 0.030272 0.000912 -0.009435 0.000000 0.000000 0.000000
# 2 0.000912 0.013883 -0.005924 0.000000 0.000000 0.000000
# 3 -0.009435 -0.005924 0.015352 0.000000 0.000000 0.000000
# 4 0.000000 0.000000 0.000000 0.032571 0.000000 0.000000
# 5 0.000000 0.000000 0.000000 0.000000 0.032626 0.000000
# 6 0.000000 0.000000 0.000000 0.000000 0.000000 0.070941
#
#
# Mechanical properties :
#
#
# Convention : Reuss Voigt Hill
#
# Bulk Modulus (GPa) = 32.66528 43.19727 37.93127
# Shear Modulus (GPa) = 21.29975 25.06684 23.18329
#
# Velocity S-wave (km/s) = 3.23167 3.50582 3.37153
# Velocity P-wave (km/s) = 5.47187 6.12929 5.80989
#
# Compressibility (1/GPa) = 0.03061354
#
# Stress axis : x y z
#
# Youngs Moduli (GPa) = 33.03381 72.03054 65.13655
#
# Poissons Ratio (x) = -0.06570 0.61457
# Poissons Ratio (y) = -0.03013 0.38586
# Poissons Ratio (z) = 0.31168 0.42670
#
# Static dielectric constant tensor:
#      x y z
#    x 3.863490 0.000000 0.000000 
#    y 0.000000 3.773290 0.000000 
#    z 0.000000 0.000000 3.897300 
# 
# 
# High freq. dielectric constant tensor:
#      x y z
#    x 1.791160 0.000000 0.000000 
#    y 0.000000 1.790810 0.000000 
#    z 0.000000 0.000000 1.814370 
# 
# From -- ./inp_files/6530.got.cif
#   From: 2010.03.12/outbox.cif.g09.slc.cpg/sg49_4_cif.got.tgz:6530.got - 2010.04.14 03:58:27.
