data_PCOD8203427
_publ_section_title
;
Structure prediction by ZEFSAII (Michael W. Deem and Ramdas Pophale) SiO2 
 PCOD8203427
Probable space group: P C C M
;
_chemical_formula_sum "Si O2"
_cell_formula_units_Z 64
_cell_length_a 21.353850
_cell_length_b 21.445246
_cell_length_c 9.061503
_cell_angle_alpha 90.000000
_cell_angle_beta 90.000000
_cell_angle_gamma 90.000000
_cell_volume 4149.611692
_symmetry_space_group_name_H-M "P C C M"
_symmetry_group_IT_number 49
_symmetry_cell_setting 'orthorhombic'
loop_
_space_group_symop_operation_xyz
x,y,z
-x,-y,z
x,-y,1/2-z
-x,y,1/2-z
-x,-y,-z
x,y,-z
-x,y,1/2+z
x,-y,1/2+z
loop_
_atom_site_type_symbol
_atom_site_label
_atom_site_fract_x
_atom_site_fract_y
_atom_site_fract_z
Si Si1 0.739797 0.164813 0.827918
Si Si2 0.157589 0.751610 0.325995
Si Si3 0.246995 0.350356 0.163197
Si Si4 0.668755 0.564043 0.330106
Si Si5 0.065374 0.168503 0.324213
Si Si6 0.350567 0.243313 0.166908
Si Si7 0.564260 0.666534 0.327519
Si Si8 0.834078 0.935371 0.330836
O O1 0.793590 0.208029 0.764766
O O2 0.674645 0.179414 0.743175
O O3 0.764558 0.094055 0.803770
O O4 0.730555 0.180071 0.000000
O O5 0.158513 0.768565 0.500000
O O6 0.177998 0.678805 0.303556
O O7 0.090387 0.767151 0.252350
O O8 0.266125 0.404848 0.275696
O O9 0.295471 0.293501 0.171937
O O10 0.248463 0.379987 0.000000
O O11 0.653843 0.500000 0.250000
O O12 0.676800 0.549272 0.500000
O O13 0.611535 0.610059 0.296484
O O14 0.059562 0.177641 0.500000
O O15 0.112079 0.112549 0.279756
O O16 0.000000 0.151275 0.250000
O O17 0.409920 0.269474 0.256704
O O18 0.371333 0.228316 0.000000
O O19 0.500000 0.647478 0.250000
O O20 0.553537 0.677553 0.500000
O O21 0.844237 0.950628 0.500000
O O22 0.841057 0.000000 0.250000
#
# Coordination Sequence:
#
# PCOD8203427 Si02
#       8
#     8   8   8   8   8   8   8   8
#     4   9  16  27  42  62  85 108 137 175 218 261
#     4   9  16  27  44  64  83 107 137 174 219 262
#     4   8  15  27  43  62  83 105 134 172 215 259
#     4  10  20  31  44  61  84 115 149 182 216 251
#     4  10  20  32  44  61  85 115 149 184 218 256
#     4   9  16  27  44  64  83 107 138 175 218 261
#     4  10  20  32  45  62  85 116 149 183 218 255
#     4   9  19  31  43  60  84 115 149 183 217 253
#
# _framework density 15.42313
#
# number of rings (size 3 to 8) (size 9 to 14) (size 15 to 20)
#    0.000    2.750    0.000    3.750    0.000    8.500 
#    0.000    2.500    0.000    0.000    0.000    0.000 
#    0.000    1.000    0.000   10.500    0.000    5.875 
#
# Total GULP energy -793116.916741 kJ/mol
# GULP energy per Si atom -12392.451824 kJ/mol
# Density = 1.538803 g / cm^3
# Si number density = 15.423130 Si / 1000 Ang^3
#
#
#
# Elastic Constant Matrix: (Units=GPa)
#
#
# Indices 1 2 3 4 5 6 
#
# 1 53.9911 54.2372 50.9312 0.0000 0.0000 0.0000
# 2 54.2372 57.4215 52.7400 0.0000 0.0000 0.0000
# 3 50.9312 52.7400 108.7985 0.0000 0.0000 0.0000
# 4 0.0000 0.0000 0.0000 27.1668 0.0000 0.0000
# 5 0.0000 0.0000 0.0000 0.0000 26.2954 0.0000
# 6 0.0000 0.0000 0.0000 0.0000 0.0000 10.8450
#
#
#
# Elastic Compliance Matrix: (Units=1/GPa)
#
#
# Indices 1 2 3 4 5 6 
#
# 1 0.364827 -0.338401 -0.006745 0.000000 0.000000 0.000000
# 2 -0.338401 0.345280 -0.008961 0.000000 0.000000 0.000000
# 3 -0.006745 -0.008961 0.016692 0.000000 0.000000 0.000000
# 4 0.000000 0.000000 0.000000 0.036810 0.000000 0.000000
# 5 0.000000 0.000000 0.000000 0.000000 0.038029 0.000000
# 6 0.000000 0.000000 0.000000 0.000000 0.000000 0.092208
#
#
# Mechanical properties :
#
#
# Convention : Reuss Voigt Hill
#
# Bulk Modulus (GPa) = 53.80111 59.55867 56.67989
# Shear Modulus (GPa) = 3.10896 17.01497 10.06197
#
# Velocity S-wave (km/s) = 1.42132 3.32507 2.55697
# Velocity P-wave (km/s) = 6.13618 7.31038 6.74887
#
# Compressibility (1/GPa) = 0.01858698
#
# Stress axis : x y z
#
# Youngs Moduli (GPa) = 2.74103 2.89620 59.90747
#
# Poissons Ratio (x) = 0.98008 0.40406
# Poissons Ratio (y) = 0.92756 0.53682
# Poissons Ratio (z) = 0.01849 0.02595
#
# Static dielectric constant tensor:
#      x y z
#    x 3.052830 0.000000 0.000000 
#    y 0.000000 2.913830 0.000000 
#    z 0.000000 0.000000 3.147730 
# 
# 
# High freq. dielectric constant tensor:
#      x y z
#    x 1.565450 0.000000 0.000000 
#    y 0.000000 1.560270 0.000000 
#    z 0.000000 0.000000 1.611160 
# 
# From -- ./inp_files/5421.got.cif
#   From: 2010.03.12/outbox.cif.g09.slc.cpg/sg49_3_cif.got.tgz:5421.got - 2010.04.14 03:58:27.
