data_PCOD8203301
_publ_section_title
;
Structure prediction by ZEFSAII (Michael W. Deem and Ramdas Pophale) SiO2 
 PCOD8203301
Probable space group: P C C M
;
_chemical_formula_sum "Si O2"
_cell_formula_units_Z 64
_cell_length_a 24.871170
_cell_length_b 14.871489
_cell_length_c 8.887929
_cell_angle_alpha 90.000000
_cell_angle_beta 90.000000
_cell_angle_gamma 90.000000
_cell_volume 3287.390130
_symmetry_space_group_name_H-M "P C C M"
_symmetry_group_IT_number 49
_symmetry_cell_setting 'orthorhombic'
loop_
_space_group_symop_operation_xyz
x,y,z
-x,-y,z
x,-y,1/2-z
-x,y,1/2-z
-x,-y,-z
x,y,-z
-x,y,1/2+z
x,-y,1/2+z
loop_
_atom_site_type_symbol
_atom_site_label
_atom_site_fract_x
_atom_site_fract_y
_atom_site_fract_z
Si Si1 0.556598 0.093818 0.178433
Si Si2 0.838948 0.836114 0.827978
Si Si3 0.739034 0.910989 0.677495
Si Si4 0.805007 0.366727 0.670776
Si Si5 0.910037 0.586803 0.324735
Si Si6 0.055076 0.218057 0.321134
Si Si7 0.349818 0.230283 0.324371
Si Si8 0.684209 0.407520 0.322449
O O1 0.500000 0.122431 0.250000
O O2 0.598062 0.172483 0.219536
O O3 0.576710 0.000000 0.250000
O O4 0.551129 0.080836 0.000000
O O5 0.798976 0.903201 0.743599
O O6 0.811753 0.739387 0.816675
O O7 0.896266 0.840552 0.744483
O O8 0.846998 0.866463 0.000000
O O9 0.741375 0.922714 0.500000
O O10 0.702917 0.825788 0.723356
O O11 0.712563 0.000000 0.750000
O O12 0.815428 0.399136 0.500000
O O13 0.847252 0.414464 0.780257
O O14 0.745917 0.392929 0.727672
O O15 0.938695 0.500000 0.250000
O O16 0.916062 0.577098 0.500000
O O17 0.937746 0.678384 0.267539
O O18 0.054143 0.209102 0.500000
O O19 0.000000 0.181144 0.250000
O O20 0.348737 0.252528 0.500000
O O21 0.351406 0.324219 0.235612
O O22 0.662673 0.500000 0.250000
O O23 0.678219 0.413264 0.500000
#
# Coordination Sequence:
#
# PCOD8203301 Si02
#       8
#     8   8   8   8   8   8   8   8
#     4  10  20  36  59  89 122 159 200 242 290 343
#     4  10  19  35  56  79 108 140 178 224 274 333
#     4  11  22  36  57  86 119 153 186 226 278 340
#     4   9  18  32  50  73 101 138 181 224 273 328
#     4  10  20  31  46  68  96 130 171 220 274 331
#     4  10  21  36  53  74  97 132 177 223 277 334
#     4  10  22  38  57  84 120 158 197 241 287 337
#     4  11  22  35  53  79 112 153 198 242 288 339
#
# _framework density 19.468330000000002
#
# number of rings (size 3 to 8) (size 9 to 14) (size 15 to 20)
#    0.000    1.875    1.250    3.375    0.000    5.750 
#    0.000    1.250    0.000    0.750    0.000    5.250 
#    0.000    0.000    0.000    0.000    0.000    0.000 
#
# Total GULP energy -793740.247791 kJ/mol
# GULP energy per Si atom -12402.191372 kJ/mol
# Density = 1.942402 g / cm^3
# Si number density = 19.468330 Si / 1000 Ang^3
#
#
#
# Elastic Constant Matrix: (Units=GPa)
#
#
# Indices 1 2 3 4 5 6 
#
# 1 104.3828 45.6870 45.8252 0.0000 0.0000 0.0000
# 2 45.6870 99.3168 46.0680 0.0000 0.0000 0.0000
# 3 45.8252 46.0680 92.9697 0.0000 0.0000 0.0000
# 4 0.0000 0.0000 0.0000 33.0570 0.0000 0.0000
# 5 0.0000 0.0000 0.0000 0.0000 28.3023 0.0000
# 6 0.0000 0.0000 0.0000 0.0000 0.0000 13.6624
#
#
#
# Elastic Compliance Matrix: (Units=1/GPa)
#
#
# Indices 1 2 3 4 5 6 
#
# 1 0.013353 -0.004012 -0.004594 0.000000 0.000000 0.000000
# 2 -0.004012 0.014279 -0.005098 0.000000 0.000000 0.000000
# 3 -0.004594 -0.005098 0.015547 0.000000 0.000000 0.000000
# 4 0.000000 0.000000 0.000000 0.030251 0.000000 0.000000
# 5 0.000000 0.000000 0.000000 0.000000 0.035333 0.000000
# 6 0.000000 0.000000 0.000000 0.000000 0.000000 0.073193
#
#
# Mechanical properties :
#
#
# Convention : Reuss Voigt Hill
#
# Bulk Modulus (GPa) = 63.40622 63.53663 63.47143
# Shear Modulus (GPa) = 23.29707 25.61029 24.45368
#
# Velocity S-wave (km/s) = 3.46304 3.63090 3.54796
# Velocity P-wave (km/s) = 6.97351 7.09116 7.03258
#
# Compressibility (1/GPa) = 0.01577132
#
# Stress axis : x y z
#
# Youngs Moduli (GPa) = 74.89138 70.03332 64.32244
#
# Poissons Ratio (x) = 0.28094 0.29548
# Poissons Ratio (y) = 0.30043 0.32792
# Poissons Ratio (z) = 0.34404 0.35704
#
# Static dielectric constant tensor:
#      x y z
#    x 3.434640 0.000000 0.000000 
#    y 0.000000 3.510790 0.000000 
#    z 0.000000 0.000000 3.519800 
# 
# 
# High freq. dielectric constant tensor:
#      x y z
#    x 1.739290 0.000000 0.000000 
#    y 0.000000 1.750490 0.000000 
#    z 0.000000 0.000000 1.765890 
# 
# From -- ./inp_files/6532.got.cif
#   From: 2010.03.12/outbox.cif.g09.slc.cpg/sg49_4_cif.got.tgz:6532.got - 2010.04.14 03:58:27.
