data_PCOD8203176
_publ_section_title
;
Structure prediction by ZEFSAII (Michael W. Deem and Ramdas Pophale) SiO2 
 PCOD8203176
Probable space group: P C C M
;
_chemical_formula_sum "Si O2"
_cell_formula_units_Z 64
_cell_length_a 15.959808
_cell_length_b 22.469149
_cell_length_c 8.962367
_cell_angle_alpha 90.000000
_cell_angle_beta 90.000000
_cell_angle_gamma 90.000000
_cell_volume 3213.934418
_symmetry_space_group_name_H-M "P C C M"
_symmetry_group_IT_number 49
_symmetry_cell_setting 'orthorhombic'
loop_
_space_group_symop_operation_xyz
x,y,z
-x,-y,z
x,-y,1/2-z
-x,y,1/2-z
-x,-y,-z
x,y,-z
-x,y,1/2+z
x,-y,1/2+z
loop_
_atom_site_type_symbol
_atom_site_label
_atom_site_fract_x
_atom_site_fract_y
_atom_site_fract_z
Si Si1 0.912733 0.845942 0.178038
Si Si2 0.697849 0.677220 0.664827
Si Si3 0.584811 0.100043 0.675106
Si Si4 0.768400 0.939204 0.823384
Si Si5 0.739079 0.560956 0.175867
Si Si6 0.077603 0.602859 0.325982
Si Si7 0.115518 0.279607 0.333513
Si Si8 0.418517 0.763162 0.673903
O O1 0.834401 0.888077 0.224658
O O2 0.893053 0.780942 0.241424
O O3 0.000000 0.869879 0.250000
O O4 0.922090 0.843493 0.000000
O O5 0.656342 0.672151 0.500000
O O6 0.687707 0.614291 0.748497
O O7 0.790975 0.698869 0.646754
O O8 0.659946 0.727771 0.767524
O O9 0.500000 0.072377 0.750000
O O10 0.574732 0.090638 0.500000
O O11 0.672597 0.072339 0.733473
O O12 0.591935 0.168654 0.720939
O O13 0.800539 0.000000 0.750000
O O14 0.767930 0.945569 0.000000
O O15 0.707761 0.500000 0.250000
O O16 0.836976 0.569131 0.213266
O O17 0.721350 0.560415 0.000000
O O18 0.063244 0.606957 0.500000
O O19 0.070962 0.669168 0.259836
O O20 0.000000 0.567116 0.250000
O O21 0.076297 0.271437 0.500000
O O22 0.500000 0.735055 0.750000
O O23 0.426282 0.755090 0.500000
#
# Coordination Sequence:
#
# PCOD8203176 Si02
#       8
#     8   8   8   8   8   8   8   8
#     4  11  23  39  58  80 108 143 185 233 284 335
#     4  10  20  34  54  80 109 141 178 220 267 320
#     4   9  19  36  58  86 117 148 180 218 269 328
#     4  10  23  41  59  80 109 146 187 230 275 326
#     4  10  21  36  53  73  99 136 180 223 266 312
#     4  10  20  33  50  73 103 137 172 214 266 320
#     4  10  20  34  54  80 108 138 175 220 271 327
#     4  10  19  33  55  83 115 145 175 213 261 318
#
# _framework density 19.913288999999999
#
# number of rings (size 3 to 8) (size 9 to 14) (size 15 to 20)
#    0.000    2.000    0.000    3.375    0.000    6.750 
#    0.000    3.750    0.000    0.375    0.000    2.625 
#    0.000    0.000    0.000    0.000    0.000    0.000 
#
# Total GULP energy -793356.775115 kJ/mol
# GULP energy per Si atom -12396.199611 kJ/mol
# Density = 1.986797 g / cm^3
# Si number density = 19.913289 Si / 1000 Ang^3
#
#
#
# Elastic Constant Matrix: (Units=GPa)
#
#
# Indices 1 2 3 4 5 6 
#
# 1 56.3709 21.0389 18.8028 0.0000 0.0000 0.0000
# 2 21.0389 72.1295 40.9418 0.0000 0.0000 0.0000
# 3 18.8028 40.9418 73.0708 0.0000 0.0000 0.0000
# 4 0.0000 0.0000 0.0000 37.4673 0.0000 0.0000
# 5 0.0000 0.0000 0.0000 0.0000 33.2616 0.0000
# 6 0.0000 0.0000 0.0000 0.0000 0.0000 13.3605
#
#
#
# Elastic Compliance Matrix: (Units=1/GPa)
#
#
# Indices 1 2 3 4 5 6 
#
# 1 0.020288 -0.004332 -0.002793 0.000000 0.000000 0.000000
# 2 -0.004332 0.021255 -0.010794 0.000000 0.000000 0.000000
# 3 -0.002793 -0.010794 0.020452 0.000000 0.000000 0.000000
# 4 0.000000 0.000000 0.000000 0.026690 0.000000 0.000000
# 5 0.000000 0.000000 0.000000 0.000000 0.030065 0.000000
# 6 0.000000 0.000000 0.000000 0.000000 0.000000 0.074847
#
#
# Mechanical properties :
#
#
# Convention : Reuss Voigt Hill
#
# Bulk Modulus (GPa) = 38.23282 40.34868 39.29075
# Shear Modulus (GPa) = 20.99475 24.87040 22.93258
#
# Velocity S-wave (km/s) = 3.25053 3.53786 3.39724
# Velocity P-wave (km/s) = 5.77315 6.08233 5.92976
#
# Compressibility (1/GPa) = 0.02615554
#
# Stress axis : x y z
#
# Youngs Moduli (GPa) = 49.28969 47.04879 48.89465
#
# Poissons Ratio (x) = 0.20383 0.13658
# Poissons Ratio (y) = 0.21353 0.52778
# Poissons Ratio (z) = 0.13768 0.50785
#
# Static dielectric constant tensor:
#      x y z
#    x 3.927840 0.000000 0.000000 
#    y 0.000000 3.533280 0.000000 
#    z 0.000000 0.000000 3.764150 
# 
# 
# High freq. dielectric constant tensor:
#      x y z
#    x 1.772700 0.000000 0.000000 
#    y 0.000000 1.769140 0.000000 
#    z 0.000000 0.000000 1.786830 
# 
# From -- ./inp_files/4344.got.cif
#   From: 2010.03.12/outbox.cif.g09.slc.cpg/sg49_3_cif.got.tgz:4344.got - 2010.04.14 03:58:27.
