data_PCOD8203228
_publ_section_title
;
Structure prediction by ZEFSAII (Michael W. Deem and Ramdas Pophale) SiO2 
 PCOD8203228
Probable space group: P C C M
;
_chemical_formula_sum "Si O2"
_cell_formula_units_Z 34
_cell_length_a 11.906043
_cell_length_b 13.721250
_cell_length_c 9.207312
_cell_angle_alpha 90.000000
_cell_angle_beta 90.000000
_cell_angle_gamma 90.000000
_cell_volume 1504.159822
_symmetry_space_group_name_H-M "P C C M"
_symmetry_group_IT_number 49
_symmetry_cell_setting 'orthorhombic'
loop_
_space_group_symop_operation_xyz
x,y,z
-x,-y,z
x,-y,1/2-z
-x,y,1/2-z
-x,-y,-z
x,y,-z
-x,y,1/2+z
x,-y,1/2+z
loop_
_atom_site_type_symbol
_atom_site_label
_atom_site_fract_x
_atom_site_fract_y
_atom_site_fract_z
Si Si1 0.109338 0.634159 0.169112
Si Si2 0.667832 0.589387 0.829804
Si Si3 0.390782 0.190457 0.168882
Si Si4 0.000000 0.000000 0.750000
Si Si5 0.177075 0.150662 0.658840
O O1 0.212065 0.586904 0.253024
O O2 0.111774 0.750161 0.190413
O O3 0.000000 0.593325 0.250000
O O4 0.109871 0.604011 0.000000
O O5 0.600591 0.500000 0.750000
O O6 0.610857 0.693542 0.800661
O O7 0.678343 0.567926 0.000000
O O8 0.500000 0.147615 0.250000
O O9 0.278322 0.136806 0.226275
O O10 0.400006 0.166428 0.000000
O O11 0.083644 0.066269 0.655928
O O12 0.234074 0.154178 0.500000
#
# Coordination Sequence:
#
# PCOD8203228 Si02
#       5
#     8   8   8   2   8
#     4  10  19  34  54  79 115 159 200 245 297 358
#     4  10  21  36  55  84 117 155 201 252 300 352
#     4  10  22  41  65  89 121 162 206 251 302 359
#     4  12  22  40  66 102 128 156 196 244 302 360
#     4  10  22  38  61  92 126 161 199 245 301 362
#
# _framework density 22.603981000000001
#
# number of rings (size 3 to 8) (size 9 to 14) (size 15 to 20)
#    0.000    1.882    1.176    2.471    0.000    6.588 
#    0.000    5.294    0.000    2.824    0.000    0.000 
#    0.000    0.000    0.000    0.000    0.000    0.000 
#
# Total GULP energy -421466.411306 kJ/mol
# GULP energy per Si atom -12396.070921 kJ/mol
# Density = 2.255253 g / cm^3
# Si number density = 22.603981 Si / 1000 Ang^3
#
#
#
# Elastic Constant Matrix: (Units=GPa)
#
#
# Indices 1 2 3 4 5 6 
#
# 1 122.7104 15.3442 77.5453 0.0000 0.0000 0.0000
# 2 15.3442 79.5825 20.9829 0.0000 0.0000 0.0000
# 3 77.5453 20.9829 151.7288 0.0000 0.0000 0.0000
# 4 0.0000 0.0000 0.0000 19.8114 0.0000 0.0000
# 5 0.0000 0.0000 0.0000 0.0000 36.3139 0.0000
# 6 0.0000 0.0000 0.0000 0.0000 0.0000 -14.4614
#
#
#
# Elastic Compliance Matrix: (Units=1/GPa)
#
#
# Indices 1 2 3 4 5 6 
#
# 1 0.012077 -0.000728 -0.006072 0.000000 0.000000 0.000000
# 2 -0.000728 0.013085 -0.001438 0.000000 0.000000 0.000000
# 3 -0.006072 -0.001438 0.009893 0.000000 0.000000 0.000000
# 4 0.000000 0.000000 0.000000 0.050476 0.000000 0.000000
# 5 0.000000 0.000000 0.000000 0.000000 0.027538 0.000000
# 6 0.000000 0.000000 0.000000 0.000000 0.000000 -0.069150
#
#
# Mechanical properties :
#
#
# Convention : Reuss Voigt Hill
#
# Bulk Modulus (GPa) = 53.81949 64.64073 59.23011
# Shear Modulus (GPa) = 75.09017 24.34273 49.71645
#
# Velocity S-wave (km/s) = 5.76992 3.28521 4.69492
# Velocity P-wave (km/s) = 8.26140 6.56119 7.45989
#
# Compressibility (1/GPa) = 0.01858063
#
# Stress axis : x y z
#
# Youngs Moduli (GPa) = 82.80026 76.42377 101.08482
#
# Poissons Ratio (x) = 0.05561 0.61377
# Poissons Ratio (y) = 0.06025 0.14532
# Poissons Ratio (z) = 0.50275 0.10987
#
# Static dielectric constant tensor:
#      x y z
#    x 3.830000 0.000000 0.000000 
#    y 0.000000 4.251160 0.000000 
#    z 0.000000 0.000000 3.996230 
# 
# 
# High freq. dielectric constant tensor:
#      x y z
#    x 1.887330 0.000000 0.000000 
#    y 0.000000 1.888210 0.000000 
#    z 0.000000 0.000000 1.895370 
# 
# From -- ./inp_files/2563.got.cif
#   From: 2010.03.12/outbox.cif.g09.slc.cpg/sg49_2_cif.got.tgz:2563.got - 2010.04.14 03:58:27.
