data_PCOD8203099
_publ_section_title
;
Structure prediction by ZEFSAII (Michael W. Deem and Ramdas Pophale) SiO2 
 PCOD8203099
Probable space group: P C C M
;
_chemical_formula_sum "Si O2"
_cell_formula_units_Z 64
_cell_length_a 19.250819
_cell_length_b 19.200018
_cell_length_c 9.050850
_cell_angle_alpha 90.000000
_cell_angle_beta 90.000000
_cell_angle_gamma 90.000000
_cell_volume 3345.339619
_symmetry_space_group_name_H-M "P C C M"
_symmetry_group_IT_number 49
_symmetry_cell_setting 'orthorhombic'
loop_
_space_group_symop_operation_xyz
x,y,z
-x,-y,z
x,-y,1/2-z
-x,y,1/2-z
-x,-y,-z
x,y,-z
-x,y,1/2+z
x,-y,1/2+z
loop_
_atom_site_type_symbol
_atom_site_label
_atom_site_fract_x
_atom_site_fract_y
_atom_site_fract_z
Si Si1 0.700341 0.808048 0.166675
Si Si2 0.430087 0.286831 0.822866
Si Si3 0.778557 0.071768 0.823846
Si Si4 0.069386 0.880765 0.171247
Si Si5 0.067346 0.281751 0.670937
Si Si6 0.413258 0.565375 0.836783
Si Si7 0.254669 0.562927 0.838935
Si Si8 0.799831 0.683411 0.165762
O O1 0.633246 0.764697 0.224073
O O2 0.721123 0.871872 0.272408
O O3 0.767947 0.759727 0.167813
O O4 0.686584 0.835298 0.000000
O O5 0.500000 0.254633 0.750000
O O6 0.421292 0.364448 0.758624
O O7 0.434790 0.290925 0.000000
O O8 0.857990 0.086947 0.770327
O O9 0.755082 0.000000 0.750000
O O10 0.775540 0.067837 0.000000
O O11 0.075240 0.799493 0.205426
O O12 0.000000 0.911858 0.250000
O O13 0.059542 0.896731 0.000000
O O14 0.062144 0.298016 0.500000
O O15 0.131502 0.322487 0.737916
O O16 0.000000 0.312358 0.750000
O O17 0.448068 0.500000 0.750000
O O18 0.334222 0.544929 0.864148
O O19 0.448000 0.575657 0.000000
O O20 0.217373 0.500000 0.750000
O O21 0.254534 0.631971 0.740643
O O22 0.218717 0.572659 0.000000
O O23 0.816176 0.659216 0.000000
#
# Coordination Sequence:
#
# PCOD8203099 Si02
#       8
#     8   8   8   8   8   8   8   8
#     4  10  22  39  60  85 114 146 186 233 279 332
#     4  11  23  40  60  86 117 151 190 233 284 339
#     4  11  23  39  59  85 116 151 191 233 283 336
#     4   9  19  33  51  77 112 152 189 228 270 325
#     4  10  19  33  51  78 111 146 189 233 284 335
#     4  10  20  34  54  81 116 156 194 233 278 331
#     4  10  20  33  52  79 112 148 188 234 283 335
#     4  11  20  33  56  83 110 146 188 236 286 332
#
# _framework density 19.131091999999999
#
# number of rings (size 3 to 8) (size 9 to 14) (size 15 to 20)
#    0.000    1.750    2.500    2.250    0.000    4.500 
#    0.000    2.500    0.000    0.750    0.000    5.250 
#    0.000    0.000    0.000    0.000    0.000    0.000 
#
# Total GULP energy -793314.405631 kJ/mol
# GULP energy per Si atom -12395.537588 kJ/mol
# Density = 1.908755 g / cm^3
# Si number density = 19.131092 Si / 1000 Ang^3
#
#
#
# Elastic Constant Matrix: (Units=GPa)
#
#
# Indices 1 2 3 4 5 6 
#
# 1 101.1447 37.7437 43.2863 0.0000 0.0000 0.0000
# 2 37.7437 85.0344 57.4139 0.0000 0.0000 0.0000
# 3 43.2863 57.4139 118.6962 0.0000 0.0000 0.0000
# 4 0.0000 0.0000 0.0000 29.2467 0.0000 0.0000
# 5 0.0000 0.0000 0.0000 0.0000 30.0759 0.0000
# 6 0.0000 0.0000 0.0000 0.0000 0.0000 95.7889
#
#
#
# Elastic Compliance Matrix: (Units=1/GPa)
#
#
# Indices 1 2 3 4 5 6 
#
# 1 0.012434 -0.003649 -0.002769 0.000000 0.000000 0.000000
# 2 -0.003649 0.018534 -0.007634 0.000000 0.000000 0.000000
# 3 -0.002769 -0.007634 0.013128 0.000000 0.000000 0.000000
# 4 0.000000 0.000000 0.000000 0.034192 0.000000 0.000000
# 5 0.000000 0.000000 0.000000 0.000000 0.033249 0.000000
# 6 0.000000 0.000000 0.000000 0.000000 0.000000 0.010440
#
#
# Mechanical properties :
#
#
# Convention : Reuss Voigt Hill
#
# Bulk Modulus (GPa) = 62.53880 64.64033 63.58956
# Shear Modulus (GPa) = 32.17266 42.11775 37.14521
#
# Velocity S-wave (km/s) = 4.10530 4.69714 4.41116
# Velocity P-wave (km/s) = 7.43181 7.95481 7.69775
#
# Compressibility (1/GPa) = 0.01599007
#
# Stress axis : x y z
#
# Youngs Moduli (GPa) = 80.42674 53.95426 76.17593
#
# Poissons Ratio (x) = 0.19688 0.21095
# Poissons Ratio (y) = 0.29349 0.58155
# Poissons Ratio (z) = 0.22272 0.41190
#
# Static dielectric constant tensor:
#      x y z
#    x 3.467930 0.000000 0.000000 
#    y 0.000000 3.231220 0.000000 
#    z 0.000000 0.000000 3.762560 
# 
# 
# High freq. dielectric constant tensor:
#      x y z
#    x 1.736280 0.000000 0.000000 
#    y 0.000000 1.718570 0.000000 
#    z 0.000000 0.000000 1.759400 
# 
# From -- ./inp_files/5252.got.cif
#   From: 2010.03.12/outbox.cif.g09.slc.cpg/sg49_3_cif.got.tgz:5252.got - 2010.04.14 03:58:27.
