data_PCOD8203629
_publ_section_title
;
Structure prediction by ZEFSAII (Michael W. Deem and Ramdas Pophale) SiO2 
 PCOD8203629
Probable space group: P C C M
;
_chemical_formula_sum "Si O2"
_cell_formula_units_Z 48
_cell_length_a 30.562205
_cell_length_b 9.577829
_cell_length_c 8.491721
_cell_angle_alpha 90.000000
_cell_angle_beta 90.000000
_cell_angle_gamma 90.000000
_cell_volume 2485.692948
_symmetry_space_group_name_H-M "P C C M"
_symmetry_group_IT_number 49
_symmetry_cell_setting 'orthorhombic'
loop_
_space_group_symop_operation_xyz
x,y,z
-x,-y,z
x,-y,1/2-z
-x,y,1/2-z
-x,-y,-z
x,y,-z
-x,y,1/2+z
x,-y,1/2+z
loop_
_atom_site_type_symbol
_atom_site_label
_atom_site_fract_x
_atom_site_fract_y
_atom_site_fract_z
Si Si1 0.378696 0.844857 0.314490
Si Si2 0.452332 0.648720 0.814432
Si Si3 0.789193 0.352769 0.315572
Si Si4 0.695467 0.347102 0.814255
Si Si5 0.138705 0.844559 0.814733
Si Si6 0.042693 0.846201 0.181898
O O1 0.385311 0.846993 0.500000
O O2 0.419897 0.770288 0.235781
O O3 0.334337 0.765804 0.271219
O O4 0.375372 0.000000 0.250000
O O5 0.435410 0.500000 0.750000
O O6 0.500000 0.686122 0.750000
O O7 0.454567 0.638196 0.000000
O O8 0.806198 0.500000 0.250000
O O9 0.778765 0.364597 0.500000
O O10 0.745361 0.307551 0.224633
O O11 0.826645 0.241569 0.284613
O O12 0.683649 0.500000 0.750000
O O13 0.687109 0.342357 0.000000
O O14 0.090252 0.778017 0.782129
O O15 0.140855 0.000000 0.750000
O O16 0.149806 0.841716 0.000000
O O17 0.000000 0.762952 0.250000
O O18 0.043421 0.000000 0.250000
O O19 0.034917 0.858306 0.000000
#
# Coordination Sequence:
#
# PCOD8203629 Si02
#       6
#     8   8   8   8   8   8
#     4  12  25  42  61  88 121 155 192 236 287 340
#     4  11  22  40  64  92 121 157 199 242 285 333
#     4  11  22  38  59  83 110 145 184 228 277 332
#     4  11  22  40  63  87 113 147 188 232 276 330
#     4  10  20  34  52  79 110 143 181 226 275 328
#     4   9  16  26  44  69 101 136 175 219 267 319
#
# _framework density 19.310510000000001
#
# number of rings (size 3 to 8) (size 9 to 14) (size 15 to 20)
#    0.000    1.333    0.000    9.500    0.000    3.000 
#    0.000    5.000    0.000    0.500    0.000    3.500 
#    0.000    0.000    0.000    0.000    0.000    0.000 
#
# Total GULP energy -595166.646568 kJ/mol
# GULP energy per Si atom -12399.305137 kJ/mol
# Density = 1.926656 g / cm^3
# Si number density = 19.310510 Si / 1000 Ang^3
#
#
#
# Elastic Constant Matrix: (Units=GPa)
#
#
# Indices 1 2 3 4 5 6 
#
# 1 114.6910 65.3179 30.4627 0.0000 0.0000 0.0000
# 2 65.3179 95.8040 26.6412 0.0000 0.0000 0.0000
# 3 30.4627 26.6412 127.0349 0.0000 0.0000 0.0000
# 4 0.0000 0.0000 0.0000 30.6735 0.0000 0.0000
# 5 0.0000 0.0000 0.0000 0.0000 36.7969 0.0000
# 6 0.0000 0.0000 0.0000 0.0000 0.0000 -2.7801
#
#
#
# Elastic Compliance Matrix: (Units=1/GPa)
#
#
# Indices 1 2 3 4 5 6 
#
# 1 0.014515 -0.009481 -0.001492 0.000000 0.000000 0.000000
# 2 -0.009481 0.017278 -0.001350 0.000000 0.000000 0.000000
# 3 -0.001492 -0.001350 0.008513 0.000000 0.000000 0.000000
# 4 0.000000 0.000000 0.000000 0.032601 0.000000 0.000000
# 5 0.000000 0.000000 0.000000 0.000000 0.027176 0.000000
# 6 0.000000 0.000000 0.000000 0.000000 0.000000 -0.359705
#
#
# Mechanical properties :
#
#
# Convention : Reuss Voigt Hill
#
# Bulk Modulus (GPa) = 63.86219 64.70815 64.28517
# Shear Modulus (GPa) = -21.76224 27.27862 2.75819
#
# Velocity S-wave (km/s) = -3.36067 3.76258 1.19643
# Velocity P-wave (km/s) = 4.25255 7.24279 5.93895
#
# Compressibility (1/GPa) = 0.01565872
#
# Stress axis : x y z
#
# Youngs Moduli (GPa) = 68.89358 57.87871 117.47043
#
# Poissons Ratio (x) = 0.54876 0.17531
# Poissons Ratio (y) = 0.65320 0.15856
# Poissons Ratio (z) = 0.10281 0.07812
#
# Static dielectric constant tensor:
#      x y z
#    x 4.062970 0.000000 0.000000 
#    y 0.000000 3.308040 0.000000 
#    z 0.000000 0.000000 3.754500 
# 
# 
# High freq. dielectric constant tensor:
#      x y z
#    x 1.772820 0.000000 0.000000 
#    y 0.000000 1.722760 0.000000 
#    z 0.000000 0.000000 1.776980 
# 
# From -- ./inp_files/6866.got.cif
#   From: 2010.03.12/outbox.cif.g09.slc.cpg/sg49_4_cif.got.tgz:6866.got - 2010.04.14 03:58:27.
