data_PCOD8203472
_publ_section_title
;
Structure prediction by ZEFSAII (Michael W. Deem and Ramdas Pophale) SiO2 
 PCOD8203472
Probable space group: P C C M
;
_chemical_formula_sum "Si O2"
_cell_formula_units_Z 48
_cell_length_a 15.383017
_cell_length_b 19.786148
_cell_length_c 8.947330
_cell_angle_alpha 90.000000
_cell_angle_beta 90.000000
_cell_angle_gamma 90.000000
_cell_volume 2723.304657
_symmetry_space_group_name_H-M "P C C M"
_symmetry_group_IT_number 49
_symmetry_cell_setting 'orthorhombic'
loop_
_space_group_symop_operation_xyz
x,y,z
-x,-y,z
x,-y,1/2-z
-x,y,1/2-z
-x,-y,-z
x,y,-z
-x,y,1/2+z
x,-y,1/2+z
loop_
_atom_site_type_symbol
_atom_site_label
_atom_site_fract_x
_atom_site_fract_y
_atom_site_fract_z
Si Si1 0.238703 0.822990 0.825041
Si Si2 0.089218 0.070676 0.676180
Si Si3 0.584116 0.831742 0.166781
Si Si4 0.769857 0.682262 0.176956
Si Si5 0.418536 0.328513 0.836499
Si Si6 0.908882 0.569615 0.822718
O O1 0.164179 0.876269 0.787681
O O2 0.328106 0.850431 0.754448
O O3 0.206967 0.752178 0.756645
O O4 0.253926 0.813312 0.000000
O O5 0.075250 0.060920 0.500000
O O6 0.000000 0.097419 0.750000
O O7 0.116706 0.000000 0.750000
O O8 0.500000 0.863239 0.250000
O O9 0.572939 0.751769 0.157825
O O10 0.589295 0.862440 0.000000
O O11 0.675899 0.654455 0.234652
O O12 0.841464 0.627658 0.220086
O O13 0.764561 0.696168 0.000000
O O14 0.500000 0.360961 0.750000
O O15 0.423805 0.360718 0.000000
O O16 0.875356 0.500000 0.750000
O O17 0.000000 0.590830 0.750000
O O18 0.919271 0.560598 0.000000
#
# Coordination Sequence:
#
# PCOD8203472 Si02
#       6
#     8   8   8   8   8   8
#     4  10  20  32  49  76 104 129 163 205 248 293
#     4  10  21  36  54  74  97 129 167 205 246 297
#     4   9  16  27  45  69  99 133 165 199 241 289
#     4   9  19  33  49  71 100 131 161 198 245 292
#     4   8  14  25  41  64  92 122 155 189 228 275
#     4  10  20  35  53  72  95 126 164 202 244 296
#
# _framework density 17.625644999999999
#
# number of rings (size 3 to 8) (size 9 to 14) (size 15 to 20)
#    0.000    2.667    0.000    4.000    0.000    8.667 
#    0.000    3.333    0.000    1.000    0.000    7.000 
#    0.000    0.000    0.000    0.000    0.000    0.000 
#
# Total GULP energy -595026.462019 kJ/mol
# GULP energy per Si atom -12396.384625 kJ/mol
# Density = 1.758553 g / cm^3
# Si number density = 17.625645 Si / 1000 Ang^3
#
#
#
# Elastic Constant Matrix: (Units=GPa)
#
#
# Indices 1 2 3 4 5 6 
#
# 1 162.1492 83.1355 78.0451 0.0000 0.0000 0.0000
# 2 83.1355 73.8423 51.7514 0.0000 0.0000 0.0000
# 3 78.0451 51.7514 109.2656 0.0000 0.0000 0.0000
# 4 0.0000 0.0000 0.0000 11.9469 0.0000 0.0000
# 5 0.0000 0.0000 0.0000 0.0000 29.7334 0.0000
# 6 0.0000 0.0000 0.0000 0.0000 0.0000 -1.6854
#
#
#
# Elastic Compliance Matrix: (Units=1/GPa)
#
#
# Indices 1 2 3 4 5 6 
#
# 1 0.015825 -0.014811 -0.004288 0.000000 0.000000 0.000000
# 2 -0.014811 0.034134 -0.005587 0.000000 0.000000 0.000000
# 3 -0.004288 -0.005587 0.014861 0.000000 0.000000 0.000000
# 4 0.000000 0.000000 0.000000 0.083704 0.000000 0.000000
# 5 0.000000 0.000000 0.000000 0.000000 0.033632 0.000000
# 6 0.000000 0.000000 0.000000 0.000000 0.000000 -0.593332
#
#
# Mechanical properties :
#
#
# Convention : Reuss Voigt Hill
#
# Bulk Modulus (GPa) = 64.74166 85.68012 75.21089
# Shear Modulus (GPa) = -14.01924 16.82065 1.40071
#
# Velocity S-wave (km/s) = -2.82332 3.09257 0.89243
# Velocity P-wave (km/s) = 5.11694 7.84019 6.62011
#
# Compressibility (1/GPa) = 0.01544601
#
# Stress axis : x y z
#
# Youngs Moduli (GPa) = 63.19080 29.29671 67.28854
#
# Poissons Ratio (x) = 0.43392 0.28855
# Poissons Ratio (y) = 0.93594 0.37597
# Poissons Ratio (z) = 0.27098 0.16369
#
# Static dielectric constant tensor:
#      x y z
#    x 3.525860 0.000000 0.000000 
#    y 0.000000 2.882230 0.000000 
#    z 0.000000 0.000000 3.472990 
# 
# 
# High freq. dielectric constant tensor:
#      x y z
#    x 1.697590 0.000000 0.000000 
#    y 0.000000 1.635680 0.000000 
#    z 0.000000 0.000000 1.693520 
# 
# From -- ./inp_files/3837.got.cif
#   From: 2010.03.12/outbox.cif.g09.slc.cpg/sg49_2_cif.got.tgz:3837.got - 2010.04.14 03:58:27.
