data_PCOD8203016
_publ_section_title
;
Structure prediction by ZEFSAII (Michael W. Deem and Ramdas Pophale) SiO2 
 PCOD8203016
Probable space group: P C C M
;
_chemical_formula_sum "Si O2"
_cell_formula_units_Z 64
_cell_length_a 15.955237
_cell_length_b 22.439244
_cell_length_c 9.059579
_cell_angle_alpha 90.000000
_cell_angle_beta 90.000000
_cell_angle_gamma 90.000000
_cell_volume 3243.541785
_symmetry_space_group_name_H-M "P C C M"
_symmetry_group_IT_number 49
_symmetry_cell_setting 'orthorhombic'
loop_
_space_group_symop_operation_xyz
x,y,z
-x,-y,z
x,-y,1/2-z
-x,y,1/2-z
-x,-y,-z
x,y,-z
-x,y,1/2+z
x,-y,1/2+z
loop_
_atom_site_type_symbol
_atom_site_label
_atom_site_fract_x
_atom_site_fract_y
_atom_site_fract_z
Si Si1 0.079963 0.731583 0.170545
Si Si2 0.214927 0.824652 0.172054
Si Si3 0.369031 0.222194 0.834984
Si Si4 0.240713 0.939762 0.324807
Si Si5 0.262174 0.440197 0.176732
Si Si6 0.415700 0.645195 0.328091
Si Si7 0.912497 0.404938 0.823570
Si Si8 0.423479 0.095349 0.837580
O O1 0.155763 0.771608 0.223252
O O2 0.097272 0.664072 0.216967
O O3 0.000000 0.758359 0.250000
O O4 0.062408 0.736633 0.000000
O O5 0.304582 0.798328 0.211474
O O6 0.188317 0.883767 0.262792
O O7 0.210067 0.839815 0.000000
O O8 0.408802 0.284886 0.786219
O O9 0.434530 0.167451 0.840214
O O10 0.328608 0.228922 0.000000
O O11 0.231312 0.943274 0.500000
O O12 0.335547 0.926779 0.269852
O O13 0.207214 0.000000 0.250000
O O14 0.299710 0.500000 0.250000
O O15 0.329640 0.388604 0.220071
O O16 0.169785 0.432962 0.248700
O O17 0.252632 0.445424 0.000000
O O18 0.500000 0.619942 0.250000
O O19 0.430289 0.635451 0.500000
O O20 0.000000 0.429049 0.750000
O O21 0.913847 0.417372 0.000000
O O22 0.500000 0.066348 0.750000
O O23 0.428934 0.068716 0.000000
#
# Coordination Sequence:
#
# PCOD8203016 Si02
#       8
#     8   8   8   8   8   8   8   8
#     4   9  19  33  53  83 115 142 170 204 252 312
#     4  10  19  32  52  79 107 138 174 214 259 312
#     4   9  18  33  51  76 106 136 171 214 265 322
#     4  10  21  36  51  70  96 132 176 219 261 308
#     4  11  24  41  59  82 111 148 192 237 281 331
#     4  10  22  38  58  82 110 145 188 236 287 337
#     4  10  20  37  61  90 121 151 182 222 272 332
#     4   9  18  30  46  69  98 128 161 201 251 306
#
# _framework density 19.731517
#
# number of rings (size 3 to 8) (size 9 to 14) (size 15 to 20)
#    0.000    2.250    0.000    3.375    0.000    6.250 
#    0.000    3.750    0.000    0.375    0.000    2.625 
#    0.000    0.000    0.000    0.000    0.000    0.000 
#
# Total GULP energy -793148.927271 kJ/mol
# GULP energy per Si atom -12392.951989 kJ/mol
# Density = 1.968661 g / cm^3
# Si number density = 19.731517 Si / 1000 Ang^3
#
#
#
# Elastic Constant Matrix: (Units=GPa)
#
#
# Indices 1 2 3 4 5 6 
#
# 1 67.2898 18.8823 30.6130 0.0000 0.0000 0.0000
# 2 18.8823 74.7344 33.7996 0.0000 0.0000 0.0000
# 3 30.6130 33.7996 66.7477 0.0000 0.0000 0.0000
# 4 0.0000 0.0000 0.0000 31.6938 0.0000 0.0000
# 5 0.0000 0.0000 0.0000 0.0000 33.0981 0.0000
# 6 0.0000 0.0000 0.0000 0.0000 0.0000 15.3914
#
#
#
# Elastic Compliance Matrix: (Units=1/GPa)
#
#
# Indices 1 2 3 4 5 6 
#
# 1 0.018850 -0.001106 -0.008085 0.000000 0.000000 0.000000
# 2 -0.001106 0.017420 -0.008314 0.000000 0.000000 0.000000
# 3 -0.008085 -0.008314 0.022900 0.000000 0.000000 0.000000
# 4 0.000000 0.000000 0.000000 0.031552 0.000000 0.000000
# 5 0.000000 0.000000 0.000000 0.000000 0.030213 0.000000
# 6 0.000000 0.000000 0.000000 0.000000 0.000000 0.064971
#
#
# Mechanical properties :
#
#
# Convention : Reuss Voigt Hill
#
# Bulk Modulus (GPa) = 41.39120 41.70687 41.54903
# Shear Modulus (GPa) = 21.83693 24.40180 23.11936
#
# Velocity S-wave (km/s) = 3.33032 3.52048 3.42672
# Velocity P-wave (km/s) = 5.98421 6.14069 6.06296
#
# Compressibility (1/GPa) = 0.02415973
#
# Stress axis : x y z
#
# Youngs Moduli (GPa) = 53.05123 57.40443 43.66818
#
# Poissons Ratio (x) = 0.06349 0.35306
# Poissons Ratio (y) = 0.05867 0.36306
# Poissons Ratio (z) = 0.42893 0.47726
#
# Static dielectric constant tensor:
#      x y z
#    x 3.453160 0.000000 0.000000 
#    y 0.000000 3.862470 0.000000 
#    z 0.000000 0.000000 3.566590 
# 
# 
# High freq. dielectric constant tensor:
#      x y z
#    x 1.747480 0.000000 0.000000 
#    y 0.000000 1.773630 0.000000 
#    z 0.000000 0.000000 1.772650 
# 
# From -- ./inp_files/4299.got.cif
#   From: 2010.03.12/outbox.cif.g09.slc.cpg/sg49_3_cif.got.tgz:4299.got - 2010.04.14 03:58:27.
