data_PCOD8203754
_publ_section_title
;
Structure prediction by ZEFSAII (Michael W. Deem and Ramdas Pophale) SiO2 
 PCOD8203754
Probable space group: P C C M
;
_chemical_formula_sum "Si O2"
_cell_formula_units_Z 56
_cell_length_a 15.826272
_cell_length_b 19.828587
_cell_length_c 8.859892
_cell_angle_alpha 90.000000
_cell_angle_beta 90.000000
_cell_angle_gamma 90.000000
_cell_volume 2780.345844
_symmetry_space_group_name_H-M "P C C M"
_symmetry_group_IT_number 49
_symmetry_cell_setting 'orthorhombic'
loop_
_space_group_symop_operation_xyz
x,y,z
-x,-y,z
x,-y,1/2-z
-x,y,1/2-z
-x,-y,-z
x,y,-z
-x,y,1/2+z
x,-y,1/2+z
loop_
_atom_site_type_symbol
_atom_site_label
_atom_site_fract_x
_atom_site_fract_y
_atom_site_fract_z
Si Si1 0.246158 0.927471 0.678163
Si Si2 0.661242 0.562284 0.163011
Si Si3 0.410408 0.847044 0.679208
Si Si4 0.587129 0.303522 0.321699
Si Si5 0.854757 0.436219 0.666502
Si Si6 0.910310 0.692644 0.320579
Si Si7 0.909107 0.832743 0.179575
O O1 0.250008 0.934234 0.500000
O O2 0.332813 0.893067 0.737471
O O3 0.162550 0.886111 0.725873
O O4 0.237377 0.000000 0.750000
O O5 0.617253 0.500000 0.250000
O O6 0.650790 0.637457 0.234840
O O7 0.758384 0.544445 0.142266
O O8 0.616324 0.564505 0.000000
O O9 0.500000 0.870888 0.750000
O O10 0.419502 0.851761 0.500000
O O11 0.386919 0.771234 0.735197
O O12 0.500000 0.325769 0.250000
O O13 0.580064 0.299225 0.500000
O O14 0.899815 0.500000 0.750000
O O15 0.896551 0.424255 0.500000
O O16 0.853446 0.370101 0.771369
O O17 0.914009 0.700367 0.500000
O O18 0.876874 0.761799 0.246974
O O19 0.000000 0.674969 0.250000
O O20 0.000000 0.853561 0.250000
O O21 0.919417 0.826232 0.000000
#
# Coordination Sequence:
#
# PCOD8203754 Si02
#       7
#     8   8   8   8   8   8   8
#     4  10  23  40  62  89 119 155 193 233 284 349
#     4   9  19  33  51  73 103 143 181 227 278 331
#     4   9  19  37  59  84 115 151 193 237 286 342
#     4   9  18  33  53  76 103 139 183 227 277 330
#     4  10  20  35  54  77 108 146 187 234 285 337
#     4  11  22  37  57  83 111 144 186 232 281 337
#     4  10  21  39  62  88 119 156 193 237 289 340
#
# _framework density 20.141380000000002
#
# number of rings (size 3 to 8) (size 9 to 14) (size 15 to 20)
#    0.000    2.286    0.000    3.000    2.000    4.000 
#    0.000    5.714    0.000    0.000    0.000    0.000 
#    0.000    0.000    0.000    0.000    0.000    0.000 
#
# Total GULP energy -693941.352763 kJ/mol
# GULP energy per Si atom -12391.809871 kJ/mol
# Density = 2.009554 g / cm^3
# Si number density = 20.141380 Si / 1000 Ang^3
#
#
#
# Elastic Constant Matrix: (Units=GPa)
#
#
# Indices 1 2 3 4 5 6 
#
# 1 87.8950 70.8723 37.9534 0.0000 0.0000 0.0000
# 2 70.8723 164.0070 52.7271 0.0000 0.0000 0.0000
# 3 37.9534 52.7271 82.6333 0.0000 0.0000 0.0000
# 4 0.0000 0.0000 0.0000 35.0513 0.0000 0.0000
# 5 0.0000 0.0000 0.0000 0.0000 25.9068 0.0000
# 6 0.0000 0.0000 0.0000 0.0000 0.0000 21.3820
#
#
#
# Elastic Compliance Matrix: (Units=1/GPa)
#
#
# Indices 1 2 3 4 5 6 
#
# 1 0.018599 -0.006656 -0.004295 0.000000 0.000000 0.000000
# 2 -0.006656 0.010053 -0.003357 0.000000 0.000000 0.000000
# 3 -0.004295 -0.003357 0.016217 0.000000 0.000000 0.000000
# 4 0.000000 0.000000 0.000000 0.028530 0.000000 0.000000
# 5 0.000000 0.000000 0.000000 0.000000 0.038600 0.000000
# 6 0.000000 0.000000 0.000000 0.000000 0.000000 0.046768
#
#
# Mechanical properties :
#
#
# Convention : Reuss Voigt Hill
#
# Bulk Modulus (GPa) = 61.53506 73.07122 67.30314
# Shear Modulus (GPa) = 25.93334 28.00019 26.96677
#
# Velocity S-wave (km/s) = 3.59216 3.73256 3.66303
# Velocity P-wave (km/s) = 6.91540 7.41174 7.16787
#
# Compressibility (1/GPa) = 0.01625090
#
# Stress axis : x y z
#
# Youngs Moduli (GPa) = 53.76593 99.47161 61.66432
#
# Poissons Ratio (x) = 0.66212 0.26486
# Poissons Ratio (y) = 0.35788 0.20704
# Poissons Ratio (z) = 0.23094 0.33397
#
# Static dielectric constant tensor:
#      x y z
#    x 3.514860 0.000000 0.000000 
#    y 0.000000 3.925360 0.000000 
#    z 0.000000 0.000000 3.845050 
# 
# 
# High freq. dielectric constant tensor:
#      x y z
#    x 1.771460 0.000000 0.000000 
#    y 0.000000 1.795340 0.000000 
#    z 0.000000 0.000000 1.783830 
# 
# From -- ./inp_files/4079.got.cif
#   From: 2010.03.12/outbox.cif.g09.slc.cpg/sg49_3_cif.got.tgz:4079.got - 2010.04.14 03:58:27.
