data_PCOD8203322
_publ_section_title
;
Structure prediction by ZEFSAII (Michael W. Deem and Ramdas Pophale) SiO2 
 PCOD8203322
Probable space group: P C C M
;
_chemical_formula_sum "Si O2"
_cell_formula_units_Z 48
_cell_length_a 20.432133
_cell_length_b 14.449180
_cell_length_c 8.593393
_cell_angle_alpha 90.000000
_cell_angle_beta 90.000000
_cell_angle_gamma 90.000000
_cell_volume 2537.006512
_symmetry_space_group_name_H-M "P C C M"
_symmetry_group_IT_number 49
_symmetry_cell_setting 'orthorhombic'
loop_
_space_group_symop_operation_xyz
x,y,z
-x,-y,z
x,-y,1/2-z
-x,y,1/2-z
-x,-y,-z
x,y,-z
-x,y,1/2+z
x,-y,1/2+z
loop_
_atom_site_type_symbol
_atom_site_label
_atom_site_fract_x
_atom_site_fract_y
_atom_site_fract_z
Si Si1 0.929637 0.098659 0.183977
Si Si2 0.568624 0.786921 0.316121
Si Si3 0.814732 0.783837 0.183470
Si Si4 0.694917 0.898073 0.684643
Si Si5 0.377152 0.404873 0.317165
Si Si6 0.226287 0.596519 0.815658
O O1 0.878132 0.175086 0.234288
O O2 0.000000 0.127420 0.250000
O O3 0.906462 0.000000 0.250000
O O4 0.933763 0.091611 0.000000
O O5 0.500000 0.823075 0.250000
O O6 0.565216 0.783818 0.500000
O O7 0.624657 0.858238 0.262461
O O8 0.583878 0.683852 0.250382
O O9 0.749838 0.832794 0.244927
O O10 0.813663 0.676529 0.229769
O O11 0.820331 0.796676 0.000000
O O12 0.702729 0.898235 0.500000
O O13 0.703528 0.000000 0.750000
O O14 0.407231 0.500000 0.250000
O O15 0.383589 0.409412 0.500000
O O16 0.301992 0.393537 0.266677
O O17 0.198446 0.500000 0.750000
O O18 0.216533 0.603260 0.000000
#
# Coordination Sequence:
#
# PCOD8203322 Si02
#       6
#     8   8   8   8   8   8
#     4  11  22  39  61  89 125 162 198 240 286 340
#     4  10  22  39  56  76 108 145 185 234 289 347
#     4  12  23  37  60  90 119 155 196 236 287 341
#     4  11  23  41  59  81 111 144 188 242 292 345
#     4   9  18  34  54  78 108 142 179 227 283 340
#     4  10  19  35  57  85 118 151 190 237 289 341
#
# _framework density 18.919934999999999
#
# number of rings (size 3 to 8) (size 9 to 14) (size 15 to 20)
#    0.000    1.500    1.667    5.000    0.000    3.333 
#    0.000    3.333    0.000    0.500    0.000    3.500 
#    0.000    0.000    0.000    0.000    0.000    0.000 
#
# Total GULP energy -595376.933567 kJ/mol
# GULP energy per Si atom -12403.686116 kJ/mol
# Density = 1.887687 g / cm^3
# Si number density = 18.919935 Si / 1000 Ang^3
#
#
#
# Elastic Constant Matrix: (Units=GPa)
#
#
# Indices 1 2 3 4 5 6 
#
# 1 97.7379 50.8495 38.5881 0.0000 0.0000 0.0000
# 2 50.8495 121.3147 34.8734 0.0000 0.0000 0.0000
# 3 38.5881 34.8734 100.5448 0.0000 0.0000 0.0000
# 4 0.0000 0.0000 0.0000 29.2303 0.0000 0.0000
# 5 0.0000 0.0000 0.0000 0.0000 30.1547 0.0000
# 6 0.0000 0.0000 0.0000 0.0000 0.0000 27.8016
#
#
#
# Elastic Compliance Matrix: (Units=1/GPa)
#
#
# Indices 1 2 3 4 5 6 
#
# 1 0.014270 -0.004895 -0.003779 0.000000 0.000000 0.000000
# 2 -0.004895 0.010835 -0.001879 0.000000 0.000000 0.000000
# 3 -0.003779 -0.001879 0.012048 0.000000 0.000000 0.000000
# 4 0.000000 0.000000 0.000000 0.034211 0.000000 0.000000
# 5 0.000000 0.000000 0.000000 0.000000 0.033162 0.000000
# 6 0.000000 0.000000 0.000000 0.000000 0.000000 0.035969
#
#
# Mechanical properties :
#
#
# Convention : Reuss Voigt Hill
#
# Bulk Modulus (GPa) = 62.31924 63.13550 62.72737
# Shear Modulus (GPa) = 29.94886 30.45643 30.20265
#
# Velocity S-wave (km/s) = 3.98292 4.01653 3.99976
# Velocity P-wave (km/s) = 7.35944 7.41298 7.38626
#
# Compressibility (1/GPa) = 0.01604641
#
# Stress axis : x y z
#
# Youngs Moduli (GPa) = 70.07641 92.29287 83.00149
#
# Poissons Ratio (x) = 0.45178 0.31365
# Poissons Ratio (y) = 0.34303 0.15599
# Poissons Ratio (z) = 0.26481 0.17345
#
# Static dielectric constant tensor:
#      x y z
#    x 3.437360 0.000000 0.000000 
#    y 0.000000 3.693120 0.000000 
#    z 0.000000 0.000000 3.702490 
# 
# 
# High freq. dielectric constant tensor:
#      x y z
#    x 1.720890 0.000000 0.000000 
#    y 0.000000 1.744540 0.000000 
#    z 0.000000 0.000000 1.743390 
# 
# From -- ./inp_files/4875.got.cif
#   From: 2010.03.12/outbox.cif.g09.slc.cpg/sg49_3_cif.got.tgz:4875.got - 2010.04.14 03:58:27.
