data_PCOD8203537
_publ_section_title
;
Structure prediction by ZEFSAII (Michael W. Deem and Ramdas Pophale) SiO2 
 PCOD8203537
Probable space group: P C C M
;
_chemical_formula_sum "Si O2"
_cell_formula_units_Z 58
_cell_length_a 25.058974
_cell_length_b 14.479104
_cell_length_c 9.081827
_cell_angle_alpha 90.000000
_cell_angle_beta 90.000000
_cell_angle_gamma 90.000000
_cell_volume 3295.172829
_symmetry_space_group_name_H-M "P C C M"
_symmetry_group_IT_number 49
_symmetry_cell_setting 'orthorhombic'
loop_
_space_group_symop_operation_xyz
x,y,z
-x,-y,z
x,-y,1/2-z
-x,y,1/2-z
-x,-y,-z
x,y,-z
-x,y,1/2+z
x,-y,1/2+z
loop_
_atom_site_type_symbol
_atom_site_label
_atom_site_fract_x
_atom_site_fract_y
_atom_site_fract_z
Si Si1 0.500000 0.000000 0.250000
Si Si2 0.449579 0.674889 0.331748
Si Si3 0.167473 0.400944 0.172249
Si Si4 0.337424 0.592885 0.670429
Si Si5 0.743857 0.715912 0.672122
Si Si6 0.417029 0.144685 0.335780
Si Si7 0.300786 0.910429 0.169742
Si Si8 0.951232 0.402259 0.329517
O O1 0.539248 0.936628 0.347349
O O2 0.500000 0.629128 0.250000
O O3 0.465122 0.689480 0.500000
O O4 0.400529 0.605271 0.312915
O O5 0.438143 0.775586 0.268816
O O6 0.175189 0.500000 0.250000
O O7 0.204817 0.324654 0.245940
O O8 0.107627 0.359134 0.191269
O O9 0.181487 0.413525 0.000000
O O10 0.318555 0.500000 0.750000
O O11 0.319645 0.590335 0.500000
O O12 0.309561 0.676401 0.754705
O O13 0.745965 0.690189 0.500000
O O14 0.740224 0.825927 0.696192
O O15 0.407639 0.184437 0.500000
O O16 0.360368 0.110861 0.269744
O O17 0.276840 0.000000 0.250000
O O18 0.305195 0.935488 0.000000
O O19 0.948810 0.500000 0.250000
O O20 0.965441 0.413764 0.500000
O O21 0.000000 0.345282 0.250000
#
# Coordination Sequence:
#
# PCOD8203537 Si02
#       8
#     2   8   8   8   8   8   8   8
#     4  12  22  32  56  86 104 128 158 196 260 312
#     4  11  24  39  57  77  99 126 159 199 249 303
#     4  10  20  33  50  76 109 147 187 228 266 308
#     4  11  24  40  58  79 101 132 168 209 257 309
#     4  11  22  37  56  78 105 139 175 217 262 307
#     4  11  22  36  53  77 105 128 156 195 244 306
#     4  10  22  38  56  78 103 133 166 206 256 311
#     4   9  16  26  43  68 102 143 185 223 264 305
#
# _framework density 17.601506000000001
#
# number of rings (size 3 to 8) (size 9 to 14) (size 15 to 20)
#    0.000    1.517    2.759    3.103    0.000    5.793 
#    0.000    1.379    0.000    0.000    0.000    0.000 
#    0.000    0.552    0.000    6.069    0.000    4.414 
#
# Total GULP energy -719053.909244 kJ/mol
# GULP energy per Si atom -12397.481194 kJ/mol
# Density = 1.756144 g / cm^3
# Si number density = 17.601506 Si / 1000 Ang^3
#
#
#
# Elastic Constant Matrix: (Units=GPa)
#
#
# Indices 1 2 3 4 5 6 
#
# 1 107.5320 30.3035 54.0438 0.0000 0.0000 0.0000
# 2 30.3035 66.6069 39.6432 0.0000 0.0000 0.0000
# 3 54.0438 39.6432 127.9712 0.0000 0.0000 0.0000
# 4 0.0000 0.0000 0.0000 22.9859 0.0000 0.0000
# 5 0.0000 0.0000 0.0000 0.0000 28.4117 0.0000
# 6 0.0000 0.0000 0.0000 0.0000 0.0000 11.5452
#
#
#
# Elastic Compliance Matrix: (Units=1/GPa)
#
#
# Indices 1 2 3 4 5 6 
#
# 1 0.012297 -0.003070 -0.004242 0.000000 0.000000 0.000000
# 2 -0.003070 0.019174 -0.004643 0.000000 0.000000 0.000000
# 3 -0.004242 -0.004643 0.011044 0.000000 0.000000 0.000000
# 4 0.000000 0.000000 0.000000 0.043505 0.000000 0.000000
# 5 0.000000 0.000000 0.000000 0.000000 0.035197 0.000000
# 6 0.000000 0.000000 0.000000 0.000000 0.000000 0.086616
#
#
# Mechanical properties :
#
#
# Convention : Reuss Voigt Hill
#
# Bulk Modulus (GPa) = 53.75099 61.12126 57.43612
# Shear Modulus (GPa) = 21.01337 24.46320 22.73828
#
# Velocity S-wave (km/s) = 3.45895 3.73209 3.59811
# Velocity P-wave (km/s) = 6.82323 7.30560 7.06853
#
# Compressibility (1/GPa) = 0.01860431
#
# Stress axis : x y z
#
# Youngs Moduli (GPa) = 81.32311 52.15497 90.54567
#
# Poissons Ratio (x) = 0.16010 0.38410
# Poissons Ratio (y) = 0.24964 0.42043
# Poissons Ratio (z) = 0.34498 0.24217
#
# Static dielectric constant tensor:
#      x y z
#    x 3.828660 0.000000 0.000000 
#    y 0.000000 2.984650 0.000000 
#    z 0.000000 0.000000 3.389270 
# 
# 
# High freq. dielectric constant tensor:
#      x y z
#    x 1.675790 0.000000 0.000000 
#    y 0.000000 1.646380 0.000000 
#    z 0.000000 0.000000 1.696740 
# 
# From -- ./inp_files/6452.got.cif
#   From: 2010.03.12/outbox.cif.g09.slc.cpg/sg49_4_cif.got.tgz:6452.got - 2010.04.14 03:58:27.
