data_PCOD8203017
_publ_section_title
;
Structure prediction by ZEFSAII (Michael W. Deem and Ramdas Pophale) SiO2 
 PCOD8203017
Probable space group: P C C M
;
_chemical_formula_sum "Si O2"
_cell_formula_units_Z 36
_cell_length_a 12.886084
_cell_length_b 16.210449
_cell_length_c 9.342602
_cell_angle_alpha 90.000000
_cell_angle_beta 90.000000
_cell_angle_gamma 90.000000
_cell_volume 1951.568728
_symmetry_space_group_name_H-M "P C C M"
_symmetry_group_IT_number 49
_symmetry_cell_setting 'orthorhombic'
loop_
_space_group_symop_operation_xyz
x,y,z
-x,-y,z
x,-y,1/2-z
-x,y,1/2-z
-x,-y,-z
x,y,-z
-x,y,1/2+z
x,-y,1/2+z
loop_
_atom_site_type_symbol
_atom_site_label
_atom_site_fract_x
_atom_site_fract_y
_atom_site_fract_z
Si Si1 0.593872 0.384118 0.159817
Si Si2 0.704515 0.749365 0.834480
Si Si3 0.765628 0.500000 0.750000
Si Si4 0.897313 0.648778 0.841018
Si Si5 0.606801 0.920034 0.830723
O O1 0.500000 0.424859 0.250000
O O2 0.622235 0.298739 0.237701
O O3 0.691461 0.445899 0.148077
O O4 0.555615 0.364186 0.000000
O O5 0.820835 0.722201 0.788503
O O6 0.689506 0.846674 0.810504
O O7 0.685869 0.724385 0.000000
O O8 0.837889 0.561185 0.840436
O O9 0.000000 0.646352 0.750000
O O10 0.935393 0.666807 0.000000
O O11 0.500000 0.896980 0.750000
O O12 0.654188 0.000000 0.750000
O O13 0.586823 0.936877 0.000000
#
# Coordination Sequence:
#
# PCOD8203017 Si02
#       5
#     8   8   4   8   8
#     4  11  22  34  51  74 102 138 176 212 253 303
#     4   9  20  37  54  74 104 138 171 210 254 301
#     4  10  22  36  52  72 100 134 172 214 256 304
#     4  10  21  37  55  75  99 128 167 215 262 305
#     4  10  19  32  52  79 109 139 168 201 243 293
#
# _framework density 18.4467
#
# number of rings (size 3 to 8) (size 9 to 14) (size 15 to 20)
#    0.000    2.000    0.000    4.000    0.000   12.444 
#    0.000    0.000    0.000    0.667    0.000    4.667 
#    0.000    0.000    0.000    0.000    0.000    0.000 
#
# Total GULP energy -446252.709182 kJ/mol
# GULP energy per Si atom -12395.908588 kJ/mol
# Density = 1.840471 g / cm^3
# Si number density = 18.446700 Si / 1000 Ang^3
#
#
#
# Elastic Constant Matrix: (Units=GPa)
#
#
# Indices 1 2 3 4 5 6 
#
# 1 114.2402 57.7625 54.4837 0.0000 0.0000 0.0000
# 2 57.7625 127.1429 41.2218 0.0000 0.0000 0.0000
# 3 54.4837 41.2218 119.1499 0.0000 0.0000 0.0000
# 4 0.0000 0.0000 0.0000 19.9891 0.0000 0.0000
# 5 0.0000 0.0000 0.0000 0.0000 17.8758 0.0000
# 6 0.0000 0.0000 0.0000 0.0000 0.0000 17.4254
#
#
#
# Elastic Compliance Matrix: (Units=1/GPa)
#
#
# Indices 1 2 3 4 5 6 
#
# 1 0.013173 -0.004541 -0.004453 0.000000 0.000000 0.000000
# 2 -0.004541 0.010424 -0.001530 0.000000 0.000000 0.000000
# 3 -0.004453 -0.001530 0.010958 0.000000 0.000000 0.000000
# 4 0.000000 0.000000 0.000000 0.050027 0.000000 0.000000
# 5 0.000000 0.000000 0.000000 0.000000 0.055941 0.000000
# 6 0.000000 0.000000 0.000000 0.000000 0.000000 0.057387
#
#
# Mechanical properties :
#
#
# Convention : Reuss Voigt Hill
#
# Bulk Modulus (GPa) = 74.02882 74.16320 74.09601
# Shear Modulus (GPa) = 22.37522 24.86242 23.61882
#
# Velocity S-wave (km/s) = 3.48654 3.67522 3.58212
# Velocity P-wave (km/s) = 7.51175 7.63551 7.57388
#
# Compressibility (1/GPa) = 0.01350825
#
# Stress axis : x y z
#
# Youngs Moduli (GPa) = 75.91215 95.93002 91.25641
#
# Poissons Ratio (x) = 0.43563 0.40633
# Poissons Ratio (y) = 0.34472 0.13962
# Poissons Ratio (z) = 0.33801 0.14677
#
# Static dielectric constant tensor:
#      x y z
#    x 3.303020 0.000000 0.000000 
#    y 0.000000 3.406980 0.000000 
#    z 0.000000 0.000000 3.395000 
# 
# 
# High freq. dielectric constant tensor:
#      x y z
#    x 1.699580 0.000000 0.000000 
#    y 0.000000 1.707940 0.000000 
#    z 0.000000 0.000000 1.721460 
# 
# From -- ./inp_files/3384.got.cif
#   From: 2010.03.12/outbox.cif.g09.slc.cpg/sg49_2_cif.got.tgz:3384.got - 2010.04.14 03:58:27.
