data_PCOD8203704
_publ_section_title
;
Structure prediction by ZEFSAII (Michael W. Deem and Ramdas Pophale) SiO2 
 PCOD8203704
Probable space group: P C C M
;
_chemical_formula_sum "Si O2"
_cell_formula_units_Z 48
_cell_length_a 11.657180
_cell_length_b 10.630359
_cell_length_c 17.244568
_cell_angle_alpha 90.000000
_cell_angle_beta 90.000000
_cell_angle_gamma 90.000000
_cell_volume 2136.947010
_symmetry_space_group_name_H-M "P C C M"
_symmetry_group_IT_number 49
_symmetry_cell_setting 'orthorhombic'
loop_
_space_group_symop_operation_xyz
x,y,z
-x,-y,z
x,-y,1/2-z
-x,y,1/2-z
-x,-y,-z
x,y,-z
-x,y,1/2+z
x,-y,1/2+z
loop_
_atom_site_type_symbol
_atom_site_label
_atom_site_fract_x
_atom_site_fract_y
_atom_site_fract_z
Si Si1 0.156557 0.334413 0.674432
Si Si2 0.388199 0.267586 0.091879
Si Si3 0.757106 0.965904 0.091453
Si Si4 0.968123 0.185327 0.587351
Si Si5 0.816790 0.613167 0.849006
Si Si6 0.353972 0.776919 0.092392
O O1 0.163133 0.318854 0.766334
O O2 0.121950 0.477290 0.652602
O O3 0.279592 0.329121 0.633343
O O4 0.072878 0.223824 0.643131
O O5 0.320318 0.146476 0.123527
O O6 0.320246 0.386827 0.130054
O O7 0.517384 0.248376 0.121874
O O8 0.388715 0.283721 0.000000
O O9 0.893269 0.940284 0.112366
O O10 0.702189 0.093317 0.124869
O O11 0.744666 0.968243 0.000000
O O12 0.016783 0.167467 0.500000
O O13 0.879412 0.302294 0.586250
O O14 0.346027 0.768979 0.000000
#
# Coordination Sequence:
#
# PCOD8203704 Si02
#       6
#     8   8   8   8   8   8
#     4  11  23  36  53  80 114 151 188 230 287 344
#     4   9  18  35  59  82 107 146 194 238 279 329
#     4   8  16  33  57  84 112 142 178 226 284 341
#     4  10  20  36  60  85 109 142 186 233 281 340
#     4  10  22  39  55  75 110 153 194 236 281 333
#     4  10  20  34  56  86 115 144 184 233 283 340
#
# _framework density 22.461950000000002
#
# number of rings (size 3 to 8) (size 9 to 14) (size 15 to 20)
#    0.000    2.333    0.000    3.500    0.000    8.667 
#    0.000    9.167    0.000    8.000    0.000    0.000 
#    0.000    0.000    0.000    0.000    0.000    0.000 
#
# Total GULP energy -594667.705417 kJ/mol
# GULP energy per Si atom -12388.910530 kJ/mol
# Density = 2.241083 g / cm^3
# Si number density = 22.461950 Si / 1000 Ang^3
#
#
#
# Elastic Constant Matrix: (Units=GPa)
#
#
# Indices 1 2 3 4 5 6 
#
# 1 137.5837 1.8745 26.2134 0.0000 0.0000 0.0000
# 2 1.8745 26.4394 12.2255 0.0000 0.0000 0.0000
# 3 26.2134 12.2255 51.2935 0.0000 0.0000 0.0000
# 4 0.0000 0.0000 0.0000 22.1074 0.0000 0.0000
# 5 0.0000 0.0000 0.0000 0.0000 34.1189 0.0000
# 6 0.0000 0.0000 0.0000 0.0000 0.0000 26.6633
#
#
#
# Elastic Compliance Matrix: (Units=1/GPa)
#
#
# Indices 1 2 3 4 5 6 
#
# 1 0.008105 0.001507 -0.004501 0.000000 0.000000 0.000000
# 2 0.001507 0.042787 -0.010968 0.000000 0.000000 0.000000
# 3 -0.004501 -0.010968 0.024410 0.000000 0.000000 0.000000
# 4 0.000000 0.000000 0.000000 0.045234 0.000000 0.000000
# 5 0.000000 0.000000 0.000000 0.000000 0.029309 0.000000
# 6 0.000000 0.000000 0.000000 0.000000 0.000000 0.037505
#
#
# Mechanical properties :
#
#
# Convention : Reuss Voigt Hill
#
# Bulk Modulus (GPa) = 21.10712 32.88260 26.99486
# Shear Modulus (GPa) = 21.63862 28.24480 24.94171
#
# Velocity S-wave (km/s) = 3.10715 3.54990 3.33588
# Velocity P-wave (km/s) = 4.72120 5.61012 5.18475
#
# Compressibility (1/GPa) = 0.04737738
#
# Stress axis : x y z
#
# Youngs Moduli (GPa) = 123.37444 23.37152 40.96644
#
# Poissons Ratio (x) = -0.03522 0.18441
# Poissons Ratio (y) = -0.18590 0.44932
# Poissons Ratio (z) = 0.55535 0.25634
#
# Static dielectric constant tensor:
#      x y z
#    x 4.359550 0.000000 0.000000 
#    y 0.000000 4.150440 0.000000 
#    z 0.000000 0.000000 3.613770 
# 
# 
# High freq. dielectric constant tensor:
#      x y z
#    x 1.900850 0.000000 0.000000 
#    y 0.000000 1.881740 0.000000 
#    z 0.000000 0.000000 1.849390 
# 
# From -- ./inp_files/17100.got.cif
#   From: 2010.03.12/outbox.cif.g09.slc.cpg/sg49_9_cif.got.tgz:17100.got - 2010.04.14 03:58:27.
