data_PCOD8203396
_publ_section_title
;
Structure prediction by ZEFSAII (Michael W. Deem and Ramdas Pophale) SiO2 
 PCOD8203396
Probable space group: P C C M
;
_chemical_formula_sum "Si O2"
_cell_formula_units_Z 64
_cell_length_a 23.451069
_cell_length_b 15.330818
_cell_length_c 8.751223
_cell_angle_alpha 90.000000
_cell_angle_beta 90.000000
_cell_angle_gamma 90.000000
_cell_volume 3146.275317
_symmetry_space_group_name_H-M "P C C M"
_symmetry_group_IT_number 49
_symmetry_cell_setting 'orthorhombic'
loop_
_space_group_symop_operation_xyz
x,y,z
-x,-y,z
x,-y,1/2-z
-x,y,1/2-z
-x,-y,-z
x,y,-z
-x,y,1/2+z
x,-y,1/2+z
loop_
_atom_site_type_symbol
_atom_site_label
_atom_site_fract_x
_atom_site_fract_y
_atom_site_fract_z
Si Si1 0.939340 0.255173 0.818497
Si Si2 0.140890 0.411515 0.679466
Si Si3 0.751779 0.851490 0.822128
Si Si4 0.439120 0.235848 0.181046
Si Si5 0.745607 0.351125 0.321012
Si Si6 0.621649 0.590374 0.820025
Si Si7 0.639699 0.089606 0.179951
Si Si8 0.121606 0.907790 0.319685
O O1 0.895341 0.329149 0.761691
O O2 0.919986 0.162801 0.753301
O O3 0.000000 0.280901 0.750000
O O4 0.942701 0.250057 0.000000
O O5 0.114997 0.500000 0.750000
O O6 0.137476 0.419475 0.500000
O O7 0.206221 0.402192 0.729766
O O8 0.748678 0.750273 0.780488
O O9 0.706532 0.903157 0.719517
O O10 0.813418 0.887009 0.775320
O O11 0.737806 0.867612 0.000000
O O12 0.500000 0.212247 0.250000
O O13 0.421030 0.333035 0.232592
O O14 0.392600 0.169806 0.244208
O O15 0.440874 0.226889 0.000000
O O16 0.754946 0.366902 0.500000
O O17 0.685282 0.387979 0.262374
O O18 0.599496 0.500000 0.750000
O O19 0.621445 0.582008 0.000000
O O20 0.615176 0.000000 0.250000
O O21 0.629941 0.089857 0.000000
O O22 0.112509 0.907956 0.500000
O O23 0.103715 0.000000 0.250000
#
# Coordination Sequence:
#
# PCOD8203396 Si02
#       8
#     8   8   8   8   8   8   8   8
#     4  11  25  44  65  90 121 160 210 260 310 367
#     4  11  24  40  62  93 126 162 204 254 307 369
#     4  10  20  38  64  94 129 166 202 249 309 368
#     4  11  24  45  66  90 123 162 210 262 313 367
#     4  10  19  37  63  92 126 165 201 247 309 367
#     4  10  22  39  62  90 126 163 203 252 303 363
#     4  12  25  41  65  95 127 166 207 254 308 369
#     4  11  23  40  65  94 127 165 204 252 309 368
#
# _framework density 20.341512999999999
#
# number of rings (size 3 to 8) (size 9 to 14) (size 15 to 20)
#    0.000    1.250    2.500    3.375    0.000    7.500 
#    0.000    5.000    0.000    0.000    0.000    0.000 
#    0.000    0.000    0.000    0.000    0.000    0.000 
#
# Total GULP energy -794031.295403 kJ/mol
# GULP energy per Si atom -12406.738991 kJ/mol
# Density = 2.029522 g / cm^3
# Si number density = 20.341513 Si / 1000 Ang^3
#
#
#
# Elastic Constant Matrix: (Units=GPa)
#
#
# Indices 1 2 3 4 5 6 
#
# 1 77.3680 12.0691 29.3797 0.0000 0.0000 0.0000
# 2 12.0691 116.3503 38.3027 0.0000 0.0000 0.0000
# 3 29.3797 38.3027 78.4601 0.0000 0.0000 0.0000
# 4 0.0000 0.0000 0.0000 35.4324 0.0000 0.0000
# 5 0.0000 0.0000 0.0000 0.0000 28.9234 0.0000
# 6 0.0000 0.0000 0.0000 0.0000 0.0000 11.5412
#
#
#
# Elastic Compliance Matrix: (Units=1/GPa)
#
#
# Indices 1 2 3 4 5 6 
#
# 1 0.015080 0.000351 -0.005818 0.000000 0.000000 0.000000
# 2 0.000351 0.010249 -0.005135 0.000000 0.000000 0.000000
# 3 -0.005818 -0.005135 0.017431 0.000000 0.000000 0.000000
# 4 0.000000 0.000000 0.000000 0.028223 0.000000 0.000000
# 5 0.000000 0.000000 0.000000 0.000000 0.034574 0.000000
# 6 0.000000 0.000000 0.000000 0.000000 0.000000 0.086646
#
#
# Mechanical properties :
#
#
# Convention : Reuss Voigt Hill
#
# Bulk Modulus (GPa) = 46.39139 47.96461 47.17800
# Shear Modulus (GPa) = 22.66643 28.00787 25.33715
#
# Velocity S-wave (km/s) = 3.34173 3.71466 3.53312
# Velocity P-wave (km/s) = 6.14372 6.48299 6.31563
#
# Compressibility (1/GPa) = 0.02155572
#
# Stress axis : x y z
#
# Youngs Moduli (GPa) = 66.31373 97.57380 57.37046
#
# Poissons Ratio (x) = -0.03426 0.33379
# Poissons Ratio (y) = -0.02328 0.29458
# Poissons Ratio (z) = 0.38582 0.50101
#
# Static dielectric constant tensor:
#      x y z
#    x 3.691530 0.000000 0.000000 
#    y 0.000000 3.949280 0.000000 
#    z 0.000000 0.000000 3.596150 
# 
# 
# High freq. dielectric constant tensor:
#      x y z
#    x 1.792000 0.000000 0.000000 
#    y 0.000000 1.812750 0.000000 
#    z 0.000000 0.000000 1.794670 
# 
# From -- ./inp_files/4319.got.cif
#   From: 2010.03.12/outbox.cif.g09.slc.cpg/sg49_3_cif.got.tgz:4319.got - 2010.04.14 03:58:27.
