data_PCOD8203062
_publ_section_title
;
Structure prediction by ZEFSAII (Michael W. Deem and Ramdas Pophale) SiO2 
 PCOD8203062
Probable space group: P C C M
;
_chemical_formula_sum "Si O2"
_cell_formula_units_Z 64
_cell_length_a 24.963832
_cell_length_b 14.661100
_cell_length_c 8.760923
_cell_angle_alpha 90.000000
_cell_angle_beta 90.000000
_cell_angle_gamma 90.000000
_cell_volume 3206.473615
_symmetry_space_group_name_H-M "P C C M"
_symmetry_group_IT_number 49
_symmetry_cell_setting 'orthorhombic'
loop_
_space_group_symop_operation_xyz
x,y,z
-x,-y,z
x,-y,1/2-z
-x,y,1/2-z
-x,-y,-z
x,y,-z
-x,y,1/2+z
x,-y,1/2+z
loop_
_atom_site_type_symbol
_atom_site_label
_atom_site_fract_x
_atom_site_fract_y
_atom_site_fract_z
Si Si1 0.748362 0.277029 0.175153
Si Si2 0.553963 0.708947 0.180937
Si Si3 0.943972 0.900937 0.818576
Si Si4 0.132530 0.243101 0.677000
Si Si5 0.420295 0.908680 0.678760
Si Si6 0.693791 0.913964 0.324497
Si Si7 0.658932 0.600270 0.180604
Si Si8 0.945434 0.593028 0.675322
O O1 0.808827 0.271279 0.237596
O O2 0.728516 0.174852 0.193891
O O3 0.712882 0.347163 0.271746
O O4 0.746385 0.309955 0.000000
O O5 0.500000 0.663526 0.250000
O O6 0.554580 0.814010 0.239745
O O7 0.606527 0.655183 0.240905
O O8 0.551970 0.703404 0.000000
O O9 0.893795 0.837897 0.773995
O O10 0.000000 0.862047 0.750000
O O11 0.932505 0.000000 0.750000
O O12 0.949367 0.906549 0.000000
O O13 0.134676 0.212745 0.500000
O O14 0.099239 0.333278 0.703731
O O15 0.427224 0.915558 0.500000
O O16 0.358599 0.903696 0.722505
O O17 0.447560 0.000000 0.750000
O O18 0.678372 0.932762 0.500000
O O19 0.725816 0.000000 0.250000
O O20 0.658431 0.500000 0.250000
O O21 0.657984 0.592217 0.000000
O O22 0.924852 0.500000 0.750000
O O23 0.957038 0.574442 0.500000
O O24 0.000000 0.628679 0.750000
#
# Coordination Sequence:
#
# PCOD8203062 Si02
#       8
#     8   8   8   8   8   8   8   8
#     4  10  22  40  61  87 119 157 197 241 296 353
#     4  10  23  40  61  88 121 155 193 244 295 354
#     4  11  22  38  61  88 121 164 210 256 307 359
#     4  10  22  39  58  86 122 155 196 247 296 354
#     4  10  19  34  55  84 118 153 192 231 279 336
#     4  10  19  32  55  83 112 150 191 231 277 333
#     4  11  24  44  66  89 117 152 197 248 302 363
#     4  10  20  35  57  81 111 146 183 233 285 343
#
# _framework density 19.959622
#
# number of rings (size 3 to 8) (size 9 to 14) (size 15 to 20)
#    0.000    1.750    1.250    4.500    0.000    6.500 
#    0.000    5.000    0.000    0.000    0.000    0.000 
#    0.000    0.000    0.000    0.000    0.000    0.000 
#
# Total GULP energy -793494.549621 kJ/mol
# GULP energy per Si atom -12398.352338 kJ/mol
# Density = 1.991419 g / cm^3
# Si number density = 19.959622 Si / 1000 Ang^3
#
#
#
# Elastic Constant Matrix: (Units=GPa)
#
#
# Indices 1 2 3 4 5 6 
#
# 1 139.5049 71.7360 46.1710 0.0000 0.0000 0.0000
# 2 71.7360 114.2555 56.3423 0.0000 0.0000 0.0000
# 3 46.1710 56.3423 89.3737 0.0000 0.0000 0.0000
# 4 0.0000 0.0000 0.0000 25.9241 0.0000 0.0000
# 5 0.0000 0.0000 0.0000 0.0000 26.2775 0.0000
# 6 0.0000 0.0000 0.0000 0.0000 0.0000 4.3898
#
#
#
# Elastic Compliance Matrix: (Units=1/GPa)
#
#
# Indices 1 2 3 4 5 6 
#
# 1 0.010802 -0.005849 -0.001894 0.000000 0.000000 0.000000
# 2 -0.005849 0.015867 -0.006981 0.000000 0.000000 0.000000
# 3 -0.001894 -0.006981 0.016568 0.000000 0.000000 0.000000
# 4 0.000000 0.000000 0.000000 0.038574 0.000000 0.000000
# 5 0.000000 0.000000 0.000000 0.000000 0.038055 0.000000
# 6 0.000000 0.000000 0.000000 0.000000 0.000000 0.227801
#
#
# Mechanical properties :
#
#
# Convention : Reuss Voigt Hill
#
# Bulk Modulus (GPa) = 72.51236 76.84807 74.68022
# Shear Modulus (GPa) = 13.09889 22.57729 17.83809
#
# Velocity S-wave (km/s) = 2.56455 3.36690 2.99274
# Velocity P-wave (km/s) = 6.72143 7.32803 7.03128
#
# Compressibility (1/GPa) = 0.01379075
#
# Stress axis : x y z
#
# Youngs Moduli (GPa) = 92.57266 63.02364 60.35601
#
# Poissons Ratio (x) = 0.36860 0.11429
# Poissons Ratio (y) = 0.54142 0.42137
# Poissons Ratio (z) = 0.17529 0.43999
#
# Static dielectric constant tensor:
#      x y z
#    x 3.567530 0.000000 0.000000 
#    y 0.000000 3.658870 0.000000 
#    z 0.000000 0.000000 3.675610 
# 
# 
# High freq. dielectric constant tensor:
#      x y z
#    x 1.777310 0.000000 0.000000 
#    y 0.000000 1.787440 0.000000 
#    z 0.000000 0.000000 1.780000 
# 
# From -- ./inp_files/6518.got.cif
#   From: 2010.03.12/outbox.cif.g09.slc.cpg/sg49_4_cif.got.tgz:6518.got - 2010.04.14 03:58:27.
