data_PCOD8203512
_publ_section_title
;
Structure prediction by ZEFSAII (Michael W. Deem and Ramdas Pophale) SiO2 
 PCOD8203512
Probable space group: P C C M
;
_chemical_formula_sum "Si O2"
_cell_formula_units_Z 64
_cell_length_a 16.211400
_cell_length_b 22.329219
_cell_length_c 9.138321
_cell_angle_alpha 90.000000
_cell_angle_beta 90.000000
_cell_angle_gamma 90.000000
_cell_volume 3307.961637
_symmetry_space_group_name_H-M "P C C M"
_symmetry_group_IT_number 49
_symmetry_cell_setting 'orthorhombic'
loop_
_space_group_symop_operation_xyz
x,y,z
-x,-y,z
x,-y,1/2-z
-x,y,1/2-z
-x,-y,-z
x,y,-z
-x,y,1/2+z
x,-y,1/2+z
loop_
_atom_site_type_symbol
_atom_site_label
_atom_site_fract_x
_atom_site_fract_y
_atom_site_fract_z
Si Si1 0.582642 0.147372 0.326069
Si Si2 0.071927 0.233319 0.839445
Si Si3 0.625048 0.732797 0.333047
Si Si4 0.228172 0.686399 0.661584
Si Si5 0.739803 0.556587 0.169421
Si Si6 0.916076 0.900289 0.173076
Si Si7 0.266412 0.939805 0.673003
Si Si8 0.421046 0.400743 0.331127
O O1 0.500000 0.119207 0.250000
O O2 0.569695 0.147382 0.500000
O O3 0.589205 0.215743 0.271004
O O4 0.666919 0.111776 0.283258
O O5 0.144755 0.278835 0.838082
O O6 0.095011 0.168339 0.775326
O O7 0.000000 0.264894 0.750000
O O8 0.037476 0.221774 0.000000
O O9 0.625302 0.755996 0.500000
O O10 0.717680 0.717026 0.285601
O O11 0.574711 0.671374 0.316286
O O12 0.270966 0.691494 0.500000
O O13 0.206642 0.616793 0.692643
O O14 0.782788 0.500000 0.250000
O O15 0.653392 0.569254 0.246157
O O16 0.727145 0.540830 0.000000
O O17 0.828390 0.928198 0.225872
O O18 0.000000 0.927100 0.250000
O O19 0.926386 0.909188 0.000000
O O20 0.267729 0.948154 0.500000
O O21 0.297850 0.000000 0.750000
O O22 0.500000 0.427478 0.250000
O O23 0.418156 0.420281 0.500000
#
# Coordination Sequence:
#
# PCOD8203512 Si02
#       8
#     8   8   8   8   8   8   8   8
#     4  11  23  39  58  80 108 143 183 228 277 326
#     4   9  17  31  52  79 109 137 167 205 254 312
#     4  10  20  33  53  81 108 135 171 215 263 317
#     4   9  18  33  53  75 104 141 174 212 264 316
#     4  10  20  34  51  70  94 129 172 214 257 303
#     4   9  18  34  56  83 113 143 173 210 261 320
#     4  10  23  41  59  79 107 144 184 226 270 318
#     4  10  20  33  49  72 101 130 163 205 253 306
#
# _framework density 19.347262000000001
#
# number of rings (size 3 to 8) (size 9 to 14) (size 15 to 20)
#    0.000    2.250    0.000    2.625    0.000    7.750 
#    0.000    6.250    0.000    0.375    0.000    2.625 
#    0.000    0.000    0.000    0.000    0.000    0.000 
#
# Total GULP energy -793093.739214 kJ/mol
# GULP energy per Si atom -12392.089675 kJ/mol
# Density = 1.930323 g / cm^3
# Si number density = 19.347262 Si / 1000 Ang^3
#
#
#
# Elastic Constant Matrix: (Units=GPa)
#
#
# Indices 1 2 3 4 5 6 
#
# 1 72.5976 19.4058 33.8927 0.0000 0.0000 0.0000
# 2 19.4058 71.0124 30.3788 0.0000 0.0000 0.0000
# 3 33.8927 30.3788 84.7209 0.0000 0.0000 0.0000
# 4 0.0000 0.0000 0.0000 28.0409 0.0000 0.0000
# 5 0.0000 0.0000 0.0000 0.0000 28.5250 0.0000
# 6 0.0000 0.0000 0.0000 0.0000 0.0000 4.5122
#
#
#
# Elastic Compliance Matrix: (Units=1/GPa)
#
#
# Indices 1 2 3 4 5 6 
#
# 1 0.017193 -0.002074 -0.006134 0.000000 0.000000 0.000000
# 2 -0.002074 0.016884 -0.005224 0.000000 0.000000 0.000000
# 3 -0.006134 -0.005224 0.016131 0.000000 0.000000 0.000000
# 4 0.000000 0.000000 0.000000 0.035662 0.000000 0.000000
# 5 0.000000 0.000000 0.000000 0.000000 0.035057 0.000000
# 6 0.000000 0.000000 0.000000 0.000000 0.000000 0.221624
#
#
# Mechanical properties :
#
#
# Convention : Reuss Voigt Hill
#
# Bulk Modulus (GPa) = 42.84138 43.96506 43.40322
# Shear Modulus (GPa) = 13.25570 21.85920 17.55745
#
# Velocity S-wave (km/s) = 2.62037 3.36495 3.01573
# Velocity P-wave (km/s) = 5.59880 6.15392 5.88291
#
# Compressibility (1/GPa) = 0.02334192
#
# Stress axis : x y z
#
# Youngs Moduli (GPa) = 58.16385 59.22833 61.99321
#
# Poissons Ratio (x) = 0.12285 0.38028
# Poissons Ratio (y) = 0.12064 0.32387
# Poissons Ratio (z) = 0.35679 0.30943
#
# Static dielectric constant tensor:
#      x y z
#    x 3.631020 0.000000 0.000000 
#    y 0.000000 3.740930 0.000000 
#    z 0.000000 0.000000 3.867980 
# 
# 
# High freq. dielectric constant tensor:
#      x y z
#    x 1.736530 0.000000 0.000000 
#    y 0.000000 1.752330 0.000000 
#    z 0.000000 0.000000 1.757720 
# 
# From -- ./inp_files/4355.got.cif
#   From: 2010.03.12/outbox.cif.g09.slc.cpg/sg49_3_cif.got.tgz:4355.got - 2010.04.14 03:58:27.
