data_PCOD8203431
_publ_section_title
;
Structure prediction by ZEFSAII (Michael W. Deem and Ramdas Pophale) SiO2 
 PCOD8203431
Probable space group: P C C M
;
_chemical_formula_sum "Si O2"
_cell_formula_units_Z 58
_cell_length_a 17.775838
_cell_length_b 22.141075
_cell_length_c 9.022299
_cell_angle_alpha 90.000000
_cell_angle_beta 90.000000
_cell_angle_gamma 90.000000
_cell_volume 3550.961816
_symmetry_space_group_name_H-M "P C C M"
_symmetry_group_IT_number 49
_symmetry_cell_setting 'orthorhombic'
loop_
_space_group_symop_operation_xyz
x,y,z
-x,-y,z
x,-y,1/2-z
-x,y,1/2-z
-x,-y,-z
x,y,-z
-x,y,1/2+z
x,-y,1/2+z
loop_
_atom_site_type_symbol
_atom_site_label
_atom_site_fract_x
_atom_site_fract_y
_atom_site_fract_z
Si Si1 0.500000 0.500000 0.250000
Si Si2 0.644562 0.556556 0.664978
Si Si3 0.422259 0.213884 0.828913
Si Si4 0.806440 0.752355 0.667407
Si Si5 0.808350 0.060888 0.672168
Si Si6 0.308783 0.323663 0.829045
Si Si7 0.921358 0.829959 0.827767
Si Si8 0.307833 0.862853 0.832470
O O1 0.445503 0.456595 0.347288
O O2 0.684024 0.500000 0.750000
O O3 0.677982 0.563170 0.500000
O O4 0.658720 0.616566 0.756439
O O5 0.500000 0.228747 0.750000
O O6 0.370872 0.272351 0.809353
O O7 0.383904 0.155901 0.751957
O O8 0.435970 0.198289 0.000000
O O9 0.827903 0.733867 0.500000
O O10 0.768763 0.695374 0.749254
O O11 0.881359 0.771888 0.754721
O O12 0.748614 0.807120 0.668179
O O13 0.793350 0.049171 0.500000
O O14 0.872522 0.110275 0.697655
O O15 0.730071 0.081470 0.746573
O O16 0.836889 0.000000 0.750000
O O17 0.290626 0.335916 0.000000
O O18 0.000000 0.841911 0.750000
O O19 0.933351 0.816106 0.000000
O O20 0.327320 0.882601 0.000000
#
# Coordination Sequence:
#
# PCOD8203431 Si02
#       8
#     2   8   8   8   8   8   8   8
#     4   8  22  32  46  60  90 128 168 204 248 292
#     4  10  20  32  46  63  89 125 165 203 244 288
#     4  10  20  31  45  67  92 119 152 195 243 288
#     4   9  17  31  50  70  93 123 158 195 236 282
#     4  10  20  33  50  71  95 125 160 194 227 272
#     4  10  20  32  47  68  94 125 162 202 241 285
#     4  10  20  33  50  73 102 132 159 191 232 278
#     4   9  17  31  49  67  89 118 152 192 237 283
#
# _framework density 16.333603
#
# number of rings (size 3 to 8) (size 9 to 14) (size 15 to 20)
#    0.414    1.931    0.000    3.103    0.966    6.897 
#    0.000    1.379    0.000    0.414    0.000    2.897 
#    0.000    0.552    0.000    5.517    0.000    3.310 
#
# Total GULP energy -719094.385311 kJ/mol
# GULP energy per Si atom -12398.179057 kJ/mol
# Density = 1.629643 g / cm^3
# Si number density = 16.333603 Si / 1000 Ang^3
#
#
#
# Elastic Constant Matrix: (Units=GPa)
#
#
# Indices 1 2 3 4 5 6 
#
# 1 51.9302 39.1511 57.7754 0.0000 0.0000 0.0000
# 2 39.1511 70.5558 55.7641 0.0000 0.0000 0.0000
# 3 57.7754 55.7641 164.5483 0.0000 0.0000 0.0000
# 4 0.0000 0.0000 0.0000 27.1629 0.0000 0.0000
# 5 0.0000 0.0000 0.0000 0.0000 29.0387 0.0000
# 6 0.0000 0.0000 0.0000 0.0000 0.0000 13.7731
#
#
#
# Elastic Compliance Matrix: (Units=1/GPa)
#
#
# Indices 1 2 3 4 5 6 
#
# 1 0.041272 -0.015637 -0.009192 0.000000 0.000000 0.000000
# 2 -0.015637 0.025282 -0.003078 0.000000 0.000000 0.000000
# 3 -0.009192 -0.003078 0.010348 0.000000 0.000000 0.000000
# 4 0.000000 0.000000 0.000000 0.036815 0.000000 0.000000
# 5 0.000000 0.000000 0.000000 0.000000 0.034437 0.000000
# 6 0.000000 0.000000 0.000000 0.000000 0.000000 0.072605
#
#
# Mechanical properties :
#
#
# Convention : Reuss Voigt Hill
#
# Bulk Modulus (GPa) = 47.41756 65.82394 56.62075
# Shear Modulus (GPa) = 17.63033 22.95120 20.29077
#
# Velocity S-wave (km/s) = 3.28897 3.75260 3.52841
# Velocity P-wave (km/s) = 6.59673 7.69176 7.16520
#
# Compressibility (1/GPa) = 0.02108924
#
# Stress axis : x y z
#
# Youngs Moduli (GPa) = 24.22935 39.55321 96.63931
#
# Poissons Ratio (x) = 0.61848 0.88832
# Poissons Ratio (y) = 0.37887 0.29743
# Poissons Ratio (z) = 0.22272 0.12173
#
# Static dielectric constant tensor:
#      x y z
#    x 2.902540 0.000000 0.000000 
#    y 0.000000 2.919910 0.000000 
#    z 0.000000 0.000000 3.308840 
# 
# 
# High freq. dielectric constant tensor:
#      x y z
#    x 1.600420 0.000000 0.000000 
#    y 0.000000 1.606400 0.000000 
#    z 0.000000 0.000000 1.651660 
# 
# From -- ./inp_files/4275.got.cif
#   From: 2010.03.12/outbox.cif.g09.slc.cpg/sg49_3_cif.got.tgz:4275.got - 2010.04.14 03:58:27.
