data_PCOD8203949
_publ_section_title
;
Structure prediction by ZEFSAII (Michael W. Deem and Ramdas Pophale) SiO2 
 PCOD8203949
Probable space group: P C C M
;
_chemical_formula_sum "Si O2"
_cell_formula_units_Z 48
_cell_length_a 12.463110
_cell_length_b 10.617866
_cell_length_c 16.790334
_cell_angle_alpha 90.000000
_cell_angle_beta 90.000000
_cell_angle_gamma 90.000000
_cell_volume 2221.892299
_symmetry_space_group_name_H-M "P C C M"
_symmetry_group_IT_number 49
_symmetry_cell_setting 'orthorhombic'
loop_
_space_group_symop_operation_xyz
x,y,z
-x,-y,z
x,-y,1/2-z
-x,y,1/2-z
-x,-y,-z
x,y,-z
-x,y,1/2+z
x,-y,1/2+z
loop_
_atom_site_type_symbol
_atom_site_label
_atom_site_fract_x
_atom_site_fract_y
_atom_site_fract_z
Si Si1 0.271088 0.742967 0.853014
Si Si2 0.051256 0.876746 0.590919
Si Si3 0.607165 0.824004 0.796394
Si Si4 0.505220 0.358708 0.091351
Si Si5 0.274248 0.987371 0.589008
Si Si6 0.059573 0.627186 0.904905
O O1 0.298849 0.771791 0.760903
O O2 0.376013 0.694773 0.898200
O O3 0.176237 0.640452 0.862766
O O4 0.231683 0.871695 0.895366
O O5 0.011391 0.878086 0.500000
O O6 0.179213 0.885930 0.597140
O O7 0.012287 0.744197 0.627207
O O8 0.000000 0.000000 0.634347
O O9 0.500000 0.859585 0.750000
O O10 0.584442 0.716171 0.860418
O O11 0.639476 0.951400 0.843451
O O12 0.500000 0.500000 0.124238
O O13 0.470506 0.351677 0.000000
O O14 0.324080 0.980167 0.500000
O O15 0.000000 0.500000 0.876303
O O16 0.074870 0.625201 0.000000
#
# Coordination Sequence:
#
# PCOD8203949 Si02
#       6
#     8   8   8   8   8   8
#     4  11  22  38  61  91 128 167 201 254 326 386
#     4   9  17  33  59  89 119 154 204 260 308 360
#     4  10  24  41  60  89 128 165 204 258 321 381
#     4  10  22  41  65  90 118 159 214 262 308 376
#     4  11  21  37  65  93 122 163 216 262 311 371
#     4  10  20  36  61  95 129 164 209 260 313 376
#
# _framework density 21.603207999999999
#
# number of rings (size 3 to 8) (size 9 to 14) (size 15 to 20)
#    0.000    1.833    1.667    2.500    0.000    9.000 
#    0.000    8.333    0.000    1.000    0.000    0.000 
#    0.000    0.667    0.000    0.000    0.000    0.000 
#
# Total GULP energy -595216.080279 kJ/mol
# GULP energy per Si atom -12400.335006 kJ/mol
# Density = 2.155404 g / cm^3
# Si number density = 21.603208 Si / 1000 Ang^3
#
#
#
# Elastic Constant Matrix: (Units=GPa)
#
#
# Indices 1 2 3 4 5 6 
#
# 1 91.1448 49.6711 40.4059 0.0000 0.0000 0.0000
# 2 49.6711 143.0166 31.4727 0.0000 0.0000 0.0000
# 3 40.4059 31.4727 89.8272 0.0000 0.0000 0.0000
# 4 0.0000 0.0000 0.0000 0.3371 0.0000 0.0000
# 5 0.0000 0.0000 0.0000 0.0000 31.5676 0.0000
# 6 0.0000 0.0000 0.0000 0.0000 0.0000 40.1538
#
#
#
# Elastic Compliance Matrix: (Units=1/GPa)
#
#
# Indices 1 2 3 4 5 6 
#
# 1 0.015769 -0.004243 -0.005607 0.000000 0.000000 0.000000
# 2 -0.004243 0.008718 -0.001146 0.000000 0.000000 0.000000
# 3 -0.005607 -0.001146 0.014056 0.000000 0.000000 0.000000
# 4 0.000000 0.000000 0.000000 2.966304 0.000000 0.000000
# 5 0.000000 0.000000 0.000000 0.000000 0.031678 0.000000
# 6 0.000000 0.000000 0.000000 0.000000 0.000000 0.024904
#
#
# Mechanical properties :
#
#
# Convention : Reuss Voigt Hill
#
# Bulk Modulus (GPa) = 60.41560 63.00979 61.71270
# Shear Modulus (GPa) = 1.61868 27.90762 14.76315
#
# Velocity S-wave (km/s) = 0.86655 3.59810 2.61699
# Velocity P-wave (km/s) = 5.38776 6.81850 6.14491
#
# Compressibility (1/GPa) = 0.01655202
#
# Stress axis : x y z
#
# Youngs Moduli (GPa) = 63.41380 114.70489 71.14397
#
# Poissons Ratio (x) = 0.48670 0.39889
# Poissons Ratio (y) = 0.26907 0.08153
# Poissons Ratio (z) = 0.35555 0.13144
#
# Static dielectric constant tensor:
#      x y z
#    x 3.677620 0.000000 0.000000 
#    y 0.000000 4.030270 0.000000 
#    z 0.000000 0.000000 3.758830 
# 
# 
# High freq. dielectric constant tensor:
#      x y z
#    x 1.843130 0.000000 0.000000 
#    y 0.000000 1.853420 0.000000 
#    z 0.000000 0.000000 1.833090 
# 
# From -- ./inp_files/17083.got.cif
#   From: 2010.03.12/outbox.cif.g09.slc.cpg/sg49_9_cif.got.tgz:17083.got - 2010.04.14 03:58:27.
