data_PCOD8203683
_publ_section_title
;
Structure prediction by ZEFSAII (Michael W. Deem and Ramdas Pophale) SiO2 
 PCOD8203683
Probable space group: P C C M
;
_chemical_formula_sum "Si O2"
_cell_formula_units_Z 48
_cell_length_a 29.494760
_cell_length_b 8.932615
_cell_length_c 9.333296
_cell_angle_alpha 90.000000
_cell_angle_beta 90.000000
_cell_angle_gamma 90.000000
_cell_volume 2458.999963
_symmetry_space_group_name_H-M "P C C M"
_symmetry_group_IT_number 49
_symmetry_cell_setting 'orthorhombic'
loop_
_space_group_symop_operation_xyz
x,y,z
-x,-y,z
x,-y,1/2-z
-x,y,1/2-z
-x,-y,-z
x,y,-z
-x,y,1/2+z
x,-y,1/2+z
loop_
_atom_site_type_symbol
_atom_site_label
_atom_site_fract_x
_atom_site_fract_y
_atom_site_fract_z
Si Si1 0.185695 0.852937 0.838895
Si Si2 0.285170 0.158029 0.330147
Si Si3 0.632165 0.844590 0.168014
Si Si4 0.042702 0.189148 0.500000
Si Si5 0.542746 0.654465 0.168485
Si Si6 0.935960 0.150426 0.500000
Si Si7 0.099706 0.323111 0.734598
O O1 0.234575 0.777561 0.800245
O O2 0.148430 0.723608 0.825960
O O3 0.173111 0.000000 0.750000
O O4 0.187832 0.912800 0.000000
O O5 0.295409 0.147301 0.500000
O O6 0.325933 0.245519 0.247334
O O7 0.285960 0.000000 0.250000
O O8 0.586700 0.753534 0.189566
O O9 0.624655 0.000000 0.250000
O O10 0.643233 0.869034 0.000000
O O11 0.057501 0.283498 0.635586
O O12 0.989053 0.182371 0.500000
O O13 0.068722 0.029212 0.500000
O O14 0.551904 0.500000 0.250000
O O15 0.500000 0.732386 0.250000
O O16 0.532088 0.629584 0.000000
O O17 0.909244 0.225548 0.627308
O O18 0.100059 0.500000 0.750000
#
# Coordination Sequence:
#
# PCOD8203683 Si02
#       7
#     8   8   8   4   8   4   8
#     4  10  21  38  61  86 114 151 196 237 279 342
#     4   9  17  31  54  82 110 145 188 234 280 331
#     4  10  20  34  54  83 116 147 186 237 288 341
#     4  11  23  45  65  87 119 149 201 243 274 351
#     4  10  21  36  55  78 108 147 194 239 287 348
#     4  11  25  41  67  91 111 157 197 237 288 335
#     4  12  25  40  60  89 125 154 187 239 296 348
#
# _framework density 19.520130000000002
#
# number of rings (size 3 to 8) (size 9 to 14) (size 15 to 20)
#    0.000    1.667    0.833    5.500    1.167    7.000 
#    0.000    2.500    0.000    2.000    0.000    0.000 
#    0.000    0.000    0.000    0.000    0.000    0.000 
#
# Total GULP energy -594692.520647 kJ/mol
# GULP energy per Si atom -12389.427513 kJ/mol
# Density = 1.947570 g / cm^3
# Si number density = 19.520130 Si / 1000 Ang^3
#
#
#
# Elastic Constant Matrix: (Units=GPa)
#
#
# Indices 1 2 3 4 5 6 
#
# 1 120.0272 39.2113 41.9102 0.0000 0.0000 0.0000
# 2 39.2113 77.7525 26.6200 0.0000 0.0000 0.0000
# 3 41.9102 26.6200 131.1271 0.0000 0.0000 0.0000
# 4 0.0000 0.0000 0.0000 26.6799 0.0000 0.0000
# 5 0.0000 0.0000 0.0000 0.0000 34.7382 0.0000
# 6 0.0000 0.0000 0.0000 0.0000 0.0000 7.3473
#
#
#
# Elastic Compliance Matrix: (Units=1/GPa)
#
#
# Indices 1 2 3 4 5 6 
#
# 1 0.010683 -0.004534 -0.002494 0.000000 0.000000 0.000000
# 2 -0.004534 0.015746 -0.001748 0.000000 0.000000 0.000000
# 3 -0.002494 -0.001748 0.008778 0.000000 0.000000 0.000000
# 4 0.000000 0.000000 0.000000 0.037481 0.000000 0.000000
# 5 0.000000 0.000000 0.000000 0.000000 0.028787 0.000000
# 6 0.000000 0.000000 0.000000 0.000000 0.000000 0.136105
#
#
# Mechanical properties :
#
#
# Convention : Reuss Voigt Hill
#
# Bulk Modulus (GPa) = 56.63606 60.48775 58.56191
# Shear Modulus (GPa) = 19.15582 28.49744 23.82663
#
# Velocity S-wave (km/s) = 3.13603 3.82501 3.49753
# Velocity P-wave (km/s) = 6.49539 7.11071 6.81000
#
# Compressibility (1/GPa) = 0.01765660
#
# Stress axis : x y z
#
# Youngs Moduli (GPa) = 93.60234 63.50786 113.91945
#
# Poissons Ratio (x) = 0.28794 0.28414
# Poissons Ratio (y) = 0.42438 0.19908
# Poissons Ratio (z) = 0.23346 0.11098
#
# Static dielectric constant tensor:
#      x y z
#    x 4.486470 0.000000 0.000000 
#    y 0.000000 3.214440 0.000000 
#    z 0.000000 0.000000 3.860420 
# 
# 
# High freq. dielectric constant tensor:
#      x y z
#    x 1.789520 0.000000 0.000000 
#    y 0.000000 1.720090 0.000000 
#    z 0.000000 0.000000 1.781940 
# 
# From -- ./inp_files/6920.got.cif
#   From: 2010.03.12/outbox.cif.g09.slc.cpg/sg49_4_cif.got.tgz:6920.got - 2010.04.14 03:58:27.
