data_PCOD8203965
_publ_section_title
;
Structure prediction by ZEFSAII (Michael W. Deem and Ramdas Pophale) SiO2 
 PCOD8203965
Probable space group: P C C M
;
_chemical_formula_sum "Si O2"
_cell_formula_units_Z 58
_cell_length_a 19.302197
_cell_length_b 19.255181
_cell_length_c 8.284434
_cell_angle_alpha 90.000000
_cell_angle_beta 90.000000
_cell_angle_gamma 90.000000
_cell_volume 3079.053191
_symmetry_space_group_name_H-M "P C C M"
_symmetry_group_IT_number 49
_symmetry_cell_setting 'orthorhombic'
loop_
_space_group_symop_operation_xyz
x,y,z
-x,-y,z
x,-y,1/2-z
-x,y,1/2-z
-x,-y,-z
x,y,-z
-x,y,1/2+z
x,-y,1/2+z
loop_
_atom_site_type_symbol
_atom_site_label
_atom_site_fract_x
_atom_site_fract_y
_atom_site_fract_z
Si Si1 0.184154 0.797258 0.313146
Si Si2 0.601869 0.106685 0.310178
Si Si3 0.188535 0.422424 0.809247
Si Si4 0.500000 0.000000 0.250000
Si Si5 0.922556 0.313149 0.310027
Si Si6 0.574329 0.735127 0.189106
Si Si7 0.249864 0.927217 0.186219
Si Si8 0.713201 0.687410 0.313904
O O1 0.177954 0.816840 0.500000
O O2 0.115595 0.757071 0.248838
O O3 0.191952 0.868131 0.212843
O O4 0.250309 0.747118 0.291824
O O5 0.582061 0.090854 0.500000
O O6 0.556732 0.056964 0.186885
O O7 0.585415 0.185001 0.260620
O O8 0.682590 0.092254 0.288886
O O9 0.179703 0.500000 0.750000
O O10 0.120729 0.379951 0.749349
O O11 0.256823 0.388217 0.731077
O O12 0.196548 0.419581 0.000000
O O13 0.922311 0.312450 0.500000
O O14 0.000000 0.317339 0.250000
O O15 0.500000 0.709151 0.250000
O O16 0.631618 0.687790 0.276413
O O17 0.581195 0.724474 0.000000
O O18 0.219401 0.000000 0.250000
O O19 0.269705 0.932293 0.000000
O O20 0.726893 0.704034 0.500000
#
# Coordination Sequence:
#
# PCOD8203965 Si02
#       8
#     8   8   8   2   8   8   8   8
#     4  10  20  37  57  80 111 147 189 236 283 332
#     4  11  23  35  50  71 102 140 182 231 282 340
#     4  10  21  38  59  88 122 157 191 228 273 324
#     4  12  22  36  52  70 106 148 194 220 294 356
#     4   9  20  36  58  87 121 156 188 225 270 325
#     4  11  22  36  53  76 107 143 187 240 290 337
#     4  12  24  36  54  77 104 140 185 235 289 342
#     4  11  21  35  57  83 110 147 192 236 284 338
#
# _framework density 18.836960000000001
#
# number of rings (size 3 to 8) (size 9 to 14) (size 15 to 20)
#    0.000    1.379    2.759    4.759    0.000    4.690 
#    0.000    1.379    0.000    0.828    0.000    5.793 
#    0.000    0.000    0.000    0.000    0.000    0.000 
#
# Total GULP energy -718761.584383 kJ/mol
# GULP energy per Si atom -12392.441110 kJ/mol
# Density = 1.879409 g / cm^3
# Si number density = 18.836960 Si / 1000 Ang^3
#
#
#
# Elastic Constant Matrix: (Units=GPa)
#
#
# Indices 1 2 3 4 5 6 
#
# 1 137.3564 75.8340 25.5599 0.0000 0.0000 0.0000
# 2 75.8340 121.5345 24.7655 0.0000 0.0000 0.0000
# 3 25.5599 24.7655 65.4334 0.0000 0.0000 0.0000
# 4 0.0000 0.0000 0.0000 23.9582 0.0000 0.0000
# 5 0.0000 0.0000 0.0000 0.0000 23.4609 0.0000
# 6 0.0000 0.0000 0.0000 0.0000 0.0000 26.9786
#
#
#
# Elastic Compliance Matrix: (Units=1/GPa)
#
#
# Indices 1 2 3 4 5 6 
#
# 1 0.011319 -0.006677 -0.001894 0.000000 0.000000 0.000000
# 2 -0.006677 0.012854 -0.002257 0.000000 0.000000 0.000000
# 3 -0.001894 -0.002257 0.016877 0.000000 0.000000 0.000000
# 4 0.000000 0.000000 0.000000 0.041739 0.000000 0.000000
# 5 0.000000 0.000000 0.000000 0.000000 0.042624 0.000000
# 6 0.000000 0.000000 0.000000 0.000000 0.000000 0.037066
#
#
# Mechanical properties :
#
#
# Convention : Reuss Voigt Hill
#
# Bulk Modulus (GPa) = 51.56291 64.07148 57.81719
# Shear Modulus (GPa) = 26.23282 28.09054 27.16168
#
# Velocity S-wave (km/s) = 3.73584 3.86585 3.80140
# Velocity P-wave (km/s) = 6.78538 7.34942 7.07302
#
# Compressibility (1/GPa) = 0.01939379
#
# Stress axis : x y z
#
# Youngs Moduli (GPa) = 88.34660 77.79612 59.25230
#
# Poissons Ratio (x) = 0.51942 0.11225
# Poissons Ratio (y) = 0.58987 0.13373
# Poissons Ratio (z) = 0.16737 0.17559
#
# Static dielectric constant tensor:
#      x y z
#    x 3.175690 0.000000 0.000000 
#    y 0.000000 3.399050 0.000000 
#    z 0.000000 0.000000 3.401260 
# 
# 
# High freq. dielectric constant tensor:
#      x y z
#    x 1.720000 0.000000 0.000000 
#    y 0.000000 1.722200 0.000000 
#    z 0.000000 0.000000 1.731730 
# 
# From -- ./inp_files/5066.got.cif
#   From: 2010.03.12/outbox.cif.g09.slc.cpg/sg49_3_cif.got.tgz:5066.got - 2010.04.14 03:58:27.
