data_PCOD8203839
_publ_section_title
;
Structure prediction by ZEFSAII (Michael W. Deem and Ramdas Pophale) SiO2 
 PCOD8203839
Probable space group: P C C M
;
_chemical_formula_sum "Si O2"
_cell_formula_units_Z 56
_cell_length_a 20.796374
_cell_length_b 14.605948
_cell_length_c 8.925751
_cell_angle_alpha 90.000000
_cell_angle_beta 90.000000
_cell_angle_gamma 90.000000
_cell_volume 2711.203625
_symmetry_space_group_name_H-M "P C C M"
_symmetry_group_IT_number 49
_symmetry_cell_setting 'orthorhombic'
loop_
_space_group_symop_operation_xyz
x,y,z
-x,-y,z
x,-y,1/2-z
-x,y,1/2-z
-x,-y,-z
x,y,-z
-x,y,1/2+z
x,-y,1/2+z
loop_
_atom_site_type_symbol
_atom_site_label
_atom_site_fract_x
_atom_site_fract_y
_atom_site_fract_z
Si Si1 0.563401 0.275041 0.677916
Si Si2 0.610182 0.900495 0.678455
Si Si3 0.250212 0.906385 0.828446
Si Si4 0.678634 0.404274 0.675233
Si Si5 0.888006 0.903926 0.328130
Si Si6 0.824381 0.402512 0.677368
Si Si7 0.064731 0.286815 0.323048
O O1 0.500000 0.322635 0.750000
O O2 0.557431 0.271660 0.500000
O O3 0.563781 0.172580 0.745226
O O4 0.626874 0.329774 0.730916
O O5 0.598590 0.904454 0.500000
O O6 0.682210 0.863593 0.725520
O O7 0.597271 0.000000 0.750000
O O8 0.182621 0.855632 0.795809
O O9 0.236552 0.000000 0.750000
O O10 0.260757 0.929072 0.000000
O O11 0.661320 0.500000 0.750000
O O12 0.672551 0.419932 0.500000
O O13 0.751086 0.371982 0.717307
O O14 0.892347 0.930796 0.500000
O O15 0.936492 0.822290 0.286725
O O16 0.904686 0.000000 0.250000
O O17 0.839442 0.500000 0.750000
O O18 0.834805 0.408624 0.500000
O O19 0.872996 0.330434 0.747557
O O20 0.065907 0.306439 0.500000
O O21 0.000000 0.328563 0.250000
#
# Coordination Sequence:
#
# PCOD8203839 Si02
#       7
#     8   8   8   8   8   8   8
#     4  11  24  41  59  87 123 160 203 246 295 353
#     4  10  20  35  57  84 117 158 201 248 300 353
#     4   8  15  29  49  76 106 139 185 236 288 341
#     4   9  21  41  66  94 123 154 193 242 297 358
#     4   9  19  35  55  81 115 156 201 246 294 347
#     4  10  21  41  67  95 122 153 193 242 300 359
#     4  11  24  40  59  87 123 162 204 249 297 355
#
# _framework density 20.655033
#
# number of rings (size 3 to 8) (size 9 to 14) (size 15 to 20)
#    0.000    2.286    0.000    1.714    2.000    4.571 
#    0.000    5.714    0.000    0.000    0.000    0.000 
#    0.000    0.000    0.000    0.000    0.000    0.000 
#
# Total GULP energy -693792.289820 kJ/mol
# GULP energy per Si atom -12389.148032 kJ/mol
# Density = 2.060802 g / cm^3
# Si number density = 20.655033 Si / 1000 Ang^3
#
#
#
# Elastic Constant Matrix: (Units=GPa)
#
#
# Indices 1 2 3 4 5 6 
#
# 1 122.1129 59.9461 55.6481 0.0000 0.0000 0.0000
# 2 59.9461 90.4278 45.3280 0.0000 0.0000 0.0000
# 3 55.6481 45.3280 83.0534 0.0000 0.0000 0.0000
# 4 0.0000 0.0000 0.0000 30.9667 0.0000 0.0000
# 5 0.0000 0.0000 0.0000 0.0000 31.5214 0.0000
# 6 0.0000 0.0000 0.0000 0.0000 0.0000 23.4055
#
#
#
# Elastic Compliance Matrix: (Units=1/GPa)
#
#
# Indices 1 2 3 4 5 6 
#
# 1 0.013984 -0.006296 -0.005933 0.000000 0.000000 0.000000
# 2 -0.006296 0.018058 -0.005637 0.000000 0.000000 0.000000
# 3 -0.005933 -0.005637 0.019092 0.000000 0.000000 0.000000
# 4 0.000000 0.000000 0.000000 0.032293 0.000000 0.000000
# 5 0.000000 0.000000 0.000000 0.000000 0.031724 0.000000
# 6 0.000000 0.000000 0.000000 0.000000 0.000000 0.042725
#
#
# Mechanical properties :
#
#
# Convention : Reuss Voigt Hill
#
# Bulk Modulus (GPa) = 64.92870 68.60426 66.76648
# Shear Modulus (GPa) = 25.15818 26.15685 25.65752
#
# Velocity S-wave (km/s) = 3.49380 3.56247 3.52830
# Velocity P-wave (km/s) = 6.91220 7.08576 6.99952
#
# Compressibility (1/GPa) = 0.01540151
#
# Stress axis : x y z
#
# Youngs Moduli (GPa) = 71.51171 55.37784 52.37669
#
# Poissons Ratio (x) = 0.34865 0.31077
# Poissons Ratio (y) = 0.45023 0.29525
# Poissons Ratio (z) = 0.42431 0.31216
#
# Static dielectric constant tensor:
#      x y z
#    x 4.233530 0.000000 0.000000 
#    y 0.000000 3.488420 0.000000 
#    z 0.000000 0.000000 3.671490 
# 
# 
# High freq. dielectric constant tensor:
#      x y z
#    x 1.826490 0.000000 0.000000 
#    y 0.000000 1.787440 0.000000 
#    z 0.000000 0.000000 1.809890 
# 
# From -- ./inp_files/5765.got.cif
#   From: 2010.03.12/outbox.cif.g09.slc.cpg/sg49_3_cif.got.tgz:5765.got - 2010.04.14 03:58:27.
