data_PCOD8203809
_publ_section_title
;
Structure prediction by ZEFSAII (Michael W. Deem and Ramdas Pophale) SiO2 
 PCOD8203809
Probable space group: P C C M
;
_chemical_formula_sum "Si O2"
_cell_formula_units_Z 48
_cell_length_a 8.561937
_cell_length_b 17.476797
_cell_length_c 14.852936
_cell_angle_alpha 90.000000
_cell_angle_beta 90.000000
_cell_angle_gamma 90.000000
_cell_volume 2222.522567
_symmetry_space_group_name_H-M "P C C M"
_symmetry_group_IT_number 49
_symmetry_cell_setting 'orthorhombic'
loop_
_space_group_symop_operation_xyz
x,y,z
-x,-y,z
x,-y,1/2-z
-x,y,1/2-z
-x,-y,-z
x,y,-z
-x,y,1/2+z
x,-y,1/2+z
loop_
_atom_site_type_symbol
_atom_site_label
_atom_site_fract_x
_atom_site_fract_y
_atom_site_fract_z
Si Si1 0.689258 0.857371 0.597316
Si Si2 0.815285 0.584768 0.750933
Si Si3 0.831610 0.295811 0.103631
Si Si4 0.620646 0.848824 0.835469
Si Si5 0.800092 0.297391 0.396167
Si Si6 0.180084 0.987613 0.393407
O O1 0.772482 0.857975 0.500000
O O2 0.753144 0.780931 0.646443
O O3 0.502131 0.855448 0.582918
O O4 0.737153 0.936070 0.645786
O O5 0.739242 0.500000 0.750000
O O6 0.767442 0.633159 0.662240
O O7 0.756566 0.625283 0.842601
O O8 0.000000 0.577395 0.750000
O O9 0.015793 0.283453 0.111179
O O10 0.780029 0.309949 0.000000
O O11 0.500000 0.851216 0.750000
O O12 0.714451 0.770588 0.844388
O O13 0.746654 0.917034 0.838350
O O14 0.746735 0.304758 0.500000
O O15 0.207786 0.974239 0.500000
O O16 0.000000 0.000000 0.370237
#
# Coordination Sequence:
#
# PCOD8203809 Si02
#       6
#     8   8   8   8   8   8
#     4  10  20  35  56  81 111 150 196 243 293 351
#     4   9  18  33  55  86 120 151 191 248 308 364
#     4   9  18  34  58  87 119 157 200 248 305 369
#     4  12  24  37  55  83 119 157 198 249 305 361
#     4  10  20  36  59  85 116 158 206 250 298 363
#     4  10  21  39  62  85 113 152 199 249 299 359
#
# _framework density 21.597080999999999
#
# number of rings (size 3 to 8) (size 9 to 14) (size 15 to 20)
#    0.000    2.000    0.000    4.000    0.000    6.000 
#    0.000    6.667    0.000    4.500    0.000    7.000 
#    0.000    0.000    0.000    0.000    0.000    0.000 
#
# Total GULP energy -594755.841752 kJ/mol
# GULP energy per Si atom -12390.746703 kJ/mol
# Density = 2.154792 g / cm^3
# Si number density = 21.597081 Si / 1000 Ang^3
#
#
#
# Elastic Constant Matrix: (Units=GPa)
#
#
# Indices 1 2 3 4 5 6 
#
# 1 82.2515 58.9374 29.3079 0.0000 0.0000 0.0000
# 2 58.9374 216.5469 66.6789 0.0000 0.0000 0.0000
# 3 29.3079 66.6789 124.6847 0.0000 0.0000 0.0000
# 4 0.0000 0.0000 0.0000 14.9558 0.0000 0.0000
# 5 0.0000 0.0000 0.0000 0.0000 26.4719 0.0000
# 6 0.0000 0.0000 0.0000 0.0000 0.0000 6.2611
#
#
#
# Elastic Compliance Matrix: (Units=1/GPa)
#
#
# Indices 1 2 3 4 5 6 
#
# 1 0.015381 -0.003679 -0.001648 0.000000 0.000000 0.000000
# 2 -0.003679 0.006408 -0.002562 0.000000 0.000000 0.000000
# 3 -0.001648 -0.002562 0.009778 0.000000 0.000000 0.000000
# 4 0.000000 0.000000 0.000000 0.066864 0.000000 0.000000
# 5 0.000000 0.000000 0.000000 0.000000 0.037776 0.000000
# 6 0.000000 0.000000 0.000000 0.000000 0.000000 0.159715
#
#
# Mechanical properties :
#
#
# Convention : Reuss Voigt Hill
#
# Bulk Modulus (GPa) = 63.33556 81.48127 72.40841
# Shear Modulus (GPa) = 15.77469 27.44169 21.60819
#
# Velocity S-wave (km/s) = 2.70554 3.56844 3.16652
# Velocity P-wave (km/s) = 6.25696 7.40191 6.85338
#
# Compressibility (1/GPa) = 0.01578892
#
# Stress axis : x y z
#
# Youngs Moduli (GPa) = 65.01481 156.05131 102.27194
#
# Poissons Ratio (x) = 0.57408 0.16855
# Poissons Ratio (y) = 0.23918 0.26204
# Poissons Ratio (z) = 0.10715 0.39984
#
# Static dielectric constant tensor:
#      x y z
#    x 3.938940 0.000000 0.000000 
#    y 0.000000 4.168750 0.000000 
#    z 0.000000 0.000000 4.143920 
# 
# 
# High freq. dielectric constant tensor:
#      x y z
#    x 1.831470 0.000000 0.000000 
#    y 0.000000 1.848480 0.000000 
#    z 0.000000 0.000000 1.857880 
# 
# From -- ./inp_files/11798.got.cif
#   From: 2010.03.12/outbox.cif.g09.slc.cpg/sg49_6_cif.got.tgz:11798.got - 2010.04.14 03:58:27.
