data_PCOD8203347
_publ_section_title
;
Structure prediction by ZEFSAII (Michael W. Deem and Ramdas Pophale) SiO2 
 PCOD8203347
Probable space group: P C C M
;
_chemical_formula_sum "Si O2"
_cell_formula_units_Z 64
_cell_length_a 19.837090
_cell_length_b 19.954182
_cell_length_c 8.866715
_cell_angle_alpha 90.000000
_cell_angle_beta 90.000000
_cell_angle_gamma 90.000000
_cell_volume 3509.737549
_symmetry_space_group_name_H-M "P C C M"
_symmetry_group_IT_number 49
_symmetry_cell_setting 'orthorhombic'
loop_
_space_group_symop_operation_xyz
x,y,z
-x,-y,z
x,-y,1/2-z
-x,y,1/2-z
-x,-y,-z
x,y,-z
-x,y,1/2+z
x,-y,1/2+z
loop_
_atom_site_type_symbol
_atom_site_label
_atom_site_fract_x
_atom_site_fract_y
_atom_site_fract_z
Si Si1 0.286542 0.432726 0.179192
Si Si2 0.565953 0.601901 0.830382
Si Si3 0.749056 0.290206 0.678369
Si Si4 0.432737 0.117335 0.322360
Si Si5 0.604143 0.249102 0.672472
Si Si6 0.072176 0.930657 0.179029
Si Si7 0.176669 0.836901 0.326542
Si Si8 0.701209 0.934496 0.826393
O O1 0.254607 0.500000 0.250000
O O2 0.363511 0.424512 0.239782
O O3 0.242549 0.367637 0.233461
O O4 0.285196 0.437984 0.000000
O O5 0.500000 0.571516 0.750000
O O6 0.562989 0.682171 0.820893
O O7 0.562247 0.576483 0.000000
O O8 0.741159 0.291554 0.500000
O O9 0.679020 0.260495 0.739794
O O10 0.811161 0.241009 0.723528
O O11 0.500000 0.085054 0.250000
O O12 0.434782 0.108225 0.500000
O O13 0.431670 0.195761 0.279643
O O14 0.368323 0.080018 0.256559
O O15 0.606727 0.221386 0.500000
O O16 0.121089 0.869212 0.218475
O O17 0.000000 0.914099 0.250000
O O18 0.100395 0.000000 0.250000
O O19 0.066222 0.938685 0.000000
O O20 0.152059 0.841808 0.500000
O O21 0.247962 0.873198 0.305803
O O22 0.734438 0.000000 0.750000
O O23 0.686528 0.949234 0.000000
#
# Coordination Sequence:
#
# PCOD8203347 Si02
#       8
#     8   8   8   8   8   8   8   8
#     4   9  18  32  48  67  94 130 167 208 259 316
#     4   9  18  29  44  63  88 119 158 203 255 319
#     4   8  15  31  54  75  99 133 169 208 259 314
#     4  12  24  36  51  70  93 123 163 212 268 324
#     4   9  16  32  51  69  91 120 158 205 262 317
#     4  11  22  37  57  84 120 157 192 223 256 303
#     4  10  19  35  60  84 108 141 178 218 262 308
#     4  11  23  39  57  76 100 130 167 211 263 316
#
# _framework density 18.234983
#
# number of rings (size 3 to 8) (size 9 to 14) (size 15 to 20)
#    0.000    2.125    1.250    5.250    0.000    4.500 
#    0.000    5.000    0.000    0.000    0.000    0.000 
#    0.000    0.500    0.000    5.750    0.000    1.750 
#
# Total GULP energy -793334.507468 kJ/mol
# GULP energy per Si atom -12395.851679 kJ/mol
# Density = 1.819348 g / cm^3
# Si number density = 18.234983 Si / 1000 Ang^3
#
#
#
# Elastic Constant Matrix: (Units=GPa)
#
#
# Indices 1 2 3 4 5 6 
#
# 1 65.3218 36.7657 34.6188 0.0000 0.0000 0.0000
# 2 36.7657 113.9299 39.1010 0.0000 0.0000 0.0000
# 3 34.6188 39.1010 96.9618 0.0000 0.0000 0.0000
# 4 0.0000 0.0000 0.0000 26.5803 0.0000 0.0000
# 5 0.0000 0.0000 0.0000 0.0000 22.4256 0.0000
# 6 0.0000 0.0000 0.0000 0.0000 0.0000 17.4594
#
#
#
# Elastic Compliance Matrix: (Units=1/GPa)
#
#
# Indices 1 2 3 4 5 6 
#
# 1 0.020980 -0.004874 -0.005525 0.000000 0.000000 0.000000
# 2 -0.004874 0.011320 -0.002825 0.000000 0.000000 0.000000
# 3 -0.005525 -0.002825 0.013425 0.000000 0.000000 0.000000
# 4 0.000000 0.000000 0.000000 0.037622 0.000000 0.000000
# 5 0.000000 0.000000 0.000000 0.000000 0.044592 0.000000
# 6 0.000000 0.000000 0.000000 0.000000 0.000000 0.057276
#
#
# Mechanical properties :
#
#
# Convention : Reuss Voigt Hill
#
# Bulk Modulus (GPa) = 51.87448 55.24273 53.55860
# Shear Modulus (GPa) = 22.92649 24.34158 23.63403
#
# Velocity S-wave (km/s) = 3.54966 3.65757 3.60402
# Velocity P-wave (km/s) = 6.73125 6.94246 6.83767
#
# Compressibility (1/GPa) = 0.01927730
#
# Stress axis : x y z
#
# Youngs Moduli (GPa) = 47.66346 88.34202 74.48772
#
# Poissons Ratio (x) = 0.43060 0.41156
# Poissons Ratio (y) = 0.23232 0.21039
# Poissons Ratio (z) = 0.26335 0.24952
#
# Static dielectric constant tensor:
#      x y z
#    x 3.086810 0.000000 0.000000 
#    y 0.000000 3.608100 0.000000 
#    z 0.000000 0.000000 3.235890 
# 
# 
# High freq. dielectric constant tensor:
#      x y z
#    x 1.666980 0.000000 0.000000 
#    y 0.000000 1.710140 0.000000 
#    z 0.000000 0.000000 1.693180 
# 
# From -- ./inp_files/6052.got.cif
#   From: 2010.03.12/outbox.cif.g09.slc.cpg/sg49_4_cif.got.tgz:6052.got - 2010.04.14 03:58:27.
