data_PCOD8203125
_publ_section_title
;
Structure prediction by ZEFSAII (Michael W. Deem and Ramdas Pophale) SiO2 
 PCOD8203125
Probable space group: P C C M
;
_chemical_formula_sum "Si O2"
_cell_formula_units_Z 64
_cell_length_a 14.333786
_cell_length_b 31.661106
_cell_length_c 8.929491
_cell_angle_alpha 90.000000
_cell_angle_beta 90.000000
_cell_angle_gamma 90.000000
_cell_volume 4052.413019
_symmetry_space_group_name_H-M "P C C M"
_symmetry_group_IT_number 49
_symmetry_cell_setting 'orthorhombic'
loop_
_space_group_symop_operation_xyz
x,y,z
-x,-y,z
x,-y,1/2-z
-x,y,1/2-z
-x,-y,-z
x,y,-z
-x,y,1/2+z
x,-y,1/2+z
loop_
_atom_site_type_symbol
_atom_site_label
_atom_site_fract_x
_atom_site_fract_y
_atom_site_fract_z
Si Si1 0.600247 0.221625 0.175796
Si Si2 0.708854 0.543984 0.178449
Si Si3 0.906174 0.325210 0.676441
Si Si4 0.601799 0.040177 0.823621
Si Si5 0.276841 0.701209 0.824690
Si Si6 0.598272 0.869622 0.326617
Si Si7 0.400910 0.379851 0.323101
Si Si8 0.092959 0.578092 0.324824
O O1 0.500000 0.226974 0.250000
O O2 0.668486 0.257822 0.236145
O O3 0.647335 0.175329 0.213610
O O4 0.585200 0.227620 0.000000
O O5 0.677073 0.500000 0.250000
O O6 0.641714 0.579043 0.246316
O O7 0.815946 0.552434 0.226561
O O8 0.697340 0.543371 0.000000
O O9 0.913215 0.320576 0.500000
O O10 0.819741 0.298513 0.736217
O O11 0.892665 0.373717 0.727471
O O12 0.000000 0.306743 0.750000
O O13 0.500000 0.041673 0.750000
O O14 0.651667 0.085953 0.786797
O O15 0.656647 0.000000 0.750000
O O16 0.594296 0.032467 0.000000
O O17 0.335391 0.659631 0.785762
O O18 0.255410 0.704195 0.000000
O O19 0.500000 0.869328 0.250000
O O20 0.575609 0.870542 0.500000
O O21 0.500000 0.369951 0.250000
O O22 0.411520 0.387258 0.500000
O O23 0.077837 0.575199 0.500000
O O24 0.000000 0.558528 0.250000
#
# Coordination Sequence:
#
# PCOD8203125 Si02
#       8
#     8   8   8   8   8   8   8   8
#     4   9  17  29  43  62  88 118 152 189 227 267
#     4  11  23  40  57  77 100 124 153 183 219 261
#     4  10  19  33  53  76  99 123 148 178 216 259
#     4   9  14  19  28  43  63  92 132 178 224 265
#     4  10  20  33  51  74  97 121 150 183 222 264
#     4   8  14  23  34  48  71 103 139 180 224 265
#     4  11  23  38  56  76  97 123 152 187 223 260
#     4   9  19  34  54  77 101 125 147 175 211 254
#
# _framework density 15.793059
#
# number of rings (size 3 to 8) (size 9 to 14) (size 15 to 20)
#    0.000    2.375    1.250    2.250    0.000    3.500 
#    0.000    2.500    0.000    0.000    0.000    0.000 
#    0.000    0.000    0.000    0.000    0.000    0.625 
#
# Total GULP energy -793055.554600 kJ/mol
# GULP energy per Si atom -12391.493041 kJ/mol
# Density = 1.575711 g / cm^3
# Si number density = 15.793059 Si / 1000 Ang^3
#
#
#
# Elastic Constant Matrix: (Units=GPa)
#
#
# Indices 1 2 3 4 5 6 
#
# 1 78.1276 43.2308 34.7409 0.0000 0.0000 0.0000
# 2 43.2308 136.0009 39.8861 0.0000 0.0000 0.0000
# 3 34.7409 39.8861 55.6484 0.0000 0.0000 0.0000
# 4 0.0000 0.0000 0.0000 21.5759 0.0000 0.0000
# 5 0.0000 0.0000 0.0000 0.0000 24.8511 0.0000
# 6 0.0000 0.0000 0.0000 0.0000 0.0000 4.2032
#
#
#
# Elastic Compliance Matrix: (Units=1/GPa)
#
#
# Indices 1 2 3 4 5 6 
#
# 1 0.018758 -0.003201 -0.009416 0.000000 0.000000 0.000000
# 2 -0.003201 0.009856 -0.005066 0.000000 0.000000 0.000000
# 3 -0.009416 -0.005066 0.027479 0.000000 0.000000 0.000000
# 4 0.000000 0.000000 0.000000 0.046348 0.000000 0.000000
# 5 0.000000 0.000000 0.000000 0.000000 0.040240 0.000000
# 6 0.000000 0.000000 0.000000 0.000000 0.000000 0.237917
#
#
# Mechanical properties :
#
#
# Convention : Reuss Voigt Hill
#
# Bulk Modulus (GPa) = 48.24577 56.16581 52.20579
# Shear Modulus (GPa) = 11.82388 20.25396 16.03892
#
# Velocity S-wave (km/s) = 2.73916 3.58503 3.19025
# Velocity P-wave (km/s) = 6.37331 7.26481 6.83361
#
# Compressibility (1/GPa) = 0.02072721
#
# Stress axis : x y z
#
# Youngs Moduli (GPa) = 53.31103 101.45920 36.39087
#
# Poissons Ratio (x) = 0.32478 0.34266
# Poissons Ratio (y) = 0.17065 0.18436
# Poissons Ratio (z) = 0.50198 0.51400
#
# Static dielectric constant tensor:
#      x y z
#    x 2.768930 0.000000 0.000000 
#    y 0.000000 3.708870 0.000000 
#    z 0.000000 0.000000 2.921890 
# 
# 
# High freq. dielectric constant tensor:
#      x y z
#    x 1.561820 0.000000 0.000000 
#    y 0.000000 1.612080 0.000000 
#    z 0.000000 0.000000 1.616600 
# 
# From -- ./inp_files/4537.got.cif
#   From: 2010.03.12/outbox.cif.g09.slc.cpg/sg49_3_cif.got.tgz:4537.got - 2010.04.14 03:58:27.
