data_PCOD8203834
_publ_section_title
;
Structure prediction by ZEFSAII (Michael W. Deem and Ramdas Pophale) SiO2 
 PCOD8203834
Probable space group: P C C M
;
_chemical_formula_sum "Si O2"
_cell_formula_units_Z 64
_cell_length_a 18.324814
_cell_length_b 20.469226
_cell_length_c 8.848302
_cell_angle_alpha 90.000000
_cell_angle_beta 90.000000
_cell_angle_gamma 90.000000
_cell_volume 3318.951708
_symmetry_space_group_name_H-M "P C C M"
_symmetry_group_IT_number 49
_symmetry_cell_setting 'orthorhombic'
loop_
_space_group_symop_operation_xyz
x,y,z
-x,-y,z
x,-y,1/2-z
-x,y,1/2-z
-x,-y,-z
x,y,-z
-x,y,1/2+z
x,-y,1/2+z
loop_
_atom_site_type_symbol
_atom_site_label
_atom_site_fract_x
_atom_site_fract_y
_atom_site_fract_z
Si Si1 0.675926 0.811011 0.824634
Si Si2 0.076759 0.932445 0.822393
Si Si3 0.838743 0.566720 0.178322
Si Si4 0.327430 0.433176 0.178598
Si Si5 0.421170 0.311300 0.821998
Si Si6 0.078239 0.305377 0.821436
Si Si7 0.170060 0.807221 0.824182
Si Si8 0.424429 0.932673 0.323840
O O1 0.622095 0.753368 0.773922
O O2 0.745713 0.808522 0.718674
O O3 0.636990 0.879384 0.793360
O O4 0.698570 0.803086 0.000000
O O5 0.135872 0.877398 0.784870
O O6 0.000000 0.911133 0.750000
O O7 0.105076 0.000000 0.750000
O O8 0.065569 0.942324 0.000000
O O9 0.869402 0.500000 0.250000
O O10 0.755693 0.579624 0.231651
O O11 0.888267 0.626264 0.236909
O O12 0.842974 0.559991 0.000000
O O13 0.357784 0.500000 0.250000
O O14 0.376695 0.373888 0.239022
O O15 0.331913 0.439184 0.000000
O O16 0.500000 0.309898 0.750000
O O17 0.430651 0.314860 0.000000
O O18 0.131187 0.247490 0.774257
O O19 0.000000 0.293770 0.750000
O O20 0.070497 0.305157 0.000000
O O21 0.160582 0.790413 0.000000
O O22 0.500000 0.908998 0.250000
O O23 0.438346 0.943651 0.500000
O O24 0.397057 0.000000 0.250000
#
# Coordination Sequence:
#
# PCOD8203834 Si02
#       8
#     8   8   8   8   8   8   8   8
#     4  10  22  39  58  80 109 146 184 227 279 330
#     4  10  21  37  58  84 112 144 182 223 270 324
#     4   9  19  36  58  82 110 146 185 228 276 328
#     4   9  18  34  55  78 106 140 178 220 268 322
#     4  10  21  37  56  79 108 142 182 226 273 324
#     4  11  23  39  59  83 114 150 188 231 279 331
#     4  11  24  39  58  85 113 145 187 232 278 331
#     4  10  20  35  57  83 112 147 185 227 277 332
#
# _framework density 19.283197000000001
#
# number of rings (size 3 to 8) (size 9 to 14) (size 15 to 20)
#    0.000    2.000    0.000    3.750    0.000    9.000 
#    0.000    7.500    0.000    0.000    0.000    0.000 
#    0.000    0.000    0.000    0.000    0.000    0.000 
#
# Total GULP energy -793853.677421 kJ/mol
# GULP energy per Si atom -12403.963710 kJ/mol
# Density = 1.923931 g / cm^3
# Si number density = 19.283197 Si / 1000 Ang^3
#
#
#
# Elastic Constant Matrix: (Units=GPa)
#
#
# Indices 1 2 3 4 5 6 
#
# 1 100.6620 56.9785 35.0912 0.0000 0.0000 0.0000
# 2 56.9785 124.9343 44.8864 0.0000 0.0000 0.0000
# 3 35.0912 44.8864 63.0755 0.0000 0.0000 0.0000
# 4 0.0000 0.0000 0.0000 30.5898 0.0000 0.0000
# 5 0.0000 0.0000 0.0000 0.0000 29.8263 0.0000
# 6 0.0000 0.0000 0.0000 0.0000 0.0000 42.9964
#
#
#
# Elastic Compliance Matrix: (Units=1/GPa)
#
#
# Indices 1 2 3 4 5 6 
#
# 1 0.014261 -0.004908 -0.004441 0.000000 0.000000 0.000000
# 2 -0.004908 0.012443 -0.006124 0.000000 0.000000 0.000000
# 3 -0.004441 -0.006124 0.022683 0.000000 0.000000 0.000000
# 4 0.000000 0.000000 0.000000 0.032691 0.000000 0.000000
# 5 0.000000 0.000000 0.000000 0.000000 0.033527 0.000000
# 6 0.000000 0.000000 0.000000 0.000000 0.000000 0.023258
#
#
# Mechanical properties :
#
#
# Convention : Reuss Voigt Hill
#
# Bulk Modulus (GPa) = 54.23044 62.50934 58.36989
# Shear Modulus (GPa) = 28.41630 30.79687 29.60658
#
# Velocity S-wave (km/s) = 3.84295 4.00069 3.92261
# Velocity P-wave (km/s) = 6.91920 7.33672 7.13102
#
# Compressibility (1/GPa) = 0.01843983
#
# Stress axis : x y z
#
# Youngs Moduli (GPa) = 70.12324 80.36638 44.08641
#
# Poissons Ratio (x) = 0.39446 0.19578
# Poissons Ratio (y) = 0.34419 0.26999
# Poissons Ratio (z) = 0.31140 0.49218
#
# Static dielectric constant tensor:
#      x y z
#    x 3.501060 0.000000 0.000000 
#    y 0.000000 3.844310 0.000000 
#    z 0.000000 0.000000 3.508910 
# 
# 
# High freq. dielectric constant tensor:
#      x y z
#    x 1.749940 0.000000 0.000000 
#    y 0.000000 1.767060 0.000000 
#    z 0.000000 0.000000 1.750220 
# 
# From -- ./inp_files/5302.got.cif
#   From: 2010.03.12/outbox.cif.g09.slc.cpg/sg49_3_cif.got.tgz:5302.got - 2010.04.14 03:58:27.
