data_PCOD8203802
_publ_section_title
;
Structure prediction by ZEFSAII (Michael W. Deem and Ramdas Pophale) SiO2 
 PCOD8203802
Probable space group: P C C M
;
_chemical_formula_sum "Si O2"
_cell_formula_units_Z 58
_cell_length_a 19.262945
_cell_length_b 19.188585
_cell_length_c 8.392005
_cell_angle_alpha 90.000000
_cell_angle_beta 90.000000
_cell_angle_gamma 90.000000
_cell_volume 3101.925542
_symmetry_space_group_name_H-M "P C C M"
_symmetry_group_IT_number 49
_symmetry_cell_setting 'orthorhombic'
loop_
_space_group_symop_operation_xyz
x,y,z
-x,-y,z
x,-y,1/2-z
-x,y,1/2-z
-x,-y,-z
x,y,-z
-x,y,1/2+z
x,-y,1/2+z
loop_
_atom_site_type_symbol
_atom_site_label
_atom_site_fract_x
_atom_site_fract_y
_atom_site_fract_z
Si Si1 0.320236 0.576605 0.814833
Si Si2 0.252385 0.072949 0.685405
Si Si3 0.896658 0.893254 0.811508
Si Si4 0.422943 0.684609 0.687210
Si Si5 0.073937 0.734287 0.313523
Si Si6 0.685145 0.203202 0.684870
Si Si7 0.000000 0.000000 0.750000
Si Si8 0.787866 0.308241 0.184514
O O1 0.309364 0.500000 0.750000
O O2 0.387947 0.612233 0.738688
O O3 0.250575 0.619575 0.773005
O O4 0.334574 0.573181 0.000000
O O5 0.234882 0.068864 0.500000
O O6 0.183814 0.092202 0.784265
O O7 0.311286 0.130953 0.718468
O O8 0.282008 0.000000 0.750000
O O9 0.913815 0.814406 0.765496
O O10 0.942853 0.942582 0.690271
O O11 0.914789 0.909660 0.000000
O O12 0.500000 0.690004 0.750000
O O13 0.423591 0.687625 0.500000
O O14 0.378493 0.750334 0.753107
O O15 0.078949 0.722484 0.500000
O O16 0.131286 0.685693 0.228568
O O17 0.000000 0.708761 0.250000
O O18 0.675979 0.185887 0.500000
O O19 0.756237 0.245912 0.710277
O O20 0.777696 0.289219 0.000000
#
# Coordination Sequence:
#
# PCOD8203802 Si02
#       8
#     8   8   8   8   8   8   2   8
#     4  10  21  37  59  88 121 154 189 226 268 327
#     4  12  24  36  54  76 104 140 183 234 285 335
#     4  11  23  35  49  71 100 137 182 227 278 337
#     4  10  21  37  60  89 122 156 188 225 268 323
#     4  11  22  35  52  75 105 140 185 236 284 335
#     4  10  20  36  57  81 110 145 187 231 278 329
#     4  12  22  36  52  66 106 148 186 224 286 348
#     4  10  20  35  56  81 109 144 187 231 279 332
#
# _framework density 18.698062
#
# number of rings (size 3 to 8) (size 9 to 14) (size 15 to 20)
#    0.000    1.379    2.759    3.517    0.000    4.690 
#    0.000    1.379    0.000    0.828    0.000    5.793 
#    0.000    0.000    0.000    0.000    0.000    0.000 
#
# Total GULP energy -718769.360432 kJ/mol
# GULP energy per Si atom -12392.575180 kJ/mol
# Density = 1.865550 g / cm^3
# Si number density = 18.698062 Si / 1000 Ang^3
#
#
#
# Elastic Constant Matrix: (Units=GPa)
#
#
# Indices 1 2 3 4 5 6 
#
# 1 126.5952 62.9974 28.0632 0.0000 0.0000 0.0000
# 2 62.9974 114.3341 32.2957 0.0000 0.0000 0.0000
# 3 28.0632 32.2957 64.5279 0.0000 0.0000 0.0000
# 4 0.0000 0.0000 0.0000 24.4030 0.0000 0.0000
# 5 0.0000 0.0000 0.0000 0.0000 23.4679 0.0000
# 6 0.0000 0.0000 0.0000 0.0000 0.0000 22.9895
#
#
#
# Elastic Compliance Matrix: (Units=1/GPa)
#
#
# Indices 1 2 3 4 5 6 
#
# 1 0.011113 -0.005542 -0.002060 0.000000 0.000000 0.000000
# 2 -0.005542 0.012950 -0.004071 0.000000 0.000000 0.000000
# 3 -0.002060 -0.004071 0.018430 0.000000 0.000000 0.000000
# 4 0.000000 0.000000 0.000000 0.040979 0.000000 0.000000
# 5 0.000000 0.000000 0.000000 0.000000 0.042611 0.000000
# 6 0.000000 0.000000 0.000000 0.000000 0.000000 0.043498
#
#
# Mechanical properties :
#
#
# Convention : Reuss Voigt Hill
#
# Bulk Modulus (GPa) = 52.22296 61.35219 56.78757
# Shear Modulus (GPa) = 25.08658 26.31213 25.69935
#
# Velocity S-wave (km/s) = 3.66685 3.75535 3.71137
# Velocity P-wave (km/s) = 6.77628 7.18936 6.98587
#
# Compressibility (1/GPa) = 0.01914867
#
# Stress axis : x y z
#
# Youngs Moduli (GPa) = 89.98099 77.22196 54.25789
#
# Poissons Ratio (x) = 0.42794 0.11175
# Poissons Ratio (y) = 0.49864 0.22089
# Poissons Ratio (z) = 0.18533 0.31438
#
# Static dielectric constant tensor:
#      x y z
#    x 3.442620 0.000000 0.000000 
#    y 0.000000 3.479220 0.000000 
#    z 0.000000 0.000000 3.433560 
# 
# 
# High freq. dielectric constant tensor:
#      x y z
#    x 1.716320 0.000000 0.000000 
#    y 0.000000 1.716270 0.000000 
#    z 0.000000 0.000000 1.729140 
# 
# From -- ./inp_files/5073.got.cif
#   From: 2010.03.12/outbox.cif.g09.slc.cpg/sg49_3_cif.got.tgz:5073.got - 2010.04.14 03:58:27.
