data_PCOD8203841
_publ_section_title
;
Structure prediction by ZEFSAII (Michael W. Deem and Ramdas Pophale) SiO2 
 PCOD8203841
Probable space group: P C C M
;
_chemical_formula_sum "Si O2"
_cell_formula_units_Z 40
_cell_length_a 7.683147
_cell_length_b 8.592531
_cell_length_c 26.504697
_cell_angle_alpha 90.000000
_cell_angle_beta 90.000000
_cell_angle_gamma 90.000000
_cell_volume 1749.778573
_symmetry_space_group_name_H-M "P C C M"
_symmetry_group_IT_number 49
_symmetry_cell_setting 'orthorhombic'
loop_
_space_group_symop_operation_xyz
x,y,z
-x,-y,z
x,-y,1/2-z
-x,y,1/2-z
-x,-y,-z
x,y,-z
-x,y,1/2+z
x,-y,1/2+z
loop_
_atom_site_type_symbol
_atom_site_label
_atom_site_fract_x
_atom_site_fract_y
_atom_site_fract_z
Si Si1 0.606666 0.818479 0.557106
Si Si2 0.965251 0.819398 0.192315
Si Si3 0.313831 0.308690 0.872427
Si Si4 0.847064 0.386748 0.887050
Si Si5 0.154083 0.096944 0.943494
O O1 0.535238 0.779175 0.500000
O O2 0.490485 0.763956 0.604907
O O3 0.784888 0.720922 0.566102
O O4 0.659676 0.002766 0.559361
O O5 0.762225 0.772966 0.178654
O O6 0.000000 0.777701 0.250000
O O7 0.102129 0.715758 0.161258
O O8 0.000000 0.000000 0.181376
O O9 0.312675 0.496233 0.869620
O O10 0.165355 0.257057 0.913454
O O11 0.000000 0.500000 0.904929
O O12 0.101539 0.136290 0.000000
O O13 0.000000 0.000000 0.917298
#
# Coordination Sequence:
#
# PCOD8203841 Si02
#       5
#     8   8   8   8   8
#     4  11  23  38  58  89 131 173 213 261 315 372
#     4  10  22  43  69  91 115 157 208 261 322 388
#     4  11  21  35  58  89 124 161 202 257 318 374
#     4  10  22  38  60  88 121 162 210 261 316 379
#     4  10  20  35  57  85 121 168 214 254 302 367
#
# _framework density 22.860036000000001
#
# number of rings (size 3 to 8) (size 9 to 14) (size 15 to 20)
#    0.000    1.600    0.000    6.000    0.000    8.000 
#    0.000    4.000    0.000    7.200    0.000    0.000 
#    0.000    0.000    0.000    0.000    0.000    0.000 
#
# Total GULP energy -495526.415616 kJ/mol
# GULP energy per Si atom -12388.160390 kJ/mol
# Density = 2.280801 g / cm^3
# Si number density = 22.860036 Si / 1000 Ang^3
#
#
#
# Elastic Constant Matrix: (Units=GPa)
#
#
# Indices 1 2 3 4 5 6 
#
# 1 54.1503 3.5042 42.3895 0.0000 0.0000 0.0000
# 2 3.5042 127.9502 48.2776 0.0000 0.0000 0.0000
# 3 42.3895 48.2776 136.5664 0.0000 0.0000 0.0000
# 4 0.0000 0.0000 0.0000 -43.2538 0.0000 0.0000
# 5 0.0000 0.0000 0.0000 0.0000 36.7641 0.0000
# 6 0.0000 0.0000 0.0000 0.0000 0.0000 28.5664
#
#
#
# Elastic Compliance Matrix: (Units=1/GPa)
#
#
# Indices 1 2 3 4 5 6 
#
# 1 0.025123 0.002601 -0.008718 0.000000 0.000000 0.000000
# 2 0.002601 0.009288 -0.004091 0.000000 0.000000 0.000000
# 3 -0.008718 -0.004091 0.011474 0.000000 0.000000 0.000000
# 4 0.000000 0.000000 0.000000 -0.023119 0.000000 0.000000
# 5 0.000000 0.000000 0.000000 0.000000 0.027200 0.000000
# 6 0.000000 0.000000 0.000000 0.000000 0.000000 0.035006
#
#
# Mechanical properties :
#
#
# Convention : Reuss Voigt Hill
#
# Bulk Modulus (GPa) = 39.26023 56.33439 47.79731
# Shear Modulus (GPa) = 43.90695 19.38172 31.64433
#
# Velocity S-wave (km/s) = 4.38732 2.91493 3.72461
# Velocity P-wave (km/s) = 6.54799 6.00215 6.28100
#
# Compressibility (1/GPa) = 0.02547107
#
# Stress axis : x y z
#
# Youngs Moduli (GPa) = 39.80406 107.66817 87.14996
#
# Poissons Ratio (x) = -0.28007 0.75974
# Poissons Ratio (y) = -0.10354 0.35651
# Poissons Ratio (z) = 0.34700 0.44044
#
# Static dielectric constant tensor:
#      x y z
#    x 4.382930 0.000000 0.000000 
#    y 0.000000 4.568560 0.000000 
#    z 0.000000 0.000000 3.853630 
# 
# 
# High freq. dielectric constant tensor:
#      x y z
#    x 1.915790 0.000000 0.000000 
#    y 0.000000 1.926030 0.000000 
#    z 0.000000 0.000000 1.869020 
# 
# From -- ./inp_files/24355.got.cif
#   From: 2010.03.12/outbox.cif.g09.slc.cpg/sg49_13_cif.got.tgz:24355.got - 2010.04.14 03:58:27.
