data_PCOD8203191
_publ_section_title
;
Structure prediction by ZEFSAII (Michael W. Deem and Ramdas Pophale) SiO2 
 PCOD8203191
Probable space group: P C C M
;
_chemical_formula_sum "Si O2"
_cell_formula_units_Z 58
_cell_length_a 9.330435
_cell_length_b 12.728593
_cell_length_c 26.145532
_cell_angle_alpha 90.000000
_cell_angle_beta 90.000000
_cell_angle_gamma 90.000000
_cell_volume 3105.129912
_symmetry_space_group_name_H-M "P C C M"
_symmetry_group_IT_number 49
_symmetry_cell_setting 'orthorhombic'
loop_
_space_group_symop_operation_xyz
x,y,z
-x,-y,z
x,-y,1/2-z
-x,y,1/2-z
-x,-y,-z
x,y,-z
-x,y,1/2+z
x,-y,1/2+z
loop_
_atom_site_type_symbol
_atom_site_label
_atom_site_fract_x
_atom_site_fract_y
_atom_site_fract_z
Si Si1 0.118716 0.742749 0.293690
Si Si2 0.625396 0.647483 0.358976
Si Si3 0.059577 0.111994 0.363005
Si Si4 0.182280 0.255455 0.558065
Si Si5 0.289289 0.159141 0.711371
Si Si6 0.700031 0.409523 0.356092
Si Si7 0.500000 0.000000 0.750000
Si Si8 0.084185 0.401885 0.057632
O O1 0.241420 0.815759 0.269175
O O2 0.197357 0.636443 0.311836
O O3 0.000000 0.715574 0.250000
O O4 0.056902 0.801408 0.344104
O O5 0.693849 0.676294 0.414182
O O6 0.675406 0.731761 0.317084
O O7 0.683581 0.532724 0.343668
O O8 0.453563 0.647503 0.359980
O O9 0.155860 0.148216 0.411134
O O10 0.161513 0.095402 0.314747
O O11 0.000000 0.000000 0.379497
O O12 0.233590 0.234154 0.500000
O O13 0.025184 0.306046 0.558676
O O14 0.416526 0.076452 0.711773
O O15 0.772204 0.383887 0.410466
O O16 0.000000 0.500000 0.081994
O O17 0.134437 0.427871 0.000000
#
# Coordination Sequence:
#
# PCOD8203191 Si02
#       8
#     8   8   8   8   8   8   2   8
#     4  10  21  37  58  83 114 147 192 238 282 335
#     4  10  23  37  54  84 120 147 187 232 278 339
#     4  10  20  36  57  85 109 139 189 247 285 326
#     4  10  20  37  57  82 115 147 185 236 283 338
#     4  10  22  37  54  82 109 146 190 233 282 331
#     4  11  21  37  57  82 117 155 184 226 283 342
#     4  12  20  36  62  74 102 156 192 226 284 346
#     4  10  19  33  57  84 109 144 194 233 270 335
#
# _framework density 18.678767000000001
#
# number of rings (size 3 to 8) (size 9 to 14) (size 15 to 20)
#    0.000    1.793    2.759    1.655    0.000    3.310 
#    0.000    6.207    0.000    0.000    0.000    2.897 
#    0.000    0.000    0.000    0.000    0.000    0.000 
#
# Total GULP energy -718944.982423 kJ/mol
# GULP energy per Si atom -12395.603145 kJ/mol
# Density = 1.863625 g / cm^3
# Si number density = 18.678767 Si / 1000 Ang^3
#
#
#
# Elastic Constant Matrix: (Units=GPa)
#
#
# Indices 1 2 3 4 5 6 
#
# 1 99.3622 41.6925 33.7916 0.0000 0.0000 0.0000
# 2 41.6925 94.4515 36.3059 0.0000 0.0000 0.0000
# 3 33.7916 36.3059 91.0692 0.0000 0.0000 0.0000
# 4 0.0000 0.0000 0.0000 16.5300 0.0000 0.0000
# 5 0.0000 0.0000 0.0000 0.0000 17.9848 0.0000
# 6 0.0000 0.0000 0.0000 0.0000 0.0000 31.7666
#
#
#
# Elastic Compliance Matrix: (Units=1/GPa)
#
#
# Indices 1 2 3 4 5 6 
#
# 1 0.013010 -0.004591 -0.002997 0.000000 0.000000 0.000000
# 2 -0.004591 0.014123 -0.003927 0.000000 0.000000 0.000000
# 3 -0.002997 -0.003927 0.013658 0.000000 0.000000 0.000000
# 4 0.000000 0.000000 0.000000 0.060496 0.000000 0.000000
# 5 0.000000 0.000000 0.000000 0.000000 0.055603 0.000000
# 6 0.000000 0.000000 0.000000 0.000000 0.000000 0.031480
#
#
# Mechanical properties :
#
#
# Convention : Reuss Voigt Hill
#
# Bulk Modulus (GPa) = 56.30118 56.49587 56.39853
# Shear Modulus (GPa) = 23.00752 24.79578 23.90165
#
# Velocity S-wave (km/s) = 3.51343 3.64742 3.58105
# Velocity P-wave (km/s) = 6.83127 6.93181 6.88172
#
# Compressibility (1/GPa) = 0.01776162
#
# Stress axis : x y z
#
# Youngs Moduli (GPa) = 76.86559 70.80472 73.21524
#
# Poissons Ratio (x) = 0.32504 0.21944
# Poissons Ratio (y) = 0.35286 0.28752
# Poissons Ratio (z) = 0.23038 0.27806
#
# Static dielectric constant tensor:
#      x y z
#    x 3.570830 0.000000 0.000000 
#    y 0.000000 3.318940 0.000000 
#    z 0.000000 0.000000 3.432710 
# 
# 
# High freq. dielectric constant tensor:
#      x y z
#    x 1.728230 0.000000 0.000000 
#    y 0.000000 1.719210 0.000000 
#    z 0.000000 0.000000 1.719330 
# 
# From -- ./inp_files/24576.got.cif
#   From: 2010.03.12/outbox.cif.g09.slc.cpg/sg49_13_cif.got.tgz:24576.got - 2010.04.14 03:58:27.
