data_PCOD8203160
_publ_section_title
;
Structure prediction by ZEFSAII (Michael W. Deem and Ramdas Pophale) SiO2 
 PCOD8203160
Probable space group: P C C M
;
_chemical_formula_sum "Si O2"
_cell_formula_units_Z 56
_cell_length_a 15.383469
_cell_length_b 20.050938
_cell_length_c 8.744459
_cell_angle_alpha 90.000000
_cell_angle_beta 90.000000
_cell_angle_gamma 90.000000
_cell_volume 2697.254465
_symmetry_space_group_name_H-M "P C C M"
_symmetry_group_IT_number 49
_symmetry_cell_setting 'orthorhombic'
loop_
_space_group_symop_operation_xyz
x,y,z
-x,-y,z
x,-y,1/2-z
-x,y,1/2-z
-x,-y,-z
x,y,-z
-x,y,1/2+z
x,-y,1/2+z
loop_
_atom_site_type_symbol
_atom_site_label
_atom_site_fract_x
_atom_site_fract_y
_atom_site_fract_z
Si Si1 0.410871 0.323905 0.819349
Si Si2 0.267438 0.934181 0.821925
Si Si3 0.911975 0.618452 0.679682
Si Si4 0.734093 0.568831 0.819762
Si Si5 0.866061 0.750679 0.174778
Si Si6 0.312251 0.788695 0.819785
Si Si7 0.912524 0.899792 0.175023
O O1 0.500000 0.353037 0.750000
O O2 0.333475 0.373711 0.772473
O O3 0.395809 0.251618 0.739768
O O4 0.419014 0.315248 0.000000
O O5 0.321720 0.867479 0.779755
O O6 0.169196 0.929358 0.762988
O O7 0.312692 0.000000 0.750000
O O8 0.263594 0.945002 0.000000
O O9 0.910732 0.606664 0.500000
O O10 0.828788 0.583717 0.753254
O O11 0.912802 0.697227 0.717334
O O12 0.000000 0.586610 0.750000
O O13 0.698717 0.500000 0.750000
O O14 0.741329 0.561931 0.000000
O O15 0.767221 0.757987 0.226773
O O16 0.915933 0.820021 0.190688
O O17 0.865743 0.724448 0.000000
O O18 0.297283 0.778738 0.000000
O O19 0.000000 0.929027 0.250000
O O20 0.906530 0.922442 0.000000
#
# Coordination Sequence:
#
# PCOD8203160 Si02
#       7
#     8   8   8   8   8   8   8
#     4  11  24  42  69 100 132 164 205 254 309 374
#     4  10  21  36  55  81 113 154 201 248 302 369
#     4  12  24  38  60  88 123 167 214 265 313 368
#     4  11  25  45  67  94 129 169 211 258 312 371
#     4  10  19  33  54  82 116 155 202 254 311 367
#     4  10  20  36  61  90 122 159 202 250 307 366
#     4  10  20  32  48  72 107 149 197 254 308 364
#
# _framework density 20.761852999999999
#
# number of rings (size 3 to 8) (size 9 to 14) (size 15 to 20)
#    0.000    1.429    1.429    4.286    0.000    7.143 
#    0.000    4.286    0.000    0.429    0.000    3.000 
#    0.000    0.000    0.000    0.000    0.000    0.000 
#
# Total GULP energy -694544.445171 kJ/mol
# GULP energy per Si atom -12402.579378 kJ/mol
# Density = 2.071460 g / cm^3
# Si number density = 20.761853 Si / 1000 Ang^3
#
#
#
# Elastic Constant Matrix: (Units=GPa)
#
#
# Indices 1 2 3 4 5 6 
#
# 1 99.6317 40.7902 46.1295 0.0000 0.0000 0.0000
# 2 40.7902 119.7581 54.8215 0.0000 0.0000 0.0000
# 3 46.1295 54.8215 108.0620 0.0000 0.0000 0.0000
# 4 0.0000 0.0000 0.0000 35.1919 0.0000 0.0000
# 5 0.0000 0.0000 0.0000 0.0000 32.4047 0.0000
# 6 0.0000 0.0000 0.0000 0.0000 0.0000 5.5938
#
#
#
# Elastic Compliance Matrix: (Units=1/GPa)
#
#
# Indices 1 2 3 4 5 6 
#
# 1 0.013046 -0.002467 -0.004317 0.000000 0.000000 0.000000
# 2 -0.002467 0.011342 -0.004701 0.000000 0.000000 0.000000
# 3 -0.004317 -0.004701 0.013482 0.000000 0.000000 0.000000
# 4 0.000000 0.000000 0.000000 0.028416 0.000000 0.000000
# 5 0.000000 0.000000 0.000000 0.000000 0.030860 0.000000
# 6 0.000000 0.000000 0.000000 0.000000 0.000000 0.178770
#
#
# Mechanical properties :
#
#
# Convention : Reuss Voigt Hill
#
# Bulk Modulus (GPa) = 67.11815 67.88159 67.49987
# Shear Modulus (GPa) = 16.45529 27.01878 21.73704
#
# Velocity S-wave (km/s) = 2.81832 3.61136 3.23920
# Velocity P-wave (km/s) = 6.55655 7.08206 6.82437
#
# Compressibility (1/GPa) = 0.01489910
#
# Stress axis : x y z
#
# Youngs Moduli (GPa) = 76.65161 88.16423 74.17355
#
# Poissons Ratio (x) = 0.21751 0.32024
# Poissons Ratio (y) = 0.18911 0.34869
# Poissons Ratio (z) = 0.33094 0.41446
#
# Static dielectric constant tensor:
#      x y z
#    x 3.572860 0.000000 0.000000 
#    y 0.000000 4.069780 0.000000 
#    z 0.000000 0.000000 3.813130 
# 
# 
# High freq. dielectric constant tensor:
#      x y z
#    x 1.789260 0.000000 0.000000 
#    y 0.000000 1.818860 0.000000 
#    z 0.000000 0.000000 1.826240 
# 
# From -- ./inp_files/4070.got.cif
#   From: 2010.03.12/outbox.cif.g09.slc.cpg/sg49_3_cif.got.tgz:4070.got - 2010.04.14 03:58:27.
