data_PCOD8203641
_publ_section_title
;
Structure prediction by ZEFSAII (Michael W. Deem and Ramdas Pophale) SiO2 
 PCOD8203641
Probable space group: P C C M
;
_chemical_formula_sum "Si O2"
_cell_formula_units_Z 56
_cell_length_a 15.515731
_cell_length_b 9.731043
_cell_length_c 18.262089
_cell_angle_alpha 90.000000
_cell_angle_beta 90.000000
_cell_angle_gamma 90.000000
_cell_volume 2757.287730
_symmetry_space_group_name_H-M "P C C M"
_symmetry_group_IT_number 49
_symmetry_cell_setting 'orthorhombic'
loop_
_space_group_symop_operation_xyz
x,y,z
-x,-y,z
x,-y,1/2-z
-x,y,1/2-z
-x,-y,-z
x,y,-z
-x,y,1/2+z
x,-y,1/2+z
loop_
_atom_site_type_symbol
_atom_site_label
_atom_site_fract_x
_atom_site_fract_y
_atom_site_fract_z
Si Si1 0.177142 0.736524 0.825889
Si Si2 0.265600 0.498710 0.086100
Si Si3 0.560338 0.627580 0.919389
Si Si4 0.999158 0.152047 0.336686
Si Si5 0.289463 0.989547 0.169349
Si Si6 0.554987 0.133767 0.919161
Si Si7 0.183873 0.257171 0.157464
O O1 0.239128 0.640254 0.874361
O O2 0.079342 0.746287 0.857525
O O3 0.205166 0.895453 0.827934
O O4 0.184146 0.688954 0.741376
O O5 0.353616 0.430543 0.120210
O O6 0.195010 0.384663 0.103067
O O7 0.275240 0.529601 0.000000
O O8 0.500000 0.500000 0.928077
O O9 0.505663 0.750061 0.878969
O O10 0.587117 0.684541 0.000000
O O11 0.000000 0.138346 0.250000
O O12 0.910785 0.213020 0.366179
O O13 0.000000 0.000000 0.372019
O O14 0.358151 0.908229 0.121004
O O15 0.330993 0.000000 0.250000
O O16 0.257165 0.139630 0.142032
O O17 0.500000 0.000000 0.926974
O O18 0.580647 0.190752 0.000000
#
# Coordination Sequence:
#
# PCOD8203641 Si02
#       7
#     8   8   8   8   8   8   8
#     4  10  20  36  60  86 111 145 191 238 282 337
#     4  11  23  38  56  82 117 153 192 237 287 338
#     4   9  18  34  55  76 101 141 189 229 263 315
#     4   9  16  33  61  87 110 143 192 235 276 338
#     4  10  20  34  57  87 114 141 180 241 300 342
#     4  10  20  34  53  77 107 145 189 229 269 328
#     4  10  20  36  59  85 116 148 184 235 288 342
#
# _framework density 20.309813999999999
#
# number of rings (size 3 to 8) (size 9 to 14) (size 15 to 20)
#    0.000    2.143    1.429    2.143    0.000    4.286 
#    0.000    3.571    0.000    7.714    0.000    0.000 
#    0.000    0.000    0.000    0.000    0.000    0.000 
#
# Total GULP energy -693748.679777 kJ/mol
# GULP energy per Si atom -12388.369282 kJ/mol
# Density = 2.026359 g / cm^3
# Si number density = 20.309814 Si / 1000 Ang^3
#
#
#
# Elastic Constant Matrix: (Units=GPa)
#
#
# Indices 1 2 3 4 5 6 
#
# 1 117.3168 30.9533 30.5281 0.0000 0.0000 0.0000
# 2 30.9533 101.3443 25.3782 0.0000 0.0000 0.0000
# 3 30.5281 25.3782 46.3041 0.0000 0.0000 0.0000
# 4 0.0000 0.0000 0.0000 24.9364 0.0000 0.0000
# 5 0.0000 0.0000 0.0000 0.0000 31.2119 0.0000
# 6 0.0000 0.0000 0.0000 0.0000 0.0000 33.6499
#
#
#
# Elastic Compliance Matrix: (Units=1/GPa)
#
#
# Indices 1 2 3 4 5 6 
#
# 1 0.010540 -0.001714 -0.006009 0.000000 0.000000 0.000000
# 2 -0.001714 0.011716 -0.005291 0.000000 0.000000 0.000000
# 3 -0.006009 -0.005291 0.028458 0.000000 0.000000 0.000000
# 4 0.000000 0.000000 0.000000 0.040102 0.000000 0.000000
# 5 0.000000 0.000000 0.000000 0.000000 0.032039 0.000000
# 6 0.000000 0.000000 0.000000 0.000000 0.000000 0.029718
#
#
# Mechanical properties :
#
#
# Convention : Reuss Voigt Hill
#
# Bulk Modulus (GPa) = 40.51092 48.74270 44.62681
# Shear Modulus (GPa) = 26.76221 29.83333 28.29777
#
# Velocity S-wave (km/s) = 3.63395 3.83680 3.73675
# Velocity P-wave (km/s) = 6.13166 6.60906 6.37483
#
# Compressibility (1/GPa) = 0.02468470
#
# Stress axis : x y z
#
# Youngs Moduli (GPa) = 94.87659 85.35411 35.13934
#
# Poissons Ratio (x) = 0.14633 0.21117
# Poissons Ratio (y) = 0.16265 0.18592
# Poissons Ratio (z) = 0.57015 0.45160
#
# Static dielectric constant tensor:
#      x y z
#    x 3.736350 0.000000 0.000000 
#    y 0.000000 3.725930 0.000000 
#    z 0.000000 0.000000 3.406780 
# 
# 
# High freq. dielectric constant tensor:
#      x y z
#    x 1.805390 0.000000 0.000000 
#    y 0.000000 1.806120 0.000000 
#    z 0.000000 0.000000 1.742480 
# 
# From -- ./inp_files/20860.got.cif
#   From: 2010.03.12/outbox.cif.g09.slc.cpg/sg49_11_cif.got.tgz:20860.got - 2010.04.14 03:58:27.
