data_PCOD8203323
_publ_section_title
;
Structure prediction by ZEFSAII (Michael W. Deem and Ramdas Pophale) SiO2 
 PCOD8203323
Probable space group: P C C M
;
_chemical_formula_sum "Si O2"
_cell_formula_units_Z 64
_cell_length_a 23.977910
_cell_length_b 15.504932
_cell_length_c 8.694907
_cell_angle_alpha 90.000000
_cell_angle_beta 90.000000
_cell_angle_gamma 90.000000
_cell_volume 3232.556563
_symmetry_space_group_name_H-M "P C C M"
_symmetry_group_IT_number 49
_symmetry_cell_setting 'orthorhombic'
loop_
_space_group_symop_operation_xyz
x,y,z
-x,-y,z
x,-y,1/2-z
-x,y,1/2-z
-x,-y,-z
x,y,-z
-x,y,1/2+z
x,-y,1/2+z
loop_
_atom_site_type_symbol
_atom_site_label
_atom_site_fract_x
_atom_site_fract_y
_atom_site_fract_z
Si Si1 0.060452 0.409534 0.316725
Si Si2 0.443862 0.847732 0.680940
Si Si3 0.133469 0.750000 0.182017
Si Si4 0.740109 0.250000 0.182796
Si Si5 0.325070 0.910317 0.682449
Si Si6 0.443862 0.347732 0.819060
Si Si7 0.060452 0.909534 0.816725
Si Si8 0.674930 0.410317 0.317551
O O1 0.082755 0.500000 0.250000
O O2 0.056843 0.414945 0.500000
O O3 0.102320 0.335542 0.258027
O O4 0.000000 0.387434 0.250000
O O5 0.500000 0.890513 0.750000
O O6 0.449172 0.848912 0.500000
O O7 0.389435 0.899757 0.735187
O O8 0.437594 0.750000 0.742737
O O9 0.196472 0.750000 0.243384
O O10 0.102320 0.835542 0.241973
O O11 0.132698 0.750000 0.000000
O O12 0.711237 0.165416 0.247609
O O13 0.711237 0.334584 0.247609
O O14 0.736381 0.250000 0.000000
O O15 0.319054 0.908251 0.500000
O O16 0.302423 0.000000 0.750000
O O17 0.500000 0.390513 0.750000
O O18 0.389435 0.399757 0.764813
O O19 0.449172 0.348912 0.000000
O O20 0.000000 0.887434 0.750000
O O21 0.082755 0.000000 0.750000
O O22 0.056843 0.914945 0.000000
O O23 0.697577 0.500000 0.250000
O O24 0.680946 0.408251 0.500000
#
# Coordination Sequence:
#
# PCOD8203323 Si02
#       8
#     8   8   8   8   8   8   8   8
#     4  10  19  35  57  85 119 152 186 230 278 333
#     4   9  18  34  56  82 114 147 183 231 287 347
#     4   9  21  38  58  83 115 150 191 237 282 335
#     4  11  23  42  63  85 114 154 198 245 296 343
#     4  11  23  41  61  86 117 152 194 242 292 348
#     4   9  18  34  56  82 114 147 183 231 287 347
#     4  10  19  35  57  85 119 152 186 230 278 333
#     4  11  23  41  61  86 117 152 194 242 292 348
#
# _framework density 19.798570999999999
#
# number of rings (size 3 to 8) (size 9 to 14) (size 15 to 20)
#    0.000    2.000    1.250    3.000    0.000    3.500 
#    0.000   11.875    0.000    0.000    0.000    0.000 
#    0.000    0.000    0.000    0.000    0.000    0.000 
#
# Total GULP energy -793682.667017 kJ/mol
# GULP energy per Si atom -12401.291672 kJ/mol
# Density = 1.975351 g / cm^3
# Si number density = 19.798571 Si / 1000 Ang^3
#
#
#
# Elastic Constant Matrix: (Units=GPa)
#
#
# Indices 1 2 3 4 5 6 
#
# 1 153.9788 99.6542 50.3701 0.0000 0.0000 0.0000
# 2 99.6542 173.0037 49.5612 0.0000 0.0000 0.0000
# 3 50.3701 49.5612 74.7028 0.0000 0.0000 0.0000
# 4 0.0000 0.0000 0.0000 25.7181 0.0000 0.0000
# 5 0.0000 0.0000 0.0000 0.0000 26.6587 0.0000
# 6 0.0000 0.0000 0.0000 0.0000 0.0000 -96.1141
#
#
#
# Elastic Compliance Matrix: (Units=1/GPa)
#
#
# Indices 1 2 3 4 5 6 
#
# 1 0.011273 -0.005329 -0.004066 0.000000 0.000000 0.000000
# 2 -0.005329 0.009656 -0.002813 0.000000 0.000000 0.000000
# 3 -0.004066 -0.002813 0.017994 0.000000 0.000000 0.000000
# 4 0.000000 0.000000 0.000000 0.038883 0.000000 0.000000
# 5 0.000000 0.000000 0.000000 0.000000 0.037511 0.000000
# 6 0.000000 0.000000 0.000000 0.000000 0.000000 -0.010404
#
#
# Mechanical properties :
#
#
# Convention : Reuss Voigt Hill
#
# Bulk Modulus (GPa) = 68.92860 88.98403 78.95632
# Shear Modulus (GPa) = 37.26787 4.72588 20.99688
#
# Velocity S-wave (km/s) = 4.34331 1.54666 3.26010
# Velocity P-wave (km/s) = 7.74874 6.94491 7.35781
#
# Compressibility (1/GPa) = 0.01450777
#
# Stress axis : x y z
#
# Youngs Moduli (GPa) = 88.70543 103.56689 55.57407
#
# Poissons Ratio (x) = 0.55190 0.22595
# Poissons Ratio (y) = 0.47270 0.15632
# Poissons Ratio (z) = 0.36066 0.29131
#
# Static dielectric constant tensor:
#      x y z
#    x 3.804440 0.000000 0.000000 
#    y 0.000000 3.751550 0.000000 
#    z 0.000000 0.000000 3.469670 
# 
# 
# High freq. dielectric constant tensor:
#      x y z
#    x 1.772110 0.000000 0.000000 
#    y 0.000000 1.779770 0.000000 
#    z 0.000000 0.000000 1.765740 
# 
# From -- ./inp_files/6508.got.cif
#   From: 2010.03.12/outbox.cif.g09.slc.cpg/sg49_4_cif.got.tgz:6508.got - 2010.04.14 03:58:27.
