data_PCOD8203526
_publ_section_title
;
Structure prediction by ZEFSAII (Michael W. Deem and Ramdas Pophale) SiO2 
 PCOD8203526
Probable space group: P C C M
;
_chemical_formula_sum "Si O2"
_cell_formula_units_Z 58
_cell_length_a 14.596951
_cell_length_b 25.160103
_cell_length_c 8.865235
_cell_angle_alpha 90.000000
_cell_angle_beta 90.000000
_cell_angle_gamma 90.000000
_cell_volume 3255.853215
_symmetry_space_group_name_H-M "P C C M"
_symmetry_group_IT_number 49
_symmetry_cell_setting 'orthorhombic'
loop_
_space_group_symop_operation_xyz
x,y,z
-x,-y,z
x,-y,1/2-z
-x,y,1/2-z
-x,-y,-z
x,y,-z
-x,y,1/2+z
x,-y,1/2+z
loop_
_atom_site_type_symbol
_atom_site_label
_atom_site_fract_x
_atom_site_fract_y
_atom_site_fract_z
Si Si1 0.662139 0.554444 0.319769
Si Si2 0.090266 0.300889 0.674686
Si Si3 0.000000 0.500000 0.750000
Si Si4 0.591220 0.657534 0.820459
Si Si5 0.598176 0.950332 0.826153
Si Si6 0.858751 0.414689 0.167403
Si Si7 0.600040 0.832202 0.176562
Si Si8 0.284252 0.258227 0.676266
O O1 0.625273 0.500000 0.250000
O O2 0.655118 0.553221 0.500000
O O3 0.597556 0.599392 0.251225
O O4 0.765961 0.563459 0.256567
O O5 0.068617 0.307234 0.500000
O O6 0.107913 0.360056 0.747294
O O7 0.174904 0.260784 0.702464
O O8 0.000000 0.275715 0.750000
O O9 0.935447 0.460751 0.845398
O O10 0.500000 0.684470 0.750000
O O11 0.676985 0.691718 0.766528
O O12 0.586189 0.655644 0.000000
O O13 0.500000 0.948260 0.750000
O O14 0.641008 0.891845 0.801571
O O15 0.654251 0.000000 0.750000
O O16 0.587507 0.963692 0.000000
O O17 0.829941 0.397525 0.000000
O O18 0.500000 0.824797 0.250000
O O19 0.675028 0.795727 0.256686
O O20 0.591250 0.817606 0.000000
O O21 0.308902 0.262859 0.500000
#
# Coordination Sequence:
#
# PCOD8203526 Si02
#       8
#     8   8   2   8   8   8   8   8
#     4  11  22  40  58  78 104 130 163 205 252 307
#     4  10  21  38  56  77 103 134 168 209 259 313
#     4  12  18  32  52  82 102 132 158 196 260 312
#     4  12  25  41  60  81 102 134 171 213 263 314
#     4   9  16  26  43  68 103 144 186 226 266 309
#     4  10  20  33  50  74 104 129 156 195 245 306
#     4  10  20  33  50  77 110 147 189 231 269 313
#     4  11  22  38  57  78 107 142 177 221 266 312
#
# _framework density 17.814073
#
# number of rings (size 3 to 8) (size 9 to 14) (size 15 to 20)
#    0.000    1.517    2.759    3.931    0.000    3.034 
#    0.000    1.379    0.000    0.000    0.000    0.000 
#    0.000    0.552    0.000    6.069    0.000    4.414 
#
# Total GULP energy -718885.899518 kJ/mol
# GULP energy per Si atom -12394.584474 kJ/mol
# Density = 1.777353 g / cm^3
# Si number density = 17.814073 Si / 1000 Ang^3
#
#
#
# Elastic Constant Matrix: (Units=GPa)
#
#
# Indices 1 2 3 4 5 6 
#
# 1 79.6012 35.2964 41.2951 0.0000 0.0000 0.0000
# 2 35.2964 115.0341 50.3286 0.0000 0.0000 0.0000
# 3 41.2951 50.3286 120.7225 0.0000 0.0000 0.0000
# 4 0.0000 0.0000 0.0000 32.0632 0.0000 0.0000
# 5 0.0000 0.0000 0.0000 0.0000 24.3750 0.0000
# 6 0.0000 0.0000 0.0000 0.0000 0.0000 13.4267
#
#
#
# Elastic Compliance Matrix: (Units=1/GPa)
#
#
# Indices 1 2 3 4 5 6 
#
# 1 0.016129 -0.003101 -0.004225 0.000000 0.000000 0.000000
# 2 -0.003101 0.011228 -0.003620 0.000000 0.000000 0.000000
# 3 -0.004225 -0.003620 0.011238 0.000000 0.000000 0.000000
# 4 0.000000 0.000000 0.000000 0.031188 0.000000 0.000000
# 5 0.000000 0.000000 0.000000 0.000000 0.041026 0.000000
# 6 0.000000 0.000000 0.000000 0.000000 0.000000 0.074478
#
#
# Mechanical properties :
#
#
# Convention : Reuss Voigt Hill
#
# Bulk Modulus (GPa) = 59.86565 63.24422 61.55494
# Shear Modulus (GPa) = 23.50207 26.53551 25.01879
#
# Velocity S-wave (km/s) = 3.63615 3.86370 3.75165
# Velocity P-wave (km/s) = 7.16293 7.44874 7.30723
#
# Compressibility (1/GPa) = 0.01670407
#
# Stress axis : x y z
#
# Youngs Moduli (GPa) = 61.99975 89.05951 88.98473
#
# Poissons Ratio (x) = 0.27614 0.37592
# Poissons Ratio (y) = 0.19224 0.32216
# Poissons Ratio (z) = 0.26192 0.32244
#
# Static dielectric constant tensor:
#      x y z
#    x 3.172580 0.000000 0.000000 
#    y 0.000000 3.826250 0.000000 
#    z 0.000000 0.000000 3.271360 
# 
# 
# High freq. dielectric constant tensor:
#      x y z
#    x 1.664430 0.000000 0.000000 
#    y 0.000000 1.681200 0.000000 
#    z 0.000000 0.000000 1.693470 
# 
# From -- ./inp_files/4263.got.cif
#   From: 2010.03.12/outbox.cif.g09.slc.cpg/sg49_3_cif.got.tgz:4263.got - 2010.04.14 03:58:27.
