data_PCOD8203227
_publ_section_title
;
Structure prediction by ZEFSAII (Michael W. Deem and Ramdas Pophale) SiO2 
 PCOD8203227
Probable space group: P C C M
;
_chemical_formula_sum "Si O2"
_cell_formula_units_Z 64
_cell_length_a 15.257089
_cell_length_b 24.818512
_cell_length_c 8.692039
_cell_angle_alpha 90.000000
_cell_angle_beta 90.000000
_cell_angle_gamma 90.000000
_cell_volume 3291.312246
_symmetry_space_group_name_H-M "P C C M"
_symmetry_group_IT_number 49
_symmetry_cell_setting 'orthorhombic'
loop_
_space_group_symop_operation_xyz
x,y,z
-x,-y,z
x,-y,1/2-z
-x,y,1/2-z
-x,-y,-z
x,y,-z
-x,y,1/2+z
x,-y,1/2+z
loop_
_atom_site_type_symbol
_atom_site_label
_atom_site_fract_x
_atom_site_fract_y
_atom_site_fract_z
Si Si1 0.087479 0.672503 0.175312
Si Si2 0.088649 0.098682 0.819826
Si Si3 0.133183 0.206907 0.677126
Si Si4 0.592247 0.442777 0.180929
Si Si5 0.410281 0.143000 0.317925
Si Si6 0.734005 0.943987 0.680986
Si Si7 0.719505 0.346809 0.181959
Si Si8 0.314444 0.763325 0.318481
O O1 0.084389 0.736621 0.201010
O O2 0.179381 0.648966 0.242095
O O3 0.000000 0.646945 0.250000
O O4 0.082479 0.655835 0.000000
O O5 0.087845 0.162510 0.783571
O O6 0.170483 0.069264 0.744611
O O7 0.000000 0.073109 0.750000
O O8 0.090988 0.089005 0.000000
O O9 0.130057 0.187676 0.500000
O O10 0.233471 0.212490 0.724953
O O11 0.620266 0.500000 0.250000
O O12 0.500000 0.422647 0.250000
O O13 0.668980 0.401292 0.224181
O O14 0.580444 0.448569 0.000000
O O15 0.500000 0.118761 0.250000
O O16 0.416207 0.150719 0.500000
O O17 0.333265 0.102380 0.269164
O O18 0.396493 0.200646 0.234144
O O19 0.739797 0.949491 0.500000
O O20 0.699763 0.000000 0.750000
O O21 0.669920 0.298520 0.269345
O O22 0.718783 0.334299 0.000000
O O23 0.298517 0.767118 0.500000
#
# Coordination Sequence:
#
# PCOD8203227 Si02
#       8
#     8   8   8   8   8   8   8   8
#     4   9  18  31  49  75 110 150 191 233 279 331
#     4  12  24  38  60  88 118 152 193 237 288 350
#     4  10  19  34  54  79 115 154 191 233 285 340
#     4  10  20  36  59  84 113 149 191 241 294 346
#     4  11  24  42  65  89 119 153 190 236 291 349
#     4  11  25  45  67  88 115 150 189 241 294 347
#     4   9  20  37  55  79 117 160 194 235 290 345
#     4  11  21  34  57  87 119 154 193 235 285 343
#
# _framework density 19.445132999999998
#
# number of rings (size 3 to 8) (size 9 to 14) (size 15 to 20)
#    0.000    1.625    1.250    5.250    0.000    7.000 
#    0.000    3.750    0.000    0.375    0.000    2.625 
#    0.000    0.000    0.000    0.000    0.000    0.000 
#
# Total GULP energy -793707.101016 kJ/mol
# GULP energy per Si atom -12401.673453 kJ/mol
# Density = 1.940088 g / cm^3
# Si number density = 19.445133 Si / 1000 Ang^3
#
#
#
# Elastic Constant Matrix: (Units=GPa)
#
#
# Indices 1 2 3 4 5 6 
#
# 1 119.6773 60.1575 49.1021 0.0000 0.0000 0.0000
# 2 60.1575 98.3820 42.8167 0.0000 0.0000 0.0000
# 3 49.1021 42.8167 78.7374 0.0000 0.0000 0.0000
# 4 0.0000 0.0000 0.0000 19.2588 0.0000 0.0000
# 5 0.0000 0.0000 0.0000 0.0000 32.9279 0.0000
# 6 0.0000 0.0000 0.0000 0.0000 0.0000 11.1890
#
#
#
# Elastic Compliance Matrix: (Units=1/GPa)
#
#
# Indices 1 2 3 4 5 6 
#
# 1 0.013486 -0.006008 -0.005143 0.000000 0.000000 0.000000
# 2 -0.006008 0.015992 -0.004950 0.000000 0.000000 0.000000
# 3 -0.005143 -0.004950 0.018599 0.000000 0.000000 0.000000
# 4 0.000000 0.000000 0.000000 0.051924 0.000000 0.000000
# 5 0.000000 0.000000 0.000000 0.000000 0.030369 0.000000
# 6 0.000000 0.000000 0.000000 0.000000 0.000000 0.089373
#
#
# Mechanical properties :
#
#
# Convention : Reuss Voigt Hill
#
# Bulk Modulus (GPa) = 62.98773 66.77212 64.87992
# Shear Modulus (GPa) = 19.43726 22.32318 20.88022
#
# Velocity S-wave (km/s) = 3.16507 3.39190 3.28045
# Velocity P-wave (km/s) = 6.76903 7.05360 6.91278
#
# Compressibility (1/GPa) = 0.01587611
#
# Stress axis : x y z
#
# Youngs Moduli (GPa) = 74.15172 62.53001 53.76523
#
# Poissons Ratio (x) = 0.37567 0.27651
# Poissons Ratio (y) = 0.44550 0.26613
# Poissons Ratio (z) = 0.38136 0.30951
#
# Static dielectric constant tensor:
#      x y z
#    x 3.708900 0.000000 0.000000 
#    y 0.000000 3.531740 0.000000 
#    z 0.000000 0.000000 3.541140 
# 
# 
# High freq. dielectric constant tensor:
#      x y z
#    x 1.764570 0.000000 0.000000 
#    y 0.000000 1.735070 0.000000 
#    z 0.000000 0.000000 1.764020 
# 
# From -- ./inp_files/4321.got.cif
#   From: 2010.03.12/outbox.cif.g09.slc.cpg/sg49_3_cif.got.tgz:4321.got - 2010.04.14 03:58:27.
