data_PCOD8203376
_publ_section_title
;
Structure prediction by ZEFSAII (Michael W. Deem and Ramdas Pophale) SiO2 
 PCOD8203376
Probable space group: P C C M
;
_chemical_formula_sum "Si O2"
_cell_formula_units_Z 64
_cell_length_a 11.809358
_cell_length_b 14.702207
_cell_length_c 18.251721
_cell_angle_alpha 90.000000
_cell_angle_beta 90.000000
_cell_angle_gamma 90.000000
_cell_volume 3168.929978
_symmetry_space_group_name_H-M "P C C M"
_symmetry_group_IT_number 49
_symmetry_cell_setting 'orthorhombic'
loop_
_space_group_symop_operation_xyz
x,y,z
-x,-y,z
x,-y,1/2-z
-x,y,1/2-z
-x,-y,-z
x,y,-z
-x,y,1/2+z
x,-y,1/2+z
loop_
_atom_site_type_symbol
_atom_site_label
_atom_site_fract_x
_atom_site_fract_y
_atom_site_fract_z
Si Si1 0.837393 0.327219 0.916292
Si Si2 0.869817 0.990107 0.836541
Si Si3 0.766969 0.824522 0.084608
Si Si4 0.092333 0.647428 0.416723
Si Si5 0.578184 0.587035 0.916840
Si Si6 0.215876 0.494257 0.836060
Si Si7 0.513800 0.782847 0.085579
Si Si8 0.282005 0.859710 0.914072
O O1 0.780223 0.404458 0.867353
O O2 0.781524 0.232825 0.895853
O O3 0.969386 0.312060 0.899907
O O4 0.813813 0.354686 0.000000
O O5 0.783329 0.060683 0.872855
O O6 0.860538 0.000000 0.750000
O O7 0.832339 0.890257 0.860765
O O8 0.000000 0.000000 0.862888
O O9 0.812883 0.723398 0.099070
O O10 0.633809 0.828855 0.104226
O O11 0.788051 0.852827 0.000000
O O12 0.100728 0.612724 0.500000
O O13 0.105596 0.559760 0.364523
O O14 0.500000 0.500000 0.915490
O O15 0.680888 0.567137 0.863285
O O16 0.513031 0.677277 0.887271
O O17 0.622898 0.605382 0.000000
O O18 0.216345 0.500000 0.750000
O O19 0.410419 0.844227 0.117464
O O20 0.490439 0.779525 0.000000
O O21 0.280936 0.884017 0.000000
#
# Coordination Sequence:
#
# PCOD8203376 Si02
#       8
#     8   8   8   8   8   8   8   8
#     4  10  21  37  59  85 116 158 208 260 305 349
#     4  11  25  43  63  89 124 161 196 240 302 369
#     4  10  20  38  66  92 116 154 203 251 301 355
#     4  10  20  37  60  85 116 156 208 262 302 351
#     4  10  19  36  62  85 113 157 207 253 293 345
#     4  12  24  35  53  84 124 163 200 245 306 369
#     4   9  18  35  62  93 120 150 194 250 303 350
#     4  10  21  40  65  94 122 151 199 254 302 356
#
# _framework density 20.196090999999999
#
# number of rings (size 3 to 8) (size 9 to 14) (size 15 to 20)
#    0.000    1.750    1.250    3.375    0.000    7.750 
#    0.000    3.125    0.000    0.000    0.000    0.000 
#    0.000    0.000    0.000    0.000    0.000    0.000 
#
# Total GULP energy -793546.437008 kJ/mol
# GULP energy per Si atom -12399.163078 kJ/mol
# Density = 2.015012 g / cm^3
# Si number density = 20.196091 Si / 1000 Ang^3
#
#
#
# Elastic Constant Matrix: (Units=GPa)
#
#
# Indices 1 2 3 4 5 6 
#
# 1 111.5232 25.6435 28.4225 0.0000 0.0000 0.0000
# 2 25.6435 79.2107 37.9421 0.0000 0.0000 0.0000
# 3 28.4225 37.9421 79.3537 0.0000 0.0000 0.0000
# 4 0.0000 0.0000 0.0000 9.4084 0.0000 0.0000
# 5 0.0000 0.0000 0.0000 0.0000 79.3864 0.0000
# 6 0.0000 0.0000 0.0000 0.0000 0.0000 33.4871
#
#
#
# Elastic Compliance Matrix: (Units=1/GPa)
#
#
# Indices 1 2 3 4 5 6 
#
# 1 0.010105 -0.001994 -0.002666 0.000000 0.000000 0.000000
# 2 -0.001994 0.016769 -0.007303 0.000000 0.000000 0.000000
# 3 -0.002666 -0.007303 0.017049 0.000000 0.000000 0.000000
# 4 0.000000 0.000000 0.000000 0.106288 0.000000 0.000000
# 5 0.000000 0.000000 0.000000 0.000000 0.012597 0.000000
# 6 0.000000 0.000000 0.000000 0.000000 0.000000 0.029862
#
#
# Mechanical properties :
#
#
# Convention : Reuss Voigt Hill
#
# Bulk Modulus (GPa) = 50.01247 50.45599 50.23423
# Shear Modulus (GPa) = 22.39538 36.32833 29.36186
#
# Velocity S-wave (km/s) = 3.33362 4.24580 3.81706
# Velocity P-wave (km/s) = 6.29560 7.00522 6.65987
#
# Compressibility (1/GPa) = 0.01999501
#
# Stress axis : x y z
#
# Youngs Moduli (GPa) = 98.96384 59.63540 58.65588
#
# Poissons Ratio (x) = 0.11894 0.15636
# Poissons Ratio (y) = 0.19738 0.42838
# Poissons Ratio (z) = 0.26380 0.43554
#
# Static dielectric constant tensor:
#      x y z
#    x 4.005980 0.000000 0.000000 
#    y 0.000000 3.777720 0.000000 
#    z 0.000000 0.000000 3.381000 
# 
# 
# High freq. dielectric constant tensor:
#      x y z
#    x 1.806630 0.000000 0.000000 
#    y 0.000000 1.794790 0.000000 
#    z 0.000000 0.000000 1.752540 
# 
# From -- ./inp_files/17349.got.cif
#   From: 2010.03.12/outbox.cif.g09.slc.cpg/sg49_9_cif.got.tgz:17349.got - 2010.04.14 03:58:27.
