data_PCOD8203473
_publ_section_title
;
Structure prediction by ZEFSAII (Michael W. Deem and Ramdas Pophale) SiO2 
 PCOD8203473
Probable space group: P C C M
;
_chemical_formula_sum "Si O2"
_cell_formula_units_Z 58
_cell_length_a 23.783892
_cell_length_b 14.769920
_cell_length_c 8.994216
_cell_angle_alpha 90.000000
_cell_angle_beta 90.000000
_cell_angle_gamma 90.000000
_cell_volume 3159.543800
_symmetry_space_group_name_H-M "P C C M"
_symmetry_group_IT_number 49
_symmetry_cell_setting 'orthorhombic'
loop_
_space_group_symop_operation_xyz
x,y,z
-x,-y,z
x,-y,1/2-z
-x,y,1/2-z
-x,-y,-z
x,y,-z
-x,y,1/2+z
x,-y,1/2+z
loop_
_atom_site_type_symbol
_atom_site_label
_atom_site_fract_x
_atom_site_fract_y
_atom_site_fract_z
Si Si1 0.400002 0.906223 0.323409
Si Si2 0.000000 0.000000 0.750000
Si Si3 0.228494 0.407525 0.176305
Si Si4 0.444658 0.268615 0.324769
Si Si5 0.107982 0.084685 0.336326
Si Si6 0.272118 0.909453 0.326963
Si Si7 0.346437 0.407488 0.675748
Si Si8 0.824869 0.776533 0.827549
O O1 0.409057 0.909770 0.500000
O O2 0.437384 0.828434 0.251552
O O3 0.335472 0.885767 0.278429
O O4 0.419728 0.000000 0.250000
O O5 0.959539 0.066850 0.845182
O O6 0.205677 0.500000 0.250000
O O7 0.287625 0.379356 0.249204
O O8 0.182805 0.329367 0.210914
O O9 0.237046 0.419789 0.000000
O O10 0.500000 0.313205 0.250000
O O11 0.453330 0.257598 0.500000
O O12 0.391508 0.330893 0.287435
O O13 0.133657 0.087685 0.500000
O O14 0.121947 0.180212 0.257710
O O15 0.136966 0.000000 0.250000
O O16 0.269349 0.927660 0.500000
O O17 0.232188 0.827127 0.277973
O O18 0.250167 0.000000 0.250000
O O19 0.368346 0.500000 0.750000
O O20 0.337838 0.421295 0.500000
O O21 0.837105 0.790644 0.000000
#
# Coordination Sequence:
#
# PCOD8203473 Si02
#       8
#     8   2   8   8   8   8   8   8
#     4  10  20  36  56  75 100 134 171 210 257 311
#     4   8  22  36  54  76 112 152 194 228 268 300
#     4  10  20  35  55  79 108 142 177 218 264 317
#     4  11  24  39  55  77 101 128 167 214 264 315
#     4  10  20  33  52  76 108 147 186 225 264 306
#     4   9  18  31  47  71 102 135 166 203 251 307
#     4  10  21  37  58  81 105 135 170 211 261 323
#     4  10  20  32  49  76 109 142 179 219 264 311
#
# _framework density 18.35708
#
# number of rings (size 3 to 8) (size 9 to 14) (size 15 to 20)
#    0.414    1.655    0.000    4.345    0.000    7.172 
#    0.000    2.759    0.000    0.000    0.000    0.483 
#    0.000    3.310    0.000    0.000    0.000    0.000 
#
# Total GULP energy -719039.494439 kJ/mol
# GULP energy per Si atom -12397.232663 kJ/mol
# Density = 1.831530 g / cm^3
# Si number density = 18.357080 Si / 1000 Ang^3
#
#
#
# Elastic Constant Matrix: (Units=GPa)
#
#
# Indices 1 2 3 4 5 6 
#
# 1 68.8270 49.2801 38.5567 0.0000 0.0000 0.0000
# 2 49.2801 122.5183 59.4890 0.0000 0.0000 0.0000
# 3 38.5567 59.4890 104.8854 0.0000 0.0000 0.0000
# 4 0.0000 0.0000 0.0000 27.6514 0.0000 0.0000
# 5 0.0000 0.0000 0.0000 0.0000 20.5814 0.0000
# 6 0.0000 0.0000 0.0000 0.0000 0.0000 24.4792
#
#
#
# Elastic Compliance Matrix: (Units=1/GPa)
#
#
# Indices 1 2 3 4 5 6 
#
# 1 0.021650 -0.006685 -0.004167 0.000000 0.000000 0.000000
# 2 -0.006685 0.013328 -0.005102 0.000000 0.000000 0.000000
# 3 -0.004167 -0.005102 0.013960 0.000000 0.000000 0.000000
# 4 0.000000 0.000000 0.000000 0.036165 0.000000 0.000000
# 5 0.000000 0.000000 0.000000 0.000000 0.048588 0.000000
# 6 0.000000 0.000000 0.000000 0.000000 0.000000 0.040851
#
#
# Mechanical properties :
#
#
# Convention : Reuss Voigt Hill
#
# Bulk Modulus (GPa) = 58.72043 65.65360 62.18701
# Shear Modulus (GPa) = 23.57088 24.46938 24.02013
#
# Velocity S-wave (km/s) = 3.58721 3.65494 3.62124
# Velocity P-wave (km/s) = 7.01533 7.32488 7.17177
#
# Compressibility (1/GPa) = 0.01702985
#
# Stress axis : x y z
#
# Youngs Moduli (GPa) = 46.18952 75.02898 71.63354
#
# Poissons Ratio (x) = 0.50155 0.29851
# Poissons Ratio (y) = 0.30877 0.36548
# Poissons Ratio (z) = 0.19248 0.38281
#
# Static dielectric constant tensor:
#      x y z
#    x 3.195260 0.000000 0.000000 
#    y 0.000000 3.623190 0.000000 
#    z 0.000000 0.000000 3.397740 
# 
# 
# High freq. dielectric constant tensor:
#      x y z
#    x 1.688900 0.000000 0.000000 
#    y 0.000000 1.705790 0.000000 
#    z 0.000000 0.000000 1.721680 
# 
# From -- ./inp_files/6460.got.cif
#   From: 2010.03.12/outbox.cif.g09.slc.cpg/sg49_4_cif.got.tgz:6460.got - 2010.04.14 03:58:27.
