data_PCOD8203624
_publ_section_title
;
Structure prediction by ZEFSAII (Michael W. Deem and Ramdas Pophale) SiO2 
 PCOD8203624
Probable space group: P C C M
;
_chemical_formula_sum "Si O2"
_cell_formula_units_Z 40
_cell_length_a 25.530158
_cell_length_b 9.914083
_cell_length_c 8.693048
_cell_angle_alpha 90.000000
_cell_angle_beta 90.000000
_cell_angle_gamma 90.000000
_cell_volume 2200.280910
_symmetry_space_group_name_H-M "P C C M"
_symmetry_group_IT_number 49
_symmetry_cell_setting 'orthorhombic'
loop_
_space_group_symop_operation_xyz
x,y,z
-x,-y,z
x,-y,1/2-z
-x,y,1/2-z
-x,-y,-z
x,y,-z
-x,y,1/2+z
x,-y,1/2+z
loop_
_atom_site_type_symbol
_atom_site_label
_atom_site_fract_x
_atom_site_fract_y
_atom_site_fract_z
Si Si1 0.665751 0.648653 0.180466
Si Si2 0.944937 0.643540 0.181485
Si Si3 0.253659 0.144042 0.317935
Si Si4 0.450024 0.646444 0.677393
Si Si5 0.857535 0.142560 0.681879
O O1 0.670992 0.500000 0.250000
O O2 0.704835 0.744816 0.269558
O O3 0.607257 0.711046 0.207095
O O4 0.679342 0.642937 0.000000
O O5 0.928384 0.500000 0.250000
O O6 0.900836 0.749307 0.230097
O O7 0.000000 0.693651 0.250000
O O8 0.950636 0.630078 0.000000
O O9 0.250910 0.132349 0.500000
O O10 0.197345 0.189053 0.253903
O O11 0.270638 0.000000 0.250000
O O12 0.448406 0.500000 0.750000
O O13 0.500000 0.728041 0.750000
O O14 0.461688 0.632352 0.500000
O O15 0.850945 0.129938 0.500000
O O16 0.875737 0.000000 0.750000
#
# Coordination Sequence:
#
# PCOD8203624 Si02
#       5
#     8   8   8   8   8
#     4  10  20  34  52  78 108 138 175 218 262 311
#     4  10  21  36  56  80 108 140 173 210 255 306
#     4  11  22  37  57  78 104 140 176 217 265 315
#     4   9  16  26  44  69 100 134 168 209 256 305
#     4  10  21  37  56  79 105 136 175 217 258 307
#
# _framework density 18.179497999999999
#
# number of rings (size 3 to 8) (size 9 to 14) (size 15 to 20)
#    0.000    2.000    0.000    6.600    0.000    6.800 
#    0.000    4.000    0.000    0.600    0.000    4.200 
#    0.000    0.000    0.000    0.000    0.000    0.000 
#
# Total GULP energy -495866.870122 kJ/mol
# GULP energy per Si atom -12396.671753 kJ/mol
# Density = 1.813812 g / cm^3
# Si number density = 18.179498 Si / 1000 Ang^3
#
#
#
# Elastic Constant Matrix: (Units=GPa)
#
#
# Indices 1 2 3 4 5 6 
#
# 1 151.7619 87.9107 71.1154 0.0000 0.0000 0.0000
# 2 87.9107 86.7670 48.7492 0.0000 0.0000 0.0000
# 3 71.1154 48.7492 127.2719 0.0000 0.0000 0.0000
# 4 0.0000 0.0000 0.0000 28.9720 0.0000 0.0000
# 5 0.0000 0.0000 0.0000 0.0000 33.6609 0.0000
# 6 0.0000 0.0000 0.0000 0.0000 0.0000 -19.0784
#
#
#
# Elastic Compliance Matrix: (Units=1/GPa)
#
#
# Indices 1 2 3 4 5 6 
#
# 1 0.017251 -0.015370 -0.003752 0.000000 0.000000 0.000000
# 2 -0.015370 0.028380 -0.002282 0.000000 0.000000 0.000000
# 3 -0.003752 -0.002282 0.010828 0.000000 0.000000 0.000000
# 4 0.000000 0.000000 0.000000 0.034516 0.000000 0.000000
# 5 0.000000 0.000000 0.000000 0.000000 0.029708 0.000000
# 6 0.000000 0.000000 0.000000 0.000000 0.000000 -0.052415
#
#
# Mechanical properties :
#
#
# Convention : Reuss Voigt Hill
#
# Bulk Modulus (GPa) = 73.25897 86.81683 80.03790
# Shear Modulus (GPa) = 43.24270 19.24595 31.24432
#
# Velocity S-wave (km/s) = 4.88243 3.25724 4.15017
# Velocity P-wave (km/s) = 8.49525 7.87434 8.19068
#
# Compressibility (1/GPa) = 0.01365021
#
# Stress axis : x y z
#
# Youngs Moduli (GPa) = 57.96781 35.23583 92.35517
#
# Poissons Ratio (x) = 0.54159 0.34651
# Poissons Ratio (y) = 0.89098 0.21076
# Poissons Ratio (z) = 0.21749 0.08041
#
# Static dielectric constant tensor:
#      x y z
#    x 3.989010 0.000000 0.000000 
#    y 0.000000 3.117070 0.000000 
#    z 0.000000 0.000000 3.558510 
# 
# 
# High freq. dielectric constant tensor:
#      x y z
#    x 1.722590 0.000000 0.000000 
#    y 0.000000 1.673500 0.000000 
#    z 0.000000 0.000000 1.727930 
# 
# From -- ./inp_files/1890.got.cif
#   From: 2010.03.12/outbox.cif.g09.slc.cpg/sg49_1_cif.got.tgz:1890.got - 2010.04.14 03:58:27.
