data_PCOD8203828
_publ_section_title
;
Structure prediction by ZEFSAII (Michael W. Deem and Ramdas Pophale) SiO2 
 PCOD8203828
Probable space group: P C C M
;
_chemical_formula_sum "Si O2"
_cell_formula_units_Z 34
_cell_length_a 17.598522
_cell_length_b 5.204865
_cell_length_c 19.123365
_cell_angle_alpha 90.000000
_cell_angle_beta 90.000000
_cell_angle_gamma 90.000000
_cell_volume 1751.660672
_symmetry_space_group_name_H-M "P C C M"
_symmetry_group_IT_number 49
_symmetry_cell_setting 'orthorhombic'
loop_
_space_group_symop_operation_xyz
x,y,z
-x,-y,z
x,-y,1/2-z
-x,y,1/2-z
-x,-y,-z
x,y,-z
-x,y,1/2+z
x,-y,1/2+z
loop_
_atom_site_type_symbol
_atom_site_label
_atom_site_fract_x
_atom_site_fract_y
_atom_site_fract_z
Si Si1 0.915271 0.750070 0.280551
Si Si2 0.846301 0.777996 0.578242
Si Si3 0.500000 0.500000 0.750000
Si Si4 0.747654 0.721831 0.921383
Si Si5 0.645103 0.739633 0.791636
O O1 0.872244 0.500000 0.250000
O O2 0.914121 0.749811 0.365043
O O3 0.000000 0.750763 0.250000
O O4 0.871808 0.000000 0.250000
O O5 0.881111 0.755883 0.500000
O O6 0.785359 0.554800 0.591462
O O7 0.808946 0.054535 0.590134
O O8 0.554246 0.682238 0.797735
O O9 0.677603 0.760901 0.869422
O O10 0.714823 0.737763 0.000000
O O11 0.683903 0.500000 0.750000
O O12 0.661726 0.000000 0.750000
#
# Coordination Sequence:
#
# PCOD8203828 Si02
#       5
#     8   8   2   8   8
#     4  10  21  37  55  80 111 143 185 232 268 327
#     4  10  21  37  56  80 114 147 179 227 286 331
#     4   8  22  36  56  80 118 148 186 212 270 324
#     4  10  21  36  56  85 114 143 184 231 276 326
#     4  10  20  35  57  81 111 150 187 225 265 327
#
# _framework density 19.410153999999999
#
# number of rings (size 3 to 8) (size 9 to 14) (size 15 to 20)
#    0.706    1.412    0.000    3.176    0.000    5.647 
#    0.000    5.294    0.000    1.412    0.000    0.000 
#    0.000    0.000    0.000    0.000    0.000    0.000 
#
# Total GULP energy -421290.297653 kJ/mol
# GULP energy per Si atom -12390.891107 kJ/mol
# Density = 1.936598 g / cm^3
# Si number density = 19.410154 Si / 1000 Ang^3
#
#
#
# Elastic Constant Matrix: (Units=GPa)
#
#
# Indices 1 2 3 4 5 6 
#
# 1 61.3439 5.9755 70.0828 0.0000 0.0000 0.0000
# 2 5.9755 142.3691 40.6455 0.0000 0.0000 0.0000
# 3 70.0828 40.6455 190.8960 0.0000 0.0000 0.0000
# 4 0.0000 0.0000 0.0000 24.2428 0.0000 0.0000
# 5 0.0000 0.0000 0.0000 0.0000 31.5756 0.0000
# 6 0.0000 0.0000 0.0000 0.0000 0.0000 5.5860
#
#
#
# Elastic Compliance Matrix: (Units=1/GPa)
#
#
# Indices 1 2 3 4 5 6 
#
# 1 0.028558 0.001911 -0.010891 0.000000 0.000000 0.000000
# 2 0.001911 0.007606 -0.002321 0.000000 0.000000 0.000000
# 3 -0.010891 -0.002321 0.009731 0.000000 0.000000 0.000000
# 4 0.000000 0.000000 0.000000 0.041249 0.000000 0.000000
# 5 0.000000 0.000000 0.000000 0.000000 0.031670 0.000000
# 6 0.000000 0.000000 0.000000 0.000000 0.000000 0.179020
#
#
# Mechanical properties :
#
#
# Convention : Reuss Voigt Hill
#
# Bulk Modulus (GPa) = 42.93202 69.77962 56.35582
# Shear Modulus (GPa) = 15.23448 30.80789 23.02119
#
# Velocity S-wave (km/s) = 2.80460 3.98830 3.44763
# Velocity P-wave (km/s) = 5.71437 7.56550 6.70413
#
# Compressibility (1/GPa) = 0.02329264
#
# Stress axis : x y z
#
# Youngs Moduli (GPa) = 35.01613 131.46749 102.76302
#
# Poissons Ratio (x) = -0.25120 1.11922
# Poissons Ratio (y) = -0.06691 0.23852
# Poissons Ratio (z) = 0.38137 0.30514
#
# Static dielectric constant tensor:
#      x y z
#    x 3.076240 0.000000 0.000000 
#    y 0.000000 1.408430 0.000000 
#    z 0.000000 0.000000 3.715320 
# 
# 
# High freq. dielectric constant tensor:
#      x y z
#    x 1.708680 0.000000 0.000000 
#    y 0.000000 1.791260 0.000000 
#    z 0.000000 0.000000 1.758110 
# 
# From -- ./inp_files/14290.got.cif
#   From: 2010.03.12/outbox.cif.g09.slc.cpg/sg49_8_cif.got.tgz:14290.got - 2010.04.14 03:58:27.
