data_PCOD8203425
_publ_section_title
;
Structure prediction by ZEFSAII (Michael W. Deem and Ramdas Pophale) SiO2 
 PCOD8203425
Probable space group: P C C M
;
_chemical_formula_sum "Si O2"
_cell_formula_units_Z 64
_cell_length_a 13.398723
_cell_length_b 24.078835
_cell_length_c 8.737037
_cell_angle_alpha 90.000000
_cell_angle_beta 90.000000
_cell_angle_gamma 90.000000
_cell_volume 2818.792157
_symmetry_space_group_name_H-M "P C C M"
_symmetry_group_IT_number 49
_symmetry_cell_setting 'orthorhombic'
loop_
_space_group_symop_operation_xyz
x,y,z
-x,-y,z
x,-y,1/2-z
-x,y,1/2-z
-x,-y,-z
x,y,-z
-x,y,1/2+z
x,-y,1/2+z
loop_
_atom_site_type_symbol
_atom_site_label
_atom_site_fract_x
_atom_site_fract_y
_atom_site_fract_z
Si Si1 0.303864 0.557016 0.175875
Si Si2 0.616915 0.945877 0.828764
Si Si3 0.852038 0.055696 0.669726
Si Si4 0.801163 0.280260 0.681517
Si Si5 0.595922 0.164299 0.175413
Si Si6 0.819701 0.830496 0.317607
Si Si7 0.393276 0.328528 0.682806
Si Si8 0.102072 0.613115 0.820986
O O1 0.340568 0.500000 0.250000
O O2 0.365084 0.609579 0.242123
O O3 0.186186 0.566349 0.205152
O O4 0.329129 0.551531 0.000000
O O5 0.734932 0.950910 0.839752
O O6 0.580331 0.900584 0.707030
O O7 0.571825 0.000000 0.750000
O O8 0.574587 0.934969 0.000000
O O9 0.898950 0.059952 0.500000
O O10 0.875693 0.113661 0.758935
O O11 0.897275 0.000000 0.750000
O O12 0.790364 0.277555 0.500000
O O13 0.862534 0.226177 0.744248
O O14 0.690326 0.285430 0.756940
O O15 0.869126 0.331683 0.729946
O O16 0.500000 0.196466 0.250000
O O17 0.705396 0.175342 0.245023
O O18 0.594583 0.180578 0.000000
O O19 0.825952 0.830874 0.500000
O O20 0.500000 0.311580 0.750000
O O21 0.393502 0.325013 0.500000
O O22 0.000000 0.589269 0.750000
O O23 0.091194 0.627248 0.000000
#
# Coordination Sequence:
#
# PCOD8203425 Si02
#       8
#     8   8   8   8   8   8   8   8
#     4   9  20  36  56  84 121 160 201 246 290 340
#     4   9  16  26  39  53  72  99 137 185 238 295
#     4   9  16  27  44  66  91 122 161 207 262 328
#     4  11  22  37  58  83 111 147 189 238 293 350
#     4  10  20  31  42  56  77 107 147 194 247 302
#     4  10  20  34  50  69  96 130 168 218 274 332
#     4  10  21  38  57  81 113 154 202 252 301 348
#     4  10  21  39  61  88 120 155 193 236 287 344
#
# _framework density 22.704758999999999
#
# number of rings (size 3 to 8) (size 9 to 14) (size 15 to 20)
#    0.000    2.250    0.000    4.125    0.000    8.750 
#    0.000    5.000    0.000    0.000    0.000    0.000 
#    0.000    0.500    0.000    5.000    0.000    3.250 
#
# Total GULP energy -793086.059036 kJ/mol
# GULP energy per Si atom -12391.969672 kJ/mol
# Density = 2.265308 g / cm^3
# Si number density = 22.704759 Si / 1000 Ang^3
#
#
#
# Elastic Constant Matrix: (Units=GPa)
#
#
# Indices 1 2 3 4 5 6 
#
# 1 41.3700 -11.7758 9.1019 0.0000 0.0000 0.0000
# 2 -11.7758 138.2115 35.1915 0.0000 0.0000 0.0000
# 3 9.1019 35.1915 117.9789 0.0000 0.0000 0.0000
# 4 0.0000 0.0000 0.0000 33.4587 0.0000 0.0000
# 5 0.0000 0.0000 0.0000 0.0000 23.7728 0.0000
# 6 0.0000 0.0000 0.0000 0.0000 0.0000 6.4535
#
#
#
# Elastic Compliance Matrix: (Units=1/GPa)
#
#
# Indices 1 2 3 4 5 6 
#
# 1 0.025626 0.002908 -0.002844 0.000000 0.000000 0.000000
# 2 0.002908 0.008160 -0.002658 0.000000 0.000000 0.000000
# 3 -0.002844 -0.002658 0.009488 0.000000 0.000000 0.000000
# 4 0.000000 0.000000 0.000000 0.029888 0.000000 0.000000
# 5 0.000000 0.000000 0.000000 0.000000 0.042065 0.000000
# 6 0.000000 0.000000 0.000000 0.000000 0.000000 0.154955
#
#
# Mechanical properties :
#
#
# Convention : Reuss Voigt Hill
#
# Bulk Modulus (GPa) = 26.25787 40.28839 33.27313
# Shear Modulus (GPa) = 17.35713 30.40652 23.88183
#
# Velocity S-wave (km/s) = 2.76791 3.66350 3.24673
# Velocity P-wave (km/s) = 4.66959 5.97310 5.36111
#
# Compressibility (1/GPa) = 0.03808382
#
# Stress axis : x y z
#
# Youngs Moduli (GPa) = 39.02363 122.55099 105.39129
#
# Poissons Ratio (x) = -0.35632 0.29976
# Poissons Ratio (y) = -0.11346 0.28016
# Poissons Ratio (z) = 0.11099 0.32578
#
# Static dielectric constant tensor:
#      x y z
#    x 4.054210 0.000000 0.000000 
#    y 0.000000 4.203130 0.000000 
#    z 0.000000 0.000000 4.016220 
# 
# 
# High freq. dielectric constant tensor:
#      x y z
#    x 1.882160 0.000000 0.000000 
#    y 0.000000 1.897920 0.000000 
#    z 0.000000 0.000000 1.893920 
# 
# From -- ./inp_files/4364.got.cif
#   From: 2010.03.12/outbox.cif.g09.slc.cpg/sg49_3_cif.got.tgz:4364.got - 2010.04.14 03:58:27.
