data_PCOD8203096
_publ_section_title
;
Structure prediction by ZEFSAII (Michael W. Deem and Ramdas Pophale) SiO2 
 PCOD8203096
Probable space group: P C C M
;
_chemical_formula_sum "Si O2"
_cell_formula_units_Z 64
_cell_length_a 15.452620
_cell_length_b 25.078427
_cell_length_c 8.690146
_cell_angle_alpha 90.000000
_cell_angle_beta 90.000000
_cell_angle_gamma 90.000000
_cell_volume 3367.669708
_symmetry_space_group_name_H-M "P C C M"
_symmetry_group_IT_number 49
_symmetry_cell_setting 'orthorhombic'
loop_
_space_group_symop_operation_xyz
x,y,z
-x,-y,z
x,-y,1/2-z
-x,y,1/2-z
-x,-y,-z
x,y,-z
-x,y,1/2+z
x,-y,1/2+z
loop_
_atom_site_type_symbol
_atom_site_label
_atom_site_fract_x
_atom_site_fract_y
_atom_site_fract_z
Si Si1 0.372647 0.717184 0.180138
Si Si2 0.764955 0.443203 0.317661
Si Si3 0.803881 0.736562 0.178546
Si Si4 0.909338 0.637680 0.178240
Si Si5 0.586998 0.828400 0.818440
Si Si6 0.907433 0.057357 0.315774
Si Si7 0.585674 0.606080 0.182723
Si Si8 0.224688 0.145210 0.819576
O O1 0.270881 0.713473 0.214136
O O2 0.413551 0.766871 0.270082
O O3 0.416854 0.664413 0.242966
O O4 0.390025 0.724032 0.000000
O O5 0.790619 0.500000 0.250000
O O6 0.767022 0.445890 0.500000
O O7 0.833874 0.400070 0.254240
O O8 0.669636 0.426275 0.260252
O O9 0.887758 0.700077 0.210983
O O10 0.821611 0.798359 0.220072
O O11 0.774364 0.731247 0.000000
O O12 0.000000 0.621956 0.250000
O O13 0.917624 0.626433 0.000000
O O14 0.500000 0.856182 0.750000
O O15 0.676154 0.855876 0.755014
O O16 0.583561 0.833144 0.000000
O O17 0.912287 0.055633 0.500000
O O18 0.834634 0.098146 0.251335
O O19 0.000000 0.075733 0.250000
O O20 0.881423 0.000000 0.250000
O O21 0.500000 0.576585 0.250000
O O22 0.583022 0.610427 0.000000
O O23 0.229619 0.137037 0.000000
#
# Coordination Sequence:
#
# PCOD8203096 Si02
#       8
#     8   8   8   8   8   8   8   8
#     4  11  20  31  51  80 109 142 181 219 261 315
#     4  10  23  42  61  79 105 139 175 221 271 322
#     4   9  17  35  56  76 110 147 177 217 270 321
#     4  10  21  38  59  83 109 140 175 215 269 323
#     4  10  19  33  51  75 109 148 184 224 268 317
#     4  10  19  34  54  80 108 143 186 228 277 323
#     4  11  22  38  57  80 108 140 177 217 267 323
#     4   8  17  32  54  78 106 146 183 218 268 324
#
# _framework density 19.004238999999998
#
# number of rings (size 3 to 8) (size 9 to 14) (size 15 to 20)
#    0.000    2.125    1.250    3.750    0.000    3.000 
#    0.000    8.750    0.000    0.375    0.000    2.625 
#    0.000    0.000    0.000    0.000    0.000    0.000 
#
# Total GULP energy -793385.787476 kJ/mol
# GULP energy per Si atom -12396.652929 kJ/mol
# Density = 1.896098 g / cm^3
# Si number density = 19.004239 Si / 1000 Ang^3
#
#
#
# Elastic Constant Matrix: (Units=GPa)
#
#
# Indices 1 2 3 4 5 6 
#
# 1 159.6747 78.1137 33.5738 0.0000 0.0000 0.0000
# 2 78.1137 106.1548 23.9048 0.0000 0.0000 0.0000
# 3 33.5738 23.9048 53.9069 0.0000 0.0000 0.0000
# 4 0.0000 0.0000 0.0000 19.4506 0.0000 0.0000
# 5 0.0000 0.0000 0.0000 0.0000 31.5570 0.0000
# 6 0.0000 0.0000 0.0000 0.0000 0.0000 19.3598
#
#
#
# Elastic Compliance Matrix: (Units=1/GPa)
#
#
# Indices 1 2 3 4 5 6 
#
# 1 0.010317 -0.006826 -0.003398 0.000000 0.000000 0.000000
# 2 -0.006826 0.014982 -0.002392 0.000000 0.000000 0.000000
# 3 -0.003398 -0.002392 0.021728 0.000000 0.000000 0.000000
# 4 0.000000 0.000000 0.000000 0.051412 0.000000 0.000000
# 5 0.000000 0.000000 0.000000 0.000000 0.031689 0.000000
# 6 0.000000 0.000000 0.000000 0.000000 0.000000 0.051653
#
#
# Mechanical properties :
#
#
# Convention : Reuss Voigt Hill
#
# Bulk Modulus (GPa) = 45.88636 65.65789 55.77212
# Shear Modulus (GPa) = 23.33408 26.34975 24.84191
#
# Velocity S-wave (km/s) = 3.50785 3.72764 3.61941
# Velocity P-wave (km/s) = 6.37216 7.29048 6.84674
#
# Compressibility (1/GPa) = 0.02179297
#
# Stress axis : x y z
#
# Youngs Moduli (GPa) = 96.93004 66.74674 46.02393
#
# Poissons Ratio (x) = 0.45563 0.15640
# Poissons Ratio (y) = 0.66167 0.11010
# Poissons Ratio (z) = 0.32940 0.15967
#
# Static dielectric constant tensor:
#      x y z
#    x 3.903320 0.000000 0.000000 
#    y 0.000000 3.494920 0.000000 
#    z 0.000000 0.000000 3.326680 
# 
# 
# High freq. dielectric constant tensor:
#      x y z
#    x 1.748480 0.000000 0.000000 
#    y 0.000000 1.717170 0.000000 
#    z 0.000000 0.000000 1.725590 
# 
# From -- ./inp_files/4395.got.cif
#   From: 2010.03.12/outbox.cif.g09.slc.cpg/sg49_3_cif.got.tgz:4395.got - 2010.04.14 03:58:27.
