data_PCOD8203880
_publ_section_title
;
Structure prediction by ZEFSAII (Michael W. Deem and Ramdas Pophale) SiO2 
 PCOD8203880
Probable space group: P C C M
;
_chemical_formula_sum "Si O2"
_cell_formula_units_Z 58
_cell_length_a 19.114369
_cell_length_b 19.035730
_cell_length_c 8.785229
_cell_angle_alpha 90.000000
_cell_angle_beta 90.000000
_cell_angle_gamma 90.000000
_cell_volume 3196.557997
_symmetry_space_group_name_H-M "P C C M"
_symmetry_group_IT_number 49
_symmetry_cell_setting 'orthorhombic'
loop_
_space_group_symop_operation_xyz
x,y,z
-x,-y,z
x,-y,1/2-z
-x,y,1/2-z
-x,-y,-z
x,y,-z
-x,y,1/2+z
x,-y,1/2+z
loop_
_atom_site_type_symbol
_atom_site_label
_atom_site_fract_x
_atom_site_fract_y
_atom_site_fract_z
Si Si1 0.317505 0.575077 0.824911
Si Si2 0.254626 0.073020 0.679773
Si Si3 0.887015 0.892561 0.831900
Si Si4 0.423943 0.692565 0.818830
Si Si5 0.072414 0.736107 0.320740
Si Si6 0.683511 0.207387 0.680255
Si Si7 0.000000 0.000000 0.750000
Si Si8 0.791576 0.311000 0.177886
O O1 0.319199 0.500000 0.750000
O O2 0.379496 0.625035 0.763068
O O3 0.243203 0.612886 0.794209
O O4 0.330399 0.561701 0.000000
O O5 0.264941 0.073663 0.500000
O O6 0.172387 0.084347 0.714215
O O7 0.305029 0.129674 0.756843
O O8 0.279750 0.000000 0.750000
O O9 0.916387 0.817617 0.777859
O O10 0.949761 0.948954 0.846758
O O11 0.852930 0.885737 0.000000
O O12 0.500000 0.684747 0.750000
O O13 0.387147 0.762300 0.754435
O O14 0.426621 0.697891 0.000000
O O15 0.073113 0.723069 0.500000
O O16 0.130082 0.687055 0.240476
O O17 0.000000 0.710458 0.250000
O O18 0.675547 0.206857 0.500000
O O19 0.751041 0.252036 0.727515
O O20 0.788414 0.290649 0.000000
#
# Coordination Sequence:
#
# PCOD8203880 Si02
#       8
#     8   8   8   8   8   8   2   8
#     4   9  20  36  57  86 120 154 189 226 270 329
#     4  12  24  37  55  77 106 142 185 238 289 338
#     4  11  23  35  49  72 101 138 185 228 281 343
#     4  10  21  38  59  89 123 157 192 227 271 324
#     4  11  22  35  52  76 105 140 187 237 287 341
#     4  11  21  36  58  83 111 147 191 236 283 336
#     4  12  22  36  52  66 110 148 186 228 290 352
#     4  10  20  36  56  80 110 146 189 235 283 336
#
# _framework density 18.144515999999999
#
# number of rings (size 3 to 8) (size 9 to 14) (size 15 to 20)
#    0.000    1.379    2.759    4.759    0.000    4.690 
#    0.000    1.379    0.000    0.828    0.000    5.793 
#    0.000    0.000    0.000    0.000    0.000    0.000 
#
# Total GULP energy -719296.328084 kJ/mol
# GULP energy per Si atom -12401.660829 kJ/mol
# Density = 1.810322 g / cm^3
# Si number density = 18.144516 Si / 1000 Ang^3
#
#
#
# Elastic Constant Matrix: (Units=GPa)
#
#
# Indices 1 2 3 4 5 6 
#
# 1 126.9763 68.1480 49.8488 0.0000 0.0000 0.0000
# 2 68.1480 115.3523 53.5692 0.0000 0.0000 0.0000
# 3 49.8488 53.5692 119.0166 0.0000 0.0000 0.0000
# 4 0.0000 0.0000 0.0000 29.9229 0.0000 0.0000
# 5 0.0000 0.0000 0.0000 0.0000 31.7286 0.0000
# 6 0.0000 0.0000 0.0000 0.0000 0.0000 20.8461
#
#
#
# Elastic Compliance Matrix: (Units=1/GPa)
#
#
# Indices 1 2 3 4 5 6 
#
# 1 0.012020 -0.006022 -0.002324 0.000000 0.000000 0.000000
# 2 -0.006022 0.013977 -0.003769 0.000000 0.000000 0.000000
# 3 -0.002324 -0.003769 0.011072 0.000000 0.000000 0.000000
# 4 0.000000 0.000000 0.000000 0.033419 0.000000 0.000000
# 5 0.000000 0.000000 0.000000 0.000000 0.031517 0.000000
# 6 0.000000 0.000000 0.000000 0.000000 0.000000 0.047971
#
#
# Mechanical properties :
#
#
# Convention : Reuss Voigt Hill
#
# Bulk Modulus (GPa) = 77.88522 78.27524 78.08023
# Shear Modulus (GPa) = 28.01365 29.15147 28.58256
#
# Velocity S-wave (km/s) = 3.93354 4.01262 3.97328
# Velocity P-wave (km/s) = 7.97799 8.04374 8.01093
#
# Compressibility (1/GPa) = 0.01283941
#
# Stress axis : x y z
#
# Youngs Moduli (GPa) = 83.19667 71.54667 90.31887
#
# Poissons Ratio (x) = 0.43084 0.20989
# Poissons Ratio (y) = 0.50099 0.34040
# Poissons Ratio (z) = 0.19334 0.26965
#
# Static dielectric constant tensor:
#      x y z
#    x 3.441180 0.000000 0.000000 
#    y 0.000000 3.244890 0.000000 
#    z 0.000000 0.000000 3.375220 
# 
# 
# High freq. dielectric constant tensor:
#      x y z
#    x 1.692200 0.000000 0.000000 
#    y 0.000000 1.691300 0.000000 
#    z 0.000000 0.000000 1.716180 
# 
# From -- ./inp_files/5084.got.cif
#   From: 2010.03.12/outbox.cif.g09.slc.cpg/sg49_3_cif.got.tgz:5084.got - 2010.04.14 03:58:27.
