data_PCOD8203355
_publ_section_title
;
Structure prediction by ZEFSAII (Michael W. Deem and Ramdas Pophale) SiO2 
 PCOD8203355
Probable space group: P C C M
;
_chemical_formula_sum "Si O2"
_cell_formula_units_Z 64
_cell_length_a 11.410872
_cell_length_b 8.743551
_cell_length_c 31.469784
_cell_angle_alpha 90.000000
_cell_angle_beta 90.000000
_cell_angle_gamma 90.000000
_cell_volume 3139.788854
_symmetry_space_group_name_H-M "P C C M"
_symmetry_group_IT_number 49
_symmetry_cell_setting 'orthorhombic'
loop_
_space_group_symop_operation_xyz
x,y,z
-x,-y,z
x,-y,1/2-z
-x,y,1/2-z
-x,-y,-z
x,y,-z
-x,y,1/2+z
x,-y,1/2+z
loop_
_atom_site_type_symbol
_atom_site_label
_atom_site_fract_x
_atom_site_fract_y
_atom_site_fract_z
Si Si1 0.027780 0.177088 0.452836
Si Si2 0.370203 0.678880 0.756927
Si Si3 0.747652 0.646967 0.343194
Si Si4 0.712680 0.807052 0.572923
Si Si5 0.616656 0.096245 0.609608
Si Si6 0.758607 0.289054 0.325876
Si Si7 0.003811 0.320139 0.134666
Si Si8 0.513599 0.328963 0.453205
O O1 0.984713 0.232703 0.500000
O O2 0.164957 0.217209 0.450257
O O3 0.967388 0.261855 0.413144
O O4 0.000000 0.000000 0.447659
O O5 0.382715 0.500000 0.750000
O O6 0.500000 0.752614 0.750000
O O7 0.322063 0.720561 0.803600
O O8 0.273166 0.737350 0.723366
O O9 0.686472 0.697923 0.386526
O O10 0.740524 0.463921 0.340645
O O11 0.877881 0.724177 0.345369
O O12 0.609653 0.760000 0.541122
O O13 0.708164 0.983745 0.586942
O O14 0.673809 0.170085 0.650930
O O15 0.597035 0.235428 0.577633
O O16 0.500000 0.000000 0.621551
O O17 0.895617 0.252722 0.334414
O O18 0.000000 0.500000 0.131891
O O19 0.500000 0.500000 0.434947
O O20 0.571762 0.336268 0.500000
#
# Coordination Sequence:
#
# PCOD8203355 Si02
#       8
#     8   8   8   8   8   8   8   8
#     4  10  20  34  54  79 105 143 186 225 272 327
#     4   9  19  32  54  85 111 143 184 228 279 334
#     4   9  19  35  57  83 108 144 187 228 279 335
#     4  10  20  35  55  76 110 142 181 228 275 330
#     4  10  22  34  52  79 107 145 184 221 278 329
#     4  10  19  36  56  78 113 146 183 230 281 332
#     4   9  19  35  56  82 110 144 184 231 282 330
#     4  10  21  36  54  77 105 141 183 224 272 330
#
# _framework density 20.383537
#
# number of rings (size 3 to 8) (size 9 to 14) (size 15 to 20)
#    0.000    2.375    0.000    1.875    3.500    3.500 
#    0.000    3.750    0.000    0.000    0.000    2.625 
#    0.000    0.000    0.000    0.000    0.000    0.000 
#
# Total GULP energy -793185.812362 kJ/mol
# GULP energy per Si atom -12393.528318 kJ/mol
# Density = 2.033714 g / cm^3
# Si number density = 20.383537 Si / 1000 Ang^3
#
#
#
# Elastic Constant Matrix: (Units=GPa)
#
#
# Indices 1 2 3 4 5 6 
#
# 1 78.3380 5.5376 40.5067 0.0000 0.0000 0.0000
# 2 5.5376 45.8118 12.0301 0.0000 0.0000 0.0000
# 3 40.5067 12.0301 102.1817 0.0000 0.0000 0.0000
# 4 0.0000 0.0000 0.0000 -1.6340 0.0000 0.0000
# 5 0.0000 0.0000 0.0000 0.0000 29.4313 0.0000
# 6 0.0000 0.0000 0.0000 0.0000 0.0000 22.7890
#
#
#
# Elastic Compliance Matrix: (Units=1/GPa)
#
#
# Indices 1 2 3 4 5 6 
#
# 1 0.016060 -0.000278 -0.006334 0.000000 0.000000 0.000000
# 2 -0.000278 0.022530 -0.002542 0.000000 0.000000 0.000000
# 3 -0.006334 -0.002542 0.012597 0.000000 0.000000 0.000000
# 4 0.000000 0.000000 0.000000 -0.611982 0.000000 0.000000
# 5 0.000000 0.000000 0.000000 0.000000 0.033977 0.000000
# 6 0.000000 0.000000 0.000000 0.000000 0.000000 0.043881
#
#
# Mechanical properties :
#
#
# Convention : Reuss Voigt Hill
#
# Bulk Modulus (GPa) = 30.41537 38.05335 34.23436
# Shear Modulus (GPa) = -11.02122 21.33439 5.15659
#
# Velocity S-wave (km/s) = -2.32780 3.23870 1.59225
# Velocity P-wave (km/s) = 2.78012 5.71794 4.49577
#
# Compressibility (1/GPa) = 0.03287811
#
# Stress axis : x y z
#
# Youngs Moduli (GPa) = 62.26708 44.38599 79.38660
#
# Poissons Ratio (x) = 0.01234 0.50281
# Poissons Ratio (y) = 0.01731 0.20182
# Poissons Ratio (z) = 0.39438 0.11284
#
# Static dielectric constant tensor:
#      x y z
#    x 3.938740 0.000000 0.000000 
#    y 0.000000 3.531980 0.000000 
#    z 0.000000 0.000000 3.701910 
# 
# 
# High freq. dielectric constant tensor:
#      x y z
#    x 1.794700 0.000000 0.000000 
#    y 0.000000 1.780770 0.000000 
#    z 0.000000 0.000000 1.796160 
# 
# From -- ./inp_files/26673.got.cif
#   From: 2010.03.12/outbox.cif.g09.slc.cpg/sg49_14_cif.got.tgz:26673.got - 2010.04.14 03:58:27.
