data_PCOD8203195
_publ_section_title
;
Structure prediction by ZEFSAII (Michael W. Deem and Ramdas Pophale) SiO2 
 PCOD8203195
Probable space group: P C C M
;
_chemical_formula_sum "Si O2"
_cell_formula_units_Z 42
_cell_length_a 6.646020
_cell_length_b 19.235532
_cell_length_c 18.499161
_cell_angle_alpha 90.000000
_cell_angle_beta 90.000000
_cell_angle_gamma 90.000000
_cell_volume 2364.927755
_symmetry_space_group_name_H-M "P C C M"
_symmetry_group_IT_number 49
_symmetry_cell_setting 'orthorhombic'
loop_
_space_group_symop_operation_xyz
x,y,z
-x,-y,z
x,-y,1/2-z
-x,y,1/2-z
-x,-y,-z
x,y,-z
-x,y,1/2+z
x,-y,1/2+z
loop_
_atom_site_type_symbol
_atom_site_label
_atom_site_fract_x
_atom_site_fract_y
_atom_site_fract_z
Si Si1 0.596687 0.172833 0.328910
Si Si2 0.066381 0.286863 0.832371
Si Si3 0.794498 0.187291 0.914915
Si Si4 0.500000 0.500000 0.750000
Si Si5 0.124113 0.438431 0.822786
Si Si6 0.048237 0.080467 0.169277
O O1 0.500000 0.172029 0.250000
O O2 0.739213 0.238881 0.338943
O O3 0.434897 0.178603 0.391828
O O4 0.718003 0.100575 0.342496
O O5 0.118486 0.364080 0.863246
O O6 0.000000 0.289205 0.750000
O O7 0.885136 0.257148 0.880327
O O8 0.913346 0.119562 0.888780
O O9 0.809945 0.193109 0.000000
O O10 0.357011 0.455183 0.803447
O O11 0.000000 0.500000 0.865991
O O12 0.000000 0.428631 0.750000
O O13 0.000000 0.107448 0.250000
O O14 0.000000 0.000000 0.160294
#
# Coordination Sequence:
#
# PCOD8203195 Si02
#       6
#     8   8   8   2   8   8
#     4  11  19  34  57  83 108 143 188 223 266 325
#     4  10  19  33  58  81 108 146 184 228 279 327
#     4  11  23  38  55  82 113 142 183 233 278 327
#     4   8  14  24  40  74 118 140 166 226 272 324
#     4   8  16  27  45  77 112 141 178 223 281 321
#     4  10  21  39  60  82 109 145 182 223 272 327
#
# _framework density 17.759526999999999
#
# number of rings (size 3 to 8) (size 9 to 14) (size 15 to 20)
#    0.000    2.286    3.810    1.143    1.333    5.714 
#    0.000    0.952    0.000    0.571    0.000    2.000 
#    0.000    0.000    0.000    0.000    0.000    0.000 
#
# Total GULP energy -520518.832248 kJ/mol
# GULP energy per Si atom -12393.305530 kJ/mol
# Density = 1.771911 g / cm^3
# Si number density = 17.759527 Si / 1000 Ang^3
#
#
#
# Elastic Constant Matrix: (Units=GPa)
#
#
# Indices 1 2 3 4 5 6 
#
# 1 141.4908 64.3132 38.5234 0.0000 0.0000 0.0000
# 2 64.3132 149.1007 37.7383 0.0000 0.0000 0.0000
# 3 38.5234 37.7383 97.5816 0.0000 0.0000 0.0000
# 4 0.0000 0.0000 0.0000 -38.5784 0.0000 0.0000
# 5 0.0000 0.0000 0.0000 0.0000 19.4424 0.0000
# 6 0.0000 0.0000 0.0000 0.0000 0.0000 23.6457
#
#
#
# Elastic Compliance Matrix: (Units=1/GPa)
#
#
# Indices 1 2 3 4 5 6 
#
# 1 0.009248 -0.003398 -0.002337 0.000000 0.000000 0.000000
# 2 -0.003398 0.008683 -0.002017 0.000000 0.000000 0.000000
# 3 -0.002337 -0.002017 0.011950 0.000000 0.000000 0.000000
# 4 0.000000 0.000000 0.000000 -0.025921 0.000000 0.000000
# 5 0.000000 0.000000 0.000000 0.000000 0.051434 0.000000
# 6 0.000000 0.000000 0.000000 0.000000 0.000000 0.042291
#
#
# Mechanical properties :
#
#
# Convention : Reuss Voigt Hill
#
# Bulk Modulus (GPa) = 69.54678 74.36921 71.95799
# Shear Modulus (GPa) = 42.37979 17.40850 29.89414
#
# Velocity S-wave (km/s) = 4.89029 3.13427 4.10722
# Velocity P-wave (km/s) = 8.43397 7.42056 7.94344
#
# Compressibility (1/GPa) = 0.01437881
#
# Stress axis : x y z
#
# Youngs Moduli (GPa) = 108.12850 115.16978 83.67944
#
# Poissons Ratio (x) = 0.39130 0.19556
# Poissons Ratio (y) = 0.36738 0.16875
# Poissons Ratio (z) = 0.25270 0.23226
#
# Static dielectric constant tensor:
#      x y z
#    x 2.870950 0.000000 0.000000 
#    y 0.000000 4.090270 0.000000 
#    z 0.000000 0.000000 2.894210 
# 
# 
# High freq. dielectric constant tensor:
#      x y z
#    x 1.701840 0.000000 0.000000 
#    y 0.000000 1.698180 0.000000 
#    z 0.000000 0.000000 1.640100 
# 
# From -- ./inp_files/18955.got.cif
#   From: 2010.03.12/outbox.cif.g09.slc.cpg/sg49_10_cif.got.tgz:18955.got - 2010.04.14 03:58:27.
