data_PCOD8203014
_publ_section_title
;
Structure prediction by ZEFSAII (Michael W. Deem and Ramdas Pophale) SiO2 
 PCOD8203014
Probable space group: P C C M
;
_chemical_formula_sum "Si O2"
_cell_formula_units_Z 58
_cell_length_a 25.696611
_cell_length_b 14.445002
_cell_length_c 8.967011
_cell_angle_alpha 90.000000
_cell_angle_beta 90.000000
_cell_angle_gamma 90.000000
_cell_volume 3328.443268
_symmetry_space_group_name_H-M "P C C M"
_symmetry_group_IT_number 49
_symmetry_cell_setting 'orthorhombic'
loop_
_space_group_symop_operation_xyz
x,y,z
-x,-y,z
x,-y,1/2-z
-x,y,1/2-z
-x,-y,-z
x,y,-z
-x,y,1/2+z
x,-y,1/2+z
loop_
_atom_site_type_symbol
_atom_site_label
_atom_site_fract_x
_atom_site_fract_y
_atom_site_fract_z
Si Si1 0.745777 0.099993 0.823245
Si Si2 0.312692 0.590711 0.325956
Si Si3 0.553087 0.096493 0.324546
Si Si4 0.654367 0.208729 0.671405
Si Si5 0.951472 0.176349 0.336492
Si Si6 0.797869 0.590831 0.675139
Si Si7 0.000000 0.000000 0.250000
Si Si8 0.154656 0.784547 0.173269
O O1 0.696090 0.159508 0.775979
O O2 0.797644 0.152812 0.768261
O O3 0.743737 0.000000 0.750000
O O4 0.744680 0.089259 0.000000
O O5 0.339013 0.500000 0.250000
O O6 0.304617 0.570889 0.500000
O O7 0.347844 0.681160 0.298063
O O8 0.257348 0.609865 0.250676
O O9 0.500000 0.133259 0.250000
O O10 0.544571 0.081194 0.500000
O O11 0.597282 0.171423 0.290479
O O12 0.570117 0.000000 0.250000
O O13 0.669572 0.187963 0.500000
O O14 0.947277 0.220697 0.500000
O O15 0.897597 0.187765 0.253897
O O16 0.000000 0.225322 0.250000
O O17 0.963297 0.066181 0.350588
O O18 0.823875 0.500000 0.750000
O O19 0.789560 0.575405 0.500000
O O20 0.834859 0.677247 0.707867
O O21 0.146319 0.802417 0.000000
#
# Coordination Sequence:
#
# PCOD8203014 Si02
#       8
#     8   8   8   8   8   8   2   8
#     4  11  23  36  50  74 109 146 179 214 262 318
#     4  10  19  32  52  78 107 139 176 219 263 318
#     4  10  20  35  54  78 104 136 180 224 267 313
#     4  10  21  36  54  77 107 141 178 221 266 319
#     4  10  21  35  55  76 102 135 175 218 260 306
#     4  10  19  34  54  79 107 139 175 218 264 315
#     4   8  22  36  54  80 100 132 182 220 264 304
#     4  10  22  37  53  77 110 140 176 218 261 314
#
# _framework density 17.425563
#
# number of rings (size 3 to 8) (size 9 to 14) (size 15 to 20)
#    0.414    1.517    1.379    3.931    0.966    4.966 
#    0.000    0.000    0.000    0.828    0.000    5.793 
#    0.000    0.000    0.000    0.000    0.000    0.000 
#
# Total GULP energy -719023.113840 kJ/mol
# GULP energy per Si atom -12396.950239 kJ/mol
# Density = 1.738590 g / cm^3
# Si number density = 17.425563 Si / 1000 Ang^3
#
#
#
# Elastic Constant Matrix: (Units=GPa)
#
#
# Indices 1 2 3 4 5 6 
#
# 1 119.9379 67.1490 52.1915 0.0000 0.0000 0.0000
# 2 67.1490 122.7844 54.2912 0.0000 0.0000 0.0000
# 3 52.1915 54.2912 86.7893 0.0000 0.0000 0.0000
# 4 0.0000 0.0000 0.0000 5.3516 0.0000 0.0000
# 5 0.0000 0.0000 0.0000 0.0000 18.5364 0.0000
# 6 0.0000 0.0000 0.0000 0.0000 0.0000 21.5162
#
#
#
# Elastic Compliance Matrix: (Units=1/GPa)
#
#
# Indices 1 2 3 4 5 6 
#
# 1 0.013306 -0.005169 -0.004769 0.000000 0.000000 0.000000
# 2 -0.005169 0.013266 -0.005190 0.000000 0.000000 0.000000
# 3 -0.004769 -0.005190 0.017637 0.000000 0.000000 0.000000
# 4 0.000000 0.000000 0.000000 0.186860 0.000000 0.000000
# 5 0.000000 0.000000 0.000000 0.000000 0.053948 0.000000
# 6 0.000000 0.000000 0.000000 0.000000 0.000000 0.046477
#
#
# Mechanical properties :
#
#
# Convention : Reuss Voigt Hill
#
# Bulk Modulus (GPa) = 71.66514 75.19721 73.43118
# Shear Modulus (GPa) = 13.64626 19.47284 16.55955
#
# Velocity S-wave (km/s) = 2.80146 3.34651 3.08604
# Velocity P-wave (km/s) = 7.18888 7.62753 7.41145
#
# Compressibility (1/GPa) = 0.01395379
#
# Stress axis : x y z
#
# Youngs Moduli (GPa) = 75.15128 75.38081 56.69964
#
# Poissons Ratio (x) = 0.38961 0.27039
# Poissons Ratio (y) = 0.38842 0.29429
# Poissons Ratio (z) = 0.35838 0.39126
#
# Static dielectric constant tensor:
#      x y z
#    x 3.091490 0.000000 0.000000 
#    y 0.000000 3.408740 0.000000 
#    z 0.000000 0.000000 3.405080 
# 
# 
# High freq. dielectric constant tensor:
#      x y z
#    x 1.656610 0.000000 0.000000 
#    y 0.000000 1.670720 0.000000 
#    z 0.000000 0.000000 1.686550 
# 
# From -- ./inp_files/6442.got.cif
#   From: 2010.03.12/outbox.cif.g09.slc.cpg/sg49_4_cif.got.tgz:6442.got - 2010.04.14 03:58:27.
