data_PCOD8203237
_publ_section_title
;
Structure prediction by ZEFSAII (Michael W. Deem and Ramdas Pophale) SiO2 
 PCOD8203237
Probable space group: P C C M
;
_chemical_formula_sum "Si O2"
_cell_formula_units_Z 64
_cell_length_a 14.308915
_cell_length_b 31.292791
_cell_length_c 8.749832
_cell_angle_alpha 90.000000
_cell_angle_beta 90.000000
_cell_angle_gamma 90.000000
_cell_volume 3917.876282
_symmetry_space_group_name_H-M "P C C M"
_symmetry_group_IT_number 49
_symmetry_cell_setting 'orthorhombic'
loop_
_space_group_symop_operation_xyz
x,y,z
-x,-y,z
x,-y,1/2-z
-x,y,1/2-z
-x,-y,-z
x,y,-z
-x,y,1/2+z
x,-y,1/2+z
loop_
_atom_site_type_symbol
_atom_site_label
_atom_site_fract_x
_atom_site_fract_y
_atom_site_fract_z
Si Si1 0.602614 0.217901 0.319764
Si Si2 0.709868 0.545108 0.181671
Si Si3 0.903674 0.320354 0.681087
Si Si4 0.602157 0.041047 0.821800
Si Si5 0.283628 0.706006 0.821296
Si Si6 0.601978 0.866440 0.320760
Si Si7 0.400676 0.377782 0.320709
Si Si8 0.094842 0.581223 0.320946
O O1 0.500000 0.223034 0.250000
O O2 0.594340 0.216450 0.500000
O O3 0.663784 0.257699 0.270879
O O4 0.652557 0.173992 0.259403
O O5 0.678856 0.500000 0.250000
O O6 0.637116 0.579714 0.241683
O O7 0.814845 0.555725 0.239889
O O8 0.705102 0.544211 0.000000
O O9 0.900571 0.313837 0.500000
O O10 0.821843 0.294003 0.761188
O O11 0.892642 0.369757 0.728876
O O12 0.000000 0.302262 0.750000
O O13 0.500000 0.042402 0.750000
O O14 0.651869 0.087281 0.789507
O O15 0.657473 0.000000 0.750000
O O16 0.592558 0.033248 0.000000
O O17 0.330571 0.660698 0.783839
O O18 0.286573 0.716501 0.000000
O O19 0.500000 0.868912 0.250000
O O20 0.594761 0.857338 0.500000
O O21 0.500000 0.365450 0.250000
O O22 0.411146 0.385838 0.500000
O O23 0.085316 0.576825 0.500000
O O24 0.000000 0.561676 0.250000
#
# Coordination Sequence:
#
# PCOD8203237 Si02
#       8
#     8   8   8   8   8   8   8   8
#     4  11  21  32  47  67  93 126 162 202 245 289
#     4  11  23  40  58  79 104 130 159 192 229 273
#     4  10  19  34  55  80 105 130 157 188 229 274
#     4   9  15  21  32  49  71 102 143 192 241 286
#     4  11  22  36  55  78 101 127 158 194 236 282
#     4   9  16  26  38  54  79 112 151 196 243 288
#     4  11  24  40  59  79  99 126 158 195 235 276
#     4   9  19  34  55  79 105 132 155 186 223 267
#
# _framework density 16.335380000000001
#
# number of rings (size 3 to 8) (size 9 to 14) (size 15 to 20)
#    0.000    1.875    1.250    4.875    0.000    6.000 
#    0.000    2.500    0.000    0.000    0.000    0.000 
#    0.000    0.000    0.000    0.000    0.000    0.625 
#
# Total GULP energy -793384.162893 kJ/mol
# GULP energy per Si atom -12396.627545 kJ/mol
# Density = 1.629820 g / cm^3
# Si number density = 16.335380 Si / 1000 Ang^3
#
#
#
# Elastic Constant Matrix: (Units=GPa)
#
#
# Indices 1 2 3 4 5 6 
#
# 1 71.6885 28.7802 32.2380 0.0000 0.0000 0.0000
# 2 28.7802 108.6135 50.3879 0.0000 0.0000 0.0000
# 3 32.2380 50.3879 98.1632 0.0000 0.0000 0.0000
# 4 0.0000 0.0000 0.0000 29.1427 0.0000 0.0000
# 5 0.0000 0.0000 0.0000 0.0000 24.7196 0.0000
# 6 0.0000 0.0000 0.0000 0.0000 0.0000 3.6289
#
#
#
# Elastic Compliance Matrix: (Units=1/GPa)
#
#
# Indices 1 2 3 4 5 6 
#
# 1 0.016865 -0.002493 -0.004259 0.000000 0.000000 0.000000
# 2 -0.002493 0.012453 -0.005574 0.000000 0.000000 0.000000
# 3 -0.004259 -0.005574 0.014447 0.000000 0.000000 0.000000
# 4 0.000000 0.000000 0.000000 0.034314 0.000000 0.000000
# 5 0.000000 0.000000 0.000000 0.000000 0.040454 0.000000
# 6 0.000000 0.000000 0.000000 0.000000 0.000000 0.275568
#
#
# Mechanical properties :
#
#
# Convention : Reuss Voigt Hill
#
# Bulk Modulus (GPa) = 52.31779 55.69749 54.00764
# Shear Modulus (GPa) = 11.76127 22.63551 17.19839
#
# Velocity S-wave (km/s) = 2.68617 3.72650 3.24826
# Velocity P-wave (km/s) = 6.45891 7.25851 6.87035
#
# Compressibility (1/GPa) = 0.01911396
#
# Stress axis : x y z
#
# Youngs Moduli (GPa) = 59.29297 80.30018 69.21939
#
# Poissons Ratio (x) = 0.20020 0.29481
# Poissons Ratio (y) = 0.14782 0.38580
# Poissons Ratio (z) = 0.25253 0.44756
#
# Static dielectric constant tensor:
#      x y z
#    x 2.882820 0.000000 0.000000 
#    y 0.000000 3.729530 0.000000 
#    z 0.000000 0.000000 3.215870 
# 
# 
# High freq. dielectric constant tensor:
#      x y z
#    x 1.583860 0.000000 0.000000 
#    y 0.000000 1.630410 0.000000 
#    z 0.000000 0.000000 1.648070 
# 
# From -- ./inp_files/4536.got.cif
#   From: 2010.03.12/outbox.cif.g09.slc.cpg/sg49_3_cif.got.tgz:4536.got - 2010.04.14 03:58:27.
