data_PCOD8203971
_publ_section_title
;
Structure prediction by ZEFSAII (Michael W. Deem and Ramdas Pophale) SiO2 
 PCOD8203971
Probable space group: P C C M
;
_chemical_formula_sum "Si O2"
_cell_formula_units_Z 40
_cell_length_a 24.997954
_cell_length_b 9.681432
_cell_length_c 8.590114
_cell_angle_alpha 90.000000
_cell_angle_beta 90.000000
_cell_angle_gamma 90.000000
_cell_volume 2078.944959
_symmetry_space_group_name_H-M "P C C M"
_symmetry_group_IT_number 49
_symmetry_cell_setting 'orthorhombic'
loop_
_space_group_symop_operation_xyz
x,y,z
-x,-y,z
x,-y,1/2-z
-x,y,1/2-z
-x,-y,-z
x,y,-z
-x,y,1/2+z
x,-y,1/2+z
loop_
_atom_site_type_symbol
_atom_site_label
_atom_site_fract_x
_atom_site_fract_y
_atom_site_fract_z
Si Si1 0.558723 0.645321 0.315212
Si Si2 0.354664 0.847033 0.684759
Si Si3 0.055062 0.151628 0.683878
Si Si4 0.141281 0.353496 0.815500
Si Si5 0.737452 0.355683 0.317496
O O1 0.581438 0.500000 0.250000
O O2 0.500000 0.673340 0.250000
O O3 0.557051 0.638088 0.500000
O O4 0.594891 0.771372 0.259632
O O5 0.361207 0.849519 0.500000
O O6 0.300812 0.767936 0.738140
O O7 0.350982 0.000000 0.750000
O O8 0.051457 0.146132 0.500000
O O9 0.105613 0.238329 0.736625
O O10 0.000000 0.217054 0.750000
O O11 0.063230 0.000000 0.750000
O O12 0.121996 0.500000 0.750000
O O13 0.202207 0.323978 0.761770
O O14 0.134455 0.349796 0.000000
O O15 0.716165 0.500000 0.250000
O O16 0.735720 0.372222 0.500000
#
# Coordination Sequence:
#
# PCOD8203971 Si02
#       5
#     8   8   8   8   8
#     4  11  22  39  62  88 115 149 189 233 279 333
#     4  11  23  39  57  84 117 152 190 233 281 333
#     4  11  22  38  58  82 111 148 187 230 279 335
#     4  10  20  37  58  85 115 147 186 232 280 331
#     4   9  20  37  59  83 112 147 187 230 278 332
#
# _framework density 19.240528999999999
#
# number of rings (size 3 to 8) (size 9 to 14) (size 15 to 20)
#    0.000    1.600    0.000    6.600    0.000    5.600 
#    0.000    6.000    0.000    0.000    0.000    0.000 
#    0.000    0.000    0.000    0.000    0.000    0.000 
#
# Total GULP energy -496143.082773 kJ/mol
# GULP energy per Si atom -12403.577069 kJ/mol
# Density = 1.919674 g / cm^3
# Si number density = 19.240529 Si / 1000 Ang^3
#
#
#
# Elastic Constant Matrix: (Units=GPa)
#
#
# Indices 1 2 3 4 5 6 
#
# 1 115.7690 86.6958 54.6406 0.0000 0.0000 0.0000
# 2 86.6958 148.3008 58.5909 0.0000 0.0000 0.0000
# 3 54.6406 58.5909 132.7599 0.0000 0.0000 0.0000
# 4 0.0000 0.0000 0.0000 38.1822 0.0000 0.0000
# 5 0.0000 0.0000 0.0000 0.0000 32.0115 0.0000
# 6 0.0000 0.0000 0.0000 0.0000 0.0000 43.9347
#
#
#
# Elastic Compliance Matrix: (Units=1/GPa)
#
#
# Indices 1 2 3 4 5 6 
#
# 1 0.016315 -0.008339 -0.003035 0.000000 0.000000 0.000000
# 2 -0.008339 0.012429 -0.002053 0.000000 0.000000 0.000000
# 3 -0.003035 -0.002053 0.009688 0.000000 0.000000 0.000000
# 4 0.000000 0.000000 0.000000 0.026190 0.000000 0.000000
# 5 0.000000 0.000000 0.000000 0.000000 0.031239 0.000000
# 6 0.000000 0.000000 0.000000 0.000000 0.000000 0.022761
#
#
# Mechanical properties :
#
#
# Convention : Reuss Voigt Hill
#
# Bulk Modulus (GPa) = 86.36966 88.52049 87.44508
# Shear Modulus (GPa) = 33.48208 35.95250 34.71729
#
# Velocity S-wave (km/s) = 4.17608 4.32740 4.25241
# Velocity P-wave (km/s) = 8.26073 8.43064 8.34612
#
# Compressibility (1/GPa) = 0.01157814
#
# Stress axis : x y z
#
# Youngs Moduli (GPa) = 61.29467 80.45747 103.22491
#
# Poissons Ratio (x) = 0.67089 0.31325
# Poissons Ratio (y) = 0.51111 0.21196
# Poissons Ratio (z) = 0.18601 0.16521
#
# Static dielectric constant tensor:
#      x y z
#    x 3.834320 0.000000 0.000000 
#    y 0.000000 3.439040 0.000000 
#    z 0.000000 0.000000 3.623130 
# 
# 
# High freq. dielectric constant tensor:
#      x y z
#    x 1.760240 0.000000 0.000000 
#    y 0.000000 1.748160 0.000000 
#    z 0.000000 0.000000 1.764320 
# 
# From -- ./inp_files/1671.got.cif
#   From: 2010.03.12/outbox.cif.g09.slc.cpg/sg49_1_cif.got.tgz:1671.got - 2010.04.14 03:58:27.
