data_PCOD8203664
_publ_section_title
;
Structure prediction by ZEFSAII (Michael W. Deem and Ramdas Pophale) SiO2 
 PCOD8203664
Probable space group: P C C M
;
_chemical_formula_sum "Si O2"
_cell_formula_units_Z 48
_cell_length_a 15.749511
_cell_length_b 8.727188
_cell_length_c 17.416894
_cell_angle_alpha 90.000000
_cell_angle_beta 90.000000
_cell_angle_gamma 90.000000
_cell_volume 2393.933678
_symmetry_space_group_name_H-M "P C C M"
_symmetry_group_IT_number 49
_symmetry_cell_setting 'orthorhombic'
loop_
_space_group_symop_operation_xyz
x,y,z
-x,-y,z
x,-y,1/2-z
-x,y,1/2-z
-x,-y,-z
x,y,-z
-x,y,1/2+z
x,-y,1/2+z
loop_
_atom_site_type_symbol
_atom_site_label
_atom_site_fract_x
_atom_site_fract_y
_atom_site_fract_z
Si Si1 0.585102 0.432180 0.333838
Si Si2 0.242275 0.079704 0.090154
Si Si3 0.078763 0.612669 0.910234
Si Si4 0.586006 0.068836 0.333718
Si Si5 0.916089 0.930341 0.664070
Si Si6 0.243251 0.421357 0.910130
O O1 0.500000 0.500000 0.374097
O O2 0.592800 0.500000 0.250000
O O3 0.577523 0.250432 0.330303
O O4 0.668555 0.488901 0.378598
O O5 0.334266 0.017353 0.115081
O O6 0.227239 0.250721 0.123234
O O7 0.170088 0.969995 0.121598
O O8 0.236500 0.075293 0.000000
O O9 0.071917 0.748234 0.847587
O O10 0.164947 0.526701 0.886813
O O11 0.000000 0.500000 0.897760
O O12 0.081142 0.667934 0.000000
O O13 0.500000 0.000000 0.370740
O O14 0.600115 0.000000 0.250000
O O15 0.911481 0.000000 0.750000
O O16 0.000000 0.000000 0.623583
O O17 0.253399 0.408628 0.000000
#
# Coordination Sequence:
#
# PCOD8203664 Si02
#       6
#     8   8   8   8   8   8
#     4  10  20  34  54  78 106 144 185 226 279 338
#     4  10  21  38  59  83 114 152 193 238 289 345
#     4  10  21  39  64  90 117 152 194 239 290 350
#     4  10  20  35  56  80 112 149 186 234 285 341
#     4  11  24  40  58  86 120 153 192 238 290 349
#     4   9  20  37  56  82 112 144 186 234 283 334
#
# _framework density 20.050681000000001
#
# number of rings (size 3 to 8) (size 9 to 14) (size 15 to 20)
#    0.000    2.000    0.000    4.000    0.000    8.667 
#    0.000    5.000    0.000    0.000    0.000    0.000 
#    0.000    0.000    0.000    0.000    0.000    0.000 
#
# Total GULP energy -595001.551644 kJ/mol
# GULP energy per Si atom -12395.865659 kJ/mol
# Density = 2.000505 g / cm^3
# Si number density = 20.050681 Si / 1000 Ang^3
#
#
#
# Elastic Constant Matrix: (Units=GPa)
#
#
# Indices 1 2 3 4 5 6 
#
# 1 191.4155 80.9222 42.4132 0.0000 0.0000 0.0000
# 2 80.9222 114.2240 42.2649 0.0000 0.0000 0.0000
# 3 42.4132 42.2649 46.5916 0.0000 0.0000 0.0000
# 4 0.0000 0.0000 0.0000 23.4633 0.0000 0.0000
# 5 0.0000 0.0000 0.0000 0.0000 -18.8705 0.0000
# 6 0.0000 0.0000 0.0000 0.0000 0.0000 35.5327
#
#
#
# Elastic Compliance Matrix: (Units=1/GPa)
#
#
# Indices 1 2 3 4 5 6 
#
# 1 0.007748 -0.004334 -0.003122 0.000000 0.000000 0.000000
# 2 -0.004334 0.015602 -0.010208 0.000000 0.000000 0.000000
# 3 -0.003122 -0.010208 0.033565 0.000000 0.000000 0.000000
# 4 0.000000 0.000000 0.000000 0.042620 0.000000 0.000000
# 5 0.000000 0.000000 0.000000 0.000000 -0.052993 0.000000
# 6 0.000000 0.000000 0.000000 0.000000 0.000000 0.028143
#
#
# Mechanical properties :
#
#
# Convention : Reuss Voigt Hill
#
# Bulk Modulus (GPa) = 46.32248 75.93687 61.12967
# Shear Modulus (GPa) = 42.65864 20.46714 31.56289
#
# Velocity S-wave (km/s) = 4.61753 3.19842 3.97187
# Velocity P-wave (km/s) = 7.18204 7.18293 7.18248
#
# Compressibility (1/GPa) = 0.02158779
#
# Stress axis : x y z
#
# Youngs Moduli (GPa) = 129.06171 64.09255 29.79296
#
# Poissons Ratio (x) = 0.27779 0.09300
# Poissons Ratio (y) = 0.55937 0.30413
# Poissons Ratio (z) = 0.40289 0.65426
#
# Static dielectric constant tensor:
#      x y z
#    x 4.298770 0.000000 0.000000 
#    y 0.000000 3.730210 0.000000 
#    z 0.000000 0.000000 3.480420 
# 
# 
# High freq. dielectric constant tensor:
#      x y z
#    x 1.810530 0.000000 0.000000 
#    y 0.000000 1.784880 0.000000 
#    z 0.000000 0.000000 1.761830 
# 
# From -- ./inp_files/17678.got.cif
#   From: 2010.03.12/outbox.cif.g09.slc.cpg/sg49_9_cif.got.tgz:17678.got - 2010.04.14 03:58:27.
