data_PCOD8203871
_publ_section_title
;
Structure prediction by ZEFSAII (Michael W. Deem and Ramdas Pophale) SiO2 
 PCOD8203871
Probable space group: P C C M
;
_chemical_formula_sum "Si O2"
_cell_formula_units_Z 56
_cell_length_a 14.809737
_cell_length_b 22.649332
_cell_length_c 8.665293
_cell_angle_alpha 90.000000
_cell_angle_beta 90.000000
_cell_angle_gamma 90.000000
_cell_volume 2906.604865
_symmetry_space_group_name_H-M "P C C M"
_symmetry_group_IT_number 49
_symmetry_cell_setting 'orthorhombic'
loop_
_space_group_symop_operation_xyz
x,y,z
-x,-y,z
x,-y,1/2-z
-x,y,1/2-z
-x,-y,-z
x,y,-z
-x,y,1/2+z
x,-y,1/2+z
loop_
_atom_site_type_symbol
_atom_site_label
_atom_site_fract_x
_atom_site_fract_y
_atom_site_fract_z
Si Si1 0.905584 0.393624 0.682939
Si Si2 0.594244 0.660631 0.318123
Si Si3 0.271895 0.560319 0.182703
Si Si4 0.907205 0.739839 0.819072
Si Si5 0.596139 0.794744 0.316798
Si Si6 0.226058 0.159055 0.182774
Si Si7 0.094478 0.064571 0.683419
O O1 0.905435 0.398971 0.500000
O O2 0.829027 0.434638 0.753747
O O3 0.888355 0.326417 0.740311
O O4 0.000000 0.416795 0.750000
O O5 0.500000 0.638613 0.250000
O O6 0.586691 0.657869 0.500000
O O7 0.670829 0.616262 0.256155
O O8 0.616080 0.727308 0.263704
O O9 0.314519 0.500000 0.250000
O O10 0.271561 0.557447 0.000000
O O11 0.825096 0.781141 0.765997
O O12 0.000000 0.765110 0.750000
O O13 0.919272 0.740491 0.000000
O O14 0.500000 0.815486 0.250000
O O15 0.595952 0.801385 0.500000
O O16 0.671848 0.836886 0.243593
O O17 0.177930 0.104338 0.264094
O O18 0.224994 0.149740 0.000000
O O19 0.088315 0.062221 0.500000
O O20 0.000000 0.090074 0.750000
O O21 0.112380 0.000000 0.750000
#
# Coordination Sequence:
#
# PCOD8203871 Si02
#       7
#     8   8   8   8   8   8   8
#     4  10  20  36  55  76 102 136 173 215 264 318
#     4   9  20  37  58  81 108 139 174 216 269 326
#     4  11  23  38  54  76 102 133 173 219 265 318
#     4   9  19  32  50  77 109 140 173 213 264 320
#     4  10  20  36  57  83 111 143 180 224 274 327
#     4  11  21  34  54  83 115 149 186 227 272 323
#     4  11  22  38  58  83 116 156 197 237 276 320
#
# _framework density 19.266463999999999
#
# number of rings (size 3 to 8) (size 9 to 14) (size 15 to 20)
#    0.000    1.857    0.000    4.714    0.000    5.143 
#    0.000    2.857    0.000    0.429    0.000    3.000 
#    0.000    0.000    0.000    0.000    0.000    0.000 
#
# Total GULP energy -694614.958729 kJ/mol
# GULP energy per Si atom -12403.838549 kJ/mol
# Density = 1.922261 g / cm^3
# Si number density = 19.266464 Si / 1000 Ang^3
#
#
#
# Elastic Constant Matrix: (Units=GPa)
#
#
# Indices 1 2 3 4 5 6 
#
# 1 138.1638 57.0292 43.9416 0.0000 0.0000 0.0000
# 2 57.0292 76.0439 35.7938 0.0000 0.0000 0.0000
# 3 43.9416 35.7938 86.3945 0.0000 0.0000 0.0000
# 4 0.0000 0.0000 0.0000 28.3207 0.0000 0.0000
# 5 0.0000 0.0000 0.0000 0.0000 35.4206 0.0000
# 6 0.0000 0.0000 0.0000 0.0000 0.0000 24.0065
#
#
#
# Elastic Compliance Matrix: (Units=1/GPa)
#
#
# Indices 1 2 3 4 5 6 
#
# 1 0.010966 -0.006955 -0.002696 0.000000 0.000000 0.000000
# 2 -0.006955 0.020747 -0.005058 0.000000 0.000000 0.000000
# 3 -0.002696 -0.005058 0.015042 0.000000 0.000000 0.000000
# 4 0.000000 0.000000 0.000000 0.035310 0.000000 0.000000
# 5 0.000000 0.000000 0.000000 0.000000 0.028232 0.000000
# 6 0.000000 0.000000 0.000000 0.000000 0.000000 0.041655
#
#
# Mechanical properties :
#
#
# Convention : Reuss Voigt Hill
#
# Bulk Modulus (GPa) = 57.68217 63.79239 60.73728
# Shear Modulus (GPa) = 26.71663 28.47206 27.59434
#
# Velocity S-wave (km/s) = 3.72787 3.84839 3.78861
# Velocity P-wave (km/s) = 6.96660 7.27525 7.12260
#
# Compressibility (1/GPa) = 0.01733638
#
# Stress axis : x y z
#
# Youngs Moduli (GPa) = 91.19117 48.19958 66.48180
#
# Poissons Ratio (x) = 0.33522 0.17923
# Poissons Ratio (y) = 0.63423 0.33628
# Poissons Ratio (z) = 0.24585 0.24381
#
# Static dielectric constant tensor:
#      x y z
#    x 3.460380 0.000000 0.000000 
#    y 0.000000 3.549970 0.000000 
#    z 0.000000 0.000000 3.473390 
# 
# 
# High freq. dielectric constant tensor:
#      x y z
#    x 1.750280 0.000000 0.000000 
#    y 0.000000 1.737520 0.000000 
#    z 0.000000 0.000000 1.757080 
# 
# From -- ./inp_files/4004.got.cif
#   From: 2010.03.12/outbox.cif.g09.slc.cpg/sg49_3_cif.got.tgz:4004.got - 2010.04.14 03:58:27.
