data_PCOD8203611
_publ_section_title
;
Structure prediction by ZEFSAII (Michael W. Deem and Ramdas Pophale) SiO2 
 PCOD8203611
Probable space group: P C C M
;
_chemical_formula_sum "Si O2"
_cell_formula_units_Z 48
_cell_length_a 9.458226
_cell_length_b 30.445518
_cell_length_c 8.548395
_cell_angle_alpha 90.000000
_cell_angle_beta 90.000000
_cell_angle_gamma 90.000000
_cell_volume 2461.600867
_symmetry_space_group_name_H-M "P C C M"
_symmetry_group_IT_number 49
_symmetry_cell_setting 'orthorhombic'
loop_
_space_group_symop_operation_xyz
x,y,z
-x,-y,z
x,-y,1/2-z
-x,y,1/2-z
-x,-y,-z
x,y,-z
-x,y,1/2+z
x,-y,1/2+z
loop_
_atom_site_type_symbol
_atom_site_label
_atom_site_fract_x
_atom_site_fract_y
_atom_site_fract_z
Si Si1 0.842833 0.200160 0.185479
Si Si2 0.350513 0.279465 0.316155
Si Si3 0.350507 0.622597 0.185174
Si Si4 0.343567 0.877983 0.685160
Si Si5 0.155582 0.545028 0.185327
Si Si6 0.850625 0.951659 0.685617
O O1 0.773961 0.246649 0.234457
O O2 0.753236 0.162531 0.266933
O O3 0.000000 0.199236 0.250000
O O4 0.842415 0.192632 0.000000
O O5 0.500000 0.262704 0.250000
O O6 0.367614 0.280248 0.500000
O O7 0.312768 0.328339 0.252806
O O8 0.500000 0.607266 0.250000
O O9 0.238722 0.587418 0.249280
O O10 0.354620 0.622104 0.000000
O O11 0.500000 0.870548 0.750000
O O12 0.349047 0.882473 0.500000
O O13 0.278590 0.921992 0.758002
O O14 0.225459 0.500000 0.250000
O O15 0.000000 0.549965 0.250000
O O16 0.153997 0.543028 0.000000
O O17 0.857712 0.952548 0.500000
O O18 0.000000 0.932993 0.750000
O O19 0.822465 0.000000 0.750000
#
# Coordination Sequence:
#
# PCOD8203611 Si02
#       6
#     8   8   8   8   8   8
#     4  11  23  39  59  85 115 149 188 233 280 333
#     4   9  19  36  57  80 109 142 180 223 273 328
#     4   9  19  35  54  78 106 139 177 221 269 325
#     4  12  25  42  62  87 118 154 194 238 286 338
#     4  10  20  34  52  74 103 137 177 220 268 321
#     4  11  22  40  64  92 123 158 197 239 287 338
#
# _framework density 19.499504999999999
#
# number of rings (size 3 to 8) (size 9 to 14) (size 15 to 20)
#    0.000    1.667    0.000    6.000    0.000    5.333 
#    0.000    3.333    0.000    0.000    0.000    0.000 
#    0.000    0.000    0.000    0.000    0.000    0.000 
#
# Total GULP energy -595278.205948 kJ/mol
# GULP energy per Si atom -12401.629291 kJ/mol
# Density = 1.945512 g / cm^3
# Si number density = 19.499505 Si / 1000 Ang^3
#
#
#
# Elastic Constant Matrix: (Units=GPa)
#
#
# Indices 1 2 3 4 5 6 
#
# 1 140.5269 83.4072 43.7710 0.0000 0.0000 0.0000
# 2 83.4072 127.5729 47.1317 0.0000 0.0000 0.0000
# 3 43.7710 47.1317 104.8296 0.0000 0.0000 0.0000
# 4 0.0000 0.0000 0.0000 28.5514 0.0000 0.0000
# 5 0.0000 0.0000 0.0000 0.0000 35.1825 0.0000
# 6 0.0000 0.0000 0.0000 0.0000 0.0000 53.6658
#
#
#
# Elastic Compliance Matrix: (Units=1/GPa)
#
#
# Indices 1 2 3 4 5 6 
#
# 1 0.011894 -0.007125 -0.001763 0.000000 0.000000 0.000000
# 2 -0.007125 0.013668 -0.003170 0.000000 0.000000 0.000000
# 3 -0.001763 -0.003170 0.011701 0.000000 0.000000 0.000000
# 4 0.000000 0.000000 0.000000 0.035025 0.000000 0.000000
# 5 0.000000 0.000000 0.000000 0.000000 0.028423 0.000000
# 6 0.000000 0.000000 0.000000 0.000000 0.000000 0.018634
#
#
# Mechanical properties :
#
#
# Convention : Reuss Voigt Hill
#
# Bulk Modulus (GPa) = 76.06468 80.17214 78.11841
# Shear Modulus (GPa) = 33.81956 36.72125 35.27040
#
# Velocity S-wave (km/s) = 4.16911 4.34428 4.25759
# Velocity P-wave (km/s) = 7.89104 8.14665 8.01986
#
# Compressibility (1/GPa) = 0.01314671
#
# Stress axis : x y z
#
# Youngs Moduli (GPa) = 84.07496 73.16199 85.46478
#
# Poissons Ratio (x) = 0.52129 0.15066
# Poissons Ratio (y) = 0.59904 0.27095
# Poissons Ratio (z) = 0.14821 0.23194
#
# Static dielectric constant tensor:
#      x y z
#    x 3.686150 0.000000 0.000000 
#    y 0.000000 4.121850 0.000000 
#    z 0.000000 0.000000 2.766640 
# 
# 
# High freq. dielectric constant tensor:
#      x y z
#    x 1.759050 0.000000 0.000000 
#    y 0.000000 1.776000 0.000000 
#    z 0.000000 0.000000 1.767910 
# 
# From -- ./inp_files/2080.got.cif
#   From: 2010.03.12/outbox.cif.g09.slc.cpg/sg49_2_cif.got.tgz:2080.got - 2010.04.14 03:58:27.
