data_PCOD8203827
_publ_section_title
;
Structure prediction by ZEFSAII (Michael W. Deem and Ramdas Pophale) SiO2 
 PCOD8203827
Probable space group: P C C M
;
_chemical_formula_sum "Si O2"
_cell_formula_units_Z 64
_cell_length_a 13.410321
_cell_length_b 14.183324
_cell_length_c 15.803971
_cell_angle_alpha 90.000000
_cell_angle_beta 90.000000
_cell_angle_gamma 90.000000
_cell_volume 3005.961553
_symmetry_space_group_name_H-M "P C C M"
_symmetry_group_IT_number 49
_symmetry_cell_setting 'orthorhombic'
loop_
_space_group_symop_operation_xyz
x,y,z
-x,-y,z
x,-y,1/2-z
-x,y,1/2-z
-x,-y,-z
x,y,-z
-x,y,1/2+z
x,-y,1/2+z
loop_
_atom_site_type_symbol
_atom_site_label
_atom_site_fract_x
_atom_site_fract_y
_atom_site_fract_z
Si Si1 0.890873 0.523546 0.652738
Si Si2 0.110945 0.803045 0.596945
Si Si3 0.268855 0.911544 0.313341
Si Si4 0.618813 0.722032 0.761609
Si Si5 0.400437 0.036465 0.595747
Si Si6 0.742231 0.370691 0.404625
Si Si7 0.094528 0.272910 0.404722
Si Si8 0.690374 0.230026 0.096115
O O1 0.888586 0.500000 0.750000
O O2 0.799898 0.469729 0.606954
O O3 0.874693 0.634857 0.646712
O O4 0.000000 0.500000 0.613120
O O5 0.107308 0.839852 0.500000
O O6 0.157810 0.880354 0.659980
O O7 0.174396 0.708592 0.604624
O O8 0.000247 0.782220 0.633186
O O9 0.336405 0.824559 0.283405
O O10 0.266932 0.000000 0.250000
O O11 0.319090 0.953830 0.397730
O O12 0.500000 0.722284 0.750000
O O13 0.655233 0.647539 0.834222
O O14 0.661265 0.692517 0.667820
O O15 0.427403 0.056843 0.500000
O O16 0.363641 0.136406 0.631000
O O17 0.500000 0.000000 0.644249
O O18 0.695699 0.368970 0.500000
O O19 0.066949 0.303604 0.500000
O O20 0.191589 0.206238 0.401676
O O21 0.659863 0.261306 0.000000
#
# Coordination Sequence:
#
# PCOD8203827 Si02
#       8
#     8   8   8   8   8   8   8   8
#     4  11  21  34  59  98 132 165 205 253 306 372
#     4   9  19  36  57  84 120 166 209 256 311 371
#     4  11  21  34  56  83 117 159 205 260 315 372
#     4  11  23  39  62  89 124 166 213 266 321 373
#     4  10  20  35  57  81 108 148 203 266 318 363
#     4  10  21  38  61  93 133 171 213 262 314 375
#     4  10  20  37  63  88 122 165 203 249 307 372
#     4  10  21  38  59  88 119 156 206 259 315 375
#
# _framework density 21.291025000000001
#
# number of rings (size 3 to 8) (size 9 to 14) (size 15 to 20)
#    0.000    1.750    2.500    2.250    0.000    1.500 
#    0.000    0.625    2.750    6.375    0.000    5.250 
#    0.000    0.000    0.000    0.000    0.000    0.000 
#
# Total GULP energy -792933.993021 kJ/mol
# GULP energy per Si atom -12389.593641 kJ/mol
# Density = 2.124257 g / cm^3
# Si number density = 21.291025 Si / 1000 Ang^3
#
#
#
# Elastic Constant Matrix: (Units=GPa)
#
#
# Indices 1 2 3 4 5 6 
#
# 1 150.9459 53.0451 62.1299 0.0000 0.0000 0.0000
# 2 53.0451 74.4715 25.5909 0.0000 0.0000 0.0000
# 3 62.1299 25.5909 100.8585 0.0000 0.0000 0.0000
# 4 0.0000 0.0000 0.0000 19.6858 0.0000 0.0000
# 5 0.0000 0.0000 0.0000 0.0000 24.3261 0.0000
# 6 0.0000 0.0000 0.0000 0.0000 0.0000 27.5758
#
#
#
# Elastic Compliance Matrix: (Units=1/GPa)
#
#
# Indices 1 2 3 4 5 6 
#
# 1 0.010843 -0.005946 -0.005170 0.000000 0.000000 0.000000
# 2 -0.005946 0.017972 -0.000897 0.000000 0.000000 0.000000
# 3 -0.005170 -0.000897 0.013328 0.000000 0.000000 0.000000
# 4 0.000000 0.000000 0.000000 0.050798 0.000000 0.000000
# 5 0.000000 0.000000 0.000000 0.000000 0.041108 0.000000
# 6 0.000000 0.000000 0.000000 0.000000 0.000000 0.036264
#
#
# Mechanical properties :
#
#
# Convention : Reuss Voigt Hill
#
# Bulk Modulus (GPa) = 55.20473 67.53421 61.36947
# Shear Modulus (GPa) = 24.95289 26.68486 25.81888
#
# Velocity S-wave (km/s) = 3.42715 3.54409 3.48611
# Velocity P-wave (km/s) = 6.45332 6.96677 6.71496
#
# Compressibility (1/GPa) = 0.01811439
#
# Stress axis : x y z
#
# Youngs Moduli (GPa) = 92.22756 55.64295 75.03274
#
# Poissons Ratio (x) = 0.33088 0.38795
# Poissons Ratio (y) = 0.54842 0.06730
# Poissons Ratio (z) = 0.47686 0.04991
#
# Static dielectric constant tensor:
#      x y z
#    x 4.038460 0.000000 0.000000 
#    y 0.000000 3.702280 0.000000 
#    z 0.000000 0.000000 4.045470 
# 
# 
# High freq. dielectric constant tensor:
#      x y z
#    x 1.830170 0.000000 0.000000 
#    y 0.000000 1.805460 0.000000 
#    z 0.000000 0.000000 1.847680 
# 
# From -- ./inp_files/17290.got.cif
#   From: 2010.03.12/outbox.cif.g09.slc.cpg/sg49_9_cif.got.tgz:17290.got - 2010.04.14 03:58:27.
