data_PCOD8203036
_publ_section_title
;
Structure prediction by ZEFSAII (Michael W. Deem and Ramdas Pophale) SiO2 
 PCOD8203036
Probable space group: P C C M
;
_chemical_formula_sum "Si O2"
_cell_formula_units_Z 52
_cell_length_a 15.290918
_cell_length_b 6.563230
_cell_length_c 27.869725
_cell_angle_alpha 90.000000
_cell_angle_beta 90.000000
_cell_angle_gamma 90.000000
_cell_volume 2796.944615
_symmetry_space_group_name_H-M "P C C M"
_symmetry_group_IT_number 49
_symmetry_cell_setting 'orthorhombic'
loop_
_space_group_symop_operation_xyz
x,y,z
-x,-y,z
x,-y,1/2-z
-x,y,1/2-z
-x,-y,-z
x,y,-z
-x,y,1/2+z
x,-y,1/2+z
loop_
_atom_site_type_symbol
_atom_site_label
_atom_site_fract_x
_atom_site_fract_y
_atom_site_fract_z
Si Si1 0.000000 0.000000 0.830451
Si Si2 0.120550 0.639847 0.702183
Si Si3 0.149127 0.736691 0.138949
Si Si4 0.398090 0.038054 0.115490
Si Si5 0.266355 0.033507 0.196875
Si Si6 0.410003 0.598358 0.447923
Si Si7 0.720717 0.248117 0.946529
O O1 0.068007 0.890873 0.865825
O O2 0.954586 0.818035 0.798479
O O3 0.111205 0.500000 0.750000
O O4 0.116568 0.485761 0.656723
O O5 0.212302 0.755876 0.696717
O O6 0.193324 0.727555 0.086528
O O7 0.212148 0.836688 0.179005
O O8 0.354870 0.047917 0.167217
O O9 0.379344 0.253571 0.092908
O O10 0.500000 0.000000 0.121043
O O11 0.353211 0.881662 0.079641
O O12 0.299504 0.000000 0.250000
O O13 0.500000 0.500000 0.429710
O O14 0.429343 0.701936 0.500000
O O15 0.325519 0.460807 0.454118
O O16 0.746135 0.162207 0.000000
#
# Coordination Sequence:
#
# PCOD8203036 Si02
#       7
#     4   8   8   8   8   8   8
#     4  10  24  37  57  94 118 140 191 234 283 348
#     4  11  21  38  62  84 115 152 182 237 291 338
#     4  10  21  38  58  83 118 154 183 231 288 337
#     4  11  21  34  57  82 114 153 190 242 292 329
#     4  10  21  38  54  80 115 151 198 229 274 348
#     4  10  19  32  53  82 112 140 186 243 290 338
#     4  10  21  37  59  85 114 151 195 236 284 342
#
# _framework density 18.591718
#
# number of rings (size 3 to 8) (size 9 to 14) (size 15 to 20)
#    0.000    1.692    3.077    1.846    0.000    2.769 
#    0.000    0.385    0.000    1.846    0.000    0.000 
#    0.000    0.000    0.000    0.000    0.000    0.000 
#
# Total GULP energy -644306.712464 kJ/mol
# GULP energy per Si atom -12390.513701 kJ/mol
# Density = 1.854940 g / cm^3
# Si number density = 18.591718 Si / 1000 Ang^3
#
#
#
# Elastic Constant Matrix: (Units=GPa)
#
#
# Indices 1 2 3 4 5 6 
#
# 1 105.3491 50.8363 70.1893 0.0000 0.0000 0.0000
# 2 50.8363 99.5864 54.1050 0.0000 0.0000 0.0000
# 3 70.1893 54.1050 140.0235 0.0000 0.0000 0.0000
# 4 0.0000 0.0000 0.0000 20.2891 0.0000 0.0000
# 5 0.0000 0.0000 0.0000 0.0000 28.6393 0.0000
# 6 0.0000 0.0000 0.0000 0.0000 0.0000 27.1037
#
#
#
# Elastic Compliance Matrix: (Units=1/GPa)
#
#
# Indices 1 2 3 4 5 6 
#
# 1 0.015869 -0.004783 -0.006106 0.000000 0.000000 0.000000
# 2 -0.004783 0.014151 -0.003071 0.000000 0.000000 0.000000
# 3 -0.006106 -0.003071 0.011389 0.000000 0.000000 0.000000
# 4 0.000000 0.000000 0.000000 0.049288 0.000000 0.000000
# 5 0.000000 0.000000 0.000000 0.000000 0.034917 0.000000
# 6 0.000000 0.000000 0.000000 0.000000 0.000000 0.036895
#
#
# Mechanical properties :
#
#
# Convention : Reuss Voigt Hill
#
# Bulk Modulus (GPa) = 74.13246 77.24668 75.68957
# Shear Modulus (GPa) = 25.65090 26.52831 26.08960
#
# Velocity S-wave (km/s) = 3.71845 3.78152 3.75012
# Velocity P-wave (km/s) = 7.64175 7.79138 7.71693
#
# Compressibility (1/GPa) = 0.01348937
#
# Stress axis : x y z
#
# Youngs Moduli (GPa) = 63.01741 70.66471 87.80420
#
# Poissons Ratio (x) = 0.33799 0.53616
# Poissons Ratio (y) = 0.30141 0.26960
# Poissons Ratio (z) = 0.38480 0.21698
#
# Static dielectric constant tensor:
#      x y z
#    x 3.381670 0.000000 0.000000 
#    y 0.000000 3.576520 0.000000 
#    z 0.000000 0.000000 3.441420 
# 
# 
# High freq. dielectric constant tensor:
#      x y z
#    x 1.717240 0.000000 0.000000 
#    y 0.000000 1.729690 0.000000 
#    z 0.000000 0.000000 1.712030 
# 
# From -- ./inp_files/25139.got.cif
#   From: 2010.03.12/outbox.cif.g09.slc.cpg/sg49_13_cif.got.tgz:25139.got - 2010.04.14 03:58:27.
