data_PCOD8203379
_publ_section_title
;
Structure prediction by ZEFSAII (Michael W. Deem and Ramdas Pophale) SiO2 
 PCOD8203379
Probable space group: P C C M
;
_chemical_formula_sum "Si O2"
_cell_formula_units_Z 56
_cell_length_a 14.123051
_cell_length_b 11.163945
_cell_length_c 16.515066
_cell_angle_alpha 90.000000
_cell_angle_beta 90.000000
_cell_angle_gamma 90.000000
_cell_volume 2603.913356
_symmetry_space_group_name_H-M "P C C M"
_symmetry_group_IT_number 49
_symmetry_cell_setting 'orthorhombic'
loop_
_space_group_symop_operation_xyz
x,y,z
-x,-y,z
x,-y,1/2-z
-x,y,1/2-z
-x,-y,-z
x,y,-z
-x,y,1/2+z
x,-y,1/2+z
loop_
_atom_site_type_symbol
_atom_site_label
_atom_site_fract_x
_atom_site_fract_y
_atom_site_fract_z
Si Si1 0.029679 0.299420 0.841567
Si Si2 0.853266 0.164205 0.092486
Si Si3 0.836656 0.107122 0.594340
Si Si4 0.313658 0.729037 0.361764
Si Si5 0.714798 0.318417 0.175136
Si Si6 0.179279 0.468736 0.090292
Si Si7 0.508859 0.633332 0.345767
O O1 0.105310 0.192664 0.845798
O O2 0.077753 0.420270 0.876776
O O3 0.000000 0.323432 0.750000
O O4 0.939860 0.255209 0.893211
O O5 0.763947 0.196991 0.147221
O O6 0.872393 0.026006 0.114732
O O7 0.822355 0.173824 0.000000
O O8 0.857028 0.135840 0.500000
O O9 0.725976 0.136910 0.617453
O O10 0.295428 0.682973 0.270997
O O11 0.254562 0.638601 0.417680
O O12 0.426000 0.719438 0.381553
O O13 0.781066 0.429623 0.149903
O O14 0.612833 0.320059 0.130698
O O15 0.164393 0.521812 0.000000
O O16 0.500000 0.500000 0.382238
O O17 0.500000 0.628474 0.250000
#
# Coordination Sequence:
#
# PCOD8203379 Si02
#       7
#     8   8   8   8   8   8   8
#     4  11  23  39  62  89 114 153 205 252 288 348
#     4  11  23  40  59  83 121 161 195 243 303 354
#     4  10  22  41  63  86 115 154 199 248 302 358
#     4  10  19  36  63  89 116 153 200 251 294 342
#     4  11  22  37  60  89 121 156 199 243 291 353
#     4  11  22  38  58  86 123 156 192 237 296 358
#     4   9  17  34  59  89 119 153 193 243 294 348
#
# _framework density 21.506091999999999
#
# number of rings (size 3 to 8) (size 9 to 14) (size 15 to 20)
#    0.000    1.571    1.429    5.571    0.000    4.571 
#    0.000    7.857    0.000    4.286    0.000    0.000 
#    0.000    0.000    0.000    0.000    0.000    0.000 
#
# Total GULP energy -694139.882434 kJ/mol
# GULP energy per Si atom -12395.355043 kJ/mol
# Density = 2.145714 g / cm^3
# Si number density = 21.506092 Si / 1000 Ang^3
#
#
#
# Elastic Constant Matrix: (Units=GPa)
#
#
# Indices 1 2 3 4 5 6 
#
# 1 139.6007 39.3917 27.5438 0.0000 0.0000 0.0000
# 2 39.3917 40.0955 26.9813 0.0000 0.0000 0.0000
# 3 27.5438 26.9813 76.6006 0.0000 0.0000 0.0000
# 4 0.0000 0.0000 0.0000 21.4690 0.0000 0.0000
# 5 0.0000 0.0000 0.0000 0.0000 11.4937 0.0000
# 6 0.0000 0.0000 0.0000 0.0000 0.0000 25.4328
#
#
#
# Elastic Compliance Matrix: (Units=1/GPa)
#
#
# Indices 1 2 3 4 5 6 
#
# 1 0.009913 -0.009620 -0.000176 0.000000 0.000000 0.000000
# 2 -0.009620 0.042025 -0.011343 0.000000 0.000000 0.000000
# 3 -0.000176 -0.011343 0.017113 0.000000 0.000000 0.000000
# 4 0.000000 0.000000 0.000000 0.046579 0.000000 0.000000
# 5 0.000000 0.000000 0.000000 0.000000 0.087004 0.000000
# 6 0.000000 0.000000 0.000000 0.000000 0.000000 0.039319
#
#
# Mechanical properties :
#
#
# Convention : Reuss Voigt Hill
#
# Bulk Modulus (GPa) = 37.35211 49.34783 43.34997
# Shear Modulus (GPa) = 17.05574 22.50444 19.78009
#
# Velocity S-wave (km/s) = 2.81920 3.23835 3.03602
# Velocity P-wave (km/s) = 5.29179 6.08098 5.70006
#
# Compressibility (1/GPa) = 0.02677225
#
# Stress axis : x y z
#
# Youngs Moduli (GPa) = 100.88200 23.79522 58.43357
#
# Poissons Ratio (x) = 0.22892 0.01027
# Poissons Ratio (y) = 0.97052 0.66284
# Poissons Ratio (z) = 0.01773 0.26992
#
# Static dielectric constant tensor:
#      x y z
#    x 4.412030 0.000000 0.000000 
#    y 0.000000 3.894660 0.000000 
#    z 0.000000 0.000000 3.700870 
# 
# 
# High freq. dielectric constant tensor:
#      x y z
#    x 1.851110 0.000000 0.000000 
#    y 0.000000 1.827220 0.000000 
#    z 0.000000 0.000000 1.837390 
# 
# From -- ./inp_files/13554.got.cif
#   From: 2010.03.12/outbox.cif.g09.slc.cpg/sg49_7_cif.got.tgz:13554.got - 2010.04.14 03:58:27.
