data_PCOD8203783
_publ_section_title
;
Structure prediction by ZEFSAII (Michael W. Deem and Ramdas Pophale) SiO2 
 PCOD8203783
Probable space group: P C C M
;
_chemical_formula_sum "Si O2"
_cell_formula_units_Z 48
_cell_length_a 9.575925
_cell_length_b 30.333500
_cell_length_c 8.699425
_cell_angle_alpha 90.000000
_cell_angle_beta 90.000000
_cell_angle_gamma 90.000000
_cell_volume 2526.933472
_symmetry_space_group_name_H-M "P C C M"
_symmetry_group_IT_number 49
_symmetry_cell_setting 'orthorhombic'
loop_
_space_group_symop_operation_xyz
x,y,z
-x,-y,z
x,-y,1/2-z
-x,y,1/2-z
-x,-y,-z
x,y,-z
-x,y,1/2+z
x,-y,1/2+z
loop_
_atom_site_type_symbol
_atom_site_label
_atom_site_fract_x
_atom_site_fract_y
_atom_site_fract_z
Si Si1 0.852515 0.283505 0.178550
Si Si2 0.848385 0.042058 0.822524
Si Si3 0.346328 0.213864 0.181887
Si Si4 0.652425 0.455304 0.681741
Si Si5 0.846096 0.860436 0.680342
Si Si6 0.853571 0.613721 0.678610
O O1 0.727257 0.258441 0.261595
O O2 0.824827 0.334901 0.205687
O O3 0.000000 0.268673 0.250000
O O4 0.855106 0.270971 0.000000
O O5 0.782411 0.090315 0.791763
O O6 0.000000 0.043243 0.750000
O O7 0.763848 0.000000 0.750000
O O8 0.862376 0.032443 0.000000
O O9 0.500000 0.211300 0.250000
O O10 0.259230 0.171922 0.236276
O O11 0.356220 0.214266 0.000000
O O12 0.721738 0.500000 0.750000
O O13 0.500000 0.449493 0.750000
O O14 0.644939 0.459093 0.500000
O O15 0.736821 0.412444 0.730076
O O16 0.854687 0.849426 0.500000
O O17 0.000000 0.854956 0.750000
O O18 0.851171 0.601194 0.500000
O O19 0.000000 0.599455 0.750000
#
# Coordination Sequence:
#
# PCOD8203783 Si02
#       6
#     8   8   8   8   8   8
#     4  10  21  39  62  86 114 146 182 225 273 328
#     4   9  16  26  45  73 106 139 174 219 266 315
#     4  12  25  40  58  80 109 144 183 228 276 327
#     4  11  22  38  59  83 114 151 191 233 277 327
#     4  10  20  35  55  81 111 145 184 224 271 324
#     4  10  21  38  60  87 116 147 184 227 276 327
#
# _framework density 18.995356999999998
#
# number of rings (size 3 to 8) (size 9 to 14) (size 15 to 20)
#    0.000    1.667    0.000    6.500    0.000    5.000 
#    0.000    1.667    0.000    0.500    0.000    3.500 
#    0.000    0.000    0.000    0.000    0.000    0.000 
#
# Total GULP energy -595151.563995 kJ/mol
# GULP energy per Si atom -12398.990917 kJ/mol
# Density = 1.895212 g / cm^3
# Si number density = 18.995357 Si / 1000 Ang^3
#
#
#
# Elastic Constant Matrix: (Units=GPa)
#
#
# Indices 1 2 3 4 5 6 
#
# 1 105.0996 63.1237 63.8712 0.0000 0.0000 0.0000
# 2 63.1237 109.7014 68.9615 0.0000 0.0000 0.0000
# 3 63.8712 68.9615 178.3850 0.0000 0.0000 0.0000
# 4 0.0000 0.0000 0.0000 39.4574 0.0000 0.0000
# 5 0.0000 0.0000 0.0000 0.0000 33.5180 0.0000
# 6 0.0000 0.0000 0.0000 0.0000 0.0000 17.6373
#
#
#
# Elastic Compliance Matrix: (Units=1/GPa)
#
#
# Indices 1 2 3 4 5 6 
#
# 1 0.015517 -0.007181 -0.002780 0.000000 0.000000 0.000000
# 2 -0.007181 0.015366 -0.003369 0.000000 0.000000 0.000000
# 3 -0.002780 -0.003369 0.007904 0.000000 0.000000 0.000000
# 4 0.000000 0.000000 0.000000 0.025344 0.000000 0.000000
# 5 0.000000 0.000000 0.000000 0.000000 0.029835 0.000000
# 6 0.000000 0.000000 0.000000 0.000000 0.000000 0.056698
#
#
# Mechanical properties :
#
#
# Convention : Reuss Voigt Hill
#
# Bulk Modulus (GPa) = 82.46457 87.23323 84.84890
# Shear Modulus (GPa) = 27.56865 31.27118 29.41992
#
# Velocity S-wave (km/s) = 3.81377 4.06181 3.93974
# Velocity P-wave (km/s) = 7.93098 8.24748 8.09077
#
# Compressibility (1/GPa) = 0.01212642
#
# Stress axis : x y z
#
# Youngs Moduli (GPa) = 64.44408 65.07994 126.52596
#
# Poissons Ratio (x) = 0.46737 0.35171
# Poissons Ratio (y) = 0.46280 0.42625
# Poissons Ratio (z) = 0.17914 0.21925
#
# Static dielectric constant tensor:
#      x y z
#    x 3.240170 0.000000 0.000000 
#    y 0.000000 4.178350 0.000000 
#    z 0.000000 0.000000 3.780310 
# 
# 
# High freq. dielectric constant tensor:
#      x y z
#    x 1.708560 0.000000 0.000000 
#    y 0.000000 1.760520 0.000000 
#    z 0.000000 0.000000 1.762220 
# 
# From -- ./inp_files/2047.got.cif
#   From: 2010.03.12/outbox.cif.g09.slc.cpg/sg49_2_cif.got.tgz:2047.got - 2010.04.14 03:58:27.
