data_PCOD8203662
_publ_section_title
;
Structure prediction by ZEFSAII (Michael W. Deem and Ramdas Pophale) SiO2 
 PCOD8203662
Probable space group: P C C M
;
_chemical_formula_sum "Si O2"
_cell_formula_units_Z 64
_cell_length_a 25.635362
_cell_length_b 14.611097
_cell_length_c 8.798683
_cell_angle_alpha 90.000000
_cell_angle_beta 90.000000
_cell_angle_gamma 90.000000
_cell_volume 3295.641399
_symmetry_space_group_name_H-M "P C C M"
_symmetry_group_IT_number 49
_symmetry_cell_setting 'orthorhombic'
loop_
_space_group_symop_operation_xyz
x,y,z
-x,-y,z
x,-y,1/2-z
-x,y,1/2-z
-x,-y,-z
x,y,-z
-x,y,1/2+z
x,-y,1/2+z
loop_
_atom_site_type_symbol
_atom_site_label
_atom_site_fract_x
_atom_site_fract_y
_atom_site_fract_z
Si Si1 0.146204 0.096811 0.680297
Si Si2 0.358422 0.222097 0.679684
Si Si3 0.323415 0.400049 0.177967
Si Si4 0.893312 0.597548 0.676076
Si Si5 0.443927 0.095704 0.181197
Si Si6 0.207405 0.401876 0.175465
Si Si7 0.053425 0.222414 0.676387
Si Si8 0.263120 0.096134 0.678396
O O1 0.144593 0.090096 0.500000
O O2 0.103508 0.168499 0.742982
O O3 0.204910 0.125382 0.733728
O O4 0.130852 0.000000 0.750000
O O5 0.368291 0.217337 0.500000
O O6 0.359346 0.327471 0.734613
O O7 0.404954 0.174894 0.769859
O O8 0.304065 0.174060 0.727271
O O9 0.331389 0.500000 0.250000
O O10 0.264658 0.360344 0.201662
O O11 0.337468 0.405744 0.000000
O O12 0.907126 0.500000 0.750000
O O13 0.884536 0.580586 0.500000
O O14 0.840761 0.647938 0.740807
O O15 0.939715 0.669076 0.708044
O O16 0.500000 0.120056 0.250000
O O17 0.423460 0.000000 0.250000
O O18 0.447445 0.088265 0.000000
O O19 0.207863 0.500000 0.250000
O O20 0.193483 0.409871 0.000000
O O21 0.049158 0.201351 0.500000
O O22 0.000000 0.187540 0.750000
O O23 0.264093 0.081333 0.500000
O O24 0.280448 0.000000 0.750000
#
# Coordination Sequence:
#
# PCOD8203662 Si02
#       8
#     8   8   8   8   8   8   8   8
#     4   9  19  38  58  79 104 137 175 218 272 329
#     4  11  22  35  57  88 119 159 199 239 292 344
#     4  10  21  36  53  79 115 155 197 242 288 337
#     4  10  20  34  54  77 103 137 172 217 269 328
#     4  11  22  39  62  89 124 162 204 251 295 347
#     4   9  17  30  49  74 103 137 178 222 269 326
#     4  10  23  39  56  76 102 134 175 221 273 330
#     4   9  19  34  55  81 113 147 181 222 275 338
#
# _framework density 19.419587
#
# number of rings (size 3 to 8) (size 9 to 14) (size 15 to 20)
#    0.000    2.125    0.000    4.125    1.750    5.500 
#    0.000    2.500    0.000    0.375    0.000    2.625 
#    0.000    0.000    0.000    0.000    0.000    0.000 
#
# Total GULP energy -793317.579168 kJ/mol
# GULP energy per Si atom -12395.587175 kJ/mol
# Density = 1.937539 g / cm^3
# Si number density = 19.419587 Si / 1000 Ang^3
#
#
#
# Elastic Constant Matrix: (Units=GPa)
#
#
# Indices 1 2 3 4 5 6 
#
# 1 94.3259 58.2150 44.7326 0.0000 0.0000 0.0000
# 2 58.2150 102.8829 41.6201 0.0000 0.0000 0.0000
# 3 44.7326 41.6201 96.8933 0.0000 0.0000 0.0000
# 4 0.0000 0.0000 0.0000 29.0521 0.0000 0.0000
# 5 0.0000 0.0000 0.0000 0.0000 41.1111 0.0000
# 6 0.0000 0.0000 0.0000 0.0000 0.0000 6.8265
#
#
#
# Elastic Compliance Matrix: (Units=1/GPa)
#
#
# Indices 1 2 3 4 5 6 
#
# 1 0.017927 -0.008225 -0.004743 0.000000 0.000000 0.000000
# 2 -0.008225 0.015538 -0.002877 0.000000 0.000000 0.000000
# 3 -0.004743 -0.002877 0.013746 0.000000 0.000000 0.000000
# 4 0.000000 0.000000 0.000000 0.034421 0.000000 0.000000
# 5 0.000000 0.000000 0.000000 0.000000 0.024324 0.000000
# 6 0.000000 0.000000 0.000000 0.000000 0.000000 0.146487
#
#
# Mechanical properties :
#
#
# Convention : Reuss Voigt Hill
#
# Bulk Modulus (GPa) = 64.43095 64.80417 64.61756
# Shear Modulus (GPa) = 17.28262 25.36690 21.32476
#
# Velocity S-wave (km/s) = 2.98645 3.61813 3.31736
# Velocity P-wave (km/s) = 6.71880 7.13425 6.92964
#
# Compressibility (1/GPa) = 0.01552049
#
# Stress axis : x y z
#
# Youngs Moduli (GPa) = 55.78107 64.35997 72.74697
#
# Poissons Ratio (x) = 0.52936 0.34507
# Poissons Ratio (y) = 0.45880 0.20929
# Poissons Ratio (z) = 0.26459 0.18516
#
# Static dielectric constant tensor:
#      x y z
#    x 3.961980 0.000000 0.000000 
#    y 0.000000 3.399830 0.000000 
#    z 0.000000 0.000000 3.574010 
# 
# 
# High freq. dielectric constant tensor:
#      x y z
#    x 1.747890 0.000000 0.000000 
#    y 0.000000 1.747510 0.000000 
#    z 0.000000 0.000000 1.761000 
# 
# From -- ./inp_files/6561.got.cif
#   From: 2010.03.12/outbox.cif.g09.slc.cpg/sg49_4_cif.got.tgz:6561.got - 2010.04.14 03:58:27.
