data_PCOD8203460
_publ_section_title
;
Structure prediction by ZEFSAII (Michael W. Deem and Ramdas Pophale) SiO2 
 PCOD8203460
Probable space group: P C C M
;
_chemical_formula_sum "Si O2"
_cell_formula_units_Z 48
_cell_length_a 13.512644
_cell_length_b 24.297413
_cell_length_c 8.963645
_cell_angle_alpha 90.000000
_cell_angle_beta 90.000000
_cell_angle_gamma 90.000000
_cell_volume 2942.964471
_symmetry_space_group_name_H-M "P C C M"
_symmetry_group_IT_number 49
_symmetry_cell_setting 'orthorhombic'
loop_
_space_group_symop_operation_xyz
x,y,z
-x,-y,z
x,-y,1/2-z
-x,y,1/2-z
-x,-y,-z
x,y,-z
-x,y,1/2+z
x,-y,1/2+z
loop_
_atom_site_type_symbol
_atom_site_label
_atom_site_fract_x
_atom_site_fract_y
_atom_site_fract_z
Si Si1 0.400450 0.880654 0.826219
Si Si2 0.701739 0.217513 0.326587
Si Si3 0.201506 0.941832 0.824400
Si Si4 0.395477 0.671962 0.673293
Si Si5 0.606810 0.448239 0.674989
Si Si6 0.099795 0.158684 0.175464
O O1 0.500000 0.903133 0.750000
O O2 0.373087 0.820655 0.764606
O O3 0.313817 0.923824 0.789577
O O4 0.419752 0.874930 0.000000
O O5 0.679906 0.206984 0.500000
O O6 0.682171 0.280745 0.279376
O O7 0.815207 0.203310 0.288405
O O8 0.125799 0.899385 0.750369
O O9 0.181154 0.000000 0.750000
O O10 0.180731 0.944556 0.000000
O O11 0.500000 0.681947 0.750000
O O12 0.419393 0.675242 0.500000
O O13 0.346296 0.612020 0.710089
O O14 0.666383 0.500000 0.750000
O O15 0.500000 0.446892 0.750000
O O16 0.598487 0.459187 0.500000
O O17 0.000000 0.181767 0.250000
O O18 0.085277 0.150063 0.000000
#
# Coordination Sequence:
#
# PCOD8203460 Si02
#       6
#     8   8   8   8   8   8
#     4  10  20  32  47  67  92 121 150 181 216 255
#     4   9  18  32  48  66  89 116 147 182 220 263
#     4  10  21  36  52  71  93 116 146 181 216 257
#     4   9  17  27  40  61  88 119 152 183 215 251
#     4   9  15  23  35  52  79 114 151 185 214 246
#     4  10  20  35  54  72  91 114 140 175 221 270
#
# _framework density 16.310085999999998
#
# number of rings (size 3 to 8) (size 9 to 14) (size 15 to 20)
#    0.000    2.500    0.000    3.000    0.000    6.000 
#    0.000    3.333    0.000    0.000    0.000    0.000 
#    0.000    0.667    0.000    8.333    0.000    0.000 
#
# Total GULP energy -595004.999450 kJ/mol
# GULP energy per Si atom -12395.937489 kJ/mol
# Density = 1.627296 g / cm^3
# Si number density = 16.310086 Si / 1000 Ang^3
#
#
#
# Elastic Constant Matrix: (Units=GPa)
#
#
# Indices 1 2 3 4 5 6 
#
# 1 73.2377 33.9688 30.2037 0.0000 0.0000 0.0000
# 2 33.9688 133.2382 39.7719 0.0000 0.0000 0.0000
# 3 30.2037 39.7719 71.2196 0.0000 0.0000 0.0000
# 4 0.0000 0.0000 0.0000 20.3250 0.0000 0.0000
# 5 0.0000 0.0000 0.0000 0.0000 24.3780 0.0000
# 6 0.0000 0.0000 0.0000 0.0000 0.0000 13.5694
#
#
#
# Elastic Compliance Matrix: (Units=1/GPa)
#
#
# Indices 1 2 3 4 5 6 
#
# 1 0.017303 -0.002665 -0.005850 0.000000 0.000000 0.000000
# 2 -0.002665 0.009417 -0.004129 0.000000 0.000000 0.000000
# 3 -0.005850 -0.004129 0.018827 0.000000 0.000000 0.000000
# 4 0.000000 0.000000 0.000000 0.049201 0.000000 0.000000
# 5 0.000000 0.000000 0.000000 0.000000 0.041021 0.000000
# 6 0.000000 0.000000 0.000000 0.000000 0.000000 0.073695
#
#
# Mechanical properties :
#
#
# Convention : Reuss Voigt Hill
#
# Bulk Modulus (GPa) = 49.35709 53.95380 51.65544
# Shear Modulus (GPa) = 20.70356 23.23789 21.97072
#
# Velocity S-wave (km/s) = 3.56669 3.77869 3.67422
# Velocity P-wave (km/s) = 6.87671 7.22425 7.05262
#
# Compressibility (1/GPa) = 0.02026051
#
# Stress axis : x y z
#
# Youngs Moduli (GPa) = 57.79431 106.18805 53.11387
#
# Poissons Ratio (x) = 0.28301 0.31070
# Poissons Ratio (y) = 0.15403 0.21929
# Poissons Ratio (z) = 0.33807 0.43842
#
# Static dielectric constant tensor:
#      x y z
#    x 2.892020 0.000000 0.000000 
#    y 0.000000 3.720600 0.000000 
#    z 0.000000 0.000000 3.201900 
# 
# 
# High freq. dielectric constant tensor:
#      x y z
#    x 1.589440 0.000000 0.000000 
#    y 0.000000 1.630520 0.000000 
#    z 0.000000 0.000000 1.642380 
# 
# From -- ./inp_files/2886.got.cif
#   From: 2010.03.12/outbox.cif.g09.slc.cpg/sg49_2_cif.got.tgz:2886.got - 2010.04.14 03:58:27.
