data_PCOD8203259
_publ_section_title
;
Structure prediction by ZEFSAII (Michael W. Deem and Ramdas Pophale) SiO2 
 PCOD8203259
Probable space group: P C C M
;
_chemical_formula_sum "Si O2"
_cell_formula_units_Z 48
_cell_length_a 14.335725
_cell_length_b 20.549395
_cell_length_c 8.658717
_cell_angle_alpha 90.000000
_cell_angle_beta 90.000000
_cell_angle_gamma 90.000000
_cell_volume 2550.775559
_symmetry_space_group_name_H-M "P C C M"
_symmetry_group_IT_number 49
_symmetry_cell_setting 'orthorhombic'
loop_
_space_group_symop_operation_xyz
x,y,z
-x,-y,z
x,-y,1/2-z
-x,y,1/2-z
-x,-y,-z
x,y,-z
-x,y,1/2+z
x,-y,1/2+z
loop_
_atom_site_type_symbol
_atom_site_label
_atom_site_fract_x
_atom_site_fract_y
_atom_site_fract_z
Si Si1 0.710612 0.181772 0.321524
Si Si2 0.718698 0.567003 0.183349
Si Si3 0.602160 0.309768 0.682493
Si Si4 0.401536 0.069173 0.681161
Si Si5 0.094410 0.761200 0.320409
Si Si6 0.901606 0.378960 0.817139
O O1 0.686224 0.168731 0.500000
O O2 0.660248 0.247087 0.262003
O O3 0.677666 0.121245 0.220187
O O4 0.821598 0.188218 0.296872
O O5 0.676313 0.500000 0.250000
O O6 0.653521 0.625612 0.244078
O O7 0.822470 0.574778 0.248814
O O8 0.722028 0.565138 0.000000
O O9 0.500000 0.305627 0.750000
O O10 0.596245 0.311520 0.500000
O O11 0.500000 0.093070 0.750000
O O12 0.412785 0.061734 0.500000
O O13 0.371247 0.000000 0.750000
O O14 0.079927 0.744323 0.500000
O O15 0.118860 0.694838 0.233175
O O16 0.000000 0.792451 0.250000
O O17 0.000000 0.403257 0.750000
O O18 0.902497 0.384237 0.000000
#
# Coordination Sequence:
#
# PCOD8203259 Si02
#       6
#     8   8   8   8   8   8
#     4  10  20  37  59  85 117 153 187 233 282 329
#     4  11  23  41  58  79 109 145 186 234 287 340
#     4  10  22  39  58  80 111 144 185 233 282 333
#     4  11  22  37  58  86 120 157 194 234 279 336
#     4  10  19  34  56  84 118 150 186 231 280 331
#     4  11  21  35  57  83 111 145 183 228 281 340
#
# _framework density 18.817806999999998
#
# number of rings (size 3 to 8) (size 9 to 14) (size 15 to 20)
#    0.000    1.500    1.667    6.000    0.000    5.333 
#    0.000    3.333    0.000    0.500    0.000    3.500 
#    0.000    0.000    0.000    0.000    0.000    0.000 
#
# Total GULP energy -595400.063966 kJ/mol
# GULP energy per Si atom -12404.167999 kJ/mol
# Density = 1.877498 g / cm^3
# Si number density = 18.817807 Si / 1000 Ang^3
#
#
#
# Elastic Constant Matrix: (Units=GPa)
#
#
# Indices 1 2 3 4 5 6 
#
# 1 112.7402 55.5038 38.4515 0.0000 0.0000 0.0000
# 2 55.5038 109.4517 41.5608 0.0000 0.0000 0.0000
# 3 38.4515 41.5608 105.9661 0.0000 0.0000 0.0000
# 4 0.0000 0.0000 0.0000 24.5184 0.0000 0.0000
# 5 0.0000 0.0000 0.0000 0.0000 28.6559 0.0000
# 6 0.0000 0.0000 0.0000 0.0000 0.0000 29.4994
#
#
#
# Elastic Compliance Matrix: (Units=1/GPa)
#
#
# Indices 1 2 3 4 5 6 
#
# 1 0.012308 -0.005341 -0.002371 0.000000 0.000000 0.000000
# 2 -0.005341 0.013053 -0.003181 0.000000 0.000000 0.000000
# 3 -0.002371 -0.003181 0.011545 0.000000 0.000000 0.000000
# 4 0.000000 0.000000 0.000000 0.040786 0.000000 0.000000
# 5 0.000000 0.000000 0.000000 0.000000 0.034897 0.000000
# 6 0.000000 0.000000 0.000000 0.000000 0.000000 0.033899
#
#
# Mechanical properties :
#
#
# Convention : Reuss Voigt Hill
#
# Bulk Modulus (GPa) = 66.14345 66.57669 66.36007
# Shear Modulus (GPa) = 28.84911 29.37753 29.11332
#
# Velocity S-wave (km/s) = 3.91970 3.95543 3.93761
# Velocity P-wave (km/s) = 7.46399 7.50447 7.48425
#
# Compressibility (1/GPa) = 0.01511866
#
# Stress axis : x y z
#
# Youngs Moduli (GPa) = 81.24603 76.61060 86.61567
#
# Poissons Ratio (x) = 0.40919 0.20540
# Poissons Ratio (y) = 0.43395 0.27556
# Poissons Ratio (z) = 0.19267 0.24373
#
# Static dielectric constant tensor:
#      x y z
#    x 3.588770 0.000000 0.000000 
#    y 0.000000 3.374690 0.000000 
#    z 0.000000 0.000000 3.471170 
# 
# 
# High freq. dielectric constant tensor:
#      x y z
#    x 1.734060 0.000000 0.000000 
#    y 0.000000 1.717200 0.000000 
#    z 0.000000 0.000000 1.739480 
# 
# From -- ./inp_files/3728.got.cif
#   From: 2010.03.12/outbox.cif.g09.slc.cpg/sg49_2_cif.got.tgz:3728.got - 2010.04.14 03:58:27.
