data_PCOD8203071
_publ_section_title
;
Structure prediction by ZEFSAII (Michael W. Deem and Ramdas Pophale) SiO2 
 PCOD8203071
Probable space group: P C C M
;
_chemical_formula_sum "Si O2"
_cell_formula_units_Z 64
_cell_length_a 11.855757
_cell_length_b 17.354136
_cell_length_c 15.744766
_cell_angle_alpha 90.000000
_cell_angle_beta 90.000000
_cell_angle_gamma 90.000000
_cell_volume 3239.429228
_symmetry_space_group_name_H-M "P C C M"
_symmetry_group_IT_number 49
_symmetry_cell_setting 'orthorhombic'
loop_
_space_group_symop_operation_xyz
x,y,z
-x,-y,z
x,-y,1/2-z
-x,y,1/2-z
-x,-y,-z
x,y,-z
-x,y,1/2+z
x,-y,1/2+z
loop_
_atom_site_type_symbol
_atom_site_label
_atom_site_fract_x
_atom_site_fract_y
_atom_site_fract_z
Si Si1 0.124889 0.298921 0.904094
Si Si2 0.711560 0.200498 0.678328
Si Si3 0.132703 0.410671 0.244288
Si Si4 0.732933 0.296078 0.842788
Si Si5 0.811160 0.925721 0.712049
Si Si6 0.393978 0.050440 0.403648
Si Si7 0.083483 0.197585 0.594886
Si Si8 0.478088 0.778405 0.095515
O O1 0.220448 0.232095 0.903134
O O2 0.162640 0.372063 0.846752
O O3 0.012469 0.255480 0.870327
O O4 0.108744 0.329246 0.000000
O O5 0.748667 0.254983 0.753900
O O6 0.748896 0.115898 0.708213
O O7 0.579848 0.209286 0.660291
O O8 0.162135 0.500000 0.250000
O O9 0.208736 0.378571 0.323603
O O10 0.000000 0.395322 0.250000
O O11 0.802699 0.248019 0.912463
O O12 0.602042 0.292934 0.873291
O O13 0.716259 0.963545 0.651603
O O14 0.900357 0.873429 0.660165
O O15 0.876886 0.000000 0.750000
O O16 0.370150 0.023089 0.500000
O O17 0.411107 0.142052 0.400403
O O18 0.500000 0.000000 0.368761
O O19 0.054927 0.166619 0.500000
O O20 0.520215 0.760688 0.000000
#
# Coordination Sequence:
#
# PCOD8203071 Si02
#       8
#     8   8   8   8   8   8   8   8
#     4  10  21  39  62  85 115 157 191 234 289 347
#     4  10  21  34  55  79 111 150 203 245 283 341
#     4  10  20  37  61  95 128 151 179 236 293 351
#     4  10  19  32  58  83 112 152 192 229 288 345
#     4  11  22  34  53  80 111 152 196 252 308 363
#     4  10  20  32  49  74 110 149 187 248 314 357
#     4  10  19  36  58  81 110 145 195 244 291 350
#     4  11  20  33  52  80 113 150 197 248 290 341
#
# _framework density 19.756567
#
# number of rings (size 3 to 8) (size 9 to 14) (size 15 to 20)
#    0.000    1.750    3.750    2.250    0.000    1.250 
#    0.000    5.625    0.000    7.500    0.000    4.375 
#    0.000    0.000    0.000    0.000    0.000    0.000 
#
# Total GULP energy -792927.254972 kJ/mol
# GULP energy per Si atom -12389.488359 kJ/mol
# Density = 1.971160 g / cm^3
# Si number density = 19.756567 Si / 1000 Ang^3
#
#
#
# Elastic Constant Matrix: (Units=GPa)
#
#
# Indices 1 2 3 4 5 6 
#
# 1 60.1403 35.9314 22.2162 0.0000 0.0000 0.0000
# 2 35.9314 116.0768 51.3381 0.0000 0.0000 0.0000
# 3 22.2162 51.3381 72.2677 0.0000 0.0000 0.0000
# 4 0.0000 0.0000 0.0000 18.9490 0.0000 0.0000
# 5 0.0000 0.0000 0.0000 0.0000 18.8624 0.0000
# 6 0.0000 0.0000 0.0000 0.0000 0.0000 23.7274
#
#
#
# Elastic Compliance Matrix: (Units=1/GPa)
#
#
# Indices 1 2 3 4 5 6 
#
# 1 0.020742 -0.005250 -0.002647 0.000000 0.000000 0.000000
# 2 -0.005250 0.013891 -0.008254 0.000000 0.000000 0.000000
# 3 -0.002647 -0.008254 0.020514 0.000000 0.000000 0.000000
# 4 0.000000 0.000000 0.000000 0.052773 0.000000 0.000000
# 5 0.000000 0.000000 0.000000 0.000000 0.053016 0.000000
# 6 0.000000 0.000000 0.000000 0.000000 0.000000 0.042145
#
#
# Mechanical properties :
#
#
# Convention : Reuss Voigt Hill
#
# Bulk Modulus (GPa) = 43.77151 51.93958 47.85554
# Shear Modulus (GPa) = 20.57629 21.57437 21.07533
#
# Velocity S-wave (km/s) = 3.23072 3.30814 3.26966
# Velocity P-wave (km/s) = 6.01001 6.39833 6.20721
#
# Compressibility (1/GPa) = 0.02284591
#
# Stress axis : x y z
#
# Youngs Moduli (GPa) = 48.21071 71.99127 48.74604
#
# Poissons Ratio (x) = 0.37796 0.12903
# Poissons Ratio (y) = 0.25311 0.40234
# Poissons Ratio (z) = 0.12761 0.59420
#
# Static dielectric constant tensor:
#      x y z
#    x 3.509130 0.000000 0.000000 
#    y 0.000000 3.437060 0.000000 
#    z 0.000000 0.000000 3.664770 
# 
# 
# High freq. dielectric constant tensor:
#      x y z
#    x 1.764920 0.000000 0.000000 
#    y 0.000000 1.739580 0.000000 
#    z 0.000000 0.000000 1.773900 
# 
# From -- ./inp_files/13097.got.cif
#   From: 2010.03.12/outbox.cif.g09.slc.cpg/sg49_7_cif.got.tgz:13097.got - 2010.04.14 03:58:27.
