data_PCOD8203487
_publ_section_title
;
Structure prediction by ZEFSAII (Michael W. Deem and Ramdas Pophale) SiO2 
 PCOD8203487
Probable space group: P C C M
;
_chemical_formula_sum "Si O2"
_cell_formula_units_Z 64
_cell_length_a 22.741063
_cell_length_b 18.682081
_cell_length_c 9.040684
_cell_angle_alpha 90.000000
_cell_angle_beta 90.000000
_cell_angle_gamma 90.000000
_cell_volume 3840.938042
_symmetry_space_group_name_H-M "P C C M"
_symmetry_group_IT_number 49
_symmetry_cell_setting 'orthorhombic'
loop_
_space_group_symop_operation_xyz
x,y,z
-x,-y,z
x,-y,1/2-z
-x,y,1/2-z
-x,-y,-z
x,y,-z
-x,y,1/2+z
x,-y,1/2+z
loop_
_atom_site_type_symbol
_atom_site_label
_atom_site_fract_x
_atom_site_fract_y
_atom_site_fract_z
Si Si1 0.374794 0.072975 0.324960
Si Si2 0.837381 0.786465 0.164576
Si Si3 0.741024 0.146683 0.835858
Si Si4 0.672641 0.705291 0.662328
Si Si5 0.060553 0.712042 0.177751
Si Si6 0.232099 0.639738 0.661350
Si Si7 0.885717 0.573943 0.178386
Si Si8 0.438909 0.215036 0.676128
O O1 0.376544 0.064444 0.500000
O O2 0.308158 0.091906 0.273572
O O3 0.419278 0.135494 0.273955
O O4 0.396024 0.000000 0.250000
O O5 0.798058 0.851596 0.229689
O O6 0.891234 0.770920 0.275009
O O7 0.796744 0.717396 0.152550
O O8 0.860027 0.807281 0.000000
O O9 0.712344 0.224527 0.846277
O O10 0.761352 0.123286 0.000000
O O11 0.661698 0.674001 0.500000
O O12 0.707237 0.642409 0.747607
O O13 0.609680 0.727274 0.733071
O O14 0.074520 0.635115 0.249227
O O15 0.000000 0.738617 0.250000
O O16 0.057302 0.706739 0.000000
O O17 0.250477 0.612753 0.500000
O O18 0.182537 0.586203 0.726244
O O19 0.907286 0.500000 0.250000
O O20 0.893143 0.575302 0.000000
O O21 0.500000 0.235867 0.750000
O O22 0.443748 0.218516 0.500000
#
# Coordination Sequence:
#
# PCOD8203487 Si02
#       8
#     8   8   8   8   8   8   8   8
#     4   9  18  30  42  58  83 113 148 183 216 254
#     4   9  16  27  43  64  85 105 134 173 214 258
#     4   8  14  26  42  59  79 105 135 172 216 259
#     4   8  14  25  41  58  77 101 133 170 212 256
#     4  11  21  33  47  63  86 117 149 181 214 248
#     4   8  15  26  41  61  83 103 130 169 210 250
#     4  10  20  33  46  64  88 115 148 181 211 249
#     4   9  18  30  41  57  81 111 145 181 214 252
#
# _framework density 16.662596000000001
#
# number of rings (size 3 to 8) (size 9 to 14) (size 15 to 20)
#    0.000    3.000    0.000    4.125    0.000    5.500 
#    0.000    5.000    0.000    0.000    0.000    0.000 
#    0.000    1.000    0.000   10.750    0.000    7.625 
#
# Total GULP energy -793049.550087 kJ/mol
# GULP energy per Si atom -12391.399220 kJ/mol
# Density = 1.662467 g / cm^3
# Si number density = 16.662596 Si / 1000 Ang^3
#
#
#
# Elastic Constant Matrix: (Units=GPa)
#
#
# Indices 1 2 3 4 5 6 
#
# 1 97.3756 11.4154 40.2378 0.0000 0.0000 0.0000
# 2 11.4154 4.3322 6.8393 0.0000 0.0000 0.0000
# 3 40.2378 6.8393 79.1370 0.0000 0.0000 0.0000
# 4 0.0000 0.0000 0.0000 18.2592 0.0000 0.0000
# 5 0.0000 0.0000 0.0000 0.0000 29.0480 0.0000
# 6 0.0000 0.0000 0.0000 0.0000 0.0000 15.4492
#
#
#
# Elastic Compliance Matrix: (Units=1/GPa)
#
#
# Indices 1 2 3 4 5 6 
#
# 1 0.016646 -0.035321 -0.005411 0.000000 0.000000 0.000000
# 2 -0.035321 0.342247 -0.011619 0.000000 0.000000 0.000000
# 3 -0.005411 -0.011619 0.016392 0.000000 0.000000 0.000000
# 4 0.000000 0.000000 0.000000 0.054767 0.000000 0.000000
# 5 0.000000 0.000000 0.000000 0.000000 0.034426 0.000000
# 6 0.000000 0.000000 0.000000 0.000000 0.000000 0.064728
#
#
# Mechanical properties :
#
#
# Convention : Reuss Voigt Hill
#
# Bulk Modulus (GPa) = 3.69573 33.09221 18.39397
# Shear Modulus (GPa) = 6.90510 20.70809 13.80660
#
# Velocity S-wave (km/s) = 2.03791 3.52915 2.88166
# Velocity P-wave (km/s) = 2.78572 6.04233 4.70479
#
# Compressibility (1/GPa) = 0.27058256
#
# Stress axis : x y z
#
# Youngs Moduli (GPa) = 60.07337 2.92187 61.00556
#
# Poissons Ratio (x) = 0.10320 0.33013
# Poissons Ratio (y) = 2.12183 0.70883
# Poissons Ratio (z) = 0.32508 0.03395
#
# Static dielectric constant tensor:
#      x y z
#    x 3.213540 0.000000 0.000000 
#    y 0.000000 2.806240 0.000000 
#    z 0.000000 0.000000 3.297370 
# 
# 
# High freq. dielectric constant tensor:
#      x y z
#    x 1.635000 0.000000 0.000000 
#    y 0.000000 1.586510 0.000000 
#    z 0.000000 0.000000 1.645760 
# 
# From -- ./inp_files/6079.got.cif
#   From: 2010.03.12/outbox.cif.g09.slc.cpg/sg49_4_cif.got.tgz:6079.got - 2010.04.14 03:58:27.
