data_PCOD8203580
_publ_section_title
;
Structure prediction by ZEFSAII (Michael W. Deem and Ramdas Pophale) SiO2 
 PCOD8203580
Probable space group: P C C M
;
_chemical_formula_sum "Si O2"
_cell_formula_units_Z 48
_cell_length_a 14.375724
_cell_length_b 20.544076
_cell_length_c 8.846910
_cell_angle_alpha 90.000000
_cell_angle_beta 90.000000
_cell_angle_gamma 90.000000
_cell_volume 2612.810715
_symmetry_space_group_name_H-M "P C C M"
_symmetry_group_IT_number 49
_symmetry_cell_setting 'orthorhombic'
loop_
_space_group_symop_operation_xyz
x,y,z
-x,-y,z
x,-y,1/2-z
-x,y,1/2-z
-x,-y,-z
x,y,-z
-x,y,1/2+z
x,-y,1/2+z
loop_
_atom_site_type_symbol
_atom_site_label
_atom_site_fract_x
_atom_site_fract_y
_atom_site_fract_z
Si Si1 0.903714 0.381566 0.821622
Si Si2 0.279078 0.566110 0.320796
Si Si3 0.402206 0.067250 0.822108
Si Si4 0.600520 0.689352 0.178183
Si Si5 0.277979 0.810339 0.323098
Si Si6 0.904767 0.231306 0.176797
O O1 0.822799 0.423439 0.747176
O O2 0.887213 0.306288 0.778881
O O3 0.000000 0.406214 0.750000
O O4 0.905475 0.393068 0.000000
O O5 0.320713 0.500000 0.250000
O O6 0.271967 0.560597 0.500000
O O7 0.347024 0.624084 0.270223
O O8 0.500000 0.088346 0.750000
O O9 0.327334 0.122094 0.783660
O O10 0.366172 0.000000 0.750000
O O11 0.416286 0.058325 0.000000
O O12 0.500000 0.690825 0.250000
O O13 0.658840 0.751093 0.237941
O O14 0.588684 0.692809 0.000000
O O15 0.259643 0.801708 0.500000
O O16 0.179677 0.811473 0.239162
O O17 0.000000 0.205655 0.250000
O O18 0.913079 0.221361 0.000000
#
# Coordination Sequence:
#
# PCOD8203580 Si02
#       6
#     8   8   8   8   8   8
#     4  10  20  35  56  82 109 140 177 220 273 329
#     4  11  23  39  57  77 106 142 180 227 276 328
#     4  10  20  34  55  82 117 154 188 228 271 323
#     4  10  22  38  57  79 106 139 179 227 274 321
#     4  10  20  36  57  83 113 146 184 226 272 321
#     4  10  20  33  55  84 113 145 179 223 271 325
#
# _framework density 18.371022
#
# number of rings (size 3 to 8) (size 9 to 14) (size 15 to 20)
#    0.000    1.833    1.667    3.000    0.000    5.333 
#    0.000    3.333    0.000    0.500    0.000    3.500 
#    0.000    0.000    0.000    0.000    0.000    0.000 
#
# Total GULP energy -595437.873251 kJ/mol
# GULP energy per Si atom -12404.955693 kJ/mol
# Density = 1.832921 g / cm^3
# Si number density = 18.371022 Si / 1000 Ang^3
#
#
#
# Elastic Constant Matrix: (Units=GPa)
#
#
# Indices 1 2 3 4 5 6 
#
# 1 140.3660 69.9072 49.5983 0.0000 0.0000 0.0000
# 2 69.9072 113.8690 49.9285 0.0000 0.0000 0.0000
# 3 49.5983 49.9285 74.4369 0.0000 0.0000 0.0000
# 4 0.0000 0.0000 0.0000 32.6633 0.0000 0.0000
# 5 0.0000 0.0000 0.0000 0.0000 37.3388 0.0000
# 6 0.0000 0.0000 0.0000 0.0000 0.0000 29.4789
#
#
#
# Elastic Compliance Matrix: (Units=1/GPa)
#
#
# Indices 1 2 3 4 5 6 
#
# 1 0.011035 -0.005030 -0.003979 0.000000 0.000000 0.000000
# 2 -0.005030 0.014734 -0.006531 0.000000 0.000000 0.000000
# 3 -0.003979 -0.006531 0.020466 0.000000 0.000000 0.000000
# 4 0.000000 0.000000 0.000000 0.030615 0.000000 0.000000
# 5 0.000000 0.000000 0.000000 0.000000 0.026782 0.000000
# 6 0.000000 0.000000 0.000000 0.000000 0.000000 0.033923
#
#
# Mechanical properties :
#
#
# Convention : Reuss Voigt Hill
#
# Bulk Modulus (GPa) = 65.98530 74.17108 70.07819
# Shear Modulus (GPa) = 28.78731 30.51205 29.64968
#
# Velocity S-wave (km/s) = 3.96282 4.07981 4.02174
# Velocity P-wave (km/s) = 7.54551 7.91547 7.73271
#
# Compressibility (1/GPa) = 0.01515489
#
# Stress axis : x y z
#
# Youngs Moduli (GPa) = 90.61687 67.87064 48.86117
#
# Poissons Ratio (x) = 0.34141 0.19442
# Poissons Ratio (y) = 0.45583 0.31911
# Poissons Ratio (z) = 0.36057 0.44326
#
# Static dielectric constant tensor:
#      x y z
#    x 3.364070 0.000000 0.000000 
#    y 0.000000 3.406540 0.000000 
#    z 0.000000 0.000000 3.382560 
# 
# 
# High freq. dielectric constant tensor:
#      x y z
#    x 1.714940 0.000000 0.000000 
#    y 0.000000 1.702290 0.000000 
#    z 0.000000 0.000000 1.720430 
# 
# From -- ./inp_files/2916.got.cif
#   From: 2010.03.12/outbox.cif.g09.slc.cpg/sg49_2_cif.got.tgz:2916.got - 2010.04.14 03:58:27.
