data_PCOD8203672
_publ_section_title
;
Structure prediction by ZEFSAII (Michael W. Deem and Ramdas Pophale) SiO2 
 PCOD8203672
Probable space group: P C C M
;
_chemical_formula_sum "Si O2"
_cell_formula_units_Z 32
_cell_length_a 9.390640
_cell_length_b 20.585255
_cell_length_c 8.856255
_cell_angle_alpha 90.000000
_cell_angle_beta 90.000000
_cell_angle_gamma 90.000000
_cell_volume 1711.991309
_symmetry_space_group_name_H-M "P C C M"
_symmetry_group_IT_number 49
_symmetry_cell_setting 'orthorhombic'
loop_
_space_group_symop_operation_xyz
x,y,z
-x,-y,z
x,-y,1/2-z
-x,y,1/2-z
-x,-y,-z
x,y,-z
-x,y,1/2+z
x,-y,1/2+z
loop_
_atom_site_type_symbol
_atom_site_label
_atom_site_fract_x
_atom_site_fract_y
_atom_site_fract_z
Si Si1 0.153005 0.939102 0.325669
Si Si2 0.148946 0.567208 0.822655
Si Si3 0.347006 0.312622 0.322952
Si Si4 0.845551 0.795148 0.823765
O O1 0.136882 0.954961 0.500000
O O2 0.220261 0.867746 0.299746
O O3 0.000000 0.936620 0.250000
O O4 0.239891 0.000000 0.250000
O O5 0.202859 0.500000 0.750000
O O6 0.264409 0.621428 0.784924
O O7 0.000000 0.589281 0.750000
O O8 0.126648 0.557453 0.000000
O O9 0.500000 0.319022 0.250000
O O10 0.361852 0.300930 0.500000
O O11 0.265790 0.252116 0.252659
O O12 0.000000 0.786626 0.750000
O O13 0.861737 0.778865 0.000000
#
# Coordination Sequence:
#
# PCOD8203672 Si02
#       4
#     8   8   8   8
#     4   9  16  26  44  72 104 136 171 215 265 314
#     4  10  21  37  59  85 110 139 175 216 263 314
#     4  11  24  39  56  79 108 144 182 222 269 319
#     4  10  20  34  54  80 109 142 181 223 268 319
#
# _framework density 18.691683999999999
#
# number of rings (size 3 to 8) (size 9 to 14) (size 15 to 20)
#    0.000    2.000    0.000    5.250    0.000    9.500 
#    0.000    2.500    0.000    0.750    0.000    5.250 
#    0.000    0.000    0.000    0.000    0.000    0.000 
#
# Total GULP energy -396670.446145 kJ/mol
# GULP energy per Si atom -12395.951442 kJ/mol
# Density = 1.864914 g / cm^3
# Si number density = 18.691684 Si / 1000 Ang^3
#
#
#
# Elastic Constant Matrix: (Units=GPa)
#
#
# Indices 1 2 3 4 5 6 
#
# 1 105.5808 86.8602 66.5336 0.0000 0.0000 0.0000
# 2 86.8602 166.9367 101.8451 0.0000 0.0000 0.0000
# 3 66.5336 101.8451 150.3011 0.0000 0.0000 0.0000
# 4 0.0000 0.0000 0.0000 37.4991 0.0000 0.0000
# 5 0.0000 0.0000 0.0000 0.0000 26.3068 0.0000
# 6 0.0000 0.0000 0.0000 0.0000 0.0000 -995.3543
#
#
#
# Elastic Compliance Matrix: (Units=1/GPa)
#
#
# Indices 1 2 3 4 5 6 
#
# 1 0.017151 -0.007317 -0.002634 0.000000 0.000000 0.000000
# 2 -0.007317 0.013333 -0.005796 0.000000 0.000000 0.000000
# 3 -0.002634 -0.005796 0.011747 0.000000 0.000000 0.000000
# 4 0.000000 0.000000 0.000000 0.026667 0.000000 0.000000
# 5 0.000000 0.000000 0.000000 0.000000 0.038013 0.000000
# 6 0.000000 0.000000 0.000000 0.000000 0.000000 -0.001005
#
#
# Mechanical properties :
#
#
# Convention : Reuss Voigt Hill
#
# Bulk Modulus (GPa) = 93.13459 103.69960 98.41709
# Shear Modulus (GPa) = 35.46622 -175.13770 -69.83574
#
# Velocity S-wave (km/s) = 4.36068 -9.69028 -6.11907
# Velocity P-wave (km/s) = 8.67692 8.34282 1.68616
#
# Compressibility (1/GPa) = 0.01073715
#
# Stress axis : x y z
#
# Youngs Moduli (GPa) = 58.30596 75.00020 85.13046
#
# Poissons Ratio (x) = 0.54876 0.22425
# Poissons Ratio (y) = 0.42661 0.49340
# Poissons Ratio (z) = 0.15359 0.43469
#
# Static dielectric constant tensor:
#      x y z
#    x 3.060160 0.000000 0.000000 
#    y 0.000000 4.368800 0.000000 
#    z 0.000000 0.000000 3.676110 
# 
# 
# High freq. dielectric constant tensor:
#      x y z
#    x 1.682240 0.000000 0.000000 
#    y 0.000000 1.753430 0.000000 
#    z 0.000000 0.000000 1.748750 
# 
# From -- ./inp_files/1393.got.cif
#   From: 2010.03.12/outbox.cif.g09.slc.cpg/sg49_1_cif.got.tgz:1393.got - 2010.04.14 03:58:27.
