data_PCOD8203481
_publ_section_title
;
Structure prediction by ZEFSAII (Michael W. Deem and Ramdas Pophale) SiO2 
 PCOD8203481
Probable space group: P C C M
;
_chemical_formula_sum "Si O2"
_cell_formula_units_Z 56
_cell_length_a 11.127768
_cell_length_b 13.127192
_cell_length_c 19.989450
_cell_angle_alpha 90.000000
_cell_angle_beta 90.000000
_cell_angle_gamma 90.000000
_cell_volume 2919.985836
_symmetry_space_group_name_H-M "P C C M"
_symmetry_group_IT_number 49
_symmetry_cell_setting 'orthorhombic'
loop_
_space_group_symop_operation_xyz
x,y,z
-x,-y,z
x,-y,1/2-z
-x,y,1/2-z
-x,-y,-z
x,y,-z
-x,y,1/2+z
x,-y,1/2+z
loop_
_atom_site_type_symbol
_atom_site_label
_atom_site_fract_x
_atom_site_fract_y
_atom_site_fract_z
Si Si1 0.618938 0.239540 0.576581
Si Si2 0.784981 0.868220 0.826980
Si Si3 0.829964 0.623068 0.575522
Si Si4 0.350399 0.808188 0.072616
Si Si5 0.630957 0.468861 0.578805
Si Si6 0.007999 0.265302 0.673480
Si Si7 0.205070 0.097480 0.321811
O O1 0.652677 0.213415 0.500000
O O2 0.673270 0.152671 0.624313
O O3 0.476911 0.243108 0.588223
O O4 0.663444 0.352465 0.596086
O O5 0.742366 0.867368 0.749939
O O6 0.878277 0.778881 0.846667
O O7 0.839925 0.981835 0.832975
O O8 0.876383 0.596592 0.500000
O O9 0.750541 0.722955 0.572860
O O10 0.743933 0.534767 0.606505
O O11 0.945008 0.643748 0.624545
O O12 0.316536 0.890964 0.127710
O O13 0.353928 0.862265 0.000000
O O14 0.500000 0.500000 0.609693
O O15 0.623804 0.489467 0.500000
O O16 0.091900 0.167678 0.664037
O O17 0.000000 0.305403 0.750000
#
# Coordination Sequence:
#
# PCOD8203481 Si02
#       7
#     8   8   8   8   8   8   8
#     4  10  20  32  50  79 112 140 169 217 275 322
#     4  10  20  34  51  74 103 139 179 220 264 324
#     4   9  16  29  54  83 106 134 181 227 261 310
#     4   9  17  31  51  77 103 132 173 222 272 319
#     4   9  15  29  54  81 106 137 178 215 255 316
#     4   9  18  34  55  76  99 139 179 224 268 315
#     4   9  19  35  55  73  95 136 186 224 263 317
#
# _framework density 19.178175
#
# number of rings (size 3 to 8) (size 9 to 14) (size 15 to 20)
#    0.000    2.714    1.429    0.429    0.000    4.000 
#    0.000    3.571    0.000   17.143    0.000    0.000 
#    0.000    0.000    0.000    0.000    0.000    0.143 
#
# Total GULP energy -693839.605740 kJ/mol
# GULP energy per Si atom -12389.992960 kJ/mol
# Density = 1.913452 g / cm^3
# Si number density = 19.178175 Si / 1000 Ang^3
#
#
#
# Elastic Constant Matrix: (Units=GPa)
#
#
# Indices 1 2 3 4 5 6 
#
# 1 65.0568 30.1061 55.8014 0.0000 0.0000 0.0000
# 2 30.1061 56.4188 38.3948 0.0000 0.0000 0.0000
# 3 55.8014 38.3948 92.2723 0.0000 0.0000 0.0000
# 4 0.0000 0.0000 0.0000 20.8090 0.0000 0.0000
# 5 0.0000 0.0000 0.0000 0.0000 28.3215 0.0000
# 6 0.0000 0.0000 0.0000 0.0000 0.0000 18.8041
#
#
#
# Elastic Compliance Matrix: (Units=1/GPa)
#
#
# Indices 1 2 3 4 5 6 
#
# 1 0.033180 -0.005650 -0.017715 0.000000 0.000000 0.000000
# 2 -0.005650 0.025689 -0.007272 0.000000 0.000000 0.000000
# 3 -0.017715 -0.007272 0.024576 0.000000 0.000000 0.000000
# 4 0.000000 0.000000 0.000000 0.048056 0.000000 0.000000
# 5 0.000000 0.000000 0.000000 0.000000 0.035309 0.000000
# 6 0.000000 0.000000 0.000000 0.000000 0.000000 0.053180
#
#
# Mechanical properties :
#
#
# Convention : Reuss Voigt Hill
#
# Bulk Modulus (GPa) = 45.10352 51.37250 48.23801
# Shear Modulus (GPa) = 17.32173 19.54996 18.43584
#
# Velocity S-wave (km/s) = 3.00859 3.19625 3.10384
# Velocity P-wave (km/s) = 5.96976 6.36132 6.16865
#
# Compressibility (1/GPa) = 0.02217122
#
# Stress axis : x y z
#
# Youngs Moduli (GPa) = 30.13827 38.92776 40.68959
#
# Poissons Ratio (x) = 0.21995 0.72080
# Poissons Ratio (y) = 0.17029 0.29590
# Poissons Ratio (z) = 0.53389 0.28309
#
# Static dielectric constant tensor:
#      x y z
#    x 3.463860 0.000000 0.000000 
#    y 0.000000 3.444660 0.000000 
#    z 0.000000 0.000000 3.677580 
# 
# 
# High freq. dielectric constant tensor:
#      x y z
#    x 1.737090 0.000000 0.000000 
#    y 0.000000 1.736460 0.000000 
#    z 0.000000 0.000000 1.727000 
# 
# From -- ./inp_files/20525.got.cif
#   From: 2010.03.12/outbox.cif.g09.slc.cpg/sg49_11_cif.got.tgz:20525.got - 2010.04.14 03:58:27.
