data_PCOD8203534
_publ_section_title
;
Structure prediction by ZEFSAII (Michael W. Deem and Ramdas Pophale) SiO2 
 PCOD8203534
Probable space group: P C C M
;
_chemical_formula_sum "Si O2"
_cell_formula_units_Z 40
_cell_length_a 25.138386
_cell_length_b 10.069536
_cell_length_c 8.849912
_cell_angle_alpha 90.000000
_cell_angle_beta 90.000000
_cell_angle_gamma 90.000000
_cell_volume 2240.194887
_symmetry_space_group_name_H-M "P C C M"
_symmetry_group_IT_number 49
_symmetry_cell_setting 'orthorhombic'
loop_
_space_group_symop_operation_xyz
x,y,z
-x,-y,z
x,-y,1/2-z
-x,y,1/2-z
-x,-y,-z
x,y,-z
-x,y,1/2+z
x,-y,1/2+z
loop_
_atom_site_type_symbol
_atom_site_label
_atom_site_fract_x
_atom_site_fract_y
_atom_site_fract_z
Si Si1 0.741595 0.862315 0.821532
Si Si2 0.944224 0.640170 0.819973
Si Si3 0.136824 0.865097 0.323282
Si Si4 0.550005 0.357072 0.174725
Si Si5 0.667646 0.644388 0.676811
O O1 0.802628 0.836597 0.774078
O O2 0.708620 0.741234 0.755961
O O3 0.721142 0.000000 0.750000
O O4 0.733892 0.869681 0.000000
O O5 0.927045 0.500000 0.750000
O O6 0.899424 0.743789 0.768322
O O7 0.000000 0.687801 0.750000
O O8 0.949366 0.627990 0.000000
O O9 0.132366 0.884632 0.500000
O O10 0.115161 0.000000 0.250000
O O11 0.551962 0.500000 0.250000
O O12 0.500000 0.276291 0.250000
O O13 0.608282 0.293374 0.201647
O O14 0.537413 0.371946 0.000000
O O15 0.673334 0.500000 0.750000
O O16 0.680650 0.631894 0.500000
#
# Coordination Sequence:
#
# PCOD8203534 Si02
#       5
#     8   8   8   8   8
#     4  10  20  36  55  75 101 135 171 209 254 305
#     4  10  20  35  53  76 104 134 167 203 246 296
#     4   9  20  36  54  76 101 130 168 208 248 295
#     4   9  16  26  43  67  97 129 163 202 248 296
#     4  10  20  33  50  76 105 134 169 211 254 300
#
# _framework density 17.855591
#
# number of rings (size 3 to 8) (size 9 to 14) (size 15 to 20)
#    0.000    2.400    0.000    3.600    0.000    6.000 
#    0.000    4.000    0.000    0.600    0.000    4.200 
#    0.000    0.000    0.000    0.000    0.000    0.000 
#
# Total GULP energy -495840.144127 kJ/mol
# GULP energy per Si atom -12396.003603 kJ/mol
# Density = 1.781495 g / cm^3
# Si number density = 17.855591 Si / 1000 Ang^3
#
#
#
# Elastic Constant Matrix: (Units=GPa)
#
#
# Indices 1 2 3 4 5 6 
#
# 1 116.1989 81.0824 54.7355 0.0000 0.0000 0.0000
# 2 81.0824 108.4964 51.2286 0.0000 0.0000 0.0000
# 3 54.7355 51.2286 96.9294 0.0000 0.0000 0.0000
# 4 0.0000 0.0000 0.0000 29.8722 0.0000 0.0000
# 5 0.0000 0.0000 0.0000 0.0000 29.8483 0.0000
# 6 0.0000 0.0000 0.0000 0.0000 0.0000 -1.0534
#
#
#
# Elastic Compliance Matrix: (Units=1/GPa)
#
#
# Indices 1 2 3 4 5 6 
#
# 1 0.019274 -0.012346 -0.004359 0.000000 0.000000 0.000000
# 2 -0.012346 0.020190 -0.003699 0.000000 0.000000 0.000000
# 3 -0.004359 -0.003699 0.014733 0.000000 0.000000 0.000000
# 4 0.000000 0.000000 0.000000 0.033476 0.000000 0.000000
# 5 0.000000 0.000000 0.000000 0.000000 0.033503 0.000000
# 6 0.000000 0.000000 0.000000 0.000000 0.000000 -0.949349
#
#
# Mechanical properties :
#
#
# Convention : Reuss Voigt Hill
#
# Bulk Modulus (GPa) = 74.68548 77.30196 75.99372
# Shear Modulus (GPa) = -6.38649 20.70531 7.15941
#
# Velocity S-wave (km/s) = -1.89328 3.40898 2.00458
# Velocity P-wave (km/s) = 6.09417 7.67344 6.92895
#
# Compressibility (1/GPa) = 0.01338948
#
# Stress axis : x y z
#
# Youngs Moduli (GPa) = 51.88329 49.52989 67.87371
#
# Poissons Ratio (x) = 0.61149 0.29586
# Poissons Ratio (y) = 0.64054 0.25106
# Poissons Ratio (z) = 0.22616 0.18321
#
# Static dielectric constant tensor:
#      x y z
#    x 3.947520 0.000000 0.000000 
#    y 0.000000 3.124320 0.000000 
#    z 0.000000 0.000000 3.424920 
# 
# 
# High freq. dielectric constant tensor:
#      x y z
#    x 1.703670 0.000000 0.000000 
#    y 0.000000 1.662840 0.000000 
#    z 0.000000 0.000000 1.707300 
# 
# From -- ./inp_files/1713.got.cif
#   From: 2010.03.12/outbox.cif.g09.slc.cpg/sg49_1_cif.got.tgz:1713.got - 2010.04.14 03:58:27.
