data_PCOD8203636
_publ_section_title
;
Structure prediction by ZEFSAII (Michael W. Deem and Ramdas Pophale) SiO2 
 PCOD8203636
Probable space group: P C C M
;
_chemical_formula_sum "Si O2"
_cell_formula_units_Z 64
_cell_length_a 16.522883
_cell_length_b 11.308102
_cell_length_c 18.135989
_cell_angle_alpha 90.000000
_cell_angle_beta 90.000000
_cell_angle_gamma 90.000000
_cell_volume 3388.572551
_symmetry_space_group_name_H-M "P C C M"
_symmetry_group_IT_number 49
_symmetry_cell_setting 'orthorhombic'
loop_
_space_group_symop_operation_xyz
x,y,z
-x,-y,z
x,-y,1/2-z
-x,y,1/2-z
-x,-y,-z
x,y,-z
-x,y,1/2+z
x,-y,1/2+z
loop_
_atom_site_type_symbol
_atom_site_label
_atom_site_fract_x
_atom_site_fract_y
_atom_site_fract_z
Si Si1 0.111512 0.328682 0.082232
Si Si2 0.749405 0.163762 0.582682
Si Si3 0.023950 0.209850 0.664581
Si Si4 0.414444 0.143521 0.664039
Si Si5 0.593060 0.876642 0.162555
Si Si6 0.129306 0.405727 0.412303
Si Si7 0.147148 0.055137 0.584572
Si Si8 0.276252 0.737728 0.918058
O O1 0.204487 0.288252 0.083613
O O2 0.107862 0.461744 0.113433
O O3 0.061692 0.229431 0.125505
O O4 0.076259 0.330659 0.000000
O O5 0.725887 0.124406 0.500000
O O6 0.668167 0.191845 0.627660
O O7 0.808394 0.061902 0.616282
O O8 0.077044 0.323788 0.641857
O O9 0.069787 0.090974 0.635744
O O10 0.000000 0.200327 0.750000
O O11 0.403150 0.136515 0.750628
O O12 0.505907 0.176963 0.638758
O O13 0.352831 0.242034 0.634461
O O14 0.396899 0.011701 0.634303
O O15 0.110420 0.383046 0.500000
O O16 0.225217 0.380715 0.398404
O O17 0.117403 0.036264 0.500000
O O18 0.212404 0.157684 0.589251
O O19 0.312189 0.730446 0.000000
#
# Coordination Sequence:
#
# PCOD8203636 Si02
#       8
#     8   8   8   8   8   8   8   8
#     4  10  21  37  54  73 101 140 177 213 265 315
#     4  10  20  34  53  76 104 137 175 216 255 308
#     4  11  22  35  52  78 104 129 172 222 263 304
#     4   9  17  30  49  74 106 141 167 204 255 316
#     4   9  18  31  47  74 108 139 170 200 255 315
#     4   9  19  36  57  76  99 134 175 219 267 313
#     4   9  18  34  53  74 103 136 167 207 261 313
#     4   9  16  29  52  79  99 126 171 216 255 299
#
# _framework density 18.887008999999999
#
# number of rings (size 3 to 8) (size 9 to 14) (size 15 to 20)
#    0.000    2.500    1.250    3.000    0.000    5.000 
#    0.000    3.750    0.000    0.750    0.000    5.250 
#    0.000    0.000    0.000    0.000    0.000    0.000 
#
# Total GULP energy -793020.322928 kJ/mol
# GULP energy per Si atom -12390.942546 kJ/mol
# Density = 1.884402 g / cm^3
# Si number density = 18.887009 Si / 1000 Ang^3
#
#
#
# Elastic Constant Matrix: (Units=GPa)
#
#
# Indices 1 2 3 4 5 6 
#
# 1 126.2962 24.0191 53.1409 0.0000 0.0000 0.0000
# 2 24.0191 26.1676 16.1295 0.0000 0.0000 0.0000
# 3 53.1409 16.1295 69.8036 0.0000 0.0000 0.0000
# 4 0.0000 0.0000 0.0000 15.3275 0.0000 0.0000
# 5 0.0000 0.0000 0.0000 0.0000 37.4152 0.0000
# 6 0.0000 0.0000 0.0000 0.0000 0.0000 19.3826
#
#
#
# Elastic Compliance Matrix: (Units=1/GPa)
#
#
# Indices 1 2 3 4 5 6 
#
# 1 0.012547 -0.006564 -0.008035 0.000000 0.000000 0.000000
# 2 -0.006564 0.047996 -0.006093 0.000000 0.000000 0.000000
# 3 -0.008035 -0.006093 0.021851 0.000000 0.000000 0.000000
# 4 0.000000 0.000000 0.000000 0.065242 0.000000 0.000000
# 5 0.000000 0.000000 0.000000 0.000000 0.026727 0.000000
# 6 0.000000 0.000000 0.000000 0.000000 0.000000 0.051593
#
#
# Mechanical properties :
#
#
# Convention : Reuss Voigt Hill
#
# Bulk Modulus (GPa) = 24.38483 45.42739 34.90611
# Shear Modulus (GPa) = 17.79286 23.02360 20.40823
#
# Velocity S-wave (km/s) = 3.07264 3.49523 3.29073
# Velocity P-wave (km/s) = 5.05244 6.35557 5.74110
#
# Compressibility (1/GPa) = 0.04100910
#
# Stress axis : x y z
#
# Youngs Moduli (GPa) = 79.69875 20.83496 45.76429
#
# Poissons Ratio (x) = 0.13676 0.36773
# Poissons Ratio (y) = 0.52315 0.27885
# Poissons Ratio (z) = 0.64041 0.12695
#
# Static dielectric constant tensor:
#      x y z
#    x 3.569920 0.000000 0.000000 
#    y 0.000000 3.338560 0.000000 
#    z 0.000000 0.000000 3.269290 
# 
# 
# High freq. dielectric constant tensor:
#      x y z
#    x 1.738450 0.000000 0.000000 
#    y 0.000000 1.708240 0.000000 
#    z 0.000000 0.000000 1.713110 
# 
# From -- ./inp_files/14163.got.cif
#   From: 2010.03.12/outbox.cif.g09.slc.cpg/sg49_8_cif.got.tgz:14163.got - 2010.04.14 03:58:27.
