data_PCOD8203952
_publ_section_title
;
Structure prediction by ZEFSAII (Michael W. Deem and Ramdas Pophale) SiO2 
 PCOD8203952
Probable space group: P C C M
;
_chemical_formula_sum "Si O2"
_cell_formula_units_Z 64
_cell_length_a 11.629264
_cell_length_b 15.887275
_cell_length_c 17.404217
_cell_angle_alpha 90.000000
_cell_angle_beta 90.000000
_cell_angle_gamma 90.000000
_cell_volume 3215.556406
_symmetry_space_group_name_H-M "P C C M"
_symmetry_group_IT_number 49
_symmetry_cell_setting 'orthorhombic'
loop_
_space_group_symop_operation_xyz
x,y,z
-x,-y,z
x,-y,1/2-z
-x,y,1/2-z
-x,-y,-z
x,y,-z
-x,y,1/2+z
x,-y,1/2+z
loop_
_atom_site_type_symbol
_atom_site_label
_atom_site_fract_x
_atom_site_fract_y
_atom_site_fract_z
Si Si1 0.286520 0.355018 0.317050
Si Si2 0.523869 0.780204 0.337151
Si Si3 0.632649 0.503519 0.086503
Si Si4 0.303554 0.106903 0.584605
Si Si5 0.881845 0.808201 0.089297
Si Si6 0.697176 0.318964 0.638599
Si Si7 0.127695 0.018363 0.160659
Si Si8 0.872790 0.256410 0.084875
O O1 0.390356 0.297980 0.347912
O O2 0.302050 0.449046 0.349186
O O3 0.286389 0.350758 0.225551
O O4 0.164456 0.324520 0.351567
O O5 0.500000 0.804767 0.250000
O O6 0.576371 0.864950 0.375286
O O7 0.404326 0.749325 0.374210
O O8 0.500000 0.500000 0.109015
O O9 0.675774 0.599197 0.087617
O O10 0.653171 0.468075 0.000000
O O11 0.334043 0.072657 0.500000
O O12 0.225711 0.188173 0.579298
O O13 0.232793 0.035637 0.628341
O O14 0.811464 0.724679 0.108209
O O15 0.839999 0.885158 0.142511
O O16 0.012005 0.788398 0.113093
O O17 0.871053 0.833498 0.000000
O O18 0.122357 0.000000 0.250000
O O19 0.000000 0.000000 0.124367
O O20 0.890489 0.297756 0.000000
#
# Coordination Sequence:
#
# PCOD8203952 Si02
#       8
#     8   8   8   8   8   8   8   8
#     4  10  20  36  62  88 121 157 203 250 299 353
#     4   9  20  36  59  88 121 161 199 247 306 361
#     4  11  22  37  59  90 123 158 206 252 297 357
#     4  10  20  37  63  90 118 156 207 254 301 363
#     4  11  24  41  62  89 125 163 197 250 314 366
#     4  11  23  38  61  89 127 160 201 251 305 365
#     4  11  24  38  63  94 123 155 206 257 309 361
#     4   9  19  36  60  89 120 156 198 245 304 363
#
# _framework density 19.903243
#
# number of rings (size 3 to 8) (size 9 to 14) (size 15 to 20)
#    0.000    1.750    2.500    1.500    5.250    3.000 
#    0.000    1.250    0.000    5.250    0.000    0.000 
#    0.000    0.000    0.000    0.000    0.000    0.000 
#
# Total GULP energy -793500.192958 kJ/mol
# GULP energy per Si atom -12398.440515 kJ/mol
# Density = 1.985794 g / cm^3
# Si number density = 19.903243 Si / 1000 Ang^3
#
#
#
# Elastic Constant Matrix: (Units=GPa)
#
#
# Indices 1 2 3 4 5 6 
#
# 1 62.8727 36.9771 47.8927 0.0000 0.0000 0.0000
# 2 36.9771 95.7325 45.6344 0.0000 0.0000 0.0000
# 3 47.8927 45.6344 91.4879 0.0000 0.0000 0.0000
# 4 0.0000 0.0000 0.0000 21.5122 0.0000 0.0000
# 5 0.0000 0.0000 0.0000 0.0000 26.3948 0.0000
# 6 0.0000 0.0000 0.0000 0.0000 0.0000 28.5277
#
#
#
# Elastic Compliance Matrix: (Units=1/GPa)
#
#
# Indices 1 2 3 4 5 6 
#
# 1 0.028206 -0.005059 -0.012242 0.000000 0.000000 0.000000
# 2 -0.005059 0.014612 -0.004640 0.000000 0.000000 0.000000
# 3 -0.012242 -0.004640 0.019653 0.000000 0.000000 0.000000
# 4 0.000000 0.000000 0.000000 0.046485 0.000000 0.000000
# 5 0.000000 0.000000 0.000000 0.000000 0.037886 0.000000
# 6 0.000000 0.000000 0.000000 0.000000 0.000000 0.035054
#
#
# Mechanical properties :
#
#
# Convention : Reuss Voigt Hill
#
# Bulk Modulus (GPa) = 53.79564 56.78906 55.29235
# Shear Modulus (GPa) = 21.55416 23.25952 22.40684
#
# Velocity S-wave (km/s) = 3.29439 3.42223 3.35892
# Velocity P-wave (km/s) = 6.44654 6.64906 6.54859
#
# Compressibility (1/GPa) = 0.01858887
#
# Stress axis : x y z
#
# Youngs Moduli (GPa) = 35.45399 68.43843 50.88206
#
# Poissons Ratio (x) = 0.34623 0.62289
# Poissons Ratio (y) = 0.17936 0.23609
# Poissons Ratio (z) = 0.43402 0.31756
#
# Static dielectric constant tensor:
#      x y z
#    x 3.679200 0.000000 0.000000 
#    y 0.000000 3.467060 0.000000 
#    z 0.000000 0.000000 3.709740 
# 
# 
# High freq. dielectric constant tensor:
#      x y z
#    x 1.768490 0.000000 0.000000 
#    y 0.000000 1.762490 0.000000 
#    z 0.000000 0.000000 1.781850 
# 
# From -- ./inp_files/17312.got.cif
#   From: 2010.03.12/outbox.cif.g09.slc.cpg/sg49_9_cif.got.tgz:17312.got - 2010.04.14 03:58:27.
