data_PCOD8203599
_publ_section_title
;
Structure prediction by ZEFSAII (Michael W. Deem and Ramdas Pophale) SiO2 
 PCOD8203599
Probable space group: P C C M
;
_chemical_formula_sum "Si O2"
_cell_formula_units_Z 40
_cell_length_a 25.260432
_cell_length_b 10.113858
_cell_length_c 8.963653
_cell_angle_alpha 90.000000
_cell_angle_beta 90.000000
_cell_angle_gamma 90.000000
_cell_volume 2290.037853
_symmetry_space_group_name_H-M "P C C M"
_symmetry_group_IT_number 49
_symmetry_cell_setting 'orthorhombic'
loop_
_space_group_symop_operation_xyz
x,y,z
-x,-y,z
x,-y,1/2-z
-x,y,1/2-z
-x,-y,-z
x,y,-z
-x,y,1/2+z
x,-y,1/2+z
loop_
_atom_site_type_symbol
_atom_site_label
_atom_site_fract_x
_atom_site_fract_y
_atom_site_fract_z
Si Si1 0.333739 0.359369 0.826146
Si Si2 0.135076 0.866344 0.674437
Si Si3 0.055359 0.637812 0.678008
Si Si4 0.549370 0.358233 0.673664
Si Si5 0.744480 0.864842 0.176078
O O1 0.324878 0.500000 0.750000
O O2 0.392429 0.296634 0.797397
O O3 0.291414 0.254929 0.762495
O O4 0.324745 0.384107 0.000000
O O5 0.131247 0.889664 0.500000
O O6 0.098851 0.744908 0.725236
O O7 0.195144 0.834877 0.723893
O O8 0.114010 0.000000 0.750000
O O9 0.073868 0.500000 0.750000
O O10 0.049556 0.623197 0.500000
O O11 0.000000 0.682750 0.750000
O O12 0.550966 0.500000 0.750000
O O13 0.500000 0.277611 0.750000
O O14 0.537271 0.371692 0.500000
O O15 0.724356 0.000000 0.250000
O O16 0.738307 0.879854 0.000000
#
# Coordination Sequence:
#
# PCOD8203599 Si02
#       5
#     8   8   8   8   8
#     4   9  18  30  46  69  96 121 152 192 233 276
#     4   9  19  34  52  72  95 123 158 195 233 275
#     4  10  20  34  51  73  99 128 158 191 231 277
#     4   9  15  24  39  61  88 118 148 184 227 271
#     4   9  18  34  51  69  94 124 156 193 233 277
#
# _framework density 17.466958999999999
#
# number of rings (size 3 to 8) (size 9 to 14) (size 15 to 20)
#    0.000    2.800    0.000    2.400    0.000    4.400 
#    0.000    2.000    0.000    0.600    0.000    4.200 
#    0.000    0.000    0.000    0.000    0.000    0.000 
#
# Total GULP energy -495769.710771 kJ/mol
# GULP energy per Si atom -12394.242769 kJ/mol
# Density = 1.742720 g / cm^3
# Si number density = 17.466959 Si / 1000 Ang^3
#
#
#
# Elastic Constant Matrix: (Units=GPa)
#
#
# Indices 1 2 3 4 5 6 
#
# 1 127.3492 93.0448 45.8911 0.0000 0.0000 0.0000
# 2 93.0448 120.5028 43.5104 0.0000 0.0000 0.0000
# 3 45.8911 43.5104 61.2938 0.0000 0.0000 0.0000
# 4 0.0000 0.0000 0.0000 26.3617 0.0000 0.0000
# 5 0.0000 0.0000 0.0000 0.0000 25.6654 0.0000
# 6 0.0000 0.0000 0.0000 0.0000 0.0000 12.0223
#
#
#
# Elastic Compliance Matrix: (Units=1/GPa)
#
#
# Indices 1 2 3 4 5 6 
#
# 1 0.019161 -0.012929 -0.005168 0.000000 0.000000 0.000000
# 2 -0.012929 0.019882 -0.004434 0.000000 0.000000 0.000000
# 3 -0.005168 -0.004434 0.023332 0.000000 0.000000 0.000000
# 4 0.000000 0.000000 0.000000 0.037934 0.000000 0.000000
# 5 0.000000 0.000000 0.000000 0.000000 0.038963 0.000000
# 6 0.000000 0.000000 0.000000 0.000000 0.000000 0.083179
#
#
# Mechanical properties :
#
#
# Convention : Reuss Voigt Hill
#
# Bulk Modulus (GPa) = 57.75924 74.89314 66.32619
# Shear Modulus (GPa) = 18.29599 21.25652 19.77625
#
# Velocity S-wave (km/s) = 3.23996 3.49227 3.36848
# Velocity P-wave (km/s) = 6.86557 7.69620 7.29272
#
# Compressibility (1/GPa) = 0.01731325
#
# Stress axis : x y z
#
# Youngs Moduli (GPa) = 52.18939 50.29583 42.85991
#
# Poissons Ratio (x) = 0.65027 0.22151
# Poissons Ratio (y) = 0.67475 0.19004
# Poissons Ratio (z) = 0.26973 0.22301
#
# Static dielectric constant tensor:
#      x y z
#    x 4.012190 0.000000 0.000000 
#    y 0.000000 3.083130 0.000000 
#    z 0.000000 0.000000 3.266260 
# 
# 
# High freq. dielectric constant tensor:
#      x y z
#    x 1.688840 0.000000 0.000000 
#    y 0.000000 1.645750 0.000000 
#    z 0.000000 0.000000 1.678110 
# 
# From -- ./inp_files/1888.got.cif
#   From: 2010.03.12/outbox.cif.g09.slc.cpg/sg49_1_cif.got.tgz:1888.got - 2010.04.14 03:58:27.
