data_PCOD8203465
_publ_section_title
;
Structure prediction by ZEFSAII (Michael W. Deem and Ramdas Pophale) SiO2 
 PCOD8203465
Probable space group: P C C M
;
_chemical_formula_sum "Si O2"
_cell_formula_units_Z 64
_cell_length_a 23.325144
_cell_length_b 19.031332
_cell_length_c 8.896702
_cell_angle_alpha 90.000000
_cell_angle_beta 90.000000
_cell_angle_gamma 90.000000
_cell_volume 3949.322168
_symmetry_space_group_name_H-M "P C C M"
_symmetry_group_IT_number 49
_symmetry_cell_setting 'orthorhombic'
loop_
_space_group_symop_operation_xyz
x,y,z
-x,-y,z
x,-y,1/2-z
-x,y,1/2-z
-x,-y,-z
x,y,-z
-x,y,1/2+z
x,-y,1/2+z
loop_
_atom_site_type_symbol
_atom_site_label
_atom_site_fract_x
_atom_site_fract_y
_atom_site_fract_z
Si Si1 0.255669 0.430068 0.176693
Si Si2 0.841329 0.841591 0.323994
Si Si3 0.727689 0.074745 0.824629
Si Si4 0.440426 0.714121 0.677979
Si Si5 0.061186 0.073349 0.820301
Si Si6 0.613790 0.570467 0.822146
Si Si7 0.219402 0.720186 0.673386
Si Si8 0.333623 0.195630 0.826749
O O1 0.228217 0.500000 0.250000
O O2 0.320808 0.419863 0.233651
O O3 0.218564 0.361609 0.222491
O O4 0.254876 0.439846 0.000000
O O5 0.855908 0.844196 0.500000
O O6 0.788942 0.892500 0.280446
O O7 0.895580 0.865336 0.226591
O O8 0.825504 0.762127 0.276975
O O9 0.677185 0.125511 0.768475
O O10 0.720846 0.000000 0.750000
O O11 0.721529 0.064962 0.000000
O O12 0.500000 0.737528 0.750000
O O13 0.445713 0.714008 0.500000
O O14 0.422777 0.636718 0.736016
O O15 0.392640 0.770021 0.729871
O O16 0.000000 0.092621 0.750000
O O17 0.083375 0.000000 0.750000
O O18 0.056973 0.066906 0.000000
O O19 0.587153 0.500000 0.750000
O O20 0.610978 0.564436 0.000000
O O21 0.201283 0.729571 0.500000
O O22 0.283706 0.747649 0.698916
O O23 0.337179 0.173568 0.000000
#
# Coordination Sequence:
#
# PCOD8203465 Si02
#       8
#     8   8   8   8   8   8   8   8
#     4   9  16  27  44  65  90 121 156 191 232 284
#     4  10  20  32  47  72 102 129 162 200 234 275
#     4  10  20  32  49  73  97 120 148 185 229 276
#     4  10  20  33  48  65  87 116 150 188 230 278
#     4  11  21  34  51  71  99 137 175 207 238 273
#     4   9  17  30  45  63  87 117 152 188 227 273
#     4   9  16  29  48  67  90 123 158 194 238 284
#     4   9  17  32  50  65  87 117 148 184 230 281
#
# _framework density 16.205313
#
# number of rings (size 3 to 8) (size 9 to 14) (size 15 to 20)
#    0.000    2.375    1.250    2.625    0.000    4.250 
#    0.000    1.250    0.000    0.375    0.000    2.625 
#    0.000    0.500    0.000    5.250    0.000    2.875 
#
# Total GULP energy -793637.227949 kJ/mol
# GULP energy per Si atom -12400.581687 kJ/mol
# Density = 1.616843 g / cm^3
# Si number density = 16.205313 Si / 1000 Ang^3
#
#
#
# Elastic Constant Matrix: (Units=GPa)
#
#
# Indices 1 2 3 4 5 6 
#
# 1 77.4651 50.5922 36.9255 0.0000 0.0000 0.0000
# 2 50.5922 124.6494 44.7923 0.0000 0.0000 0.0000
# 3 36.9255 44.7923 61.8552 0.0000 0.0000 0.0000
# 4 0.0000 0.0000 0.0000 30.0479 0.0000 0.0000
# 5 0.0000 0.0000 0.0000 0.0000 23.5225 0.0000
# 6 0.0000 0.0000 0.0000 0.0000 0.0000 15.6298
#
#
#
# Elastic Compliance Matrix: (Units=1/GPa)
#
#
# Indices 1 2 3 4 5 6 
#
# 1 0.020304 -0.005252 -0.008318 0.000000 0.000000 0.000000
# 2 -0.005252 0.012203 -0.005701 0.000000 0.000000 0.000000
# 3 -0.008318 -0.005701 0.025261 0.000000 0.000000 0.000000
# 4 0.000000 0.000000 0.000000 0.033280 0.000000 0.000000
# 5 0.000000 0.000000 0.000000 0.000000 0.042512 0.000000
# 6 0.000000 0.000000 0.000000 0.000000 0.000000 0.063980
#
#
# Mechanical properties :
#
#
# Convention : Reuss Voigt Hill
#
# Bulk Modulus (GPa) = 52.01392 58.73219 55.37305
# Shear Modulus (GPa) = 20.61932 22.61735 21.61833
#
# Velocity S-wave (km/s) = 3.57091 3.73993 3.65640
# Velocity P-wave (km/s) = 7.01202 7.41422 7.21592
#
# Compressibility (1/GPa) = 0.01922562
#
# Stress axis : x y z
#
# Youngs Moduli (GPa) = 49.25179 81.94732 39.58706
#
# Poissons Ratio (x) = 0.43039 0.32927
# Poissons Ratio (y) = 0.25867 0.22570
# Poissons Ratio (z) = 0.40965 0.46722
#
# Static dielectric constant tensor:
#      x y z
#    x 2.877150 0.000000 0.000000 
#    y 0.000000 3.150290 0.000000 
#    z 0.000000 0.000000 3.034160 
# 
# 
# High freq. dielectric constant tensor:
#      x y z
#    x 1.590330 0.000000 0.000000 
#    y 0.000000 1.622070 0.000000 
#    z 0.000000 0.000000 1.625360 
# 
# From -- ./inp_files/5268.got.cif
#   From: 2010.03.12/outbox.cif.g09.slc.cpg/sg49_3_cif.got.tgz:5268.got - 2010.04.14 03:58:27.
