data_PCOD8203023
_publ_section_title
;
Structure prediction by ZEFSAII (Michael W. Deem and Ramdas Pophale) SiO2 
 PCOD8203023
Probable space group: P C C M
;
_chemical_formula_sum "Si O2"
_cell_formula_units_Z 64
_cell_length_a 20.157807
_cell_length_b 9.042942
_cell_length_c 17.657497
_cell_angle_alpha 90.000000
_cell_angle_beta 90.000000
_cell_angle_gamma 90.000000
_cell_volume 3218.712371
_symmetry_space_group_name_H-M "P C C M"
_symmetry_group_IT_number 49
_symmetry_cell_setting 'orthorhombic'
loop_
_space_group_symop_operation_xyz
x,y,z
-x,-y,z
x,-y,1/2-z
-x,y,1/2-z
-x,-y,-z
x,y,-z
-x,y,1/2+z
x,-y,1/2+z
loop_
_atom_site_type_symbol
_atom_site_label
_atom_site_fract_x
_atom_site_fract_y
_atom_site_fract_z
Si Si1 0.007487 0.839082 0.586410
Si Si2 0.249923 0.195534 0.088545
Si Si3 0.125108 0.636092 0.409595
Si Si4 0.770435 0.087623 0.824333
Si Si5 0.135051 0.698040 0.912658
Si Si6 0.490104 0.660862 0.164162
Si Si7 0.379571 0.895500 0.820817
Si Si8 0.394163 0.832767 0.412360
O O1 0.030063 0.865033 0.500000
O O2 0.063740 0.733186 0.624192
O O3 0.936971 0.765264 0.591815
O O4 0.000000 0.000000 0.626675
O O5 0.193933 0.300154 0.124469
O O6 0.324245 0.240181 0.115763
O O7 0.233085 0.026835 0.106984
O O8 0.247242 0.212557 0.000000
O O9 0.121647 0.641427 0.500000
O O10 0.124313 0.467767 0.382504
O O11 0.816789 0.220604 0.853025
O O12 0.696866 0.150978 0.805975
O O13 0.797830 0.000000 0.750000
O O14 0.162091 0.704180 0.000000
O O15 0.500000 0.500000 0.121985
O O16 0.500000 0.625088 0.250000
O O17 0.419329 0.744595 0.160436
O O18 0.546225 0.768915 0.135041
O O19 0.404425 0.000000 0.750000
O O20 0.388656 0.992312 0.896733
O O21 0.407806 0.804942 0.500000
#
# Coordination Sequence:
#
# PCOD8203023 Si02
#       8
#     8   8   8   8   8   8   8   8
#     4   9  16  27  49  81 111 141 183 232 274 320
#     4   9  18  35  57  80 108 140 179 225 276 330
#     4   9  17  30  52  82 114 146 181 227 283 337
#     4  10  21  35  54  79 108 142 188 230 271 328
#     4  10  19  32  52  80 113 146 185 234 286 333
#     4  11  23  37  57  83 112 147 183 221 276 338
#     4  10  20  38  60  79 107 145 186 232 274 328
#     4  10  21  36  58  86 110 141 185 230 277 329
#
# _framework density 19.883728000000001
#
# number of rings (size 3 to 8) (size 9 to 14) (size 15 to 20)
#    0.000    2.250    1.250    1.875    0.000    6.250 
#    0.000    0.625    0.000    3.375    0.000    3.500 
#    0.000    0.000    0.000    0.000    0.000    0.000 
#
# Total GULP energy -792860.158815 kJ/mol
# GULP energy per Si atom -12388.439981 kJ/mol
# Density = 1.983847 g / cm^3
# Si number density = 19.883728 Si / 1000 Ang^3
#
#
#
# Elastic Constant Matrix: (Units=GPa)
#
#
# Indices 1 2 3 4 5 6 
#
# 1 113.7474 67.2197 35.0553 0.0000 0.0000 0.0000
# 2 67.2197 136.1412 27.4217 0.0000 0.0000 0.0000
# 3 35.0553 27.4217 33.0530 0.0000 0.0000 0.0000
# 4 0.0000 0.0000 0.0000 19.7310 0.0000 0.0000
# 5 0.0000 0.0000 0.0000 0.0000 19.1589 0.0000
# 6 0.0000 0.0000 0.0000 0.0000 0.0000 16.7943
#
#
#
# Elastic Compliance Matrix: (Units=1/GPa)
#
#
# Indices 1 2 3 4 5 6 
#
# 1 0.015688 -0.005276 -0.012261 0.000000 0.000000 0.000000
# 2 -0.005276 0.010594 -0.003193 0.000000 0.000000 0.000000
# 3 -0.012261 -0.003193 0.045907 0.000000 0.000000 0.000000
# 4 0.000000 0.000000 0.000000 0.050682 0.000000 0.000000
# 5 0.000000 0.000000 0.000000 0.000000 0.052195 0.000000
# 6 0.000000 0.000000 0.000000 0.000000 0.000000 0.059544
#
#
# Mechanical properties :
#
#
# Convention : Reuss Voigt Hill
#
# Bulk Modulus (GPa) = 32.54319 60.25945 46.40132
# Shear Modulus (GPa) = 17.46340 21.35317 19.40829
#
# Velocity S-wave (km/s) = 2.96679 3.28060 3.12763
# Velocity P-wave (km/s) = 5.30453 6.68741 6.03571
#
# Compressibility (1/GPa) = 0.03072840
#
# Stress axis : x y z
#
# Youngs Moduli (GPa) = 63.74193 94.39645 21.78312
#
# Poissons Ratio (x) = 0.49807 0.26709
# Poissons Ratio (y) = 0.33633 0.06955
# Poissons Ratio (z) = 0.78155 0.30138
#
# Static dielectric constant tensor:
#      x y z
#    x 3.917320 0.000000 0.000000 
#    y 0.000000 3.829730 0.000000 
#    z 0.000000 0.000000 3.360070 
# 
# 
# High freq. dielectric constant tensor:
#      x y z
#    x 1.785950 0.000000 0.000000 
#    y 0.000000 1.771820 0.000000 
#    z 0.000000 0.000000 1.739130 
# 
# From -- ./inp_files/18338.got.cif
#   From: 2010.03.12/outbox.cif.g09.slc.cpg/sg49_10_cif.got.tgz:18338.got - 2010.04.14 03:58:27.
