data_PCOD8203701
_publ_section_title
;
Structure prediction by ZEFSAII (Michael W. Deem and Ramdas Pophale) SiO2 
 PCOD8203701
Probable space group: P C C M
;
_chemical_formula_sum "Si O2"
_cell_formula_units_Z 48
_cell_length_a 21.354056
_cell_length_b 5.057795
_cell_length_c 22.118794
_cell_angle_alpha 90.000000
_cell_angle_beta 90.000000
_cell_angle_gamma 90.000000
_cell_volume 2388.927908
_symmetry_space_group_name_H-M "P C C M"
_symmetry_group_IT_number 49
_symmetry_cell_setting 'orthorhombic'
loop_
_space_group_symop_operation_xyz
x,y,z
-x,-y,z
x,-y,1/2-z
-x,y,1/2-z
-x,-y,-z
x,y,-z
-x,y,1/2+z
x,-y,1/2+z
loop_
_atom_site_type_symbol
_atom_site_label
_atom_site_fract_x
_atom_site_fract_y
_atom_site_fract_z
Si Si1 0.170600 0.184718 0.371891
Si Si2 0.040389 0.740410 0.932701
Si Si3 0.334964 0.671871 0.641376
Si Si4 0.205422 0.680653 0.306785
Si Si5 0.528648 0.252873 0.317600
Si Si6 0.298956 0.156072 0.430206
O O1 0.100884 0.171685 0.395965
O O2 0.182532 0.495041 0.360996
O O3 0.224548 0.105438 0.419625
O O4 0.175431 0.976957 0.314405
O O5 0.000000 0.500000 0.902680
O O6 0.060673 0.648680 0.000000
O O7 0.000000 0.000000 0.935483
O O8 0.280148 0.719215 0.690485
O O9 0.396750 0.720255 0.681266
O O10 0.328734 0.382282 0.612189
O O11 0.333202 0.883819 0.587166
O O12 0.184720 0.500000 0.250000
O O13 0.500000 0.500000 0.353764
O O14 0.500000 0.251372 0.250000
O O15 0.500000 0.000000 0.351973
O O16 0.310945 0.223694 0.500000
#
# Coordination Sequence:
#
# PCOD8203701 Si02
#       6
#     8   8   8   8   8   8
#     4  10  20  36  55  84 115 148 189 231 289 337
#     4  10  20  34  56  85 115 149 187 235 287 337
#     4  10  21  36  56  85 114 142 188 232 285 334
#     4  10  21  35  56  82 113 150 182 239 287 334
#     4  10  21  36  55  82 110 146 177 228 284 342
#     4  10  20  36  59  83 112 151 186 231 281 339
#
# _framework density 20.092693000000001
#
# number of rings (size 3 to 8) (size 9 to 14) (size 15 to 20)
#    0.000    2.000    0.000    3.500    2.333    0.000 
#    6.000    5.000    0.000   17.500    0.000    0.000 
#    0.000    0.000    0.000    0.000    0.000    0.000 
#
# Total GULP energy -594643.608665 kJ/mol
# GULP energy per Si atom -12388.408514 kJ/mol
# Density = 2.004696 g / cm^3
# Si number density = 20.092693 Si / 1000 Ang^3
#
#
#
# Elastic Constant Matrix: (Units=GPa)
#
#
# Indices 1 2 3 4 5 6 
#
# 1 147.9126 39.1944 36.5965 0.0000 0.0000 0.0000
# 2 39.1944 139.8946 2.5244 0.0000 0.0000 0.0000
# 3 36.5965 2.5244 50.4300 0.0000 0.0000 0.0000
# 4 0.0000 0.0000 0.0000 19.9458 0.0000 0.0000
# 5 0.0000 0.0000 0.0000 0.0000 28.2175 0.0000
# 6 0.0000 0.0000 0.0000 0.0000 0.0000 29.6593
#
#
#
# Elastic Compliance Matrix: (Units=1/GPa)
#
#
# Indices 1 2 3 4 5 6 
#
# 1 0.008979 -0.002400 -0.006396 0.000000 0.000000 0.000000
# 2 -0.002400 0.007796 0.001352 0.000000 0.000000 0.000000
# 3 -0.006396 0.001352 0.024403 0.000000 0.000000 0.000000
# 4 0.000000 0.000000 0.000000 0.050136 0.000000 0.000000
# 5 0.000000 0.000000 0.000000 0.000000 0.035439 0.000000
# 6 0.000000 0.000000 0.000000 0.000000 0.000000 0.033716
#
#
# Mechanical properties :
#
#
# Convention : Reuss Voigt Hill
#
# Bulk Modulus (GPa) = 38.03794 54.98530 46.51162
# Shear Modulus (GPa) = 27.15582 32.89266 30.02424
#
# Velocity S-wave (km/s) = 3.68030 4.05043 3.86979
# Velocity P-wave (km/s) = 6.08538 7.02139 6.57007
#
# Compressibility (1/GPa) = 0.02628954
#
# Stress axis : x y z
#
# Youngs Moduli (GPa) = 111.36732 128.26517 40.97801
#
# Poissons Ratio (x) = 0.30788 0.26210
# Poissons Ratio (y) = 0.26732 -0.05539
# Poissons Ratio (z) = 0.71231 -0.17337
#
# Static dielectric constant tensor:
#      x y z
#    x 3.278290 0.000000 0.000000 
#    y 0.000000 3.432390 0.000000 
#    z 0.000000 0.000000 3.254570 
# 
# 
# High freq. dielectric constant tensor:
#      x y z
#    x 1.774870 0.000000 0.000000 
#    y 0.000000 1.819440 0.000000 
#    z 0.000000 0.000000 1.742340 
# 
# From -- ./inp_files/23298.got.cif
#   From: 2010.03.12/outbox.cif.g09.slc.cpg/sg49_12_cif.got.tgz:23298.got - 2010.04.14 03:58:27.
