data_PCOD8203463
_publ_section_title
;
Structure prediction by ZEFSAII (Michael W. Deem and Ramdas Pophale) SiO2 
 PCOD8203463
Probable space group: P C C M
;
_chemical_formula_sum "Si O2"
_cell_formula_units_Z 48
_cell_length_a 12.673401
_cell_length_b 7.744951
_cell_length_c 28.669108
_cell_angle_alpha 90.000000
_cell_angle_beta 90.000000
_cell_angle_gamma 90.000000
_cell_volume 2814.012562
_symmetry_space_group_name_H-M "P C C M"
_symmetry_group_IT_number 49
_symmetry_cell_setting 'orthorhombic'
loop_
_space_group_symop_operation_xyz
x,y,z
-x,-y,z
x,-y,1/2-z
-x,y,1/2-z
-x,-y,-z
x,y,-z
-x,y,1/2+z
x,-y,1/2+z
loop_
_atom_site_type_symbol
_atom_site_label
_atom_site_fract_x
_atom_site_fract_y
_atom_site_fract_z
Si Si1 0.378712 0.806461 0.616992
Si Si2 0.772374 0.706046 0.196897
Si Si3 1.000000 0.311754 0.194833
Si Si4 0.772373 0.706046 0.696897
Si Si5 0.378712 0.806461 0.116992
Si Si6 0.374747 0.500000 0.448032
O O1 0.315088 0.792585 0.664876
O O2 0.500000 0.763864 0.628893
O O3 0.334902 0.671280 0.578842
O O4 0.366944 1.000000 0.596609
O O5 0.747391 0.760303 0.250000
O O6 0.770540 0.500000 0.191780
O O7 0.888892 0.780002 0.181308
O O8 0.888891 0.219998 0.181308
O O9 0.000000 0.500000 0.170949
O O10 0.000000 0.336353 0.250000
O O11 0.684912 0.792585 0.664876
O O12 0.334902 0.671280 0.078842
O O13 0.500000 0.500000 0.451521
O O14 0.325516 0.500000 0.500000
#
# Coordination Sequence:
#
# PCOD8203463 Si02
#       6
#     8   8   8   8   8   8
#     4  10  20  32  47  71 100 126 156 192 232 282
#     4   9  16  28  47  69  97 131 163 195 230 271
#     4   7  12  24  43  67  91 121 163 202 231 262
#     4   9  16  28  47  69  97 131 163 195 230 271
#     4  10  20  32  47  71 100 126 156 192 232 282
#     4   9  18  34  53  70  91 120 155 196 241 285
#
# _framework density 17.057493999999998
#
# number of rings (size 3 to 8) (size 9 to 14) (size 15 to 20)
#    0.000    3.000    1.667    2.000    0.000    2.000 
#    0.000    7.500    0.000    3.000    0.000    2.333 
#    0.000    2.667    0.000    0.000    0.000    0.000 
#
# Total GULP energy -594682.149835 kJ/mol
# GULP energy per Si atom -12389.211455 kJ/mol
# Density = 1.701867 g / cm^3
# Si number density = 17.057494 Si / 1000 Ang^3
#
#
#
# Elastic Constant Matrix: (Units=GPa)
#
#
# Indices 1 2 3 4 5 6 
#
# 1 78.5873 31.4895 48.0568 0.0000 0.0000 0.0000
# 2 31.4895 90.1333 46.6903 0.0000 0.0000 0.0000
# 3 48.0568 46.6903 100.9620 0.0000 0.0000 0.0000
# 4 0.0000 0.0000 0.0000 8.7370 0.0000 0.0000
# 5 0.0000 0.0000 0.0000 0.0000 1.8018 0.0000
# 6 0.0000 0.0000 0.0000 0.0000 0.0000 9.3758
#
#
#
# Elastic Compliance Matrix: (Units=1/GPa)
#
#
# Indices 1 2 3 4 5 6 
#
# 1 0.018362 -0.002482 -0.007592 0.000000 0.000000 0.000000
# 2 -0.002482 0.014925 -0.005721 0.000000 0.000000 0.000000
# 3 -0.007592 -0.005721 0.016164 0.000000 0.000000 0.000000
# 4 0.000000 0.000000 0.000000 0.114456 0.000000 0.000000
# 5 0.000000 0.000000 0.000000 0.000000 0.555010 0.000000
# 6 0.000000 0.000000 0.000000 0.000000 0.000000 0.106658
#
#
# Mechanical properties :
#
#
# Convention : Reuss Voigt Hill
#
# Bulk Modulus (GPa) = 55.98766 58.01732 57.00249
# Shear Modulus (GPa) = 5.79294 13.54597 9.66945
#
# Velocity S-wave (km/s) = 1.84486 2.82110 2.38350
# Velocity P-wave (km/s) = 6.11818 6.68566 6.40821
#
# Compressibility (1/GPa) = 0.01786108
#
# Stress axis : x y z
#
# Youngs Moduli (GPa) = 54.46029 67.00029 61.86537
#
# Poissons Ratio (x) = 0.16631 0.46970
# Poissons Ratio (y) = 0.13518 0.35392
# Poissons Ratio (z) = 0.41347 0.38329
#
# Static dielectric constant tensor:
#      x y z
#    x 3.366230 0.000000 0.000000 
#    y 0.000000 3.148140 0.000000 
#    z 0.000000 0.000000 3.027300 
# 
# 
# High freq. dielectric constant tensor:
#      x y z
#    x 1.645790 0.000000 0.000000 
#    y 0.000000 1.654690 0.000000 
#    z 0.000000 0.000000 1.620230 
# 
# From -- ./inp_files/26595.got.cif
#   From: 2010.03.12/outbox.cif.g09.slc.cpg/sg49_14_cif.got.tgz:26595.got - 2010.04.14 03:58:27.
