data_PCOD8203549
_publ_section_title
;
Structure prediction by ZEFSAII (Michael W. Deem and Ramdas Pophale) SiO2 
 PCOD8203549
Probable space group: P C C M
;
_chemical_formula_sum "Si O2"
_cell_formula_units_Z 42
_cell_length_a 25.695815
_cell_length_b 10.097130
_cell_length_c 8.909716
_cell_angle_alpha 90.000000
_cell_angle_beta 90.000000
_cell_angle_gamma 90.000000
_cell_volume 2311.661317
_symmetry_space_group_name_H-M "P C C M"
_symmetry_group_IT_number 49
_symmetry_cell_setting 'orthorhombic'
loop_
_space_group_symop_operation_xyz
x,y,z
-x,-y,z
x,-y,1/2-z
-x,y,1/2-z
-x,-y,-z
x,y,-z
-x,y,1/2+z
x,-y,1/2+z
loop_
_atom_site_type_symbol
_atom_site_label
_atom_site_fract_x
_atom_site_fract_y
_atom_site_fract_z
Si Si1 0.048910 0.748868 0.835226
Si Si2 0.000000 0.000000 0.750000
Si Si3 0.145089 0.358022 0.825346
Si Si4 0.740721 0.358110 0.675193
Si Si5 0.360697 0.643800 0.823221
Si Si6 0.555234 0.863789 0.677766
O O1 0.102044 0.737942 0.742965
O O2 0.000000 0.678007 0.750000
O O3 0.036566 0.905613 0.851798
O O4 0.055319 0.685445 0.000000
O O5 0.139922 0.500000 0.750000
O O6 0.202430 0.291925 0.798500
O O7 0.134396 0.376842 0.000000
O O8 0.744286 0.500000 0.750000
O O9 0.727984 0.370797 0.500000
O O10 0.692140 0.287003 0.757458
O O11 0.371301 0.500000 0.750000
O O12 0.407115 0.742597 0.781601
O O13 0.354874 0.624977 0.000000
O O14 0.500000 0.827938 0.750000
O O15 0.549501 0.883245 0.500000
O O16 0.576952 0.000000 0.750000
#
# Coordination Sequence:
#
# PCOD8203549 Si02
#       6
#     8   2   8   8   8   8
#     4  10  20  34  54  74  97 128 163 204 249 297
#     4   8  22  36  56  72  94 124 170 202 252 300
#     4  10  20  33  51  77 106 132 166 204 249 304
#     4   9  17  30  50  75 103 136 167 204 250 301
#     4  10  20  33  53  81 109 139 177 219 263 313
#     4  10  21  36  55  78 105 141 181 219 265 317
#
# _framework density 18.168749999999999
#
# number of rings (size 3 to 8) (size 9 to 14) (size 15 to 20)
#    0.571    1.714    0.000    4.857    0.000    6.095 
#    0.000    3.810    2.095    0.000    0.000    0.000 
#    0.000    0.000    0.000    0.000    0.000    0.000 
#
# Total GULP energy -520341.170447 kJ/mol
# GULP energy per Si atom -12389.075487 kJ/mol
# Density = 1.812740 g / cm^3
# Si number density = 18.168750 Si / 1000 Ang^3
#
#
#
# Elastic Constant Matrix: (Units=GPa)
#
#
# Indices 1 2 3 4 5 6 
#
# 1 157.2050 64.2874 78.3568 0.0000 0.0000 0.0000
# 2 64.2874 70.0830 40.4737 0.0000 0.0000 0.0000
# 3 78.3568 40.4737 140.3407 0.0000 0.0000 0.0000
# 4 0.0000 0.0000 0.0000 20.5375 0.0000 0.0000
# 5 0.0000 0.0000 0.0000 0.0000 0.8456 0.0000
# 6 0.0000 0.0000 0.0000 0.0000 0.0000 4.9625
#
#
#
# Elastic Compliance Matrix: (Units=1/GPa)
#
#
# Indices 1 2 3 4 5 6 
#
# 1 0.011947 -0.008527 -0.004211 0.000000 0.000000 0.000000
# 2 -0.008527 0.023206 -0.001932 0.000000 0.000000 0.000000
# 3 -0.004211 -0.001932 0.010034 0.000000 0.000000 0.000000
# 4 0.000000 0.000000 0.000000 0.048691 0.000000 0.000000
# 5 0.000000 0.000000 0.000000 0.000000 1.182609 0.000000
# 6 0.000000 0.000000 0.000000 0.000000 0.000000 0.201510
#
#
# Mechanical properties :
#
#
# Convention : Reuss Voigt Hill
#
# Bulk Modulus (GPa) = 63.10241 81.54051 72.32146
# Shear Modulus (GPa) = 3.30552 17.56985 10.43769
#
# Velocity S-wave (km/s) = 1.35029 3.11310 2.39944
# Velocity P-wave (km/s) = 6.10227 7.60913 6.89698
#
# Compressibility (1/GPa) = 0.01584725
#
# Stress axis : x y z
#
# Youngs Moduli (GPa) = 83.70050 43.09155 99.66187
#
# Poissons Ratio (x) = 0.36745 0.41971
# Poissons Ratio (y) = 0.71374 0.19251
# Poissons Ratio (z) = 0.35249 0.08324
#
# Static dielectric constant tensor:
#      x y z
#    x 3.963610 0.000000 0.000000 
#    y 0.000000 2.968230 0.000000 
#    z 0.000000 0.000000 3.528760 
# 
# 
# High freq. dielectric constant tensor:
#      x y z
#    x 1.718420 0.000000 0.000000 
#    y 0.000000 1.658610 0.000000 
#    z 0.000000 0.000000 1.723690 
# 
# From -- ./inp_files/6291.got.cif
#   From: 2010.03.12/outbox.cif.g09.slc.cpg/sg49_4_cif.got.tgz:6291.got - 2010.04.14 03:58:27.
