data_PCOD8203521
_publ_section_title
;
Structure prediction by ZEFSAII (Michael W. Deem and Ramdas Pophale) SiO2 
 PCOD8203521
Probable space group: P C C M
;
_chemical_formula_sum "Si O2"
_cell_formula_units_Z 48
_cell_length_a 14.669817
_cell_length_b 18.581711
_cell_length_c 9.054631
_cell_angle_alpha 90.000000
_cell_angle_beta 90.000000
_cell_angle_gamma 90.000000
_cell_volume 2468.204580
_symmetry_space_group_name_H-M "P C C M"
_symmetry_group_IT_number 49
_symmetry_cell_setting 'orthorhombic'
loop_
_space_group_symop_operation_xyz
x,y,z
-x,-y,z
x,-y,1/2-z
-x,y,1/2-z
-x,-y,-z
x,y,-z
-x,y,1/2+z
x,-y,1/2+z
loop_
_atom_site_type_symbol
_atom_site_label
_atom_site_fract_x
_atom_site_fract_y
_atom_site_fract_z
Si Si1 0.922462 0.284268 0.339390
Si Si2 0.764313 0.822432 0.834829
Si Si3 0.142701 0.568498 0.326460
Si Si4 0.407497 0.730838 0.323997
Si Si5 0.094478 0.077525 0.678559
Si Si6 0.352878 0.571330 0.326976
O O1 0.964652 0.293919 0.500000
O O2 0.826207 0.247122 0.348336
O O3 0.906854 0.361317 0.262125
O O4 0.000000 0.240716 0.250000
O O5 0.669233 0.789637 0.773535
O O6 0.815345 0.877028 0.723439
O O7 0.752861 0.856951 0.000000
O O8 0.096328 0.500000 0.250000
O O9 0.130850 0.563446 0.500000
O O10 0.247884 0.573386 0.282325
O O11 0.500000 0.759172 0.250000
O O12 0.413391 0.732239 0.500000
O O13 0.391835 0.648277 0.269567
O O14 0.085896 0.074372 0.500000
O O15 0.000000 0.108799 0.750000
O O16 0.110481 0.000000 0.750000
O O17 0.397838 0.500000 0.250000
O O18 0.369691 0.563096 0.500000
#
# Coordination Sequence:
#
# PCOD8203521 Si02
#       6
#     8   8   8   8   8   8
#     4  10  20  33  50  72 101 137 178 220 269 327
#     4  10  20  38  59  80 113 152 184 227 282 331
#     4   9  17  31  48  66  92 131 176 221 271 326
#     4  10  21  37  57  80 110 147 189 238 293 347
#     4  11  22  38  62  94 127 158 190 224 264 319
#     4   9  17  32  52  73  99 137 182 234 293 347
#
# _framework density 19.447334000000001
#
# number of rings (size 3 to 8) (size 9 to 14) (size 15 to 20)
#    0.000    2.167    1.667    2.500    0.000    4.667 
#    0.000    3.333    0.000    0.500    0.000    3.500 
#    0.000    0.000    0.000    0.000    0.000    0.000 
#
# Total GULP energy -594627.416582 kJ/mol
# GULP energy per Si atom -12388.071179 kJ/mol
# Density = 1.940307 g / cm^3
# Si number density = 19.447334 Si / 1000 Ang^3
#
#
#
# Elastic Constant Matrix: (Units=GPa)
#
#
# Indices 1 2 3 4 5 6 
#
# 1 113.1283 43.6269 45.6386 0.0000 0.0000 0.0000
# 2 43.6269 93.3450 39.9034 0.0000 0.0000 0.0000
# 3 45.6386 39.9034 73.0054 0.0000 0.0000 0.0000
# 4 0.0000 0.0000 0.0000 24.6966 0.0000 0.0000
# 5 0.0000 0.0000 0.0000 0.0000 24.8104 0.0000
# 6 0.0000 0.0000 0.0000 0.0000 0.0000 29.5731
#
#
#
# Elastic Compliance Matrix: (Units=1/GPa)
#
#
# Indices 1 2 3 4 5 6 
#
# 1 0.012544 -0.003276 -0.006051 0.000000 0.000000 0.000000
# 2 -0.003276 0.014835 -0.006060 0.000000 0.000000 0.000000
# 3 -0.006051 -0.006060 0.020793 0.000000 0.000000 0.000000
# 4 0.000000 0.000000 0.000000 0.040491 0.000000 0.000000
# 5 0.000000 0.000000 0.000000 0.000000 0.040306 0.000000
# 6 0.000000 0.000000 0.000000 0.000000 0.000000 0.033814
#
#
# Mechanical properties :
#
#
# Convention : Reuss Voigt Hill
#
# Bulk Modulus (GPa) = 57.48265 59.75739 58.62002
# Shear Modulus (GPa) = 25.08055 25.83667 25.45861
#
# Velocity S-wave (km/s) = 3.59509 3.64888 3.62208
# Velocity P-wave (km/s) = 6.84508 6.96756 6.90659
#
# Compressibility (1/GPa) = 0.01739655
#
# Stress axis : x y z
#
# Youngs Moduli (GPa) = 79.71885 67.40904 48.09304
#
# Poissons Ratio (x) = 0.22083 0.29102
# Poissons Ratio (y) = 0.26116 0.29147
# Poissons Ratio (z) = 0.48240 0.40853
#
# Static dielectric constant tensor:
#      x y z
#    x 3.511410 0.000000 0.000000 
#    y 0.000000 3.595530 0.000000 
#    z 0.000000 0.000000 3.980820 
# 
# 
# High freq. dielectric constant tensor:
#      x y z
#    x 1.749330 0.000000 0.000000 
#    y 0.000000 1.751120 0.000000 
#    z 0.000000 0.000000 1.744670 
# 
# From -- ./inp_files/3742.got.cif
#   From: 2010.03.12/outbox.cif.g09.slc.cpg/sg49_2_cif.got.tgz:3742.got - 2010.04.14 03:58:27.
