data_PCOD8203134
_publ_section_title
;
Structure prediction by ZEFSAII (Michael W. Deem and Ramdas Pophale) SiO2 
 PCOD8203134
Probable space group: P C C M
;
_chemical_formula_sum "Si O2"
_cell_formula_units_Z 56
_cell_length_a 14.336171
_cell_length_b 11.608213
_cell_length_c 16.314354
_cell_angle_alpha 90.000000
_cell_angle_beta 90.000000
_cell_angle_gamma 90.000000
_cell_volume 2714.991177
_symmetry_space_group_name_H-M "P C C M"
_symmetry_group_IT_number 49
_symmetry_cell_setting 'orthorhombic'
loop_
_space_group_symop_operation_xyz
x,y,z
-x,-y,z
x,-y,1/2-z
-x,y,1/2-z
-x,-y,-z
x,y,-z
-x,y,1/2+z
x,-y,1/2+z
loop_
_atom_site_type_symbol
_atom_site_label
_atom_site_fract_x
_atom_site_fract_y
_atom_site_fract_z
Si Si1 0.044165 0.274197 0.902762
Si Si2 0.855712 0.167168 0.096093
Si Si3 0.811067 0.084458 0.597116
Si Si4 0.317918 0.732866 0.352877
Si Si5 0.713853 0.332118 0.166201
Si Si6 0.187309 0.453251 0.092086
Si Si7 0.508554 0.626600 0.346488
O O1 0.109995 0.171661 0.872099
O O2 0.087998 0.398596 0.875195
O O3 0.941758 0.243003 0.866241
O O4 0.040346 0.275940 0.000000
O O5 0.760900 0.229939 0.117135
O O6 0.842514 0.039124 0.133544
O O7 0.872505 0.155951 0.000000
O O8 0.801193 0.076189 0.500000
O O9 0.712435 0.133390 0.633635
O O10 0.291429 0.689969 0.262361
O O11 0.259201 0.653161 0.414807
O O12 0.427392 0.715199 0.374820
O O13 0.771735 0.449978 0.152239
O O14 0.610527 0.330713 0.127544
O O15 0.174567 0.504892 0.000000
O O16 0.500000 0.500000 0.386979
O O17 0.500000 0.613352 0.250000
#
# Coordination Sequence:
#
# PCOD8203134 Si02
#       7
#     8   8   8   8   8   8   8
#     4   8  16  32  56  79 102 142 187 217 254 319
#     4  10  20  35  54  79 111 144 181 227 270 315
#     4   9  18  35  58  80 104 140 188 231 267 315
#     4  10  19  35  57  78 104 141 183 229 273 318
#     4  11  21  33  53  81 111 141 179 223 273 327
#     4  10  19  33  53  81 112 141 178 220 266 322
#     4   9  17  33  55  77 102 140 182 218 262 330
#
# _framework density 20.626218999999999
#
# number of rings (size 3 to 8) (size 9 to 14) (size 15 to 20)
#    0.000    2.429    1.429    2.571    0.000    2.857 
#    0.000    9.286    0.000   11.143    0.000    0.000 
#    0.000    0.000    0.000    0.000    0.000    0.000 
#
# Total GULP energy -693812.128542 kJ/mol
# GULP energy per Si atom -12389.502295 kJ/mol
# Density = 2.057927 g / cm^3
# Si number density = 20.626219 Si / 1000 Ang^3
#
#
#
# Elastic Constant Matrix: (Units=GPa)
#
#
# Indices 1 2 3 4 5 6 
#
# 1 165.3424 73.5935 23.8165 0.0000 0.0000 0.0000
# 2 73.5935 90.9611 20.9321 0.0000 0.0000 0.0000
# 3 23.8165 20.9321 20.9632 0.0000 0.0000 0.0000
# 4 0.0000 0.0000 0.0000 24.8523 0.0000 0.0000
# 5 0.0000 0.0000 0.0000 0.0000 24.6907 0.0000
# 6 0.0000 0.0000 0.0000 0.0000 0.0000 26.6257
#
#
#
# Elastic Compliance Matrix: (Units=1/GPa)
#
#
# Indices 1 2 3 4 5 6 
#
# 1 0.009721 -0.006912 -0.004143 0.000000 0.000000 0.000000
# 2 -0.006912 0.019188 -0.011307 0.000000 0.000000 0.000000
# 3 -0.004143 -0.011307 0.063699 0.000000 0.000000 0.000000
# 4 0.000000 0.000000 0.000000 0.040238 0.000000 0.000000
# 5 0.000000 0.000000 0.000000 0.000000 0.040501 0.000000
# 6 0.000000 0.000000 0.000000 0.000000 0.000000 0.037558
#
#
# Mechanical properties :
#
#
# Convention : Reuss Voigt Hill
#
# Bulk Modulus (GPa) = 20.88308 57.10563 38.99435
# Shear Modulus (GPa) = 18.41015 25.82873 22.11944
#
# Velocity S-wave (km/s) = 2.99082 3.54252 3.27830
# Velocity P-wave (km/s) = 4.69821 6.66923 5.76853
#
# Compressibility (1/GPa) = 0.04788565
#
# Stress axis : x y z
#
# Youngs Moduli (GPa) = 102.86785 52.11676 15.69873
#
# Poissons Ratio (x) = 0.36022 0.06504
# Poissons Ratio (y) = 0.71100 0.17750
# Poissons Ratio (z) = 0.42617 0.58927
#
# Static dielectric constant tensor:
#      x y z
#    x 4.156830 0.000000 0.000000 
#    y 0.000000 3.908580 0.000000 
#    z 0.000000 0.000000 3.311920 
# 
# 
# High freq. dielectric constant tensor:
#      x y z
#    x 1.810690 0.000000 0.000000 
#    y 0.000000 1.798380 0.000000 
#    z 0.000000 0.000000 1.770770 
# 
# From -- ./inp_files/13553.got.cif
#   From: 2010.03.12/outbox.cif.g09.slc.cpg/sg49_7_cif.got.tgz:13553.got - 2010.04.14 03:58:27.
