data_PCOD8203872
_publ_section_title
;
Structure prediction by ZEFSAII (Michael W. Deem and Ramdas Pophale) SiO2 
 PCOD8203872
Probable space group: P C C M
;
_chemical_formula_sum "Si O2"
_cell_formula_units_Z 48
_cell_length_a 30.881156
_cell_length_b 9.586597
_cell_length_c 8.676026
_cell_angle_alpha 90.000000
_cell_angle_beta 90.000000
_cell_angle_gamma 90.000000
_cell_volume 2568.495830
_symmetry_space_group_name_H-M "P C C M"
_symmetry_group_IT_number 49
_symmetry_cell_setting 'orthorhombic'
loop_
_space_group_symop_operation_xyz
x,y,z
-x,-y,z
x,-y,1/2-z
-x,y,1/2-z
-x,-y,-z
x,y,-z
-x,y,1/2+z
x,-y,1/2+z
loop_
_atom_site_type_symbol
_atom_site_label
_atom_site_fract_x
_atom_site_fract_y
_atom_site_fract_z
Si Si1 0.545820 0.353442 0.680325
Si Si2 0.136404 0.151258 0.819101
Si Si3 0.041890 0.846928 0.319763
Si Si4 0.624087 0.846684 0.181663
Si Si5 0.788170 0.648947 0.183716
Si Si6 0.303716 0.349178 0.316973
O O1 0.562073 0.500000 0.750000
O O2 0.500000 0.307001 0.750000
O O3 0.540307 0.375136 0.500000
O O4 0.579835 0.233424 0.720691
O O5 0.089026 0.218251 0.777504
O O6 0.174228 0.249453 0.755535
O O7 0.142952 0.000000 0.750000
O O8 0.140580 0.134625 0.000000
O O9 0.035153 0.855513 0.500000
O O10 0.000000 0.763769 0.250000
O O11 0.042010 0.000000 0.250000
O O12 0.662886 0.767610 0.264970
O O13 0.619998 0.000000 0.250000
O O14 0.633107 0.852522 0.000000
O O15 0.800848 0.500000 0.250000
O O16 0.742737 0.699618 0.253513
O O17 0.784583 0.643170 0.000000
O O18 0.317053 0.500000 0.250000
O O19 0.302381 0.360699 0.500000
#
# Coordination Sequence:
#
# PCOD8203872 Si02
#       6
#     8   8   8   8   8   8
#     4  10  21  37  60  86 113 146 187 228 269 316
#     4   9  19  32  49  73 102 132 167 210 257 308
#     4   9  15  25  41  65  94 126 162 203 249 299
#     4  11  24  40  58  84 115 149 184 224 273 324
#     4  10  20  36  55  77 104 136 174 217 261 313
#     4  11  22  38  60  83 107 140 180 223 266 318
#
# _framework density 18.687978999999999
#
# number of rings (size 3 to 8) (size 9 to 14) (size 15 to 20)
#    0.000    2.000    0.000    6.000    0.000    7.000 
#    0.000    3.333    0.000    0.500    0.000    3.500 
#    0.000    0.000    0.000    0.000    0.000    0.000 
#
# Total GULP energy -595037.982443 kJ/mol
# GULP energy per Si atom -12396.624634 kJ/mol
# Density = 1.864544 g / cm^3
# Si number density = 18.687979 Si / 1000 Ang^3
#
#
#
# Elastic Constant Matrix: (Units=GPa)
#
#
# Indices 1 2 3 4 5 6 
#
# 1 165.1013 93.6751 69.9371 0.0000 0.0000 0.0000
# 2 93.6751 105.2248 50.1958 0.0000 0.0000 0.0000
# 3 69.9371 50.1958 110.1900 0.0000 0.0000 0.0000
# 4 0.0000 0.0000 0.0000 22.8739 0.0000 0.0000
# 5 0.0000 0.0000 0.0000 0.0000 34.8437 0.0000
# 6 0.0000 0.0000 0.0000 0.0000 0.0000 -0.9026
#
#
#
# Elastic Compliance Matrix: (Units=1/GPa)
#
#
# Indices 1 2 3 4 5 6 
#
# 1 0.013456 -0.010100 -0.003940 0.000000 0.000000 0.000000
# 2 -0.010100 0.019723 -0.002574 0.000000 0.000000 0.000000
# 3 -0.003940 -0.002574 0.012748 0.000000 0.000000 0.000000
# 4 0.000000 0.000000 0.000000 0.043718 0.000000 0.000000
# 5 0.000000 0.000000 0.000000 0.000000 0.028700 0.000000
# 6 0.000000 0.000000 0.000000 0.000000 0.000000 -1.107893
#
#
# Mechanical properties :
#
#
# Convention : Reuss Voigt Hill
#
# Bulk Modulus (GPa) = 78.74090 89.79245 84.26668
# Shear Modulus (GPa) = -5.25162 22.47686 8.61262
#
# Velocity S-wave (km/s) = -1.67817 3.47182 2.14910
# Velocity P-wave (km/s) = 6.20250 8.01398 7.16571
#
# Compressibility (1/GPa) = 0.01269988
#
# Stress axis : x y z
#
# Youngs Moduli (GPa) = 74.31513 50.70305 78.44147
#
# Poissons Ratio (x) = 0.51209 0.30904
# Poissons Ratio (y) = 0.75057 0.20192
# Poissons Ratio (z) = 0.29278 0.13052
#
# Static dielectric constant tensor:
#      x y z
#    x 4.210620 0.000000 0.000000 
#    y 0.000000 2.696800 0.000000 
#    z 0.000000 0.000000 3.544860 
# 
# 
# High freq. dielectric constant tensor:
#      x y z
#    x 1.749470 0.000000 0.000000 
#    y 0.000000 1.695700 0.000000 
#    z 0.000000 0.000000 1.741120 
# 
# From -- ./inp_files/6882.got.cif
#   From: 2010.03.12/outbox.cif.g09.slc.cpg/sg49_4_cif.got.tgz:6882.got - 2010.04.14 03:58:27.
