data_PCOD8203829
_publ_section_title
;
Structure prediction by ZEFSAII (Michael W. Deem and Ramdas Pophale) SiO2 
 PCOD8203829
Probable space group: P C C M
;
_chemical_formula_sum "Si O2"
_cell_formula_units_Z 40
_cell_length_a 23.148391
_cell_length_b 8.924348
_cell_length_c 10.148884
_cell_angle_alpha 90.000000
_cell_angle_beta 90.000000
_cell_angle_gamma 90.000000
_cell_volume 2096.600066
_symmetry_space_group_name_H-M "P C C M"
_symmetry_group_IT_number 49
_symmetry_cell_setting 'orthorhombic'
loop_
_space_group_symop_operation_xyz
x,y,z
-x,-y,z
x,-y,1/2-z
-x,y,1/2-z
-x,-y,-z
x,y,-z
-x,y,1/2+z
x,-y,1/2+z
loop_
_atom_site_type_symbol
_atom_site_label
_atom_site_fract_x
_atom_site_fract_y
_atom_site_fract_z
Si Si1 0.631240 0.677372 0.737562
Si Si2 0.573814 0.321575 0.500000
Si Si3 0.056485 0.825473 0.000000
Si Si4 0.866529 0.177158 0.761906
Si Si5 0.072823 0.181162 0.000000
Si Si6 0.556705 0.321511 0.000000
Si Si7 0.243696 0.356381 0.657394
O O1 0.627676 0.500000 0.750000
O O2 0.610396 0.742469 0.877229
O O3 0.587412 0.742937 0.629642
O O4 0.696006 0.722973 0.696315
O O5 0.565690 0.499993 0.500000
O O6 0.508524 0.260204 0.500000
O O7 0.087744 0.766374 0.130386
O O8 0.992304 0.755031 0.000000
O O9 0.061896 0.004258 0.000000
O O10 0.890417 0.240288 0.623911
O O11 0.804647 0.237814 0.803996
O O12 0.861020 0.000000 0.750000
O O13 0.233823 0.500000 0.750000
O O14 0.242873 0.396406 0.500000
#
# Coordination Sequence:
#
# PCOD8203829 Si02
#       7
#     8   4   4   8   4   4   8
#     4   9  17  27  42  63  94 133 171 207 256 309
#     4   9  16  23  40  62  93 125 166 215 256 312
#     4   9  16  33  53  81 111 133 166 215 266 314
#     4  10  20  35  57  82 108 135 173 221 262 306
#     4   9  18  29  55  85 105 133 170 213 268 316
#     4   9  14  25  38  62  91 129 166 209 260 308
#     4  11  23  37  54  74 107 147 182 215 257 316
#
# _framework density 19.078507999999999
#
# number of rings (size 3 to 8) (size 9 to 14) (size 15 to 20)
#    0.000    2.400    2.000    1.200    5.600    4.800 
#    0.000    0.000    0.000    3.600    0.000    0.000 
#    0.000    4.800    0.000    0.000    0.000    0.000 
#
# Total GULP energy -495705.703817 kJ/mol
# GULP energy per Si atom -12392.642595 kJ/mol
# Density = 1.903508 g / cm^3
# Si number density = 19.078508 Si / 1000 Ang^3
#
#
#
# Elastic Constant Matrix: (Units=GPa)
#
#
# Indices 1 2 3 4 5 6 
#
# 1 170.9461 18.9323 100.5128 0.0000 0.0000 0.0000
# 2 18.9323 11.4955 17.8672 0.0000 0.0000 0.0000
# 3 100.5128 17.8672 209.6031 0.0000 0.0000 0.0000
# 4 0.0000 0.0000 0.0000 8.9191 0.0000 0.0000
# 5 0.0000 0.0000 0.0000 0.0000 41.6977 0.0000
# 6 0.0000 0.0000 0.0000 0.0000 0.0000 -7.5012
#
#
#
# Elastic Compliance Matrix: (Units=1/GPa)
#
#
# Indices 1 2 3 4 5 6 
#
# 1 0.008931 -0.009282 -0.003491 0.000000 0.000000 0.000000
# 2 -0.009282 0.109923 -0.004919 0.000000 0.000000 0.000000
# 3 -0.003491 -0.004919 0.006865 0.000000 0.000000 0.000000
# 4 0.000000 0.000000 0.000000 0.112119 0.000000 0.000000
# 5 0.000000 0.000000 0.000000 0.000000 0.023982 0.000000
# 6 0.000000 0.000000 0.000000 0.000000 0.000000 -0.133313
#
#
# Mechanical properties :
#
#
# Convention : Reuss Voigt Hill
#
# Bulk Modulus (GPa) = 11.07011 74.07436 42.57224
# Shear Modulus (GPa) = 25.77298 25.60528 25.68913
#
# Velocity S-wave (km/s) = 3.67943 3.66744 3.67344
# Velocity P-wave (km/s) = 4.88528 7.53949 6.35255
#
# Compressibility (1/GPa) = 0.09033337
#
# Stress axis : x y z
#
# Youngs Moduli (GPa) = 111.97476 9.09731 145.67698
#
# Poissons Ratio (x) = 0.08444 0.50861
# Poissons Ratio (y) = 1.03930 0.71662
# Poissons Ratio (z) = 0.39095 0.04475
#
# Static dielectric constant tensor:
#      x y z
#    x 3.738070 0.000000 0.000000 
#    y 0.000000 2.696510 0.000000 
#    z 0.000000 0.000000 3.964050 
# 
# 
# High freq. dielectric constant tensor:
#      x y z
#    x 1.761730 0.000000 0.000000 
#    y 0.000000 1.656210 0.000000 
#    z 0.000000 0.000000 1.768380 
# 
# From -- ./inp_files/2824.got.cif
#   From: 2010.03.12/outbox.cif.g09.slc.cpg/sg49_2_cif.got.tgz:2824.got - 2010.04.14 03:58:27.
