data_PCOD8203555
_publ_section_title
;
Structure prediction by ZEFSAII (Michael W. Deem and Ramdas Pophale) SiO2 
 PCOD8203555
Probable space group: P C C M
;
_chemical_formula_sum "Si O2"
_cell_formula_units_Z 56
_cell_length_a 14.779026
_cell_length_b 22.661046
_cell_length_c 8.860813
_cell_angle_alpha 90.000000
_cell_angle_beta 90.000000
_cell_angle_gamma 90.000000
_cell_volume 2967.558826
_symmetry_space_group_name_H-M "P C C M"
_symmetry_group_IT_number 49
_symmetry_cell_setting 'orthorhombic'
loop_
_space_group_symop_operation_xyz
x,y,z
-x,-y,z
x,-y,1/2-z
-x,y,1/2-z
-x,-y,-z
x,y,-z
-x,y,1/2+z
x,-y,1/2+z
loop_
_atom_site_type_symbol
_atom_site_label
_atom_site_fract_x
_atom_site_fract_y
_atom_site_fract_z
Si Si1 0.907900 0.737514 0.676531
Si Si2 0.094312 0.937773 0.821445
Si Si3 0.407292 0.340527 0.822679
Si Si4 0.405945 0.793630 0.677953
Si Si5 0.769423 0.834491 0.323096
Si Si6 0.093825 0.397535 0.321489
Si Si7 0.271282 0.440944 0.820897
O O1 0.921215 0.745107 0.500000
O O2 0.825217 0.777444 0.733895
O O3 0.888037 0.670418 0.723399
O O4 0.000000 0.760864 0.750000
O O5 0.174102 0.892596 0.780960
O O6 0.000000 0.915257 0.750000
O O7 0.122658 0.000000 0.750000
O O8 0.080956 0.944079 0.000000
O O9 0.500000 0.362920 0.750000
O O10 0.384922 0.273769 0.770764
O O11 0.328347 0.384123 0.767389
O O12 0.419710 0.343824 0.000000
O O13 0.500000 0.815270 0.750000
O O14 0.414132 0.799448 0.500000
O O15 0.325866 0.835682 0.736532
O O16 0.749558 0.830915 0.500000
O O17 0.091980 0.407113 0.500000
O O18 0.171277 0.436347 0.246709
O O19 0.000000 0.419252 0.250000
O O20 0.315733 0.500000 0.750000
O O21 0.267457 0.446154 0.000000
#
# Coordination Sequence:
#
# PCOD8203555 Si02
#       7
#     8   8   8   8   8   8   8
#     4   9  18  31  49  75 106 135 166 206 255 309
#     4  10  20  34  53  77 110 149 188 225 261 302
#     4   9  20  37  57  80 106 135 167 206 256 311
#     4  10  20  35  56  81 107 137 171 211 259 312
#     4  10  20  33  51  78 109 141 176 217 261 307
#     4  10  20  35  54  75 100 133 168 207 256 308
#     4  11  23  38  54  75 101 130 169 213 254 303
#
# _framework density 18.870729000000001
#
# number of rings (size 3 to 8) (size 9 to 14) (size 15 to 20)
#    0.000    2.143    0.000    3.429    0.000    4.571 
#    0.000    2.857    0.000    0.429    0.000    3.000 
#    0.000    0.000    0.000    0.000    0.000    0.000 
#
# Total GULP energy -694567.535724 kJ/mol
# GULP energy per Si atom -12402.991709 kJ/mol
# Density = 1.882778 g / cm^3
# Si number density = 18.870729 Si / 1000 Ang^3
#
#
#
# Elastic Constant Matrix: (Units=GPa)
#
#
# Indices 1 2 3 4 5 6 
#
# 1 138.4934 55.7746 49.8607 0.0000 0.0000 0.0000
# 2 55.7746 74.7412 36.3629 0.0000 0.0000 0.0000
# 3 49.8607 36.3629 69.1395 0.0000 0.0000 0.0000
# 4 0.0000 0.0000 0.0000 24.4595 0.0000 0.0000
# 5 0.0000 0.0000 0.0000 0.0000 36.4369 0.0000
# 6 0.0000 0.0000 0.0000 0.0000 0.0000 21.6382
#
#
#
# Elastic Compliance Matrix: (Units=1/GPa)
#
#
# Indices 1 2 3 4 5 6 
#
# 1 0.011516 -0.006119 -0.005087 0.000000 0.000000 0.000000
# 2 -0.006119 0.021231 -0.006754 0.000000 0.000000 0.000000
# 3 -0.005087 -0.006754 0.021684 0.000000 0.000000 0.000000
# 4 0.000000 0.000000 0.000000 0.040884 0.000000 0.000000
# 5 0.000000 0.000000 0.000000 0.000000 0.027445 0.000000
# 6 0.000000 0.000000 0.000000 0.000000 0.000000 0.046215
#
#
# Mechanical properties :
#
#
# Convention : Reuss Voigt Hill
#
# Bulk Modulus (GPa) = 54.01696 62.93006 58.47351
# Shear Modulus (GPa) = 23.68945 25.86532 24.77738
#
# Velocity S-wave (km/s) = 3.54694 3.70626 3.62747
# Velocity P-wave (km/s) = 6.74250 7.19274 6.97125
#
# Compressibility (1/GPa) = 0.01851271
#
# Stress axis : x y z
#
# Youngs Moduli (GPa) = 86.83431 47.09995 46.11717
#
# Poissons Ratio (x) = 0.28820 0.23459
# Poissons Ratio (y) = 0.53134 0.31146
# Poissons Ratio (z) = 0.44171 0.31809
#
# Static dielectric constant tensor:
#      x y z
#    x 3.480960 0.000000 0.000000 
#    y 0.000000 3.487290 0.000000 
#    z 0.000000 0.000000 3.392270 
# 
# 
# High freq. dielectric constant tensor:
#      x y z
#    x 1.732800 0.000000 0.000000 
#    y 0.000000 1.721200 0.000000 
#    z 0.000000 0.000000 1.736930 
# 
# From -- ./inp_files/4019.got.cif
#   From: 2010.03.12/outbox.cif.g09.slc.cpg/sg49_3_cif.got.tgz:4019.got - 2010.04.14 03:58:27.
