data_PCOD8203405
_publ_section_title
;
Structure prediction by ZEFSAII (Michael W. Deem and Ramdas Pophale) SiO2 
 PCOD8203405
Probable space group: P C C M
;
_chemical_formula_sum "Si O2"
_cell_formula_units_Z 40
_cell_length_a 10.035527
_cell_length_b 8.605347
_cell_length_c 22.893782
_cell_angle_alpha 90.000000
_cell_angle_beta 90.000000
_cell_angle_gamma 90.000000
_cell_volume 1977.088519
_symmetry_space_group_name_H-M "P C C M"
_symmetry_group_IT_number 49
_symmetry_cell_setting 'orthorhombic'
loop_
_space_group_symop_operation_xyz
x,y,z
-x,-y,z
x,-y,1/2-z
-x,y,1/2-z
-x,-y,-z
x,y,-z
-x,y,1/2+z
x,-y,1/2+z
loop_
_atom_site_type_symbol
_atom_site_label
_atom_site_fract_x
_atom_site_fract_y
_atom_site_fract_z
Si Si1 0.001514 0.315509 0.121613
Si Si2 0.272372 0.334859 0.672386
Si Si3 0.908961 0.349815 0.500000
Si Si4 0.249922 0.695250 0.307886
Si Si5 0.472594 0.178435 0.116757
Si Si6 0.598284 0.645892 0.000000
O O1 0.052581 0.252119 0.058389
O O2 0.101876 0.255938 0.171775
O O3 0.000000 0.500000 0.121447
O O4 0.852434 0.261513 0.137091
O O5 0.280891 0.521185 0.669699
O O6 0.260454 0.282903 0.739080
O O7 0.401681 0.268362 0.642141
O O8 0.754190 0.403024 0.500000
O O9 0.000000 0.500000 0.500000
O O10 0.355078 0.811609 0.336212
O O11 0.428602 0.252377 0.056384
O O12 0.500000 0.000000 0.104816
O O13 0.500000 0.500000 0.000000
#
# Coordination Sequence:
#
# PCOD8203405 Si02
#       6
#     8   8   4   8   8   4
#     4   9  18  33  59  92 125 151 202 267 316 358
#     4  10  21  36  63  93 121 161 210 258 309 364
#     4  10  20  35  63  98 121 147 195 262 323 362
#     4  10  19  38  62  91 123 161 210 260 306 361
#     4  12  26  41  59  88 130 167 203 251 308 369
#     4  12  25  43  71  92 120 160 208 258 307 369
#
# _framework density 20.231770000000001
#
# number of rings (size 3 to 8) (size 9 to 14) (size 15 to 20)
#    0.000    1.600    2.000    3.300    5.600    5.600 
#    0.000    1.000    0.000    3.600    0.000    0.000 
#    0.000    0.000    0.000    0.000    0.000    0.000 
#
# Total GULP energy -495972.162929 kJ/mol
# GULP energy per Si atom -12399.304073 kJ/mol
# Density = 2.018572 g / cm^3
# Si number density = 20.231770 Si / 1000 Ang^3
#
#
#
# Elastic Constant Matrix: (Units=GPa)
#
#
# Indices 1 2 3 4 5 6 
#
# 1 155.5497 24.9163 68.4574 0.0000 0.0000 0.0000
# 2 24.9163 52.4223 23.4345 0.0000 0.0000 0.0000
# 3 68.4574 23.4345 130.9319 0.0000 0.0000 0.0000
# 4 0.0000 0.0000 0.0000 -22.5916 0.0000 0.0000
# 5 0.0000 0.0000 0.0000 0.0000 45.9997 0.0000
# 6 0.0000 0.0000 0.0000 0.0000 0.0000 5.7329
#
#
#
# Elastic Compliance Matrix: (Units=1/GPa)
#
#
# Indices 1 2 3 4 5 6 
#
# 1 0.008589 -0.002255 -0.004087 0.000000 0.000000 0.000000
# 2 -0.002255 0.021327 -0.002638 0.000000 0.000000 0.000000
# 3 -0.004087 -0.002638 0.010247 0.000000 0.000000 0.000000
# 4 0.000000 0.000000 0.000000 -0.044264 0.000000 0.000000
# 5 0.000000 0.000000 0.000000 0.000000 0.021739 0.000000
# 6 0.000000 0.000000 0.000000 0.000000 0.000000 0.174432
#
#
# Mechanical properties :
#
#
# Convention : Reuss Voigt Hill
#
# Bulk Modulus (GPa) = 45.04109 63.61337 54.32723
# Shear Modulus (GPa) = 22.99584 20.63457 21.81521
#
# Velocity S-wave (km/s) = 3.37504 3.19707 3.28726
# Velocity P-wave (km/s) = 6.12362 6.71855 6.42797
#
# Compressibility (1/GPa) = 0.02220195
#
# Stress axis : x y z
#
# Youngs Moduli (GPa) = 116.43177 46.88879 97.59362
#
# Poissons Ratio (x) = 0.10574 0.39886
# Poissons Ratio (y) = 0.26258 0.25746
# Poissons Ratio (z) = 0.47585 0.12369
#
# Static dielectric constant tensor:
#      x y z
#    x 4.031600 0.000000 0.000000 
#    y 0.000000 3.213940 0.000000 
#    z 0.000000 0.000000 4.339980 
# 
# 
# High freq. dielectric constant tensor:
#      x y z
#    x 1.813050 0.000000 0.000000 
#    y 0.000000 1.735990 0.000000 
#    z 0.000000 0.000000 1.814490 
# 
# From -- ./inp_files/24367.got.cif
#   From: 2010.03.12/outbox.cif.g09.slc.cpg/sg49_13_cif.got.tgz:24367.got - 2010.04.14 03:58:27.
