data_PCOD8203048
_publ_section_title
;
Structure prediction by ZEFSAII (Michael W. Deem and Ramdas Pophale) SiO2 
 PCOD8203048
Probable space group: P C C M
;
_chemical_formula_sum "Si O2"
_cell_formula_units_Z 40
_cell_length_a 7.499204
_cell_length_b 22.182398
_cell_length_c 10.423134
_cell_angle_alpha 90.000000
_cell_angle_beta 90.000000
_cell_angle_gamma 90.000000
_cell_volume 1733.891758
_symmetry_space_group_name_H-M "P C C M"
_symmetry_group_IT_number 49
_symmetry_cell_setting 'orthorhombic'
loop_
_space_group_symop_operation_xyz
x,y,z
-x,-y,z
x,-y,1/2-z
-x,y,1/2-z
-x,-y,-z
x,y,-z
-x,y,1/2+z
x,-y,1/2+z
loop_
_atom_site_type_symbol
_atom_site_label
_atom_site_fract_x
_atom_site_fract_y
_atom_site_fract_z
Si Si1 0.287292 0.431309 0.252893
Si Si2 0.687278 0.036218 0.357918
Si Si3 0.790159 0.839168 0.759439
Si Si4 0.713524 0.625866 0.000000
Si Si5 0.311249 0.365637 0.500000
Si Si6 0.767669 0.228146 0.000000
Si Si7 0.182601 0.239893 0.000000
O O1 0.221163 0.500000 0.250000
O O2 0.500000 0.427090 0.250000
O O3 0.197634 0.401124 0.127793
O O4 0.213171 0.393070 0.374520
O O5 0.777010 0.037381 0.500000
O O6 0.672342 0.103295 0.300513
O O7 0.500000 0.000000 0.368533
O O8 0.803408 0.000000 0.250000
O O9 0.718477 0.811791 0.625149
O O10 0.000000 0.856091 0.750000
O O11 0.751760 0.791886 0.871134
O O12 0.507772 0.606627 0.000000
O O13 0.725886 0.696672 0.000000
O O14 0.328688 0.292814 0.500000
O O15 0.972365 0.245800 0.000000
#
# Coordination Sequence:
#
# PCOD8203048 Si02
#       7
#     8   8   8   4   4   4   4
#     4   9  17  30  52  78 111 149 189 238 288 340
#     4  10  22  42  63  88 120 148 188 237 288 349
#     4  10  21  40  61  85 114 153 200 234 280 351
#     4  10  19  32  54  80 109 145 193 237 286 344
#     4  10  19  34  50  84 115 139 195 241 288 340
#     4  10  22  37  59  84 116 156 188 241 290 342
#     4  10  20  39  59  80 114 154 196 233 290 344
#
# _framework density 23.069490999999999
#
# number of rings (size 3 to 8) (size 9 to 14) (size 15 to 20)
#    0.000    2.200    1.000    1.800    1.400    2.800 
#    7.200    1.000    0.000    3.600    0.000    0.000 
#    0.000    0.000    0.000    0.000    0.000    0.000 
#
# Total GULP energy -495588.843215 kJ/mol
# GULP energy per Si atom -12389.721080 kJ/mol
# Density = 2.301698 g / cm^3
# Si number density = 23.069491 Si / 1000 Ang^3
#
#
#
# Elastic Constant Matrix: (Units=GPa)
#
#
# Indices 1 2 3 4 5 6 
#
# 1 28.2877 13.8315 8.2256 0.0000 0.0000 0.0000
# 2 13.8315 187.9445 113.7622 0.0000 0.0000 0.0000
# 3 8.2256 113.7622 279.3168 0.0000 0.0000 0.0000
# 4 0.0000 0.0000 0.0000 50.5166 0.0000 0.0000
# 5 0.0000 0.0000 0.0000 0.0000 2.0091 0.0000
# 6 0.0000 0.0000 0.0000 0.0000 0.0000 -78.0152
#
#
#
# Elastic Compliance Matrix: (Units=1/GPa)
#
#
# Indices 1 2 3 4 5 6 
#
# 1 0.036671 -0.002714 0.000026 0.000000 0.000000 0.000000
# 2 -0.002714 0.007263 -0.002878 0.000000 0.000000 0.000000
# 3 0.000026 -0.002878 0.004752 0.000000 0.000000 0.000000
# 4 0.000000 0.000000 0.000000 0.019795 0.000000 0.000000
# 5 0.000000 0.000000 0.000000 0.000000 0.497726 0.000000
# 6 0.000000 0.000000 0.000000 0.000000 0.000000 -0.012818
#
#
# Mechanical properties :
#
#
# Convention : Reuss Voigt Hill
#
# Bulk Modulus (GPa) = 26.63003 85.24307 55.93655
# Shear Modulus (GPa) = 8.66493 18.88407 13.77450
#
# Velocity S-wave (km/s) = 1.94015 2.86418 2.44619
# Velocity P-wave (km/s) = 4.07276 6.92595 5.68138
#
# Compressibility (1/GPa) = 0.03755159
#
# Stress axis : x y z
#
# Youngs Moduli (GPa) = 27.26964 137.69343 210.45611
#
# Poissons Ratio (x) = 0.37373 -0.00538
# Poissons Ratio (y) = 0.07402 0.60569
# Poissons Ratio (z) = -0.00070 0.39628
#
# Static dielectric constant tensor:
#      x y z
#    x 3.539440 0.000000 0.000000 
#    y 0.000000 4.098480 0.000000 
#    z 0.000000 0.000000 5.156600 
# 
# 
# High freq. dielectric constant tensor:
#      x y z
#    x 1.865310 0.000000 0.000000 
#    y 0.000000 1.919370 0.000000 
#    z 0.000000 0.000000 1.942810 
# 
# From -- ./inp_files/8165.got.cif
#   From: 2010.03.12/outbox.cif.g09.slc.cpg/sg49_5_cif.got.tgz:8165.got - 2010.04.14 03:58:27.
