data_PCOD8203649
_publ_section_title
;
Structure prediction by ZEFSAII (Michael W. Deem and Ramdas Pophale) SiO2 
 PCOD8203649
Probable space group: P C C M
;
_chemical_formula_sum "Si O2"
_cell_formula_units_Z 64
_cell_length_a 24.704954
_cell_length_b 15.368265
_cell_length_c 8.794417
_cell_angle_alpha 90.000000
_cell_angle_beta 90.000000
_cell_angle_gamma 90.000000
_cell_volume 3338.996353
_symmetry_space_group_name_H-M "P C C M"
_symmetry_group_IT_number 49
_symmetry_cell_setting 'orthorhombic'
loop_
_space_group_symop_operation_xyz
x,y,z
-x,-y,z
x,-y,1/2-z
-x,y,1/2-z
-x,-y,-z
x,y,-z
-x,y,1/2+z
x,-y,1/2+z
loop_
_atom_site_type_symbol
_atom_site_label
_atom_site_fract_x
_atom_site_fract_y
_atom_site_fract_z
Si Si1 0.781128 0.872144 0.321696
Si Si2 0.668535 0.085739 0.320533
Si Si3 0.637975 0.278449 0.325168
Si Si4 0.441836 0.409873 0.679739
Si Si5 0.140010 0.409910 0.824892
Si Si6 0.057066 0.734233 0.319756
Si Si7 0.760116 0.302314 0.673733
Si Si8 0.893246 0.914278 0.819854
O O1 0.782174 0.890656 0.500000
O O2 0.728247 0.914480 0.248501
O O3 0.781276 0.769380 0.290236
O O4 0.832562 0.914549 0.243058
O O5 0.672084 0.076567 0.500000
O O6 0.638147 0.176128 0.278025
O O7 0.638454 0.000000 0.250000
O O8 0.619790 0.288748 0.500000
O O9 0.597037 0.329382 0.217294
O O10 0.696933 0.321776 0.299573
O O11 0.418872 0.500000 0.750000
O O12 0.500000 0.388675 0.750000
O O13 0.446896 0.420614 0.500000
O O14 0.124535 0.500000 0.750000
O O15 0.101959 0.333582 0.758999
O O16 0.203466 0.387594 0.796636
O O17 0.127271 0.421054 0.000000
O O18 0.053138 0.732480 0.500000
O O19 0.074161 0.829916 0.262200
O O20 0.000000 0.707236 0.250000
O O21 0.768728 0.268224 0.500000
O O22 0.922258 0.000000 0.750000
O O23 0.891961 0.919076 0.000000
#
# Coordination Sequence:
#
# PCOD8203649 Si02
#       8
#     8   8   8   8   8   8   8   8
#     4  11  20  31  52  81 111 146 188 229 272 328
#     4  10  20  34  53  79 117 159 196 237 282 333
#     4   9  19  35  57  85 117 156 193 234 287 340
#     4  11  22  38  61  86 117 153 196 246 291 344
#     4  10  21  39  60  84 111 145 181 224 278 333
#     4  10  23  42  62  79 107 141 179 228 281 335
#     4   9  18  36  57  79 116 153 184 224 279 335
#     4  11  22  38  57  80 109 142 179 223 276 336
#
# _framework density 19.167437
#
# number of rings (size 3 to 8) (size 9 to 14) (size 15 to 20)
#    0.000    1.875    1.250    4.500    0.000    5.500 
#    0.000    3.750    0.000    0.375    0.000    2.625 
#    0.000    0.000    0.000    0.000    0.000    0.000 
#
# Total GULP energy -793558.349651 kJ/mol
# GULP energy per Si atom -12399.349213 kJ/mol
# Density = 1.912381 g / cm^3
# Si number density = 19.167437 Si / 1000 Ang^3
#
#
#
# Elastic Constant Matrix: (Units=GPa)
#
#
# Indices 1 2 3 4 5 6 
#
# 1 81.2162 59.1969 35.7753 0.0000 0.0000 0.0000
# 2 59.1969 147.3452 51.2665 0.0000 0.0000 0.0000
# 3 35.7753 51.2665 88.2621 0.0000 0.0000 0.0000
# 4 0.0000 0.0000 0.0000 36.0804 0.0000 0.0000
# 5 0.0000 0.0000 0.0000 0.0000 25.2980 0.0000
# 6 0.0000 0.0000 0.0000 0.0000 0.0000 14.8692
#
#
#
# Elastic Compliance Matrix: (Units=1/GPa)
#
#
# Indices 1 2 3 4 5 6 
#
# 1 0.018463 -0.006033 -0.003979 0.000000 0.000000 0.000000
# 2 -0.006033 0.010477 -0.003640 0.000000 0.000000 0.000000
# 3 -0.003979 -0.003640 0.015057 0.000000 0.000000 0.000000
# 4 0.000000 0.000000 0.000000 0.027716 0.000000 0.000000
# 5 0.000000 0.000000 0.000000 0.000000 0.039529 0.000000
# 6 0.000000 0.000000 0.000000 0.000000 0.000000 0.067253
#
#
# Mechanical properties :
#
#
# Convention : Reuss Voigt Hill
#
# Bulk Modulus (GPa) = 59.90829 67.70008 63.80419
# Shear Modulus (GPa) = 23.65580 26.62185 25.13883
#
# Velocity S-wave (km/s) = 3.51688 3.73085 3.62545
# Velocity P-wave (km/s) = 6.91479 7.34548 7.13339
#
# Compressibility (1/GPa) = 0.01669218
#
# Stress axis : x y z
#
# Youngs Moduli (GPa) = 54.16200 95.44549 66.41332
#
# Poissons Ratio (x) = 0.57583 0.26428
# Poissons Ratio (y) = 0.32677 0.24176
# Poissons Ratio (z) = 0.21553 0.34744
#
# Static dielectric constant tensor:
#      x y z
#    x 3.337540 0.000000 0.000000 
#    y 0.000000 3.733080 0.000000 
#    z 0.000000 0.000000 3.446830 
# 
# 
# High freq. dielectric constant tensor:
#      x y z
#    x 1.722660 0.000000 0.000000 
#    y 0.000000 1.754010 0.000000 
#    z 0.000000 0.000000 1.744450 
# 
# From -- ./inp_files/6496.got.cif
#   From: 2010.03.12/outbox.cif.g09.slc.cpg/sg49_4_cif.got.tgz:6496.got - 2010.04.14 03:58:27.
