data_PCOD8203562
_publ_section_title
;
Structure prediction by ZEFSAII (Michael W. Deem and Ramdas Pophale) SiO2 
 PCOD8203562
Probable space group: P C C M
;
_chemical_formula_sum "Si O2"
_cell_formula_units_Z 56
_cell_length_a 12.312460
_cell_length_b 13.696800
_cell_length_c 16.969858
_cell_angle_alpha 90.000000
_cell_angle_beta 90.000000
_cell_angle_gamma 90.000000
_cell_volume 2861.818950
_symmetry_space_group_name_H-M "P C C M"
_symmetry_group_IT_number 49
_symmetry_cell_setting 'orthorhombic'
loop_
_space_group_symop_operation_xyz
x,y,z
-x,-y,z
x,-y,1/2-z
-x,y,1/2-z
-x,-y,-z
x,y,-z
-x,y,1/2+z
x,-y,1/2+z
loop_
_atom_site_type_symbol
_atom_site_label
_atom_site_fract_x
_atom_site_fract_y
_atom_site_fract_z
Si Si1 0.613325 0.036360 0.660291
Si Si2 0.100749 0.246926 0.307051
Si Si3 0.208454 0.401568 0.792880
Si Si4 0.262828 0.875643 0.092013
Si Si5 0.030563 0.611987 0.586739
Si Si6 0.453289 0.397815 0.833334
Si Si7 0.499459 0.203322 0.090529
O O1 0.595171 0.152403 0.645960
O O2 0.500000 0.000000 0.621765
O O3 0.623600 0.000000 0.750000
O O4 0.714934 0.990507 0.612161
O O5 0.193465 0.305093 0.259981
O O6 0.162008 0.159175 0.353112
O O7 0.000000 0.210868 0.250000
O O8 0.059236 0.324402 0.369859
O O9 0.164525 0.500000 0.750000
O O10 0.145194 0.379307 0.872214
O O11 0.328367 0.417701 0.820997
O O12 0.375440 0.820597 0.114508
O O13 0.232244 0.862685 0.000000
O O14 0.041844 0.656088 0.500000
O O15 0.000000 0.500000 0.584925
O O16 0.500000 0.500000 0.863632
O O17 0.500000 0.362816 0.750000
O O18 0.481787 0.318270 0.898919
O O19 0.479095 0.174446 0.000000
#
# Coordination Sequence:
#
# PCOD8203562 Si02
#       7
#     8   8   8   8   8   8   8
#     4   9  19  34  59  91 119 153 193 242 291 352
#     4  10  21  34  57  84 113 150 203 251 305 354
#     4  11  20  35  53  75 109 154 201 245 290 354
#     4  10  20  36  60  89 120 151 190 247 308 356
#     4  10  20  33  52  76 105 142 194 253 303 352
#     4  11  23  36  55  82 119 164 202 235 286 362
#     4  10  22  37  57  87 125 161 198 246 299 360
#
# _framework density 19.567974
#
# number of rings (size 3 to 8) (size 9 to 14) (size 15 to 20)
#    0.000    1.857    2.857    1.714    6.000    2.571 
#    0.000    0.000    0.000    0.429    0.000    1.000 
#    0.000    0.000    0.000    0.000    0.000    0.000 
#
# Total GULP energy -693919.794891 kJ/mol
# GULP energy per Si atom -12391.424909 kJ/mol
# Density = 1.952344 g / cm^3
# Si number density = 19.567974 Si / 1000 Ang^3
#
#
#
# Elastic Constant Matrix: (Units=GPa)
#
#
# Indices 1 2 3 4 5 6 
#
# 1 102.3634 45.8559 45.3724 0.0000 0.0000 0.0000
# 2 45.8559 89.8955 38.4928 0.0000 0.0000 0.0000
# 3 45.3724 38.4928 111.0951 0.0000 0.0000 0.0000
# 4 0.0000 0.0000 0.0000 27.9554 0.0000 0.0000
# 5 0.0000 0.0000 0.0000 0.0000 19.1518 0.0000
# 6 0.0000 0.0000 0.0000 0.0000 0.0000 31.9820
#
#
#
# Elastic Compliance Matrix: (Units=1/GPa)
#
#
# Indices 1 2 3 4 5 6 
#
# 1 0.013894 -0.005469 -0.003780 0.000000 0.000000 0.000000
# 2 -0.005469 0.015215 -0.003038 0.000000 0.000000 0.000000
# 3 -0.003780 -0.003038 0.011598 0.000000 0.000000 0.000000
# 4 0.000000 0.000000 0.000000 0.035771 0.000000 0.000000
# 5 0.000000 0.000000 0.000000 0.000000 0.052214 0.000000
# 6 0.000000 0.000000 0.000000 0.000000 0.000000 0.031268
#
#
# Mechanical properties :
#
#
# Convention : Reuss Voigt Hill
#
# Bulk Modulus (GPa) = 61.98438 62.53289 62.25864
# Shear Modulus (GPa) = 26.32807 27.39337 26.86072
#
# Velocity S-wave (km/s) = 3.67204 3.74559 3.70900
# Velocity P-wave (km/s) = 7.05150 7.12265 7.08716
#
# Compressibility (1/GPa) = 0.01613310
#
# Stress axis : x y z
#
# Youngs Moduli (GPa) = 71.97104 65.72581 86.22492
#
# Poissons Ratio (x) = 0.35947 0.32590
# Poissons Ratio (y) = 0.39362 0.26195
# Poissons Ratio (z) = 0.27203 0.19968
#
# Static dielectric constant tensor:
#      x y z
#    x 3.474830 0.000000 0.000000 
#    y 0.000000 3.658760 0.000000 
#    z 0.000000 0.000000 3.628130 
# 
# 
# High freq. dielectric constant tensor:
#      x y z
#    x 1.747620 0.000000 0.000000 
#    y 0.000000 1.750350 0.000000 
#    z 0.000000 0.000000 1.765690 
# 
# From -- ./inp_files/12884.got.cif
#   From: 2010.03.12/outbox.cif.g09.slc.cpg/sg49_7_cif.got.tgz:12884.got - 2010.04.14 03:58:27.
