data_PCOD8203941
_publ_section_title
;
Structure prediction by ZEFSAII (Michael W. Deem and Ramdas Pophale) SiO2 
 PCOD8203941
Probable space group: P C C M
;
_chemical_formula_sum "Si O2"
_cell_formula_units_Z 56
_cell_length_a 21.024678
_cell_length_b 15.126619
_cell_length_c 8.950195
_cell_angle_alpha 90.000000
_cell_angle_beta 90.000000
_cell_angle_gamma 90.000000
_cell_volume 2846.451045
_symmetry_space_group_name_H-M "P C C M"
_symmetry_group_IT_number 49
_symmetry_cell_setting 'orthorhombic'
loop_
_space_group_symop_operation_xyz
x,y,z
-x,-y,z
x,-y,1/2-z
-x,y,1/2-z
-x,-y,-z
x,y,-z
-x,y,1/2+z
x,-y,1/2+z
loop_
_atom_site_type_symbol
_atom_site_label
_atom_site_fract_x
_atom_site_fract_y
_atom_site_fract_z
Si Si1 0.563523 0.322427 0.333450
Si Si2 0.561941 0.888270 0.167150
Si Si3 0.686703 0.312836 0.163482
Si Si4 0.175740 0.271377 0.676300
Si Si5 0.811511 0.087846 0.676839
Si Si6 0.065652 0.591901 0.823560
Si Si7 0.682266 0.107319 0.164471
O O1 0.500000 0.357465 0.250000
O O2 0.561152 0.361323 0.500000
O O3 0.563952 0.217305 0.335869
O O4 0.630181 0.357171 0.260663
O O5 0.500000 0.923306 0.250000
O O6 0.619148 0.931192 0.261081
O O7 0.563880 0.925920 0.000000
O O8 0.758368 0.317640 0.234260
O O9 0.671541 0.210554 0.144904
O O10 0.685897 0.358811 0.000000
O O11 0.183229 0.251917 0.500000
O O12 0.159743 0.178520 0.756365
O O13 0.118459 0.336078 0.714554
O O14 0.821772 0.086758 0.500000
O O15 0.737454 0.084361 0.719064
O O16 0.844375 0.000000 0.750000
O O17 0.087352 0.500000 0.750000
O O18 0.000000 0.624618 0.750000
O O19 0.056494 0.578992 0.000000
O O20 0.695998 0.065833 0.000000
#
# Coordination Sequence:
#
# PCOD8203941 Si02
#       7
#     8   8   8   8   8   8   8
#     4   9  15  21  31  50  79 116 159 207 259 313
#     4   9  15  22  33  51  74 105 149 202 262 323
#     4   8  14  25  40  59  87 123 164 211 263 313
#     4   9  19  35  54  78 110 147 184 226 274 322
#     4  11  21  33  51  74 101 135 177 224 271 320
#     4  10  20  36  60  90 124 157 188 220 259 313
#     4   9  16  27  41  58  83 116 158 210 265 319
#
# _framework density 19.673622000000002
#
# number of rings (size 3 to 8) (size 9 to 14) (size 15 to 20)
#    0.000    2.714    0.000    4.286    0.000    8.000 
#    0.000    0.000    0.000    0.857    0.000    6.000 
#    0.000    0.571    0.000    6.571    0.000    7.000 
#
# Total GULP energy -693963.173849 kJ/mol
# GULP energy per Si atom -12392.199533 kJ/mol
# Density = 1.962884 g / cm^3
# Si number density = 19.673622 Si / 1000 Ang^3
#
#
#
# Elastic Constant Matrix: (Units=GPa)
#
#
# Indices 1 2 3 4 5 6 
#
# 1 127.5465 62.8741 63.3622 0.0000 0.0000 0.0000
# 2 62.8741 60.2631 41.4719 0.0000 0.0000 0.0000
# 3 63.3622 41.4719 139.4430 0.0000 0.0000 0.0000
# 4 0.0000 0.0000 0.0000 14.6847 0.0000 0.0000
# 5 0.0000 0.0000 0.0000 0.0000 24.1685 0.0000
# 6 0.0000 0.0000 0.0000 0.0000 0.0000 -17.9123
#
#
#
# Elastic Compliance Matrix: (Units=1/GPa)
#
#
# Indices 1 2 3 4 5 6 
#
# 1 0.017150 -0.015755 -0.003107 0.000000 0.000000 0.000000
# 2 -0.015755 0.035338 -0.003351 0.000000 0.000000 0.000000
# 3 -0.003107 -0.003351 0.009580 0.000000 0.000000 0.000000
# 4 0.000000 0.000000 0.000000 0.068098 0.000000 0.000000
# 5 0.000000 0.000000 0.000000 0.000000 0.041376 0.000000
# 6 0.000000 0.000000 0.000000 0.000000 0.000000 -0.055827
#
#
# Mechanical properties :
#
#
# Convention : Reuss Voigt Hill
#
# Bulk Modulus (GPa) = 56.68445 73.62988 65.15717
# Shear Modulus (GPa) = 30.11662 14.82447 22.47054
#
# Velocity S-wave (km/s) = 3.91680 2.74801 3.38326
# Velocity P-wave (km/s) = 7.02354 6.89751 6.96081
#
# Compressibility (1/GPa) = 0.01764152
#
# Stress axis : x y z
#
# Youngs Moduli (GPa) = 58.30773 28.29854 104.38535
#
# Poissons Ratio (x) = 0.44585 0.32436
# Poissons Ratio (y) = 0.91864 0.34977
# Poissons Ratio (z) = 0.18118 0.09482
#
# Static dielectric constant tensor:
#      x y z
#    x 3.532590 0.000000 0.000000 
#    y 0.000000 3.273870 0.000000 
#    z 0.000000 0.000000 4.296860 
# 
# 
# High freq. dielectric constant tensor:
#      x y z
#    x 1.747530 0.000000 0.000000 
#    y 0.000000 1.732960 0.000000 
#    z 0.000000 0.000000 1.775530 
# 
# From -- ./inp_files/5886.got.cif
#   From: 2010.03.12/outbox.cif.g09.slc.cpg/sg49_3_cif.got.tgz:5886.got - 2010.04.14 03:58:27.
