data_PCOD8203278
_publ_section_title
;
Structure prediction by ZEFSAII (Michael W. Deem and Ramdas Pophale) SiO2 
 PCOD8203278
Probable space group: P C C M
;
_chemical_formula_sum "Si O2"
_cell_formula_units_Z 58
_cell_length_a 13.179616
_cell_length_b 9.495943
_cell_length_c 24.155961
_cell_angle_alpha 90.000000
_cell_angle_beta 90.000000
_cell_angle_gamma 90.000000
_cell_volume 3023.188144
_symmetry_space_group_name_H-M "P C C M"
_symmetry_group_IT_number 49
_symmetry_cell_setting 'orthorhombic'
loop_
_space_group_symop_operation_xyz
x,y,z
-x,-y,z
x,-y,1/2-z
-x,y,1/2-z
-x,-y,-z
x,y,-z
-x,y,1/2+z
x,-y,1/2+z
loop_
_atom_site_type_symbol
_atom_site_label
_atom_site_fract_x
_atom_site_fract_y
_atom_site_fract_z
Si Si1 0.077892 0.614502 0.129578
Si Si2 0.787604 0.818674 0.435482
Si Si3 0.245456 0.562316 0.307859
Si Si4 0.623178 0.355446 0.596325
Si Si5 0.406441 0.337604 0.437634
Si Si6 0.800554 0.147141 0.436173
Si Si7 0.090660 0.218770 0.826322
Si Si8 0.000000 0.000000 0.250000
O O1 0.114445 0.737319 0.088300
O O2 0.175788 0.541407 0.155796
O O3 0.000000 0.500000 0.101248
O O4 0.012742 0.690350 0.177763
O O5 0.791485 0.789198 0.500000
O O6 0.684547 0.752095 0.410620
O O7 0.784182 0.983565 0.421713
O O8 0.281858 0.500000 0.250000
O O9 0.346016 0.603018 0.341421
O O10 0.182111 0.702836 0.295700
O O11 0.625030 0.497882 0.560054
O O12 0.507117 0.301884 0.597899
O O13 0.697219 0.236681 0.570918
O O14 0.428535 0.287608 0.500000
O O15 0.838746 0.164604 0.500000
O O16 0.884522 0.198267 0.392012
O O17 0.075740 0.079932 0.790928
#
# Coordination Sequence:
#
# PCOD8203278 Si02
#       8
#     8   8   8   8   8   8   8   2
#     4  10  20  37  54  78 109 143 188 236 278 329
#     4  10  21  35  54  82 114 150 183 223 281 338
#     4  10  20  36  56  81 108 141 185 239 284 324
#     4  10  19  35  57  83 109 145 183 227 282 332
#     4  10  19  34  58  84 110 143 186 226 268 334
#     4  10  21  37  55  83 121 149 181 231 292 352
#     4  10  22  34  57  82 108 151 193 230 286 332
#     4  12  20  36  52  80 108 146 200 240 268 340
#
# _framework density 19.185046
#
# number of rings (size 3 to 8) (size 9 to 14) (size 15 to 20)
#    0.000    1.931    1.379    3.310    0.000    3.310 
#    0.000    5.172    0.000    0.000    0.000    0.000 
#    8.276    0.000    0.000    0.000    0.000    0.000 
#
# Total GULP energy -718869.823201 kJ/mol
# GULP energy per Si atom -12394.307297 kJ/mol
# Density = 1.914138 g / cm^3
# Si number density = 19.185046 Si / 1000 Ang^3
#
#
#
# Elastic Constant Matrix: (Units=GPa)
#
#
# Indices 1 2 3 4 5 6 
#
# 1 98.0932 37.7368 41.1754 0.0000 0.0000 0.0000
# 2 37.7368 102.9750 33.6493 0.0000 0.0000 0.0000
# 3 41.1754 33.6493 92.3469 0.0000 0.0000 0.0000
# 4 0.0000 0.0000 0.0000 31.1712 0.0000 0.0000
# 5 0.0000 0.0000 0.0000 0.0000 18.3293 0.0000
# 6 0.0000 0.0000 0.0000 0.0000 0.0000 25.0176
#
#
#
# Elastic Compliance Matrix: (Units=1/GPa)
#
#
# Indices 1 2 3 4 5 6 
#
# 1 0.013507 -0.003385 -0.004789 0.000000 0.000000 0.000000
# 2 -0.003385 0.011872 -0.002817 0.000000 0.000000 0.000000
# 3 -0.004789 -0.002817 0.013990 0.000000 0.000000 0.000000
# 4 0.000000 0.000000 0.000000 0.032081 0.000000 0.000000
# 5 0.000000 0.000000 0.000000 0.000000 0.054557 0.000000
# 6 0.000000 0.000000 0.000000 0.000000 0.000000 0.039972
#
#
# Mechanical properties :
#
#
# Convention : Reuss Voigt Hill
#
# Bulk Modulus (GPa) = 57.51075 57.61537 57.56306
# Shear Modulus (GPa) = 25.80562 26.96053 26.38308
#
# Velocity S-wave (km/s) = 3.67153 3.75279 3.71238
# Velocity P-wave (km/s) = 6.92932 6.99103 6.96024
#
# Compressibility (1/GPa) = 0.01738805
#
# Stress axis : x y z
#
# Youngs Moduli (GPa) = 74.03695 84.23223 71.47777
#
# Poissons Ratio (x) = 0.28511 0.34231
# Poissons Ratio (y) = 0.25061 0.20133
# Poissons Ratio (z) = 0.35456 0.23725
#
# Static dielectric constant tensor:
#      x y z
#    x 3.572160 0.000000 0.000000 
#    y 0.000000 3.662600 0.000000 
#    z 0.000000 0.000000 3.319720 
# 
# 
# High freq. dielectric constant tensor:
#      x y z
#    x 1.743890 0.000000 0.000000 
#    y 0.000000 1.752580 0.000000 
#    z 0.000000 0.000000 1.726420 
# 
# From -- ./inp_files/23189.got.cif
#   From: 2010.03.12/outbox.cif.g09.slc.cpg/sg49_12_cif.got.tgz:23189.got - 2010.04.14 03:58:27.
