data_PCOD8203741
_publ_section_title
;
Structure prediction by ZEFSAII (Michael W. Deem and Ramdas Pophale) SiO2 
 PCOD8203741
Probable space group: P C C M
;
_chemical_formula_sum "Si O2"
_cell_formula_units_Z 48
_cell_length_a 9.624184
_cell_length_b 30.657000
_cell_length_c 8.831047
_cell_angle_alpha 90.000000
_cell_angle_beta 90.000000
_cell_angle_gamma 90.000000
_cell_volume 2605.588132
_symmetry_space_group_name_H-M "P C C M"
_symmetry_group_IT_number 49
_symmetry_cell_setting 'orthorhombic'
loop_
_space_group_symop_operation_xyz
x,y,z
-x,-y,z
x,-y,1/2-z
-x,y,1/2-z
-x,-y,-z
x,y,-z
-x,y,1/2+z
x,-y,1/2+z
loop_
_atom_site_type_symbol
_atom_site_label
_atom_site_fract_x
_atom_site_fract_y
_atom_site_fract_z
Si Si1 0.858855 0.117694 0.823201
Si Si2 0.149441 0.362657 0.823331
Si Si3 0.146385 0.782741 0.820407
Si Si4 0.649698 0.955915 0.679946
Si Si5 0.150591 0.541403 0.676826
Si Si6 0.651866 0.285513 0.680344
O O1 0.824738 0.167162 0.774958
O O2 0.737845 0.085782 0.767750
O O3 0.000000 0.100882 0.750000
O O4 0.880051 0.114571 0.000000
O O5 0.214182 0.410798 0.786739
O O6 0.261130 0.327725 0.765287
O O7 0.000000 0.354229 0.750000
O O8 0.123245 0.357445 0.000000
O O9 0.272871 0.756864 0.746272
O O10 0.000000 0.766841 0.750000
O O11 0.142278 0.775275 0.000000
O O12 0.500000 0.948227 0.750000
O O13 0.640218 0.960538 0.500000
O O14 0.716219 0.000000 0.750000
O O15 0.234702 0.500000 0.750000
O O16 0.139765 0.533038 0.500000
O O17 0.000000 0.541848 0.750000
O O18 0.500000 0.289295 0.750000
O O19 0.641659 0.282093 0.500000
#
# Coordination Sequence:
#
# PCOD8203741 Si02
#       6
#     8   8   8   8   8   8
#     4   9  20  36  55  79 107 136 170 209 255 305
#     4   9  19  33  51  74 102 133 168 207 253 304
#     4  10  20  37  58  81 107 137 172 213 258 310
#     4  10  20  35  53  76 104 138 176 214 254 301
#     4   9  15  25  42  68  98 127 159 201 247 295
#     4  11  23  38  54  76 104 137 174 216 261 309
#
# _framework density 18.421945000000001
#
# number of rings (size 3 to 8) (size 9 to 14) (size 15 to 20)
#    0.000    2.333    0.000    3.500    0.000    6.333 
#    0.000    3.333    0.000    0.500    0.000    3.500 
#    0.000    0.000    0.000    0.000    0.000    0.000 
#
# Total GULP energy -595009.390199 kJ/mol
# GULP energy per Si atom -12396.028962 kJ/mol
# Density = 1.838002 g / cm^3
# Si number density = 18.421945 Si / 1000 Ang^3
#
#
#
# Elastic Constant Matrix: (Units=GPa)
#
#
# Indices 1 2 3 4 5 6 
#
# 1 112.0580 80.6897 44.7787 0.0000 0.0000 0.0000
# 2 80.6897 142.3956 52.1984 0.0000 0.0000 0.0000
# 3 44.7787 52.1984 74.7277 0.0000 0.0000 0.0000
# 4 0.0000 0.0000 0.0000 17.1513 0.0000 0.0000
# 5 0.0000 0.0000 0.0000 0.0000 28.5644 0.0000
# 6 0.0000 0.0000 0.0000 0.0000 0.0000 16.2408
#
#
#
# Elastic Compliance Matrix: (Units=1/GPa)
#
#
# Indices 1 2 3 4 5 6 
#
# 1 0.016083 -0.007501 -0.004397 0.000000 0.000000 0.000000
# 2 -0.007501 0.012939 -0.004543 0.000000 0.000000 0.000000
# 3 -0.004397 -0.004543 0.019190 0.000000 0.000000 0.000000
# 4 0.000000 0.000000 0.000000 0.058305 0.000000 0.000000
# 5 0.000000 0.000000 0.000000 0.000000 0.035009 0.000000
# 6 0.000000 0.000000 0.000000 0.000000 0.000000 0.061573
#
#
# Mechanical properties :
#
#
# Convention : Reuss Voigt Hill
#
# Bulk Modulus (GPa) = 65.23835 76.05722 70.64778
# Shear Modulus (GPa) = 20.73906 22.49225 21.61566
#
# Velocity S-wave (km/s) = 3.35891 3.49800 3.42916
# Velocity P-wave (km/s) = 7.10867 7.59543 7.35608
#
# Compressibility (1/GPa) = 0.01532841
#
# Stress axis : x y z
#
# Youngs Moduli (GPa) = 62.17860 77.28725 52.11016
#
# Poissons Ratio (x) = 0.57977 0.22914
# Poissons Ratio (y) = 0.46643 0.23673
# Poissons Ratio (z) = 0.27342 0.35110
#
# Static dielectric constant tensor:
#      x y z
#    x 3.110470 0.000000 0.000000 
#    y 0.000000 4.389020 0.000000 
#    z 0.000000 0.000000 3.507630 
# 
# 
# High freq. dielectric constant tensor:
#      x y z
#    x 1.683120 0.000000 0.000000 
#    y 0.000000 1.736890 0.000000 
#    z 0.000000 0.000000 1.724330 
# 
# From -- ./inp_files/2107.got.cif
#   From: 2010.03.12/outbox.cif.g09.slc.cpg/sg49_2_cif.got.tgz:2107.got - 2010.04.14 03:58:27.
