data_PCOD8203780
_publ_section_title
;
Structure prediction by ZEFSAII (Michael W. Deem and Ramdas Pophale) SiO2 
 PCOD8203780
Probable space group: P C C M
;
_chemical_formula_sum "Si O2"
_cell_formula_units_Z 48
_cell_length_a 10.161866
_cell_length_b 14.577247
_cell_length_c 18.062915
_cell_angle_alpha 90.000000
_cell_angle_beta 90.000000
_cell_angle_gamma 90.000000
_cell_volume 2675.696279
_symmetry_space_group_name_H-M "P C C M"
_symmetry_group_IT_number 49
_symmetry_cell_setting 'orthorhombic'
loop_
_space_group_symop_operation_xyz
x,y,z
-x,-y,z
x,-y,1/2-z
-x,y,1/2-z
-x,-y,-z
x,y,-z
-x,y,1/2+z
x,-y,1/2+z
loop_
_atom_site_type_symbol
_atom_site_label
_atom_site_fract_x
_atom_site_fract_y
_atom_site_fract_z
Si Si1 0.628173 0.455848 0.669046
Si Si2 0.606314 0.243549 0.310123
Si Si3 0.899830 0.078628 0.585337
Si Si4 0.400180 0.922965 0.585832
Si Si5 0.901227 0.750411 0.183515
Si Si6 0.882569 0.570156 0.086043
O O1 0.500000 0.500000 0.631897
O O2 0.654177 0.500000 0.750000
O O3 0.591228 0.349151 0.669420
O O4 0.751304 0.478213 0.616839
O O5 0.500000 0.213646 0.250000
O O6 0.577521 0.177227 0.379302
O O7 0.756501 0.231127 0.282211
O O8 0.916710 0.106718 0.500000
O O9 0.750247 0.045260 0.600515
O O10 0.944031 0.164316 0.634055
O O11 0.000000 0.000000 0.608874
O O12 0.430832 0.909812 0.500000
O O13 0.500000 0.000000 0.618915
O O14 0.906865 0.662075 0.131461
O O15 0.000000 0.734747 0.250000
O O16 0.000000 0.500000 0.099548
O O17 0.865641 0.594929 0.000000
#
# Coordination Sequence:
#
# PCOD8203780 Si02
#       6
#     8   8   8   8   8   8
#     4  10  20  36  60  83 112 149 185 233 281 343
#     4  10  20  35  55  80 110 141 180 224 275 325
#     4   9  18  35  57  78 107 144 181 227 276 326
#     4   9  19  36  56  79 106 142 184 223 272 327
#     4  10  22  35  56  81 108 148 184 229 278 334
#     4  10  23  38  56  83 113 146 188 235 280 335
#
# _framework density 17.939254999999999
#
# number of rings (size 3 to 8) (size 9 to 14) (size 15 to 20)
#    0.000    2.333    1.667    0.500    4.667    6.333 
#    0.000    3.333    0.000    5.000    0.000    0.000 
#    0.000    0.000    0.000    0.000    0.000    0.000 
#
# Total GULP energy -595050.786497 kJ/mol
# GULP energy per Si atom -12396.891385 kJ/mol
# Density = 1.789842 g / cm^3
# Si number density = 17.939255 Si / 1000 Ang^3
#
#
#
# Elastic Constant Matrix: (Units=GPa)
#
#
# Indices 1 2 3 4 5 6 
#
# 1 137.7365 73.3078 79.7129 0.0000 0.0000 0.0000
# 2 73.3078 124.1239 59.5932 0.0000 0.0000 0.0000
# 3 79.7129 59.5932 94.6700 0.0000 0.0000 0.0000
# 4 0.0000 0.0000 0.0000 57.5709 0.0000 0.0000
# 5 0.0000 0.0000 0.0000 0.0000 30.8484 0.0000
# 6 0.0000 0.0000 0.0000 0.0000 0.0000 33.3436
#
#
#
# Elastic Compliance Matrix: (Units=1/GPa)
#
#
# Indices 1 2 3 4 5 6 
#
# 1 0.015518 -0.004144 -0.010458 0.000000 0.000000 0.000000
# 2 -0.004144 0.012653 -0.004475 0.000000 0.000000 0.000000
# 3 -0.010458 -0.004475 0.022186 0.000000 0.000000 0.000000
# 4 0.000000 0.000000 0.000000 0.017370 0.000000 0.000000
# 5 0.000000 0.000000 0.000000 0.000000 0.032417 0.000000
# 6 0.000000 0.000000 0.000000 0.000000 0.000000 0.029991
#
#
# Mechanical properties :
#
#
# Convention : Reuss Voigt Hill
#
# Bulk Modulus (GPa) = 81.95273 86.86202 84.40737
# Shear Modulus (GPa) = 29.00990 33.94702 31.47846
#
# Velocity S-wave (km/s) = 4.02570 4.35481 4.19349
# Velocity P-wave (km/s) = 8.20920 8.59134 8.40244
#
# Compressibility (1/GPa) = 0.01220216
#
# Stress axis : x y z
#
# Youngs Moduli (GPa) = 64.44070 79.03512 45.07447
#
# Poissons Ratio (x) = 0.32754 0.47137
# Poissons Ratio (y) = 0.26705 0.20172
# Poissons Ratio (z) = 0.67390 0.35369
#
# Static dielectric constant tensor:
#      x y z
#    x 3.627960 0.000000 0.000000 
#    y 0.000000 3.424420 0.000000 
#    z 0.000000 0.000000 3.238250 
# 
# 
# High freq. dielectric constant tensor:
#      x y z
#    x 1.707290 0.000000 0.000000 
#    y 0.000000 1.700860 0.000000 
#    z 0.000000 0.000000 1.683260 
# 
# From -- ./inp_files/19764.got.cif
#   From: 2010.03.12/outbox.cif.g09.slc.cpg/sg49_10_cif.got.tgz:19764.got - 2010.04.14 03:58:27.
