data_PCOD8203954
_publ_section_title
;
Structure prediction by ZEFSAII (Michael W. Deem and Ramdas Pophale) SiO2 
 PCOD8203954
Probable space group: P C C M
;
_chemical_formula_sum "Si O2"
_cell_formula_units_Z 64
_cell_length_a 20.135427
_cell_length_b 9.057280
_cell_length_c 16.874377
_cell_angle_alpha 90.000000
_cell_angle_beta 90.000000
_cell_angle_gamma 90.000000
_cell_volume 3077.417261
_symmetry_space_group_name_H-M "P C C M"
_symmetry_group_IT_number 49
_symmetry_cell_setting 'orthorhombic'
loop_
_space_group_symop_operation_xyz
x,y,z
-x,-y,z
x,-y,1/2-z
-x,y,1/2-z
-x,-y,-z
x,y,-z
-x,y,1/2+z
x,-y,1/2+z
loop_
_atom_site_type_symbol
_atom_site_label
_atom_site_fract_x
_atom_site_fract_y
_atom_site_fract_z
Si Si1 0.504655 0.659237 0.660401
Si Si2 0.107529 0.342555 0.593517
Si Si3 0.262258 0.168748 0.092062
Si Si4 0.868216 0.329474 0.592672
Si Si5 0.772100 0.843531 0.592575
Si Si6 0.012221 0.835352 0.342456
Si Si7 0.373293 0.195271 0.590233
Si Si8 0.607445 0.904670 0.166786
O O1 0.500000 0.500000 0.613920
O O2 0.500000 0.616673 0.750000
O O3 0.578713 0.712910 0.645521
O O4 0.451027 0.789222 0.645469
O O5 0.115341 0.344544 0.500000
O O6 0.115283 0.508241 0.626211
O O7 0.165828 0.241236 0.632387
O O8 0.035950 0.280273 0.615005
O O9 0.209736 0.298920 0.108530
O O10 0.322899 0.183878 0.155314
O O11 0.222686 0.017143 0.109797
O O12 0.286928 0.172905 0.000000
O O13 0.884762 0.314334 0.500000
O O14 0.912551 0.210930 0.639313
O O15 0.772979 0.812772 0.500000
O O16 0.701297 0.781097 0.623880
O O17 0.000000 0.829987 0.250000
O O18 0.000000 0.000000 0.375966
O O19 0.381451 0.246911 0.500000
O O20 0.392717 0.022817 0.595786
O O21 0.600617 0.000000 0.250000
#
# Coordination Sequence:
#
# PCOD8203954 Si02
#       8
#     8   8   8   8   8   8   8   8
#     4  11  24  40  57  83 122 160 197 243 302 365
#     4  10  20  36  62  89 116 155 195 238 296 361
#     4   9  19  37  60  87 119 153 198 250 292 348
#     4  10  21  38  60  87 119 155 195 240 298 361
#     4   8  16  33  56  84 113 144 187 238 287 332
#     4  11  24  40  56  83 117 156 202 252 295 344
#     4  10  21  38  63  91 117 152 202 252 292 351
#     4  11  21  38  63  89 117 161 200 247 297 356
#
# _framework density 20.796658999999998
#
# number of rings (size 3 to 8) (size 9 to 14) (size 15 to 20)
#    0.000    2.000    1.250    3.000    0.000    6.750 
#    6.750    1.250    0.000    0.000    0.000    0.000 
#    0.000    0.000    0.000    0.000    0.000    0.000 
#
# Total GULP energy -793031.586696 kJ/mol
# GULP energy per Si atom -12391.118542 kJ/mol
# Density = 2.074933 g / cm^3
# Si number density = 20.796659 Si / 1000 Ang^3
#
#
#
# Elastic Constant Matrix: (Units=GPa)
#
#
# Indices 1 2 3 4 5 6 
#
# 1 93.1460 29.1897 7.3619 0.0000 0.0000 0.0000
# 2 29.1897 82.9013 -0.2068 0.0000 0.0000 0.0000
# 3 7.3619 -0.2068 30.3801 0.0000 0.0000 0.0000
# 4 0.0000 0.0000 0.0000 43.4508 0.0000 0.0000
# 5 0.0000 0.0000 0.0000 0.0000 20.2056 0.0000
# 6 0.0000 0.0000 0.0000 0.0000 0.0000 35.1032
#
#
#
# Elastic Compliance Matrix: (Units=1/GPa)
#
#
# Indices 1 2 3 4 5 6 
#
# 1 0.012338 -0.004352 -0.003020 0.000000 0.000000 0.000000
# 2 -0.004352 0.013598 0.001147 0.000000 0.000000 0.000000
# 3 -0.003020 0.001147 0.033656 0.000000 0.000000 0.000000
# 4 0.000000 0.000000 0.000000 0.023015 0.000000 0.000000
# 5 0.000000 0.000000 0.000000 0.000000 0.049491 0.000000
# 6 0.000000 0.000000 0.000000 0.000000 0.000000 0.028487
#
#
# Mechanical properties :
#
#
# Convention : Reuss Voigt Hill
#
# Bulk Modulus (GPa) = 21.21191 31.01300 26.11245
# Shear Modulus (GPa) = 26.49037 31.09076 28.79056
#
# Velocity S-wave (km/s) = 3.57288 3.87070 3.72477
# Velocity P-wave (km/s) = 5.21943 5.90943 5.57511
#
# Compressibility (1/GPa) = 0.04714333
#
# Stress axis : x y z
#
# Youngs Moduli (GPa) = 81.04883 73.54194 29.71250
#
# Poissons Ratio (x) = 0.32004 0.08972
# Poissons Ratio (y) = 0.35271 -0.03408
# Poissons Ratio (z) = 0.24473 -0.08436
#
# Static dielectric constant tensor:
#      x y z
#    x 4.123350 0.000000 0.000000 
#    y 0.000000 3.984090 0.000000 
#    z 0.000000 0.000000 3.455440 
# 
# 
# High freq. dielectric constant tensor:
#      x y z
#    x 1.823950 0.000000 0.000000 
#    y 0.000000 1.815760 0.000000 
#    z 0.000000 0.000000 1.784170 
# 
# From -- ./inp_files/18319.got.cif
#   From: 2010.03.12/outbox.cif.g09.slc.cpg/sg49_10_cif.got.tgz:18319.got - 2010.04.14 03:58:27.
