data_PCOD8203503
_publ_section_title
;
Structure prediction by ZEFSAII (Michael W. Deem and Ramdas Pophale) SiO2 
 PCOD8203503
Probable space group: P C C M
;
_chemical_formula_sum "Si O2"
_cell_formula_units_Z 64
_cell_length_a 18.293302
_cell_length_b 20.517009
_cell_length_c 9.753585
_cell_angle_alpha 90.000000
_cell_angle_beta 90.000000
_cell_angle_gamma 90.000000
_cell_volume 3660.752993
_symmetry_space_group_name_H-M "P C C M"
_symmetry_group_IT_number 49
_symmetry_cell_setting 'orthorhombic'
loop_
_space_group_symop_operation_xyz
x,y,z
-x,-y,z
x,-y,1/2-z
-x,y,1/2-z
-x,-y,-z
x,y,-z
-x,y,1/2+z
x,-y,1/2+z
loop_
_atom_site_type_symbol
_atom_site_label
_atom_site_fract_x
_atom_site_fract_y
_atom_site_fract_z
Si Si1 0.353794 0.943953 0.347322
Si Si2 0.820434 0.944243 0.847586
Si Si3 0.653503 0.800688 0.837028
Si Si4 0.569233 0.325063 0.339801
Si Si5 0.928252 0.307835 0.338605
Si Si6 0.678761 0.559213 0.843220
Si Si7 0.846888 0.440500 0.342583
Si Si8 0.815680 0.800687 0.837193
O O1 0.385346 0.955111 0.500000
O O2 0.266728 0.947989 0.351109
O O3 0.375881 0.872046 0.290674
O O4 0.387260 0.000000 0.250000
O O5 0.843552 0.872678 0.792138
O O6 0.853876 0.000000 0.750000
O O7 0.851787 0.956111 0.000000
O O8 0.597975 0.745050 0.786861
O O9 0.734637 0.787173 0.775935
O O10 0.659647 0.799450 0.000000
O O11 0.500000 0.345266 0.250000
O O12 0.547820 0.323614 0.500000
O O13 0.632581 0.376836 0.310501
O O14 0.945221 0.299587 0.500000
O O15 0.895060 0.378211 0.306188
O O16 0.871356 0.253784 0.284183
O O17 0.000000 0.298003 0.250000
O O18 0.650341 0.500000 0.750000
O O19 0.762710 0.576478 0.810027
O O20 0.668995 0.537187 0.000000
O O21 0.875054 0.500000 0.250000
O O22 0.856717 0.461263 0.500000
O O23 0.810398 0.798308 0.000000
#
# Coordination Sequence:
#
# PCOD8203503 Si02
#       8
#     8   8   8   8   8   8   8   8
#     4   8  13  22  39  64  90 113 141 182 229 271
#     4   8  13  22  39  64  90 113 141 182 229 271
#     4   8  14  27  48  69  88 117 157 193 224 266
#     4  10  20  33  49  69  94 123 155 190 227 269
#     4  10  20  33  49  69  94 123 155 190 227 269
#     4   9  18  33  53  74  94 119 152 189 227 268
#     4   9  18  33  53  74  94 119 152 189 227 268
#     4   8  14  27  48  69  88 117 157 193 224 266
#
# _framework density 17.482742999999999
#
# number of rings (size 3 to 8) (size 9 to 14) (size 15 to 20)
#    0.000    3.250    0.000    2.250    0.000    4.500 
#    0.000    3.750    0.000    4.500    0.000    5.250 
#    0.000    0.000    0.000    0.000    0.000    0.000 
#
# Total GULP energy -793321.622232 kJ/mol
# GULP energy per Si atom -12395.650347 kJ/mol
# Density = 1.744295 g / cm^3
# Si number density = 17.482743 Si / 1000 Ang^3
#
#
#
# Elastic Constant Matrix: (Units=GPa)
#
#
# Indices 1 2 3 4 5 6 
#
# 1 29.9951 4.4793 12.2474 0.0000 0.0000 0.0000
# 2 4.4793 81.6147 28.1053 0.0000 0.0000 0.0000
# 3 12.2474 28.1053 42.3993 0.0000 0.0000 0.0000
# 4 0.0000 0.0000 0.0000 28.8425 0.0000 0.0000
# 5 0.0000 0.0000 0.0000 0.0000 19.1348 0.0000
# 6 0.0000 0.0000 0.0000 0.0000 0.0000 4.9327
#
#
#
# Elastic Compliance Matrix: (Units=1/GPa)
#
#
# Indices 1 2 3 4 5 6 
#
# 1 0.038099 0.002201 -0.012465 0.000000 0.000000 0.000000
# 2 0.002201 0.016004 -0.011245 0.000000 0.000000 0.000000
# 3 -0.012465 -0.011245 0.034640 0.000000 0.000000 0.000000
# 4 0.000000 0.000000 0.000000 0.034671 0.000000 0.000000
# 5 0.000000 0.000000 0.000000 0.000000 0.052261 0.000000
# 6 0.000000 0.000000 0.000000 0.000000 0.000000 0.202729
#
#
# Mechanical properties :
#
#
# Convention : Reuss Voigt Hill
#
# Bulk Modulus (GPa) = 21.86867 27.07478 24.47172
# Shear Modulus (GPa) = 11.45051 17.86047 14.65549
#
# Velocity S-wave (km/s) = 2.56200 3.19972 2.89845
# Velocity P-wave (km/s) = 4.61385 5.40103 5.02289
#
# Compressibility (1/GPa) = 0.04572753
#
# Stress axis : x y z
#
# Youngs Moduli (GPa) = 26.24708 62.48389 28.86876
#
# Poissons Ratio (x) = -0.13755 0.35984
# Poissons Ratio (y) = -0.05778 0.32462
# Poissons Ratio (z) = 0.32716 0.70260
#
# Static dielectric constant tensor:
#      x y z
#    x 3.013340 0.000000 0.000000 
#    y 0.000000 3.603790 0.000000 
#    z 0.000000 0.000000 3.108790 
# 
# 
# High freq. dielectric constant tensor:
#      x y z
#    x 1.643930 0.000000 0.000000 
#    y 0.000000 1.690990 0.000000 
#    z 0.000000 0.000000 1.646300 
# 
# From -- ./inp_files/6092.got.cif
#   From: 2010.03.12/outbox.cif.g09.slc.cpg/sg49_4_cif.got.tgz:6092.got - 2010.04.14 03:58:27.
