data_PCOD8203517
_publ_section_title
;
Structure prediction by ZEFSAII (Michael W. Deem and Ramdas Pophale) SiO2 
 PCOD8203517
Probable space group: P C C M
;
_chemical_formula_sum "Si O2"
_cell_formula_units_Z 56
_cell_length_a 19.808185
_cell_length_b 8.993577
_cell_length_c 15.815526
_cell_angle_alpha 90.000000
_cell_angle_beta 90.000000
_cell_angle_gamma 90.000000
_cell_volume 2817.479607
_symmetry_space_group_name_H-M "P C C M"
_symmetry_group_IT_number 49
_symmetry_cell_setting 'orthorhombic'
loop_
_space_group_symop_operation_xyz
x,y,z
-x,-y,z
x,-y,1/2-z
-x,y,1/2-z
-x,-y,-z
x,y,-z
-x,y,1/2+z
x,-y,1/2+z
loop_
_atom_site_type_symbol
_atom_site_label
_atom_site_fract_x
_atom_site_fract_y
_atom_site_fract_z
Si Si1 0.065688 0.933351 0.842883
Si Si2 0.654240 0.425959 0.834953
Si Si3 0.208635 0.072650 0.407272
Si Si4 0.346492 0.925468 0.165219
Si Si5 0.207433 0.573743 0.906466
Si Si6 0.427598 0.573507 0.000000
Si Si7 0.061411 0.394175 0.400050
Si Si8 0.427884 0.925680 0.000000
O O1 0.135627 0.991678 0.882591
O O2 0.058286 0.755196 0.844763
O O3 0.064858 0.000000 0.750000
O O4 0.000000 0.000000 0.891823
O O5 0.624741 0.500000 0.750000
O O6 0.648882 0.250401 0.825169
O O7 0.732358 0.479831 0.845366
O O8 0.612055 0.479963 0.916263
O O9 0.226838 0.012124 0.500000
O O10 0.268695 0.020631 0.345348
O O11 0.205262 0.249159 0.408571
O O12 0.376217 0.000000 0.250000
O O13 0.388647 0.979154 0.083890
O O14 0.132278 0.520584 0.878408
O O15 0.224158 0.512854 0.000000
O O16 0.500000 0.500000 0.000000
O O17 0.435378 0.749517 0.000000
O O18 0.059383 0.353979 0.500000
O O19 0.000000 0.500000 0.373188
O O20 0.500000 0.000000 0.000000
#
# Coordination Sequence:
#
# PCOD8203517 Si02
#       8
#     8   8   8   8   8   4   8   4
#     4  10  20  33  49  77 113 149 188 235 291 344
#     4  10  20  36  59  87 112 148 189 228 280 334
#     4   9  16  31  57  81 104 144 192 234 280 335
#     4  10  20  37  60  86 116 148 190 237 279 332
#     4   8  14  30  56  80 106 141 186 235 282 331
#     4  10  22  40  62  84 115 150 182 228 273 334
#     4   9  18  34  57  81 105 144 194 242 289 340
#     4  10  22  40  62  86 115 152 192 222 277 342
#
# _framework density 19.875920000000001
#
# number of rings (size 3 to 8) (size 9 to 14) (size 15 to 20)
#    0.000    2.571    1.429    1.714    0.000    2.857 
#    0.000   14.286    0.000    1.714    0.000    0.000 
#    0.000    0.000    0.000    0.000    0.000    0.000 
#
# Total GULP energy -694006.542556 kJ/mol
# GULP energy per Si atom -12392.973974 kJ/mol
# Density = 1.983068 g / cm^3
# Si number density = 19.875920 Si / 1000 Ang^3
#
#
#
# Elastic Constant Matrix: (Units=GPa)
#
#
# Indices 1 2 3 4 5 6 
#
# 1 157.6221 35.8813 66.1008 0.0000 0.0000 0.0000
# 2 35.8813 35.9749 38.6398 0.0000 0.0000 0.0000
# 3 66.1008 38.6398 140.4940 0.0000 0.0000 0.0000
# 4 0.0000 0.0000 0.0000 31.0512 0.0000 0.0000
# 5 0.0000 0.0000 0.0000 0.0000 19.1196 0.0000
# 6 0.0000 0.0000 0.0000 0.0000 0.0000 30.1670
#
#
#
# Elastic Compliance Matrix: (Units=1/GPa)
#
#
# Indices 1 2 3 4 5 6 
#
# 1 0.008760 -0.006117 -0.002439 0.000000 0.000000 0.000000
# 2 -0.006117 0.043723 -0.009147 0.000000 0.000000 0.000000
# 3 -0.002439 -0.009147 0.010781 0.000000 0.000000 0.000000
# 4 0.000000 0.000000 0.000000 0.032205 0.000000 0.000000
# 5 0.000000 0.000000 0.000000 0.000000 0.052302 0.000000
# 6 0.000000 0.000000 0.000000 0.000000 0.000000 0.033149
#
#
# Mechanical properties :
#
#
# Convention : Reuss Voigt Hill
#
# Bulk Modulus (GPa) = 35.89717 68.37052 52.13385
# Shear Modulus (GPa) = 22.16199 28.96550 25.56375
#
# Velocity S-wave (km/s) = 3.34281 3.82162 3.59021
# Velocity P-wave (km/s) = 5.74448 7.34482 6.59338
#
# Compressibility (1/GPa) = 0.02785735
#
# Stress axis : x y z
#
# Youngs Moduli (GPa) = 114.16045 22.87121 92.75692
#
# Poissons Ratio (x) = 0.13991 0.22622
# Poissons Ratio (y) = 0.69835 0.84844
# Poissons Ratio (z) = 0.27842 0.20920
#
# Static dielectric constant tensor:
#      x y z
#    x 4.168940 0.000000 0.000000 
#    y 0.000000 3.121580 0.000000 
#    z 0.000000 0.000000 3.610050 
# 
# 
# High freq. dielectric constant tensor:
#      x y z
#    x 1.790960 0.000000 0.000000 
#    y 0.000000 1.728940 0.000000 
#    z 0.000000 0.000000 1.774320 
# 
# From -- ./inp_files/14434.got.cif
#   From: 2010.03.12/outbox.cif.g09.slc.cpg/sg49_8_cif.got.tgz:14434.got - 2010.04.14 03:58:27.
