data_PCOD8203975
_publ_section_title
;
Structure prediction by ZEFSAII (Michael W. Deem and Ramdas Pophale) SiO2 
 PCOD8203975
Probable space group: P C C M
;
_chemical_formula_sum "Si O2"
_cell_formula_units_Z 56
_cell_length_a 17.572211
_cell_length_b 10.905040
_cell_length_c 14.387296
_cell_angle_alpha 90.000000
_cell_angle_beta 90.000000
_cell_angle_gamma 90.000000
_cell_volume 2756.975147
_symmetry_space_group_name_H-M "P C C M"
_symmetry_group_IT_number 49
_symmetry_cell_setting 'orthorhombic'
loop_
_space_group_symop_operation_xyz
x,y,z
-x,-y,z
x,-y,1/2-z
-x,y,1/2-z
-x,-y,-z
x,y,-z
-x,y,1/2+z
x,-y,1/2+z
loop_
_atom_site_type_symbol
_atom_site_label
_atom_site_fract_x
_atom_site_fract_y
_atom_site_fract_z
Si Si1 0.303065 0.256279 0.898107
Si Si2 0.157038 0.326575 0.395565
Si Si3 0.838968 0.603109 0.889494
Si Si4 0.811713 0.035137 0.395741
Si Si5 0.587772 0.145890 0.250911
Si Si6 0.086703 0.193198 0.772418
Si Si7 0.705294 0.820620 0.397133
O O1 0.248523 0.365223 0.858056
O O2 0.245781 0.145202 0.905653
O O3 0.374761 0.217773 0.836553
O O4 0.335541 0.290625 0.000000
O O5 0.123934 0.307627 0.500000
O O6 0.141654 0.464165 0.359976
O O7 0.122009 0.224079 0.328230
O O8 0.248555 0.307165 0.397652
O O9 0.900869 0.689655 0.839738
O O10 0.846241 0.622373 0.000000
O O11 0.844012 0.003359 0.500000
O O12 0.878228 0.072227 0.322958
O O13 0.763263 0.921733 0.353981
O O14 0.500000 0.182912 0.250000
O O15 0.628003 0.196597 0.159074
O O16 0.598937 0.000000 0.250000
O O17 0.000000 0.165731 0.750000
O O18 0.681037 0.862844 0.500000
#
# Coordination Sequence:
#
# PCOD8203975 Si02
#       7
#     8   8   8   8   8   8   8
#     4   9  17  33  57  77 102 144 187 223 261 319
#     4  10  22  36  54  82 111 142 187 235 275 318
#     4   9  19  37  59  82 104 139 193 239 270 315
#     4   9  18  35  58  79 100 139 190 226 261 321
#     4  11  22  32  50  85 121 144 171 223 281 335
#     4  11  22  34  54  81 111 144 178 225 285 337
#     4  10  20  37  59  79 108 149 186 227 275 323
#
# _framework density 20.312118000000002
#
# number of rings (size 3 to 8) (size 9 to 14) (size 15 to 20)
#    0.000    2.143    1.429    3.429    0.000    2.857 
#    0.000    4.286    0.000    4.286    0.000    4.000 
#    0.000    0.000    0.000    0.000    0.000    0.000 
#
# Total GULP energy -693956.589505 kJ/mol
# GULP energy per Si atom -12392.081955 kJ/mol
# Density = 2.026589 g / cm^3
# Si number density = 20.312118 Si / 1000 Ang^3
#
#
#
# Elastic Constant Matrix: (Units=GPa)
#
#
# Indices 1 2 3 4 5 6 
#
# 1 127.1128 16.5783 60.7461 0.0000 0.0000 0.0000
# 2 16.5783 26.3768 18.9002 0.0000 0.0000 0.0000
# 3 60.7461 18.9002 100.7917 0.0000 0.0000 0.0000
# 4 0.0000 0.0000 0.0000 24.2555 0.0000 0.0000
# 5 0.0000 0.0000 0.0000 0.0000 12.0796 0.0000
# 6 0.0000 0.0000 0.0000 0.0000 0.0000 13.5773
#
#
#
# Elastic Compliance Matrix: (Units=1/GPa)
#
#
# Indices 1 2 3 4 5 6 
#
# 1 0.011195 -0.002543 -0.006270 0.000000 0.000000 0.000000
# 2 -0.002543 0.044375 -0.006788 0.000000 0.000000 0.000000
# 3 -0.006270 -0.006788 0.014973 0.000000 0.000000 0.000000
# 4 0.000000 0.000000 0.000000 0.041228 0.000000 0.000000
# 5 0.000000 0.000000 0.000000 0.000000 0.082784 0.000000
# 6 0.000000 0.000000 0.000000 0.000000 0.000000 0.073652
#
#
# Mechanical properties :
#
#
# Convention : Reuss Voigt Hill
#
# Bulk Modulus (GPa) = 25.41969 49.63671 37.52820
# Shear Modulus (GPa) = 15.99873 20.51959 18.25916
#
# Velocity S-wave (km/s) = 2.80955 3.18183 3.00147
# Velocity P-wave (km/s) = 4.80275 6.16351 5.52518
#
# Compressibility (1/GPa) = 0.03933958
#
# Stress axis : x y z
#
# Youngs Moduli (GPa) = 89.32329 22.53538 66.78511
#
# Poissons Ratio (x) = 0.05732 0.41877
# Poissons Ratio (y) = 0.22719 0.45334
# Poissons Ratio (z) = 0.56009 0.15297
#
# Static dielectric constant tensor:
#      x y z
#    x 3.383750 0.000000 0.000000 
#    y 0.000000 4.499990 0.000000 
#    z 0.000000 0.000000 -1.971630 
# 
# 
# High freq. dielectric constant tensor:
#      x y z
#    x 1.754690 0.000000 0.000000 
#    y 0.000000 1.786710 0.000000 
#    z 0.000000 0.000000 1.811710 
# 
# From -- ./inp_files/13587.got.cif
#   From: 2010.03.12/outbox.cif.g09.slc.cpg/sg49_7_cif.got.tgz:13587.got - 2010.04.14 03:58:27.
