data_PCOD8203999
_publ_section_title
;
Structure prediction by ZEFSAII (Michael W. Deem and Ramdas Pophale) SiO2 
 PCOD8203999
Probable space group: P C C M
;
_chemical_formula_sum "Si O2"
_cell_formula_units_Z 48
_cell_length_a 13.651717
_cell_length_b 18.797095
_cell_length_c 9.290092
_cell_angle_alpha 90.000000
_cell_angle_beta 90.000000
_cell_angle_gamma 90.000000
_cell_volume 2383.954861
_symmetry_space_group_name_H-M "P C C M"
_symmetry_group_IT_number 49
_symmetry_cell_setting 'orthorhombic'
loop_
_space_group_symop_operation_xyz
x,y,z
-x,-y,z
x,-y,1/2-z
-x,y,1/2-z
-x,-y,-z
x,y,-z
-x,y,1/2+z
x,-y,1/2+z
loop_
_atom_site_type_symbol
_atom_site_label
_atom_site_fract_x
_atom_site_fract_y
_atom_site_fract_z
Si Si1 0.203801 0.655530 0.254378
Si Si2 0.139116 0.436816 0.000000
Si Si3 0.594348 0.859107 0.170334
Si Si4 0.085587 0.400800 0.500000
Si Si5 0.404970 0.711324 0.169826
Si Si6 0.796102 0.070176 0.666741
Si Si7 0.904916 0.209326 0.336785
O O1 0.199661 0.589019 0.362224
O O2 0.312711 0.658846 0.188643
O O3 0.177614 0.729651 0.331121
O O4 0.121055 0.642839 0.136217
O O5 0.132786 0.521193 0.000000
O O6 0.031469 0.401797 0.000000
O O7 0.500000 0.893161 0.250000
O O8 0.618603 0.785567 0.251536
O O9 0.681999 0.914095 0.193654
O O10 0.575943 0.845126 0.000000
O O11 0.500000 0.677484 0.250000
O O12 0.425727 0.722699 0.000000
O O13 0.817278 0.057489 0.500000
O O14 0.859318 0.136448 0.725733
O O15 0.829130 0.000000 0.750000
O O16 0.937057 0.197904 0.500000
O O17 0.000000 0.232061 0.250000
#
# Coordination Sequence:
#
# PCOD8203999 Si02
#       7
#     8   4   8   4   8   8   8
#     4  12  23  40  66  97 130 166 213 261 315 370
#     4  11  24  40  71  93 136 178 198 261 309 379
#     4  10  20  37  60  88 122 157 203 255 314 375
#     4  11  24  44  61 103 134 168 218 243 315 379
#     4  11  23  38  63  95 127 163 213 266 317 374
#     4  10  23  41  59  84 122 164 206 257 316 370
#     4  11  24  41  63  91 123 164 212 260 310 370
#
# _framework density 20.134609999999999
#
# number of rings (size 3 to 8) (size 9 to 14) (size 15 to 20)
#    0.000    1.167    3.333    4.000    3.500    4.000 
#    0.000    3.333    0.000    3.000    0.000    0.000 
#    0.000    0.000    0.000    0.000    0.000    0.000 
#
# Total GULP energy -595246.425448 kJ/mol
# GULP energy per Si atom -12400.967197 kJ/mol
# Density = 2.008878 g / cm^3
# Si number density = 20.134610 Si / 1000 Ang^3
#
#
#
# Elastic Constant Matrix: (Units=GPa)
#
#
# Indices 1 2 3 4 5 6 
#
# 1 87.1732 25.5926 26.7401 0.0000 0.0000 0.0000
# 2 25.5926 77.4998 24.0382 0.0000 0.0000 0.0000
# 3 26.7401 24.0382 116.7528 0.0000 0.0000 0.0000
# 4 0.0000 0.0000 0.0000 32.8875 0.0000 0.0000
# 5 0.0000 0.0000 0.0000 0.0000 33.1014 0.0000
# 6 0.0000 0.0000 0.0000 0.0000 0.0000 30.3258
#
#
#
# Elastic Compliance Matrix: (Units=1/GPa)
#
#
# Indices 1 2 3 4 5 6 
#
# 1 0.013247 -0.003668 -0.002279 0.000000 0.000000 0.000000
# 2 -0.003668 0.014799 -0.002207 0.000000 0.000000 0.000000
# 3 -0.002279 -0.002207 0.009541 0.000000 0.000000 0.000000
# 4 0.000000 0.000000 0.000000 0.030407 0.000000 0.000000
# 5 0.000000 0.000000 0.000000 0.000000 0.030210 0.000000
# 6 0.000000 0.000000 0.000000 0.000000 0.000000 0.032975
#
#
# Mechanical properties :
#
#
# Convention : Reuss Voigt Hill
#
# Bulk Modulus (GPa) = 46.99135 48.24083 47.61609
# Shear Modulus (GPa) = 32.34563 32.93328 32.63946
#
# Velocity S-wave (km/s) = 4.01243 4.04871 4.03061
# Velocity P-wave (km/s) = 6.69741 6.77254 6.73508
#
# Compressibility (1/GPa) = 0.02128051
#
# Stress axis : x y z
#
# Youngs Moduli (GPa) = 75.48737 67.57224 104.80618
#
# Poissons Ratio (x) = 0.24784 0.23884
# Poissons Ratio (y) = 0.27687 0.23130
# Poissons Ratio (z) = 0.17203 0.14913
#
# Static dielectric constant tensor:
#      x y z
#    x 3.709900 0.000000 0.000000 
#    y 0.000000 3.461790 0.000000 
#    z 0.000000 0.000000 3.659390 
# 
# 
# High freq. dielectric constant tensor:
#      x y z
#    x 1.787710 0.000000 0.000000 
#    y 0.000000 1.770870 0.000000 
#    z 0.000000 0.000000 1.796880 
# 
# From -- ./inp_files/3752.got.cif
#   From: 2010.03.12/outbox.cif.g09.slc.cpg/sg49_2_cif.got.tgz:3752.got - 2010.04.14 03:58:27.
