data_PCOD8203037
_publ_section_title
;
Structure prediction by ZEFSAII (Michael W. Deem and Ramdas Pophale) SiO2 
 PCOD8203037
Probable space group: P C C M
;
_chemical_formula_sum "Si O2"
_cell_formula_units_Z 64
_cell_length_a 22.435553
_cell_length_b 17.507475
_cell_length_c 9.052444
_cell_angle_alpha 90.000000
_cell_angle_beta 90.000000
_cell_angle_gamma 90.000000
_cell_volume 3555.708422
_symmetry_space_group_name_H-M "P C C M"
_symmetry_group_IT_number 49
_symmetry_cell_setting 'orthorhombic'
loop_
_space_group_symop_operation_xyz
x,y,z
-x,-y,z
x,-y,1/2-z
-x,y,1/2-z
-x,-y,-z
x,y,-z
-x,y,1/2+z
x,-y,1/2+z
loop_
_atom_site_type_symbol
_atom_site_label
_atom_site_fract_x
_atom_site_fract_y
_atom_site_fract_z
Si Si1 0.856592 0.922085 0.333399
Si Si2 0.664598 0.698882 0.660467
Si Si3 0.756522 0.581599 0.324049
Si Si4 0.833662 0.304948 0.661776
Si Si5 0.436501 0.803075 0.821644
Si Si6 0.749938 0.177988 0.247777
Si Si7 0.062557 0.196349 0.174662
Si Si8 0.356125 0.078046 0.832784
O O1 0.878391 0.938197 0.500000
O O2 0.795519 0.874096 0.343610
O O3 0.908685 0.878929 0.245921
O O4 0.842416 0.000000 0.250000
O O5 0.645982 0.669341 0.500000
O O6 0.697888 0.627287 0.738923
O O7 0.604605 0.731665 0.736361
O O8 0.710894 0.769146 0.639053
O O9 0.757519 0.500000 0.250000
O O10 0.755732 0.574295 0.500000
O O11 0.814848 0.629885 0.277993
O O12 0.837731 0.343165 0.500000
O O13 0.787331 0.234509 0.647186
O O14 0.897314 0.270748 0.710156
O O15 0.500000 0.788571 0.750000
O O16 0.408879 0.880868 0.758031
O O17 0.439276 0.807365 0.000000
O O18 0.704803 0.126357 0.342440
O O19 0.000000 0.213039 0.250000
O O20 0.055817 0.182974 0.000000
O O21 0.341589 0.000000 0.750000
O O22 0.378144 0.063067 0.000000
#
# Coordination Sequence:
#
# PCOD8203037 Si02
#       8
#     8   8   8   8   8   8   8   8
#     4  11  22  34  50  72 101 135 173 217 267 316
#     4   8  16  31  51  75 102 131 164 201 243 294
#     4  10  19  32  53  82 113 141 165 195 240 293
#     4   9  18  33  53  78 105 133 166 205 246 297
#     4  10  20  36  55  74  97 128 170 215 257 302
#     4   9  18  31  51  74 100 130 166 209 256 308
#     4  10  21  37  56  76 100 132 174 218 260 305
#     4  11  22  34  49  71  99 132 169 212 262 311
#
# _framework density 17.999226
#
# number of rings (size 3 to 8) (size 9 to 14) (size 15 to 20)
#    0.000    2.250    0.000    3.000    0.000    8.000 
#    0.000    4.375    0.000    0.750    0.000    5.250 
#    0.000    0.000    0.000    0.000    0.000    0.000 
#
# Total GULP energy -793106.814022 kJ/mol
# GULP energy per Si atom -12392.293969 kJ/mol
# Density = 1.795826 g / cm^3
# Si number density = 17.999226 Si / 1000 Ang^3
#
#
#
# Elastic Constant Matrix: (Units=GPa)
#
#
# Indices 1 2 3 4 5 6 
#
# 1 127.3518 53.5397 40.6982 0.0000 0.0000 0.0000
# 2 53.5397 118.0348 46.8358 0.0000 0.0000 0.0000
# 3 40.6982 46.8358 110.6408 0.0000 0.0000 0.0000
# 4 0.0000 0.0000 0.0000 23.1977 0.0000 0.0000
# 5 0.0000 0.0000 0.0000 0.0000 21.9363 0.0000
# 6 0.0000 0.0000 0.0000 0.0000 0.0000 14.9897
#
#
#
# Elastic Compliance Matrix: (Units=1/GPa)
#
#
# Indices 1 2 3 4 5 6 
#
# 1 0.010106 -0.003736 -0.002136 0.000000 0.000000 0.000000
# 2 -0.003736 0.011564 -0.003521 0.000000 0.000000 0.000000
# 3 -0.002136 -0.003521 0.011314 0.000000 0.000000 0.000000
# 4 0.000000 0.000000 0.000000 0.043108 0.000000 0.000000
# 5 0.000000 0.000000 0.000000 0.000000 0.045587 0.000000
# 6 0.000000 0.000000 0.000000 0.000000 0.000000 0.066712
#
#
# Mechanical properties :
#
#
# Convention : Reuss Voigt Hill
#
# Bulk Modulus (GPa) = 70.43154 70.90831 70.66992
# Shear Modulus (GPa) = 23.59507 26.35498 24.97502
#
# Velocity S-wave (km/s) = 3.62455 3.83067 3.72904
# Velocity P-wave (km/s) = 7.53205 7.68415 7.60848
#
# Compressibility (1/GPa) = 0.01419818
#
# Stress axis : x y z
#
# Youngs Moduli (GPa) = 98.95552 86.47592 88.38455
#
# Poissons Ratio (x) = 0.32311 0.18875
# Poissons Ratio (y) = 0.36974 0.31118
# Poissons Ratio (z) = 0.21132 0.30446
#
# Static dielectric constant tensor:
#      x y z
#    x 3.357540 0.000000 0.000000 
#    y 0.000000 3.243750 0.000000 
#    z 0.000000 0.000000 3.225120 
# 
# 
# High freq. dielectric constant tensor:
#      x y z
#    x 1.689660 0.000000 0.000000 
#    y 0.000000 1.679610 0.000000 
#    z 0.000000 0.000000 1.697500 
# 
# From -- ./inp_files/5931.got.cif
#   From: 2010.03.12/outbox.cif.g09.slc.cpg/sg49_3_cif.got.tgz:5931.got - 2010.04.14 03:58:27.
