data_PCOD8203155
_publ_section_title
;
Structure prediction by ZEFSAII (Michael W. Deem and Ramdas Pophale) SiO2 
 PCOD8203155
Probable space group: P C C M
;
_chemical_formula_sum "Si O2"
_cell_formula_units_Z 64
_cell_length_a 15.298172
_cell_length_b 24.725907
_cell_length_c 8.658770
_cell_angle_alpha 90.000000
_cell_angle_beta 90.000000
_cell_angle_gamma 90.000000
_cell_volume 3275.276541
_symmetry_space_group_name_H-M "P C C M"
_symmetry_group_IT_number 49
_symmetry_cell_setting 'orthorhombic'
loop_
_space_group_symop_operation_xyz
x,y,z
-x,-y,z
x,-y,1/2-z
-x,y,1/2-z
-x,-y,-z
x,y,-z
-x,y,1/2+z
x,-y,1/2+z
loop_
_atom_site_type_symbol
_atom_site_label
_atom_site_fract_x
_atom_site_fract_y
_atom_site_fract_z
Si Si1 0.091166 0.357069 0.319458
Si Si2 0.590274 0.830832 0.317979
Si Si3 0.413395 0.395531 0.316954
Si Si4 0.625006 0.282312 0.323435
Si Si5 0.231445 0.442755 0.682912
Si Si6 0.908773 0.940785 0.683410
Si Si7 0.822654 0.739833 0.825869
Si Si8 0.227490 0.141682 0.183728
O O1 0.085059 0.362373 0.500000
O O2 0.165638 0.397021 0.253356
O O3 0.111021 0.294704 0.277434
O O4 0.000000 0.376187 0.250000
O O5 0.500000 0.855577 0.250000
O O6 0.594019 0.840105 0.500000
O O7 0.592393 0.767323 0.279672
O O8 0.672345 0.861394 0.240146
O O9 0.500000 0.425349 0.250000
O O10 0.415736 0.391527 0.500000
O O11 0.415855 0.335967 0.245373
O O12 0.328932 0.428416 0.259092
O O13 0.594563 0.272821 0.500000
O O14 0.728857 0.288241 0.314762
O O15 0.202015 0.500000 0.750000
O O16 0.228088 0.445263 0.500000
O O17 0.914808 0.943096 0.500000
O O18 0.827540 0.904740 0.734966
O O19 0.000000 0.917080 0.750000
O O20 0.892126 0.000000 0.750000
O O21 0.815830 0.801334 0.765617
O O22 0.858549 0.738979 0.000000
O O23 0.226368 0.135106 0.000000
#
# Coordination Sequence:
#
# PCOD8203155 Si02
#       8
#     8   8   8   8   8   8   8   8
#     4  11  23  40  61  86 113 144 184 229 282 343
#     4  11  21  34  53  81 119 162 203 246 294 346
#     4  11  22  37  56  83 112 143 184 227 279 339
#     4  10  19  33  54  81 112 150 190 232 282 337
#     4  10  24  43  62  82 108 142 182 232 284 341
#     4  11  22  39  63  91 122 162 206 255 308 355
#     4   9  19  35  57  84 116 152 188 229 283 339
#     4  10  21  38  59  89 124 159 204 250 296 356
#
# _framework density 19.540336
#
# number of rings (size 3 to 8) (size 9 to 14) (size 15 to 20)
#    0.000    1.625    1.250    5.250    0.000    5.500 
#    0.000    2.500    0.000    0.375    0.000    2.625 
#    0.000    0.000    0.000    0.000    0.000    0.000 
#
# Total GULP energy -793733.653580 kJ/mol
# GULP energy per Si atom -12402.088337 kJ/mol
# Density = 1.949586 g / cm^3
# Si number density = 19.540336 Si / 1000 Ang^3
#
#
#
# Elastic Constant Matrix: (Units=GPa)
#
#
# Indices 1 2 3 4 5 6 
#
# 1 138.8683 59.3075 49.2997 0.0000 0.0000 0.0000
# 2 59.3075 81.5217 34.8674 0.0000 0.0000 0.0000
# 3 49.2997 34.8674 103.3889 0.0000 0.0000 0.0000
# 4 0.0000 0.0000 0.0000 28.8810 0.0000 0.0000
# 5 0.0000 0.0000 0.0000 0.0000 35.6171 0.0000
# 6 0.0000 0.0000 0.0000 0.0000 0.0000 18.0645
#
#
#
# Elastic Compliance Matrix: (Units=1/GPa)
#
#
# Indices 1 2 3 4 5 6 
#
# 1 0.011205 -0.006855 -0.003031 0.000000 0.000000 0.000000
# 2 -0.006855 0.018528 -0.002980 0.000000 0.000000 0.000000
# 3 -0.003031 -0.002980 0.012122 0.000000 0.000000 0.000000
# 4 0.000000 0.000000 0.000000 0.034625 0.000000 0.000000
# 5 0.000000 0.000000 0.000000 0.000000 0.028076 0.000000
# 6 0.000000 0.000000 0.000000 0.000000 0.000000 0.055357
#
#
# Mechanical properties :
#
#
# Convention : Reuss Voigt Hill
#
# Bulk Modulus (GPa) = 62.02073 67.85869 64.93971
# Shear Modulus (GPa) = 26.17520 28.53280 27.35400
#
# Velocity S-wave (km/s) = 3.66395 3.82540 3.74555
# Velocity P-wave (km/s) = 7.05040 7.36984 7.21189
#
# Compressibility (1/GPa) = 0.01612364
#
# Stress axis : x y z
#
# Youngs Moduli (GPa) = 89.24753 53.97136 82.49176
#
# Poissons Ratio (x) = 0.36998 0.25003
# Poissons Ratio (y) = 0.61181 0.24581
# Poissons Ratio (z) = 0.27051 0.16082
#
# Static dielectric constant tensor:
#      x y z
#    x 3.977580 0.000000 0.000000 
#    y 0.000000 3.386390 0.000000 
#    z 0.000000 0.000000 3.549940 
# 
# 
# High freq. dielectric constant tensor:
#      x y z
#    x 1.773630 0.000000 0.000000 
#    y 0.000000 1.736630 0.000000 
#    z 0.000000 0.000000 1.768500 
# 
# From -- ./inp_files/4410.got.cif
#   From: 2010.03.12/outbox.cif.g09.slc.cpg/sg49_3_cif.got.tgz:4410.got - 2010.04.14 03:58:27.
