data_PCOD8203263
_publ_section_title
;
Structure prediction by ZEFSAII (Michael W. Deem and Ramdas Pophale) SiO2 
 PCOD8203263
Probable space group: P C C M
;
_chemical_formula_sum "Si O2"
_cell_formula_units_Z 64
_cell_length_a 20.636904
_cell_length_b 19.511974
_cell_length_c 8.578179
_cell_angle_alpha 90.000000
_cell_angle_beta 90.000000
_cell_angle_gamma 90.000000
_cell_volume 3454.147324
_symmetry_space_group_name_H-M "P C C M"
_symmetry_group_IT_number 49
_symmetry_cell_setting 'orthorhombic'
loop_
_space_group_symop_operation_xyz
x,y,z
-x,-y,z
x,-y,1/2-z
-x,y,1/2-z
-x,-y,-z
x,y,-z
-x,y,1/2+z
x,-y,1/2+z
loop_
_atom_site_type_symbol
_atom_site_label
_atom_site_fract_x
_atom_site_fract_y
_atom_site_fract_z
Si Si1 0.812018 0.295101 0.683693
Si Si2 0.069145 0.212837 0.685182
Si Si3 0.566500 0.707307 0.316253
Si Si4 0.875895 0.069999 0.817124
Si Si5 0.314215 0.789473 0.316395
Si Si6 0.271764 0.071632 0.314858
Si Si7 0.618786 0.572305 0.815568
Si Si8 0.760220 0.571559 0.683941
O O1 0.811745 0.306909 0.500000
O O2 0.878338 0.261122 0.736386
O O3 0.751996 0.247675 0.736772
O O4 0.809052 0.368143 0.769711
O O5 0.072714 0.220538 0.500000
O O6 0.082050 0.134583 0.739247
O O7 0.000000 0.236065 0.750000
O O8 0.500000 0.739750 0.250000
O O9 0.563366 0.702086 0.500000
O O10 0.625969 0.754575 0.268319
O O11 0.572117 0.631482 0.244961
O O12 0.802420 0.079750 0.757336
O O13 0.906518 0.000000 0.750000
O O14 0.876262 0.063548 0.000000
O O15 0.324433 0.783938 0.500000
O O16 0.312967 0.868088 0.262953
O O17 0.278428 0.075019 0.500000
O O18 0.299801 0.000000 0.250000
O O19 0.593570 0.500000 0.750000
O O20 0.691124 0.588577 0.759100
O O21 0.618231 0.570243 0.000000
O O22 0.787897 0.500000 0.750000
O O23 0.752082 0.566002 0.500000
#
# Coordination Sequence:
#
# PCOD8203263 Si02
#       8
#     8   8   8   8   8   8   8   8
#     4  11  22  37  60  87 116 151 194 241 290 343
#     4  11  23  39  56  81 115 154 197 241 292 347
#     4  12  25  41  60  84 117 156 196 241 291 346
#     4   9  19  33  52  77 111 150 191 234 280 339
#     4  11  22  37  60  88 117 151 194 241 290 345
#     4  10  19  34  56  85 117 150 191 239 292 344
#     4  11  21  36  56  83 117 155 197 238 284 342
#     4  11  21  35  58  87 119 152 190 238 289 341
#
# _framework density 18.528452000000001
#
# number of rings (size 3 to 8) (size 9 to 14) (size 15 to 20)
#    0.000    1.250    2.500    5.625    0.000    3.000 
#    0.000    2.500    0.000    0.750    0.000    5.250 
#    0.000    0.000    0.000    0.000    0.000    0.000 
#
# Total GULP energy -793921.365534 kJ/mol
# GULP energy per Si atom -12405.021336 kJ/mol
# Density = 1.848628 g / cm^3
# Si number density = 18.528452 Si / 1000 Ang^3
#
#
#
# Elastic Constant Matrix: (Units=GPa)
#
#
# Indices 1 2 3 4 5 6 
#
# 1 100.8404 50.9831 39.7236 0.0000 0.0000 0.0000
# 2 50.9831 117.0988 44.6165 0.0000 0.0000 0.0000
# 3 39.7236 44.6165 123.1924 0.0000 0.0000 0.0000
# 4 0.0000 0.0000 0.0000 35.3942 0.0000 0.0000
# 5 0.0000 0.0000 0.0000 0.0000 24.2886 0.0000
# 6 0.0000 0.0000 0.0000 0.0000 0.0000 3.3447
#
#
#
# Elastic Compliance Matrix: (Units=1/GPa)
#
#
# Indices 1 2 3 4 5 6 
#
# 1 0.013376 -0.004849 -0.002557 0.000000 0.000000 0.000000
# 2 -0.004849 0.011665 -0.002661 0.000000 0.000000 0.000000
# 3 -0.002557 -0.002661 0.009906 0.000000 0.000000 0.000000
# 4 0.000000 0.000000 0.000000 0.028253 0.000000 0.000000
# 5 0.000000 0.000000 0.000000 0.000000 0.041172 0.000000
# 6 0.000000 0.000000 0.000000 0.000000 0.000000 0.298978
#
#
# Mechanical properties :
#
#
# Convention : Reuss Voigt Hill
#
# Bulk Modulus (GPa) = 67.51301 67.97532 67.74417
# Shear Modulus (GPa) = 11.67077 26.32607 18.99842
#
# Velocity S-wave (km/s) = 2.51247 3.77350 3.20561
# Velocity P-wave (km/s) = 6.70323 7.46675 7.09527
#
# Compressibility (1/GPa) = 0.01481196
#
# Stress axis : x y z
#
# Youngs Moduli (GPa) = 74.76321 85.72619 100.95373
#
# Poissons Ratio (x) = 0.41572 0.25811
# Poissons Ratio (y) = 0.36256 0.26864
# Poissons Ratio (z) = 0.19114 0.22812
#
# Static dielectric constant tensor:
#      x y z
#    x 3.202780 0.000000 0.000000 
#    y 0.000000 3.577000 0.000000 
#    z 0.000000 0.000000 3.475170 
# 
# 
# High freq. dielectric constant tensor:
#      x y z
#    x 1.693630 0.000000 0.000000 
#    y 0.000000 1.724950 0.000000 
#    z 0.000000 0.000000 1.736070 
# 
# From -- ./inp_files/5321.got.cif
#   From: 2010.03.12/outbox.cif.g09.slc.cpg/sg49_3_cif.got.tgz:5321.got - 2010.04.14 03:58:27.
