data_PCOD8203687
_publ_section_title
;
Structure prediction by ZEFSAII (Michael W. Deem and Ramdas Pophale) SiO2 
 PCOD8203687
Probable space group: P C C M
;
_chemical_formula_sum "Si O2"
_cell_formula_units_Z 64
_cell_length_a 11.395039
_cell_length_b 15.863933
_cell_length_c 17.606737
_cell_angle_alpha 90.000000
_cell_angle_beta 90.000000
_cell_angle_gamma 90.000000
_cell_volume 3182.772228
_symmetry_space_group_name_H-M "P C C M"
_symmetry_group_IT_number 49
_symmetry_cell_setting 'orthorhombic'
loop_
_space_group_symop_operation_xyz
x,y,z
-x,-y,z
x,-y,1/2-z
-x,y,1/2-z
-x,-y,-z
x,y,-z
-x,y,1/2+z
x,-y,1/2+z
loop_
_atom_site_type_symbol
_atom_site_label
_atom_site_fract_x
_atom_site_fract_y
_atom_site_fract_z
Si Si1 0.747164 0.136154 0.416046
Si Si2 0.496672 0.402901 0.160312
Si Si3 0.514505 0.907196 0.415283
Si Si4 0.716890 0.282369 0.314799
Si Si5 0.720101 0.180484 0.163053
Si Si6 0.134503 0.412165 0.727721
Si Si7 0.739878 0.652574 0.411109
Si Si8 0.129090 0.015868 0.337392
O O1 0.802103 0.134444 0.500000
O O2 0.607209 0.141670 0.417925
O O3 0.783441 0.223708 0.376260
O O4 0.782558 0.050642 0.374058
O O5 0.500000 0.500000 0.129010
O O6 0.500000 0.405866 0.250000
O O7 0.384953 0.340557 0.145272
O O8 0.609917 0.361608 0.122266
O O9 0.569813 0.913586 0.500000
O O10 0.596608 0.856777 0.359901
O O11 0.500000 0.000000 0.380816
O O12 0.685346 0.219373 0.245194
O O13 0.815388 0.341718 0.281670
O O14 0.764716 0.249082 0.102080
O O15 0.822895 0.110969 0.156442
O O16 0.196537 0.500000 0.750000
O O17 0.162712 0.398097 0.638203
O O18 0.000000 0.416383 0.750000
O O19 0.749434 0.627951 0.500000
O O20 0.118632 0.000000 0.250000
O O21 0.000000 0.000000 0.374549
#
# Coordination Sequence:
#
# PCOD8203687 Si02
#       8
#     8   8   8   8   8   8   8   8
#     4  11  24  40  59  91 129 164 210 266 321 373
#     4  11  21  39  67  98 137 175 211 251 323 416
#     4  10  20  34  55  80 117 157 196 245 298 357
#     4  11  23  38  62  96 127 167 213 262 316 395
#     4  11  21  38  61  89 122 168 211 258 314 385
#     4  10  22  44  70  93 121 173 224 266 327 400
#     4  11  24  40  66 102 136 168 216 276 331 388
#     4  11  24  43  63  86 119 166 221 271 319 379
#
# _framework density 20.108256999999998
#
# number of rings (size 3 to 8) (size 9 to 14) (size 15 to 20)
#    0.000    1.250    5.000    1.875    0.000    4.500 
#    0.000    6.250    0.000    0.000    0.000    0.000 
#    0.000    0.000    0.000    0.000    0.000    0.000 
#
# Total GULP energy -792955.893656 kJ/mol
# GULP energy per Si atom -12389.935838 kJ/mol
# Density = 2.006249 g / cm^3
# Si number density = 20.108257 Si / 1000 Ang^3
#
#
#
# Elastic Constant Matrix: (Units=GPa)
#
#
# Indices 1 2 3 4 5 6 
#
# 1 80.6093 36.4749 43.1148 0.0000 0.0000 0.0000
# 2 36.4749 154.5466 55.5121 0.0000 0.0000 0.0000
# 3 43.1148 55.5121 109.9532 0.0000 0.0000 0.0000
# 4 0.0000 0.0000 0.0000 -7.9582 0.0000 0.0000
# 5 0.0000 0.0000 0.0000 0.0000 29.7383 0.0000
# 6 0.0000 0.0000 0.0000 0.0000 0.0000 31.6792
#
#
#
# Elastic Compliance Matrix: (Units=1/GPa)
#
#
# Indices 1 2 3 4 5 6 
#
# 1 0.016131 -0.001875 -0.005378 0.000000 0.000000 0.000000
# 2 -0.001875 0.008122 -0.003365 0.000000 0.000000 0.000000
# 3 -0.005378 -0.003365 0.012903 0.000000 0.000000 0.000000
# 4 0.000000 0.000000 0.000000 -0.125657 0.000000 0.000000
# 5 0.000000 0.000000 0.000000 0.000000 0.033627 0.000000
# 6 0.000000 0.000000 0.000000 0.000000 0.000000 0.031566
#
#
# Mechanical properties :
#
#
# Convention : Reuss Voigt Hill
#
# Bulk Modulus (GPa) = 62.82302 68.36805 65.59554
# Shear Modulus (GPa) = 1545.38446 24.69235 785.03841
#
# Velocity S-wave (km/s) = 27.75249 3.50804 19.78013
# Velocity P-wave (km/s) = 32.53067 7.10509 23.54492
#
# Compressibility (1/GPa) = 0.01591773
#
# Stress axis : x y z
#
# Youngs Moduli (GPa) = 61.99350 123.12460 77.50274
#
# Poissons Ratio (x) = 0.23088 0.41685
# Poissons Ratio (y) = 0.11625 0.26081
# Poissons Ratio (z) = 0.33343 0.41434
#
# Static dielectric constant tensor:
#      x y z
#    x 4.004580 0.000000 0.000000 
#    y 0.000000 4.002180 0.000000 
#    z 0.000000 0.000000 3.642910 
# 
# 
# High freq. dielectric constant tensor:
#      x y z
#    x 1.770590 0.000000 0.000000 
#    y 0.000000 1.808580 0.000000 
#    z 0.000000 0.000000 1.772650 
# 
# From -- ./inp_files/17314.got.cif
#   From: 2010.03.12/outbox.cif.g09.slc.cpg/sg49_9_cif.got.tgz:17314.got - 2010.04.14 03:58:27.
