data_PCOD8203987
_publ_section_title
;
Structure prediction by ZEFSAII (Michael W. Deem and Ramdas Pophale) SiO2 
 PCOD8203987
Probable space group: P C C M
;
_chemical_formula_sum "Si O2"
_cell_formula_units_Z 34
_cell_length_a 7.521000
_cell_length_b 9.148782
_cell_length_c 26.184719
_cell_angle_alpha 90.000000
_cell_angle_beta 90.000000
_cell_angle_gamma 90.000000
_cell_volume 1801.717868
_symmetry_space_group_name_H-M "P C C M"
_symmetry_group_IT_number 49
_symmetry_cell_setting 'orthorhombic'
loop_
_space_group_symop_operation_xyz
x,y,z
-x,-y,z
x,-y,1/2-z
-x,y,1/2-z
-x,-y,-z
x,y,-z
-x,y,1/2+z
x,-y,1/2+z
loop_
_atom_site_type_symbol
_atom_site_label
_atom_site_fract_x
_atom_site_fract_y
_atom_site_fract_z
Si Si1 0.166007 0.154667 0.658636
Si Si2 0.190404 0.149193 0.891428
Si Si3 0.543111 0.333692 0.108965
Si Si4 0.000000 0.000000 0.250000
Si Si5 0.233616 0.076821 0.000000
Si Si6 0.613299 0.221238 0.000000
O O1 0.314142 0.279410 0.651425
O O2 0.977354 0.216410 0.638176
O O3 0.233030 0.015096 0.626659
O O4 0.131281 0.103523 0.716838
O O5 0.363203 0.245177 0.882285
O O6 0.134644 0.140946 0.950752
O O7 0.500000 0.500000 0.120819
O O8 0.622826 0.319121 0.051465
O O9 0.433551 0.131437 0.000000
O O10 0.229490 0.899266 0.000000
#
# Coordination Sequence:
#
# PCOD8203987 Si02
#       6
#     8   8   8   2   4   4
#     4  10  20  37  60  81 104 140 182 244 285 325
#     4   9  19  33  54  83 107 145 192 224 269 316
#     4  11  21  34  54  83 122 156 182 212 273 341
#     4   8  20  40  62  84 100 122 188 254 298 314
#     4   9  14  28  52  78 113 145 190 237 254 306
#     4   9  17  29  49  80 121 157 182 222 259 315
#
# _framework density 18.870878999999999
#
# number of rings (size 3 to 8) (size 9 to 14) (size 15 to 20)
#    0.000    2.588    2.353    1.059    0.000    3.765 
#    0.000    9.412    0.000   22.588    0.000    0.000 
#    0.000    0.000    0.000    0.000    0.000    0.000 
#
# Total GULP energy -421401.208264 kJ/mol
# GULP energy per Si atom -12394.153184 kJ/mol
# Density = 1.882793 g / cm^3
# Si number density = 18.870879 Si / 1000 Ang^3
#
#
#
# Elastic Constant Matrix: (Units=GPa)
#
#
# Indices 1 2 3 4 5 6 
#
# 1 107.6622 47.0016 49.8589 0.0000 0.0000 0.0000
# 2 47.0016 77.0646 39.0373 0.0000 0.0000 0.0000
# 3 49.8589 39.0373 135.4793 0.0000 0.0000 0.0000
# 4 0.0000 0.0000 0.0000 -2.7698 0.0000 0.0000
# 5 0.0000 0.0000 0.0000 0.0000 -15.3562 0.0000
# 6 0.0000 0.0000 0.0000 0.0000 0.0000 19.9638
#
#
#
# Elastic Compliance Matrix: (Units=1/GPa)
#
#
# Indices 1 2 3 4 5 6 
#
# 1 0.013674 -0.006780 -0.003079 0.000000 0.000000 0.000000
# 2 -0.006780 0.018556 -0.002851 0.000000 0.000000 0.000000
# 3 -0.003079 -0.002851 0.009336 0.000000 0.000000 0.000000
# 4 0.000000 0.000000 0.000000 -0.361039 0.000000 0.000000
# 5 0.000000 0.000000 0.000000 0.000000 -0.065120 0.000000
# 6 0.000000 0.000000 0.000000 0.000000 0.000000 0.050091
#
#
# Mechanical properties :
#
#
# Convention : Reuss Voigt Hill
#
# Bulk Modulus (GPa) = 61.93877 65.77796 63.85837
# Shear Modulus (GPa) = -16.46356 12.65480 -1.90438
#
# Velocity S-wave (km/s) = -2.95690 2.59240 -1.00566
# Velocity P-wave (km/s) = 4.60825 6.62520 5.70654
#
# Compressibility (1/GPa) = 0.01614498
#
# Stress axis : x y z
#
# Youngs Moduli (GPa) = 73.13099 53.89139 107.11441
#
# Poissons Ratio (x) = 0.36540 0.32976
# Poissons Ratio (y) = 0.49585 0.30543
# Poissons Ratio (z) = 0.22514 0.15367
#
# Static dielectric constant tensor:
#      x y z
#    x 3.435340 0.000000 0.000000 
#    y 0.000000 3.165470 0.000000 
#    z 0.000000 0.000000 3.534500 
# 
# 
# High freq. dielectric constant tensor:
#      x y z
#    x 1.735120 0.000000 0.000000 
#    y 0.000000 1.700390 0.000000 
#    z 0.000000 0.000000 1.724540 
# 
# From -- ./inp_files/24301.got.cif
#   From: 2010.03.12/outbox.cif.g09.slc.cpg/sg49_13_cif.got.tgz:24301.got - 2010.04.14 03:58:27.
