data_PCOD8203519
_publ_section_title
;
Structure prediction by ZEFSAII (Michael W. Deem and Ramdas Pophale) SiO2 
 PCOD8203519
Probable space group: P C C M
;
_chemical_formula_sum "Si O2"
_cell_formula_units_Z 38
_cell_length_a 15.447775
_cell_length_b 14.086043
_cell_length_c 9.745131
_cell_angle_alpha 90.000000
_cell_angle_beta 90.000000
_cell_angle_gamma 90.000000
_cell_volume 2120.521239
_symmetry_space_group_name_H-M "P C C M"
_symmetry_group_IT_number 49
_symmetry_cell_setting 'orthorhombic'
loop_
_space_group_symop_operation_xyz
x,y,z
-x,-y,z
x,-y,1/2-z
-x,y,1/2-z
-x,-y,-z
x,y,-z
-x,y,1/2+z
x,-y,1/2+z
loop_
_atom_site_type_symbol
_atom_site_label
_atom_site_fract_x
_atom_site_fract_y
_atom_site_fract_z
Si Si1 0.500000 0.500000 0.250000
Si Si2 0.500000 0.817689 0.750000
Si Si3 0.330026 0.911591 0.655953
Si Si4 0.752472 0.717490 0.843277
Si Si5 0.086184 0.592320 0.666232
Si Si6 0.614563 0.657687 0.354313
O O1 0.557019 0.564280 0.349325
O O2 0.430875 0.882548 0.669627
O O3 0.553614 0.750668 0.647800
O O4 0.313646 0.942432 0.500000
O O5 0.263492 0.827129 0.699166
O O6 0.306118 0.000000 0.750000
O O7 0.849540 0.681442 0.815138
O O8 0.685703 0.651337 0.763413
O O9 0.726299 0.704034 0.000000
O O10 0.122350 0.500000 0.750000
O O11 0.071785 0.572704 0.500000
O O12 0.000000 0.621607 0.750000
O O13 0.663470 0.659527 0.500000
#
# Coordination Sequence:
#
# PCOD8203519 Si02
#       6
#     2   4   8   8   8   8
#     4  10  22  32  42  70 102 136 174 222 264 292
#     4   9  19  33  49  70 100 134 174 224 270 302
#     4  10  20  34  52  74 102 136 174 218 264 309
#     4   9  21  38  53  74 108 139 166 211 266 308
#     4  10  20  36  58  84 110 137 168 207 254 309
#     4  10  20  33  50  69  96 137 183 219 254 307
#
# _framework density 17.920121999999999
#
# number of rings (size 3 to 8) (size 9 to 14) (size 15 to 20)
#    0.000    2.316    0.000    2.526    1.474   12.632 
#    0.000    0.000    0.000    0.632    0.000    4.421 
#    0.000    0.000    0.000    0.000    0.000    0.000 
#
# Total GULP energy -470826.737728 kJ/mol
# GULP energy per Si atom -12390.177309 kJ/mol
# Density = 1.787933 g / cm^3
# Si number density = 17.920122 Si / 1000 Ang^3
#
#
#
# Elastic Constant Matrix: (Units=GPa)
#
#
# Indices 1 2 3 4 5 6 
#
# 1 88.4990 59.5317 47.4601 0.0000 0.0000 0.0000
# 2 59.5317 107.1129 58.2654 0.0000 0.0000 0.0000
# 3 47.4601 58.2654 117.7214 0.0000 0.0000 0.0000
# 4 0.0000 0.0000 0.0000 -2.6244 0.0000 0.0000
# 5 0.0000 0.0000 0.0000 0.0000 23.8004 0.0000
# 6 0.0000 0.0000 0.0000 0.0000 0.0000 20.4349
#
#
#
# Elastic Compliance Matrix: (Units=1/GPa)
#
#
# Indices 1 2 3 4 5 6 
#
# 1 0.018950 -0.008726 -0.003321 0.000000 0.000000 0.000000
# 2 -0.008726 0.016793 -0.004794 0.000000 0.000000 0.000000
# 3 -0.003321 -0.004794 0.012206 0.000000 0.000000 0.000000
# 4 0.000000 0.000000 0.000000 -0.381045 0.000000 0.000000
# 5 0.000000 0.000000 0.000000 0.000000 0.042016 0.000000
# 6 0.000000 0.000000 0.000000 0.000000 0.000000 0.048936
#
#
# Mechanical properties :
#
#
# Convention : Reuss Voigt Hill
#
# Bulk Modulus (GPa) = 70.08555 71.53865 70.81210
# Shear Modulus (GPa) = -24.54526 18.19392 -3.17567
#
# Velocity S-wave (km/s) = -3.70497 3.18980 -1.33266
# Velocity P-wave (km/s) = 4.57083 7.31942 6.10190
#
# Compressibility (1/GPa) = 0.01426828
#
# Stress axis : x y z
#
# Youngs Moduli (GPa) = 52.76973 59.54786 81.92491
#
# Poissons Ratio (x) = 0.51959 0.27209
# Poissons Ratio (y) = 0.46045 0.39274
# Poissons Ratio (z) = 0.17526 0.28547
#
# Static dielectric constant tensor:
#      x y z
#    x 3.196560 0.000000 0.000000 
#    y 0.000000 3.374200 0.000000 
#    z 0.000000 0.000000 3.430210 
# 
# 
# High freq. dielectric constant tensor:
#      x y z
#    x 1.667640 0.000000 0.000000 
#    y 0.000000 1.688380 0.000000 
#    z 0.000000 0.000000 1.705640 
# 
# From -- ./inp_files/4794.got.cif
#   From: 2010.03.12/outbox.cif.g09.slc.cpg/sg49_3_cif.got.tgz:4794.got - 2010.04.14 03:58:27.
