data_PCOD8203150
_publ_section_title
;
Structure prediction by ZEFSAII (Michael W. Deem and Ramdas Pophale) SiO2 
 PCOD8203150
Probable space group: P C C M
;
_chemical_formula_sum "Si O2"
_cell_formula_units_Z 48
_cell_length_a 28.645850
_cell_length_b 9.411292
_cell_length_c 9.401486
_cell_angle_alpha 90.000000
_cell_angle_beta 90.000000
_cell_angle_gamma 90.000000
_cell_volume 2534.588531
_symmetry_space_group_name_H-M "P C C M"
_symmetry_group_IT_number 49
_symmetry_cell_setting 'orthorhombic'
loop_
_space_group_symop_operation_xyz
x,y,z
-x,-y,z
x,-y,1/2-z
-x,y,1/2-z
-x,-y,-z
x,y,-z
-x,y,1/2+z
x,-y,1/2+z
loop_
_atom_site_type_symbol
_atom_site_label
_atom_site_fract_x
_atom_site_fract_y
_atom_site_fract_z
Si Si1 0.452893 0.137656 0.332930
Si Si2 0.630037 0.646200 0.667435
Si Si3 0.951393 0.334842 0.500000
Si Si4 0.055312 0.672385 0.000000
Si Si5 0.884831 0.332644 0.256449
Si Si6 0.803892 0.861999 0.836909
Si Si7 0.695380 0.144126 0.332499
O O1 0.500000 0.181423 0.250000
O O2 0.462374 0.102898 0.500000
O O3 0.417636 0.267039 0.318866
O O4 0.432001 0.000000 0.250000
O O5 0.622033 0.500000 0.750000
O O6 0.643032 0.623675 0.500000
O O7 0.670779 0.727336 0.750991
O O8 0.953201 0.504616 0.500000
O O9 0.921666 0.279485 0.370341
O O10 0.002926 0.263553 0.500000
O O11 0.087925 0.727966 0.876389
O O12 0.876769 0.500000 0.250000
O O13 0.833644 0.268556 0.276910
O O14 0.749927 0.823134 0.817064
O O15 0.818159 0.000000 0.750000
O O16 0.815888 0.891412 0.000000
O O17 0.680825 0.133162 0.500000
O O18 0.681743 0.000000 0.250000
#
# Coordination Sequence:
#
# PCOD8203150 Si02
#       7
#     8   8   4   4   8   8   8
#     4  10  21  37  60  88 119 157 204 247 290 341
#     4  11  24  40  59  88 122 158 195 241 298 350
#     4   9  16  32  51  75 111 141 177 229 270 325
#     4   9  18  28  51  83 105 139 183 221 276 325
#     4  10  19  33  54  81 109 139 180 229 276 328
#     4  10  22  39  58  81 111 147 184 226 278 335
#     4  10  21  39  62  85 110 148 195 240 286 346
#
# _framework density 18.937985000000001
#
# number of rings (size 3 to 8) (size 9 to 14) (size 15 to 20)
#    0.000    2.000    0.833    3.000    1.167    7.667 
#    0.000    1.667    0.000    3.000    0.000    0.000 
#    0.000    0.000    0.000    0.000    0.000    0.000 
#
# Total GULP energy -594824.253105 kJ/mol
# GULP energy per Si atom -12392.171940 kJ/mol
# Density = 1.889488 g / cm^3
# Si number density = 18.937985 Si / 1000 Ang^3
#
#
#
# Elastic Constant Matrix: (Units=GPa)
#
#
# Indices 1 2 3 4 5 6 
#
# 1 95.6235 59.3350 67.6828 0.0000 0.0000 0.0000
# 2 59.3350 98.6106 65.2663 0.0000 0.0000 0.0000
# 3 67.6828 65.2663 183.6720 0.0000 0.0000 0.0000
# 4 0.0000 0.0000 0.0000 33.5164 0.0000 0.0000
# 5 0.0000 0.0000 0.0000 0.0000 45.7891 0.0000
# 6 0.0000 0.0000 0.0000 0.0000 0.0000 28.2808
#
#
#
# Elastic Compliance Matrix: (Units=1/GPa)
#
#
# Indices 1 2 3 4 5 6 
#
# 1 0.018459 -0.008636 -0.003733 0.000000 0.000000 0.000000
# 2 -0.008636 0.017300 -0.002965 0.000000 0.000000 0.000000
# 3 -0.003733 -0.002965 0.007874 0.000000 0.000000 0.000000
# 4 0.000000 0.000000 0.000000 0.029836 0.000000 0.000000
# 5 0.000000 0.000000 0.000000 0.000000 0.021839 0.000000
# 6 0.000000 0.000000 0.000000 0.000000 0.000000 0.035360
#
#
# Mechanical properties :
#
#
# Convention : Reuss Voigt Hill
#
# Bulk Modulus (GPa) = 77.13791 84.71935 80.92863
# Shear Modulus (GPa) = 30.18288 33.89206 32.03747
#
# Velocity S-wave (km/s) = 3.99654 4.23500 4.11750
# Velocity P-wave (km/s) = 7.88142 8.29131 8.08896
#
# Compressibility (1/GPa) = 0.01296379
#
# Stress axis : x y z
#
# Youngs Moduli (GPa) = 54.17476 57.80487 127.00368
#
# Poissons Ratio (x) = 0.49920 0.47415
# Poissons Ratio (y) = 0.46785 0.37656
# Poissons Ratio (z) = 0.20225 0.17139
#
# Static dielectric constant tensor:
#      x y z
#    x 3.536540 0.000000 0.000000 
#    y 0.000000 3.188070 0.000000 
#    z 0.000000 0.000000 3.834440 
# 
# 
# High freq. dielectric constant tensor:
#      x y z
#    x 1.747440 0.000000 0.000000 
#    y 0.000000 1.708750 0.000000 
#    z 0.000000 0.000000 1.760520 
# 
# From -- ./inp_files/6916.got.cif
#   From: 2010.03.12/outbox.cif.g09.slc.cpg/sg49_4_cif.got.tgz:6916.got - 2010.04.14 03:58:27.
