data_PCOD8203940
_publ_section_title
;
Structure prediction by ZEFSAII (Michael W. Deem and Ramdas Pophale) SiO2 
 PCOD8203940
Probable space group: P C C M
;
_chemical_formula_sum "Si O2"
_cell_formula_units_Z 40
_cell_length_a 8.713592
_cell_length_b 23.789422
_cell_length_c 9.530599
_cell_angle_alpha 90.000000
_cell_angle_beta 90.000000
_cell_angle_gamma 90.000000
_cell_volume 1975.610421
_symmetry_space_group_name_H-M "P C C M"
_symmetry_group_IT_number 49
_symmetry_cell_setting 'orthorhombic'
loop_
_space_group_symop_operation_xyz
x,y,z
-x,-y,z
x,-y,1/2-z
-x,y,1/2-z
-x,-y,-z
x,y,-z
-x,y,1/2+z
x,-y,1/2+z
loop_
_atom_site_type_symbol
_atom_site_label
_atom_site_fract_x
_atom_site_fract_y
_atom_site_fract_z
Si Si1 0.646483 0.732481 0.841691
Si Si2 0.345678 0.054531 0.167324
Si Si3 0.346562 0.579973 0.000000
Si Si4 0.304636 0.551849 0.500000
Si Si5 0.847432 0.164277 0.337831
Si Si6 0.180233 0.623805 0.267761
O O1 0.500000 0.717759 0.750000
O O2 0.727166 0.788972 0.784780
O O3 0.766261 0.681506 0.837926
O O4 0.589893 0.741984 0.000000
O O5 0.500000 0.072303 0.250000
O O6 0.221867 0.102950 0.186960
O O7 0.280313 0.000000 0.250000
O O8 0.375989 0.043240 0.000000
O O9 0.276045 0.613519 0.128346
O O10 0.305603 0.514786 0.000000
O O11 0.530669 0.583250 0.000000
O O12 0.211837 0.570149 0.364055
O O13 0.887927 0.174689 0.500000
O O14 0.000000 0.170720 0.250000
O O15 0.000000 0.628570 0.250000
#
# Coordination Sequence:
#
# PCOD8203940 Si02
#       6
#     8   8   4   4   8   8
#     4  11  24  43  66  91 122 160 208 254 307 375
#     4  10  20  36  60  89 124 163 211 260 310 371
#     4  11  25  41  69  89 125 167 206 253 310 365
#     4  11  23  45  63  95 123 163 212 253 300 381
#     4  10  23  41  61  90 126 163 206 258 311 370
#     4  12  25  41  64  93 128 161 203 259 315 370
#
# _framework density 20.246907
#
# number of rings (size 3 to 8) (size 9 to 14) (size 15 to 20)
#    0.000    1.200    1.000    5.400    1.400    6.800 
#    0.000    2.000    0.000    0.000    0.000    0.000 
#    0.000    0.000    0.000    0.000    0.000    0.000 
#
# Total GULP energy -496059.689113 kJ/mol
# GULP energy per Si atom -12401.492228 kJ/mol
# Density = 2.020082 g / cm^3
# Si number density = 20.246907 Si / 1000 Ang^3
#
#
#
# Elastic Constant Matrix: (Units=GPa)
#
#
# Indices 1 2 3 4 5 6 
#
# 1 121.1202 41.9146 37.0978 0.0000 0.0000 0.0000
# 2 41.9146 82.8980 25.5019 0.0000 0.0000 0.0000
# 3 37.0978 25.5019 110.6192 0.0000 0.0000 0.0000
# 4 0.0000 0.0000 0.0000 36.2149 0.0000 0.0000
# 5 0.0000 0.0000 0.0000 0.0000 38.6071 0.0000
# 6 0.0000 0.0000 0.0000 0.0000 0.0000 28.8138
#
#
#
# Elastic Compliance Matrix: (Units=1/GPa)
#
#
# Indices 1 2 3 4 5 6 
#
# 1 0.010613 -0.004597 -0.002499 0.000000 0.000000 0.000000
# 2 -0.004597 0.014975 -0.001911 0.000000 0.000000 0.000000
# 3 -0.002499 -0.001911 0.010319 0.000000 0.000000 0.000000
# 4 0.000000 0.000000 0.000000 0.027613 0.000000 0.000000
# 5 0.000000 0.000000 0.000000 0.000000 0.025902 0.000000
# 6 0.000000 0.000000 0.000000 0.000000 0.000000 0.034706
#
#
# Mechanical properties :
#
#
# Convention : Reuss Voigt Hill
#
# Bulk Modulus (GPa) = 55.88958 58.18512 57.03735
# Shear Modulus (GPa) = 33.75981 34.73536 34.24758
#
# Velocity S-wave (km/s) = 4.08782 4.14646 4.11724
# Velocity P-wave (km/s) = 7.06713 7.19196 7.12982
#
# Compressibility (1/GPa) = 0.01789242
#
# Stress axis : x y z
#
# Youngs Moduli (GPa) = 94.22745 66.77737 96.91165
#
# Poissons Ratio (x) = 0.30698 0.24221
# Poissons Ratio (y) = 0.43317 0.18516
# Poissons Ratio (z) = 0.23550 0.12759
#
# Static dielectric constant tensor:
#      x y z
#    x 3.594080 0.000000 0.000000 
#    y 0.000000 3.786700 0.000000 
#    z 0.000000 0.000000 3.814880 
# 
# 
# High freq. dielectric constant tensor:
#      x y z
#    x 1.789790 0.000000 0.000000 
#    y 0.000000 1.807280 0.000000 
#    z 0.000000 0.000000 1.802800 
# 
# From -- ./inp_files/1941.got.cif
#   From: 2010.03.12/outbox.cif.g09.slc.cpg/sg49_1_cif.got.tgz:1941.got - 2010.04.14 03:58:27.
