data_PCOD8203885
_publ_section_title
;
Structure prediction by ZEFSAII (Michael W. Deem and Ramdas Pophale) SiO2 
 PCOD8203885
Probable space group: P C C M
;
_chemical_formula_sum "Si O2"
_cell_formula_units_Z 48
_cell_length_a 9.380399
_cell_length_b 30.671946
_cell_length_c 8.599112
_cell_angle_alpha 90.000000
_cell_angle_beta 90.000000
_cell_angle_gamma 90.000000
_cell_volume 2474.094297
_symmetry_space_group_name_H-M "P C C M"
_symmetry_group_IT_number 49
_symmetry_cell_setting 'orthorhombic'
loop_
_space_group_symop_operation_xyz
x,y,z
-x,-y,z
x,-y,1/2-z
-x,y,1/2-z
-x,-y,-z
x,y,-z
-x,y,1/2+z
x,-y,1/2+z
loop_
_atom_site_type_symbol
_atom_site_label
_atom_site_fract_x
_atom_site_fract_y
_atom_site_fract_z
Si Si1 0.155946 0.044755 0.683740
Si Si2 0.157025 0.703105 0.683367
Si Si3 0.343353 0.621106 0.684710
Si Si4 0.345368 0.125330 0.684065
Si Si5 0.656177 0.216393 0.315591
Si Si6 0.150069 0.547799 0.815329
O O1 0.149583 0.041387 0.500000
O O2 0.247750 0.085662 0.740443
O O3 0.000000 0.051811 0.750000
O O4 0.223747 0.000000 0.750000
O O5 0.146095 0.703889 0.500000
O O6 0.246694 0.661494 0.739786
O O7 0.236102 0.746491 0.744269
O O8 0.000000 0.700528 0.750000
O O9 0.500000 0.629029 0.750000
O O10 0.348289 0.616412 0.500000
O O11 0.279395 0.577616 0.759403
O O12 0.500000 0.115564 0.750000
O O13 0.351956 0.129493 0.500000
O O14 0.284090 0.170339 0.753458
O O15 0.500000 0.226455 0.250000
O O16 0.645874 0.215163 0.500000
O O17 0.179917 0.500000 0.750000
O O18 0.000000 0.566173 0.750000
O O19 0.142400 0.546391 0.000000
#
# Coordination Sequence:
#
# PCOD8203885 Si02
#       6
#     8   8   8   8   8   8
#     4  10  21  36  55  78 106 140 180 222 271 323
#     4  10  23  39  58  84 114 147 187 230 277 330
#     4  11  23  40  60  86 117 152 192 236 285 337
#     4  10  21  36  55  81 109 142 180 222 270 324
#     4  10  20  36  57  82 110 144 182 224 272 326
#     4  11  22  39  62  89 119 154 193 236 284 337
#
# _framework density 19.401039000000001
#
# number of rings (size 3 to 8) (size 9 to 14) (size 15 to 20)
#    0.000    1.667    0.000    6.500    0.000    8.000 
#    0.000    6.667    0.000    0.000    0.000    0.000 
#    0.000    0.000    0.000    0.000    0.000    0.000 
#
# Total GULP energy -595366.609727 kJ/mol
# GULP energy per Si atom -12403.471036 kJ/mol
# Density = 1.935688 g / cm^3
# Si number density = 19.401039 Si / 1000 Ang^3
#
#
#
# Elastic Constant Matrix: (Units=GPa)
#
#
# Indices 1 2 3 4 5 6 
#
# 1 130.8928 94.9694 42.7055 0.0000 0.0000 0.0000
# 2 94.9694 157.0911 54.1408 0.0000 0.0000 0.0000
# 3 42.7055 54.1408 97.7694 0.0000 0.0000 0.0000
# 4 0.0000 0.0000 0.0000 30.8994 0.0000 0.0000
# 5 0.0000 0.0000 0.0000 0.0000 30.3883 0.0000
# 6 0.0000 0.0000 0.0000 0.0000 0.0000 36.6341
#
#
#
# Elastic Compliance Matrix: (Units=1/GPa)
#
#
# Indices 1 2 3 4 5 6 
#
# 1 0.013846 -0.007769 -0.001746 0.000000 0.000000 0.000000
# 2 -0.007769 0.012226 -0.003377 0.000000 0.000000 0.000000
# 3 -0.001746 -0.003377 0.012861 0.000000 0.000000 0.000000
# 4 0.000000 0.000000 0.000000 0.032363 0.000000 0.000000
# 5 0.000000 0.000000 0.000000 0.000000 0.032907 0.000000
# 6 0.000000 0.000000 0.000000 0.000000 0.000000 0.027297
#
#
# Mechanical properties :
#
#
# Convention : Reuss Voigt Hill
#
# Bulk Modulus (GPa) = 76.04747 85.48719 80.76733
# Shear Modulus (GPa) = 30.92761 32.51354 31.72057
#
# Velocity S-wave (km/s) = 3.99698 4.09818 4.04789
# Velocity P-wave (km/s) = 7.78356 8.15796 7.97296
#
# Compressibility (1/GPa) = 0.01314968
#
# Stress axis : x y z
#
# Youngs Moduli (GPa) = 72.22145 81.79036 77.75595
#
# Poissons Ratio (x) = 0.63544 0.13575
# Poissons Ratio (y) = 0.56109 0.26258
# Poissons Ratio (z) = 0.12609 0.27620
#
# Static dielectric constant tensor:
#      x y z
#    x 3.430320 0.000000 0.000000 
#    y 0.000000 3.950880 0.000000 
#    z 0.000000 0.000000 3.608970 
# 
# 
# High freq. dielectric constant tensor:
#      x y z
#    x 1.753630 0.000000 0.000000 
#    y 0.000000 1.772830 0.000000 
#    z 0.000000 0.000000 1.767690 
# 
# From -- ./inp_files/2103.got.cif
#   From: 2010.03.12/outbox.cif.g09.slc.cpg/sg49_2_cif.got.tgz:2103.got - 2010.04.14 03:58:27.
