data_PCOD8203571
_publ_section_title
;
Structure prediction by ZEFSAII (Michael W. Deem and Ramdas Pophale) SiO2 
 PCOD8203571
Probable space group: P C C M
;
_chemical_formula_sum "Si O2"
_cell_formula_units_Z 54
_cell_length_a 19.261914
_cell_length_b 15.803830
_cell_length_c 10.057019
_cell_angle_alpha 90.000000
_cell_angle_beta 90.000000
_cell_angle_gamma 90.000000
_cell_volume 3061.477412
_symmetry_space_group_name_H-M "P C C M"
_symmetry_group_IT_number 49
_symmetry_cell_setting 'orthorhombic'
loop_
_space_group_symop_operation_xyz
x,y,z
-x,-y,z
x,-y,1/2-z
-x,y,1/2-z
-x,-y,-z
x,y,-z
-x,y,1/2+z
x,-y,1/2+z
loop_
_atom_site_type_symbol
_atom_site_label
_atom_site_fract_x
_atom_site_fract_y
_atom_site_fract_z
Si Si1 0.232922 0.000000 0.750000
Si Si2 0.835148 0.243235 0.845057
Si Si3 0.202383 0.427966 0.650976
Si Si4 0.000000 0.000000 0.250000
Si Si5 0.115377 0.115765 0.853803
Si Si6 0.302376 0.158534 0.348496
Si Si7 0.564605 0.749898 0.344665
Si Si8 0.363233 0.572442 0.849258
O O1 0.184079 0.057452 0.842439
O O2 0.284622 0.059450 0.665550
O O3 0.843138 0.343609 0.824080
O O4 0.889834 0.190266 0.756716
O O5 0.759866 0.215100 0.789208
O O6 0.845456 0.218019 0.000000
O O7 0.174504 0.500000 0.750000
O O8 0.192197 0.459800 0.500000
O O9 0.282698 0.406400 0.678829
O O10 0.047692 0.057645 0.156473
O O11 0.116434 0.157401 0.000000
O O12 0.308237 0.185982 0.500000
O O13 0.376877 0.184732 0.288666
O O14 0.500000 0.766649 0.250000
O O15 0.545137 0.765372 0.500000
O O16 0.591810 0.655187 0.323080
O O17 0.390278 0.500000 0.750000
O O18 0.372940 0.539807 0.000000
#
# Coordination Sequence:
#
# PCOD8203571 Si02
#       8
#     4   8   8   2   8   8   8   8
#     4   9  18  31  53  76  97 122 158 204 251 290
#     4   9  17  31  51  74 100 134 169 201 247 300
#     4   9  16  28  47  72 100 130 164 202 248 297
#     4  10  22  36  52  74 114 152 166 190 240 288
#     4  10  20  33  52  80 108 134 169 204 235 281
#     4   9  16  31  51  66  89 125 159 197 249 304
#     4  10  20  34  49  65  88 123 162 201 247 303
#     4   9  17  30  48  67  91 122 159 197 243 297
#
# _framework density 17.638544
#
# number of rings (size 3 to 8) (size 9 to 14) (size 15 to 20)
#    0.000    2.667    1.481    0.667    0.000    5.630 
#    0.000    5.556    0.000    1.778    0.000    0.519 
#    0.000    3.556    0.000    0.000    0.000    0.000 
#
# Total GULP energy -669314.535075 kJ/mol
# GULP energy per Si atom -12394.713613 kJ/mol
# Density = 1.759840 g / cm^3
# Si number density = 17.638544 Si / 1000 Ang^3
#
#
#
# Elastic Constant Matrix: (Units=GPa)
#
#
# Indices 1 2 3 4 5 6 
#
# 1 69.3376 39.8263 38.4615 0.0000 0.0000 0.0000
# 2 39.8263 99.1864 52.2097 0.0000 0.0000 0.0000
# 3 38.4615 52.2097 97.4273 0.0000 0.0000 0.0000
# 4 0.0000 0.0000 0.0000 29.0453 0.0000 0.0000
# 5 0.0000 0.0000 0.0000 0.0000 12.5224 0.0000
# 6 0.0000 0.0000 0.0000 0.0000 0.0000 24.0669
#
#
#
# Elastic Compliance Matrix: (Units=1/GPa)
#
#
# Indices 1 2 3 4 5 6 
#
# 1 0.020421 -0.005511 -0.005109 0.000000 0.000000 0.000000
# 2 -0.005511 0.015530 -0.006147 0.000000 0.000000 0.000000
# 3 -0.005109 -0.006147 0.015575 0.000000 0.000000 0.000000
# 4 0.000000 0.000000 0.000000 0.034429 0.000000 0.000000
# 5 0.000000 0.000000 0.000000 0.000000 0.079857 0.000000
# 6 0.000000 0.000000 0.000000 0.000000 0.000000 0.041551
#
#
# Mechanical properties :
#
#
# Convention : Reuss Voigt Hill
#
# Bulk Modulus (GPa) = 55.57457 58.54959 57.06208
# Shear Modulus (GPa) = 20.25162 22.15717 21.20439
#
# Velocity S-wave (km/s) = 3.39211 3.54811 3.47098
# Velocity P-wave (km/s) = 6.84965 7.07471 6.96309
#
# Compressibility (1/GPa) = 0.01799384
#
# Stress axis : x y z
#
# Youngs Moduli (GPa) = 48.96882 64.38990 64.20581
#
# Poissons Ratio (x) = 0.35483 0.32800
# Poissons Ratio (y) = 0.26985 0.39468
# Poissons Ratio (z) = 0.25016 0.39581
#
# Static dielectric constant tensor:
#      x y z
#    x 3.112790 0.000000 0.000000 
#    y 0.000000 3.299060 0.000000 
#    z 0.000000 0.000000 3.187190 
# 
# 
# High freq. dielectric constant tensor:
#      x y z
#    x 1.653850 0.000000 0.000000 
#    y 0.000000 1.676760 0.000000 
#    z 0.000000 0.000000 1.672250 
# 
# From -- ./inp_files/9402.got.cif
#   From: 2010.03.12/outbox.cif.g09.slc.cpg/sg49_5_cif.got.tgz:9402.got - 2010.04.14 03:58:27.
