data_PCOD8203830
_publ_section_title
;
Structure prediction by ZEFSAII (Michael W. Deem and Ramdas Pophale) SiO2 
 PCOD8203830
Probable space group: P C C M
;
_chemical_formula_sum "Si O2"
_cell_formula_units_Z 58
_cell_length_a 18.960118
_cell_length_b 19.058757
_cell_length_c 8.882138
_cell_angle_alpha 90.000000
_cell_angle_beta 90.000000
_cell_angle_gamma 90.000000
_cell_volume 3209.616361
_symmetry_space_group_name_H-M "P C C M"
_symmetry_group_IT_number 49
_symmetry_cell_setting 'orthorhombic'
loop_
_space_group_symop_operation_xyz
x,y,z
-x,-y,z
x,-y,1/2-z
-x,y,1/2-z
-x,-y,-z
x,y,-z
-x,y,1/2+z
x,-y,1/2+z
loop_
_atom_site_type_symbol
_atom_site_label
_atom_site_fract_x
_atom_site_fract_y
_atom_site_fract_z
Si Si1 0.817810 0.424813 0.822965
Si Si2 0.389298 0.889507 0.831664
Si Si3 0.571573 0.254946 0.678032
Si Si4 0.193471 0.215520 0.829292
Si Si5 0.500000 0.000000 0.250000
Si Si6 0.702398 0.687085 0.325949
Si Si7 0.925080 0.678335 0.825117
Si Si8 0.753874 0.067654 0.673887
O O1 0.808878 0.500000 0.750000
O O2 0.746051 0.382865 0.786275
O O3 0.884792 0.386355 0.750925
O O4 0.831063 0.431076 0.000000
O O5 0.414767 0.823507 0.735252
O O6 0.320345 0.920186 0.754059
O O7 0.449518 0.949084 0.846756
O O8 0.371322 0.863655 0.000000
O O9 0.500000 0.284274 0.750000
O O10 0.565055 0.252883 0.500000
O O11 0.632087 0.309800 0.726503
O O12 0.250252 0.245506 0.713149
O O13 0.117013 0.248952 0.798484
O O14 0.191541 0.131978 0.805151
O O15 0.218114 0.233692 0.000000
O O16 0.681670 0.690120 0.500000
O O17 0.000000 0.688783 0.750000
O O18 0.934409 0.660870 0.000000
O O19 0.738126 0.052851 0.500000
O O20 0.790446 0.000000 0.750000
#
# Coordination Sequence:
#
# PCOD8203830 Si02
#       8
#     8   8   8   8   2   8   8   8
#     4  10  21  37  59  89 121 154 187 222 264 322
#     4  12  24  36  51  71  99 137 182 229 278 336
#     4  12  24  37  54  76 105 140 183 231 283 332
#     4   9  19  35  55  77 107 144 184 227 278 331
#     4  12  26  36  52  66 106 148 182 220 286 352
#     4  10  20  35  57  82 109 142 186 230 274 326
#     4  10  20  36  58  86 118 152 186 225 269 324
#     4  11  22  35  52  75 103 137 181 231 283 334
#
# _framework density 18.070696000000002
#
# number of rings (size 3 to 8) (size 9 to 14) (size 15 to 20)
#    0.000    1.379    2.759    3.517    0.000    4.138 
#    0.000    1.379    0.000    0.828    0.000    5.793 
#    0.000    0.000    0.000    0.000    0.000    0.000 
#
# Total GULP energy -719261.063928 kJ/mol
# GULP energy per Si atom -12401.052826 kJ/mol
# Density = 1.802957 g / cm^3
# Si number density = 18.070696 Si / 1000 Ang^3
#
#
#
# Elastic Constant Matrix: (Units=GPa)
#
#
# Indices 1 2 3 4 5 6 
#
# 1 110.5699 63.2015 62.8594 0.0000 0.0000 0.0000
# 2 63.2015 116.2799 56.7845 0.0000 0.0000 0.0000
# 3 62.8594 56.7845 141.3763 0.0000 0.0000 0.0000
# 4 0.0000 0.0000 0.0000 28.6217 0.0000 0.0000
# 5 0.0000 0.0000 0.0000 0.0000 26.8685 0.0000
# 6 0.0000 0.0000 0.0000 0.0000 0.0000 21.9264
#
#
#
# Elastic Compliance Matrix: (Units=1/GPa)
#
#
# Indices 1 2 3 4 5 6 
#
# 1 0.014879 -0.006041 -0.004189 0.000000 0.000000 0.000000
# 2 -0.006041 0.013151 -0.002596 0.000000 0.000000 0.000000
# 3 -0.004189 -0.002596 0.009979 0.000000 0.000000 0.000000
# 4 0.000000 0.000000 0.000000 0.034939 0.000000 0.000000
# 5 0.000000 0.000000 0.000000 0.000000 0.037218 0.000000
# 6 0.000000 0.000000 0.000000 0.000000 0.000000 0.045607
#
#
# Mechanical properties :
#
#
# Convention : Reuss Voigt Hill
#
# Bulk Modulus (GPa) = 80.93376 81.54634 81.24005
# Shear Modulus (GPa) = 26.94775 27.84202 27.39489
#
# Velocity S-wave (km/s) = 3.86585 3.92947 3.89779
# Velocity P-wave (km/s) = 8.05052 8.11245 8.08155
#
# Compressibility (1/GPa) = 0.01235578
#
# Stress axis : x y z
#
# Youngs Moduli (GPa) = 67.21016 76.03727 100.21476
#
# Poissons Ratio (x) = 0.45937 0.41979
# Poissons Ratio (y) = 0.40604 0.26018
# Poissons Ratio (z) = 0.28154 0.19741
#
# Static dielectric constant tensor:
#      x y z
#    x 3.353740 0.000000 0.000000 
#    y 0.000000 3.394290 0.000000 
#    z 0.000000 0.000000 3.494210 
# 
# 
# High freq. dielectric constant tensor:
#      x y z
#    x 1.684790 0.000000 0.000000 
#    y 0.000000 1.689360 0.000000 
#    z 0.000000 0.000000 1.718060 
# 
# From -- ./inp_files/5112.got.cif
#   From: 2010.03.12/outbox.cif.g09.slc.cpg/sg49_3_cif.got.tgz:5112.got - 2010.04.14 03:58:27.
