data_PCOD8203100
_publ_section_title
;
Structure prediction by ZEFSAII (Michael W. Deem and Ramdas Pophale) SiO2 
 PCOD8203100
Probable space group: P C C M
;
_chemical_formula_sum "Si O2"
_cell_formula_units_Z 64
_cell_length_a 14.385233
_cell_length_b 31.161242
_cell_length_c 8.799262
_cell_angle_alpha 90.000000
_cell_angle_beta 90.000000
_cell_angle_gamma 90.000000
_cell_volume 3944.372378
_symmetry_space_group_name_H-M "P C C M"
_symmetry_group_IT_number 49
_symmetry_cell_setting 'orthorhombic'
loop_
_space_group_symop_operation_xyz
x,y,z
-x,-y,z
x,-y,1/2-z
-x,y,1/2-z
-x,-y,-z
x,y,-z
-x,y,1/2+z
x,-y,1/2+z
loop_
_atom_site_type_symbol
_atom_site_label
_atom_site_fract_x
_atom_site_fract_y
_atom_site_fract_z
Si Si1 0.600555 0.790991 0.319526
Si Si2 0.599757 0.634962 0.177247
Si Si3 0.903850 0.740610 0.679094
Si Si4 0.400272 0.955343 0.180949
Si Si5 0.094817 0.159695 0.677519
Si Si6 0.601143 0.459036 0.677786
Si Si7 0.718698 0.715366 0.180107
Si Si8 0.711480 0.126961 0.180006
O O1 0.500000 0.784149 0.250000
O O2 0.593494 0.789685 0.500000
O O3 0.667125 0.753534 0.264878
O O4 0.642764 0.835956 0.259629
O O5 0.500000 0.643398 0.250000
O O6 0.643862 0.587918 0.216769
O O7 0.672342 0.670693 0.231807
O O8 0.581591 0.638595 0.000000
O O9 0.902092 0.732091 0.500000
O O10 0.889487 0.790637 0.718124
O O11 0.824090 0.713593 0.761956
O O12 0.000000 0.724108 0.750000
O O13 0.500000 0.943345 0.250000
O O14 0.327171 0.919077 0.232341
O O15 0.363663 0.000000 0.250000
O O16 0.409314 0.958881 0.000000
O O17 0.084943 0.152704 0.500000
O O18 0.183784 0.133684 0.743538
O O19 0.000000 0.141674 0.750000
O O20 0.657044 0.500000 0.750000
O O21 0.500000 0.458676 0.750000
O O22 0.594645 0.466687 0.500000
O O23 0.714524 0.722440 0.000000
O O24 0.715096 0.130524 0.000000
#
# Coordination Sequence:
#
# PCOD8203100 Si02
#       8
#     8   8   8   8   8   8   8   8
#     4  11  21  34  47  66  94 127 161 196 233 274
#     4   9  19  31  43  61  90 126 162 196 233 279
#     4  10  19  33  52  71  94 122 156 198 239 279
#     4  10  19  33  52  72  96 124 153 189 230 275
#     4   9  17  32  50  71  94 119 150 188 232 275
#     4   9  15  25  40  59  82 112 151 196 238 275
#     4  11  21  33  47  67  94 128 163 194 232 280
#     4   9  18  33  51  69  95 125 153 189 235 277
#
# _framework density 16.225649000000001
#
# number of rings (size 3 to 8) (size 9 to 14) (size 15 to 20)
#    0.000    2.250    1.250    3.375    0.000    3.000 
#    0.000    3.125    0.000    0.375    0.000    2.625 
#    0.000    0.500    0.000    5.750    0.000    1.750 
#
# Total GULP energy -793360.107148 kJ/mol
# GULP energy per Si atom -12396.251674 kJ/mol
# Density = 1.618872 g / cm^3
# Si number density = 16.225649 Si / 1000 Ang^3
#
#
#
# Elastic Constant Matrix: (Units=GPa)
#
#
# Indices 1 2 3 4 5 6 
#
# 1 113.0043 58.9600 31.4364 0.0000 0.0000 0.0000
# 2 58.9600 119.9415 39.2874 0.0000 0.0000 0.0000
# 3 31.4364 39.2874 57.4868 0.0000 0.0000 0.0000
# 4 0.0000 0.0000 0.0000 34.5625 0.0000 0.0000
# 5 0.0000 0.0000 0.0000 0.0000 24.5794 0.0000
# 6 0.0000 0.0000 0.0000 0.0000 0.0000 10.2849
#
#
#
# Elastic Compliance Matrix: (Units=1/GPa)
#
#
# Indices 1 2 3 4 5 6 
#
# 1 0.012387 -0.004987 -0.003366 0.000000 0.000000 0.000000
# 2 -0.004987 0.012750 -0.005986 0.000000 0.000000 0.000000
# 3 -0.003366 -0.005986 0.023327 0.000000 0.000000 0.000000
# 4 0.000000 0.000000 0.000000 0.028933 0.000000 0.000000
# 5 0.000000 0.000000 0.000000 0.000000 0.040685 0.000000
# 6 0.000000 0.000000 0.000000 0.000000 0.000000 0.097230
#
#
# Mechanical properties :
#
#
# Convention : Reuss Voigt Hill
#
# Bulk Modulus (GPa) = 50.54068 61.08892 55.81480
# Shear Modulus (GPa) = 19.95329 24.60195 22.27762
#
# Velocity S-wave (km/s) = 3.51057 3.89811 3.70940
# Velocity P-wave (km/s) = 6.90278 7.61523 7.26774
#
# Compressibility (1/GPa) = 0.01978604
#
# Stress axis : x y z
#
# Youngs Moduli (GPa) = 80.72683 78.43383 42.86867
#
# Poissons Ratio (x) = 0.39113 0.14429
# Poissons Ratio (y) = 0.40257 0.25662
# Poissons Ratio (z) = 0.27172 0.46953
#
# Static dielectric constant tensor:
#      x y z
#    x 3.116410 0.000000 0.000000 
#    y 0.000000 3.649590 0.000000 
#    z 0.000000 0.000000 3.067300 
# 
# 
# High freq. dielectric constant tensor:
#      x y z
#    x 1.604680 0.000000 0.000000 
#    y 0.000000 1.617980 0.000000 
#    z 0.000000 0.000000 1.627570 
# 
# From -- ./inp_files/4518.got.cif
#   From: 2010.03.12/outbox.cif.g09.slc.cpg/sg49_3_cif.got.tgz:4518.got - 2010.04.14 03:58:27.
