data_PCOD8203011
_publ_section_title
;
Structure prediction by ZEFSAII (Michael W. Deem and Ramdas Pophale) SiO2 
 PCOD8203011
Probable space group: P C C M
;
_chemical_formula_sum "Si O2"
_cell_formula_units_Z 58
_cell_length_a 12.717042
_cell_length_b 25.443749
_cell_length_c 9.158228
_cell_angle_alpha 90.000000
_cell_angle_beta 90.000000
_cell_angle_gamma 90.000000
_cell_volume 2963.320733
_symmetry_space_group_name_H-M "P C C M"
_symmetry_group_IT_number 49
_symmetry_cell_setting 'orthorhombic'
loop_
_space_group_symop_operation_xyz
x,y,z
-x,-y,z
x,-y,1/2-z
-x,y,1/2-z
-x,-y,-z
x,y,-z
-x,y,1/2+z
x,-y,1/2+z
loop_
_atom_site_type_symbol
_atom_site_label
_atom_site_fract_x
_atom_site_fract_y
_atom_site_fract_z
Si Si1 0.102277 0.660852 0.666967
Si Si2 0.394714 0.597278 0.168679
Si Si3 0.293611 0.706324 0.832546
Si Si4 0.500000 0.000000 0.750000
Si Si5 0.309645 0.925006 0.159645
Si Si6 0.601648 0.811475 0.662334
Si Si7 0.100104 0.055401 0.175524
Si Si8 0.802010 0.550730 0.169741
O O1 0.089758 0.676187 0.500000
O O2 0.196877 0.694135 0.729903
O O3 0.117199 0.598527 0.688268
O O4 0.000000 0.679707 0.750000
O O5 0.500000 0.581131 0.250000
O O6 0.378644 0.659917 0.182948
O O7 0.304885 0.564582 0.248069
O O8 0.399379 0.580127 0.000000
O O9 0.339311 0.760971 0.770694
O O10 0.255327 0.711429 0.000000
O O11 0.417289 0.960206 0.828813
O O12 0.329052 0.863218 0.164743
O O13 0.220486 0.929851 0.283508
O O14 0.262798 0.939760 0.000000
O O15 0.500000 0.826020 0.750000
O O16 0.567400 0.795538 0.500000
O O17 0.000000 0.087933 0.250000
O O18 0.086541 0.000000 0.250000
O O19 0.089546 0.056144 0.000000
O O20 0.851944 0.500000 0.250000
O O21 0.779571 0.539000 0.000000
#
# Coordination Sequence:
#
# PCOD8203011 Si02
#       8
#     8   8   8   2   8   8   8   8
#     4  10  21  37  59  84 110 142 184 230 281 337
#     4  10  19  32  52  77 105 141 182 225 273 329
#     4   9  19  36  57  80 109 143 182 229 280 332
#     4  12  22  36  62  86 126 164 202 242 292 348
#     4  11  23  38  58  88 124 160 201 244 292 349
#     4  10  21  37  57  85 119 154 190 234 284 340
#     4  11  22  38  61  85 112 147 191 238 286 339
#     4  10  21  36  53  77 109 144 182 227 274 328
#
# _framework density 19.572637
#
# number of rings (size 3 to 8) (size 9 to 14) (size 15 to 20)
#    0.000    1.793    1.379    3.517    0.000    4.414 
#    0.000    3.448    0.000    0.000    0.000    0.000 
#    0.000    0.000    0.000    0.000    0.000    0.000 
#
# Total GULP energy -718558.470511 kJ/mol
# GULP energy per Si atom -12388.939147 kJ/mol
# Density = 1.952809 g / cm^3
# Si number density = 19.572637 Si / 1000 Ang^3
#
#
#
# Elastic Constant Matrix: (Units=GPa)
#
#
# Indices 1 2 3 4 5 6 
#
# 1 90.1310 -3.0675 52.1325 0.0000 0.0000 0.0000
# 2 -3.0675 60.1203 15.2318 0.0000 0.0000 0.0000
# 3 52.1325 15.2318 134.6167 0.0000 0.0000 0.0000
# 4 0.0000 0.0000 0.0000 18.4254 0.0000 0.0000
# 5 0.0000 0.0000 0.0000 0.0000 36.3255 0.0000
# 6 0.0000 0.0000 0.0000 0.0000 0.0000 8.2355
#
#
#
# Elastic Compliance Matrix: (Units=1/GPa)
#
#
# Indices 1 2 3 4 5 6 
#
# 1 0.014585 0.002239 -0.005902 0.000000 0.000000 0.000000
# 2 0.002239 0.017468 -0.002844 0.000000 0.000000 0.000000
# 3 -0.005902 -0.002844 0.010036 0.000000 0.000000 0.000000
# 4 0.000000 0.000000 0.000000 0.054273 0.000000 0.000000
# 5 0.000000 0.000000 0.000000 0.000000 0.027529 0.000000
# 6 0.000000 0.000000 0.000000 0.000000 0.000000 0.121426
#
#
# Mechanical properties :
#
#
# Convention : Reuss Voigt Hill
#
# Bulk Modulus (GPa) = 34.39192 45.94018 40.16605
# Shear Modulus (GPa) = 18.65533 27.30203 22.97868
#
# Velocity S-wave (km/s) = 3.09063 3.73890 3.43012
# Velocity P-wave (km/s) = 5.50868 6.49321 6.02110
#
# Compressibility (1/GPa) = 0.02907660
#
# Stress axis : x y z
#
# Youngs Moduli (GPa) = 68.56515 57.24743 99.64398
#
# Poissons Ratio (x) = -0.12820 0.58805
# Poissons Ratio (y) = -0.15354 0.28336
# Poissons Ratio (z) = 0.40464 0.16280
#
# Static dielectric constant tensor:
#      x y z
#    x 7.580090 0.000000 0.000000 
#    y 0.000000 3.561390 0.000000 
#    z 0.000000 0.000000 3.753350 
# 
# 
# High freq. dielectric constant tensor:
#      x y z
#    x 1.764140 0.000000 0.000000 
#    y 0.000000 1.752430 0.000000 
#    z 0.000000 0.000000 1.771490 
# 
# From -- ./inp_files/3010.got.cif
#   From: 2010.03.12/outbox.cif.g09.slc.cpg/sg49_2_cif.got.tgz:3010.got - 2010.04.14 03:58:27.
