data_PCOD8203578
_publ_section_title
;
Structure prediction by ZEFSAII (Michael W. Deem and Ramdas Pophale) SiO2 
 PCOD8203578
Probable space group: P C C M
;
_chemical_formula_sum "Si O2"
_cell_formula_units_Z 64
_cell_length_a 15.924652
_cell_length_b 22.602162
_cell_length_c 8.918292
_cell_angle_alpha 90.000000
_cell_angle_beta 90.000000
_cell_angle_gamma 90.000000
_cell_volume 3209.974790
_symmetry_space_group_name_H-M "P C C M"
_symmetry_group_IT_number 49
_symmetry_cell_setting 'orthorhombic'
loop_
_space_group_symop_operation_xyz
x,y,z
-x,-y,z
x,-y,1/2-z
-x,y,1/2-z
-x,-y,-z
x,y,-z
-x,y,1/2+z
x,-y,1/2+z
loop_
_atom_site_type_symbol
_atom_site_label
_atom_site_fract_x
_atom_site_fract_y
_atom_site_fract_z
Si Si1 0.237923 0.560486 0.320868
Si Si2 0.304275 0.183960 0.162854
Si Si3 0.411684 0.600532 0.820528
Si Si4 0.248345 0.058160 0.824603
Si Si5 0.419319 0.265608 0.671708
Si Si6 0.086310 0.646615 0.676774
Si Si7 0.885812 0.219474 0.333727
Si Si8 0.918295 0.102704 0.176215
O O1 0.202595 0.500000 0.250000
O O2 0.246544 0.556571 0.500000
O O3 0.330564 0.569421 0.250433
O O4 0.169506 0.610229 0.272684
O O5 0.308263 0.114459 0.204885
O O6 0.344090 0.221451 0.295301
O O7 0.211530 0.207684 0.149035
O O8 0.348347 0.193894 0.000000
O O9 0.500000 0.576346 0.750000
O O10 0.400491 0.668579 0.769826
O O11 0.413016 0.591241 0.000000
O O12 0.159793 0.069178 0.746687
O O13 0.290186 0.000000 0.750000
O O14 0.233536 0.048375 0.000000
O O15 0.500000 0.237843 0.750000
O O16 0.439066 0.268438 0.500000
O O17 0.076187 0.641338 0.500000
O O18 0.098434 0.714571 0.728505
O O19 0.000000 0.621667 0.750000
O O20 0.926544 0.210962 0.500000
O O21 0.921979 0.172758 0.215351
O O22 0.000000 0.072607 0.250000
O O23 0.917306 0.093749 0.000000
#
# Coordination Sequence:
#
# PCOD8203578 Si02
#       8
#     8   8   8   8   8   8   8   8
#     4  11  24  42  61  83 112 149 192 238 283 332
#     4   9  18  33  54  78 109 143 176 218 269 321
#     4  10  21  38  61  91 122 152 184 224 274 334
#     4  10  21  37  54  74 100 135 178 222 265 313
#     4  10  20  33  54  84 116 145 176 212 259 317
#     4  10  22  38  58  82 111 148 190 237 289 338
#     4   9  18  34  54  79 108 139 175 219 273 330
#     4  11  21  33  50  74 104 137 172 215 265 319
#
# _framework density 19.937850999999998
#
# number of rings (size 3 to 8) (size 9 to 14) (size 15 to 20)
#    0.000    2.000    0.000    4.500    0.000    8.250 
#    0.000    3.750    0.000    0.375    0.000    2.625 
#    0.000    0.000    0.000    0.000    0.000    0.000 
#
# Total GULP energy -793346.858086 kJ/mol
# GULP energy per Si atom -12396.044658 kJ/mol
# Density = 1.989247 g / cm^3
# Si number density = 19.937851 Si / 1000 Ang^3
#
#
#
# Elastic Constant Matrix: (Units=GPa)
#
#
# Indices 1 2 3 4 5 6 
#
# 1 61.7239 20.8777 20.8249 0.0000 0.0000 0.0000
# 2 20.8777 80.3768 27.9012 0.0000 0.0000 0.0000
# 3 20.8249 27.9012 86.3267 0.0000 0.0000 0.0000
# 4 0.0000 0.0000 0.0000 434.6330 0.0000 0.0000
# 5 0.0000 0.0000 0.0000 0.0000 34.8480 0.0000
# 6 0.0000 0.0000 0.0000 0.0000 0.0000 34.0734
#
#
#
# Elastic Compliance Matrix: (Units=1/GPa)
#
#
# Indices 1 2 3 4 5 6 
#
# 1 0.018554 -0.003678 -0.003287 0.000000 0.000000 0.000000
# 2 -0.003678 0.014743 -0.003878 0.000000 0.000000 0.000000
# 3 -0.003287 -0.003878 0.013630 0.000000 0.000000 0.000000
# 4 0.000000 0.000000 0.000000 0.002301 0.000000 0.000000
# 5 0.000000 0.000000 0.000000 0.000000 0.028696 0.000000
# 6 0.000000 0.000000 0.000000 0.000000 0.000000 0.029348
#
#
# Mechanical properties :
#
#
# Convention : Reuss Voigt Hill
#
# Bulk Modulus (GPa) = 39.61774 40.84832 40.23303
# Shear Modulus (GPa) = 36.39737 111.29913 73.84825
#
# Velocity S-wave (km/s) = 4.27727 7.47959 6.09259
# Velocity P-wave (km/s) = 6.65636 9.75318 8.34960
#
# Compressibility (1/GPa) = 0.02524122
#
# Stress axis : x y z
#
# Youngs Moduli (GPa) = 53.89565 67.82928 73.36697
#
# Poissons Ratio (x) = 0.24950 0.24116
# Poissons Ratio (y) = 0.19825 0.28449
# Poissons Ratio (z) = 0.17716 0.26302
#
# Static dielectric constant tensor:
#      x y z
#    x 3.682060 0.000000 0.000000 
#    y 0.000000 3.799310 0.000000 
#    z 0.000000 0.000000 3.498440 
# 
# 
# High freq. dielectric constant tensor:
#      x y z
#    x 1.765080 0.000000 0.000000 
#    y 0.000000 1.777690 0.000000 
#    z 0.000000 0.000000 1.782580 
# 
# From -- ./inp_files/4316.got.cif
#   From: 2010.03.12/outbox.cif.g09.slc.cpg/sg49_3_cif.got.tgz:4316.got - 2010.04.14 03:58:27.
