data_PCOD8203147
_publ_section_title
;
Structure prediction by ZEFSAII (Michael W. Deem and Ramdas Pophale) SiO2 
 PCOD8203147
Probable space group: P C C M
;
_chemical_formula_sum "Si O2"
_cell_formula_units_Z 58
_cell_length_a 25.558170
_cell_length_b 14.443947
_cell_length_c 8.837853
_cell_angle_alpha 90.000000
_cell_angle_beta 90.000000
_cell_angle_gamma 90.000000
_cell_volume 3262.589351
_symmetry_space_group_name_H-M "P C C M"
_symmetry_group_IT_number 49
_symmetry_cell_setting 'orthorhombic'
loop_
_space_group_symop_operation_xyz
x,y,z
-x,-y,z
x,-y,1/2-z
-x,y,1/2-z
-x,-y,-z
x,y,-z
-x,y,1/2+z
x,-y,1/2+z
loop_
_atom_site_type_symbol
_atom_site_label
_atom_site_fract_x
_atom_site_fract_y
_atom_site_fract_z
Si Si1 0.293964 0.407496 0.674287
Si Si2 0.143764 0.782612 0.322312
Si Si3 0.500000 0.000000 0.250000
Si Si4 0.548952 0.177516 0.835165
Si Si5 0.054939 0.901924 0.819911
Si Si6 0.663557 0.786627 0.680950
Si Si7 0.828536 0.405286 0.822496
Si Si8 0.245357 0.098431 0.177697
O O1 0.317145 0.500000 0.750000
O O2 0.306714 0.417230 0.500000
O O3 0.321445 0.315712 0.739623
O O4 0.232926 0.397783 0.707465
O O5 0.131084 0.788600 0.500000
O O6 0.098528 0.828811 0.224714
O O7 0.144347 0.677070 0.268348
O O8 0.198594 0.831341 0.283106
O O9 0.537547 0.066896 0.150981
O O10 0.500000 0.226490 0.750000
O O11 0.604999 0.193985 0.756567
O O12 0.551478 0.222784 0.000000
O O13 0.000000 0.868879 0.750000
O O14 0.071604 0.000000 0.750000
O O15 0.050196 0.910501 0.000000
O O16 0.667798 0.795536 0.500000
O O17 0.701252 0.862717 0.752947
O O18 0.850305 0.500000 0.750000
O O19 0.842123 0.400675 0.000000
O O20 0.231480 0.000000 0.250000
O O21 0.252582 0.085620 0.000000
#
# Coordination Sequence:
#
# PCOD8203147 Si02
#       8
#     8   8   2   8   8   8   8   8
#     4   9  18  32  53  76 105 137 174 219 268 321
#     4  11  22  37  56  81 113 148 187 228 274 328
#     4   8  18  32  50  68  96 124 178 216 264 304
#     4   9  19  32  50  71  98 129 170 217 263 312
#     4  11  22  38  60  85 113 148 192 237 280 325
#     4  10  20  36  53  76 106 139 174 220 271 324
#     4  10  19  33  54  80 110 145 183 227 275 327
#     4  11  24  36  50  75 109 147 180 217 264 322
#
# _framework density 17.777291000000002
#
# number of rings (size 3 to 8) (size 9 to 14) (size 15 to 20)
#    0.414    1.517    1.379    3.517    0.966    4.414 
#    0.000    0.000    0.000    0.828    0.000    5.793 
#    0.000    0.000    0.000    0.000    0.000    0.000 
#
# Total GULP energy -719055.847026 kJ/mol
# GULP energy per Si atom -12397.514604 kJ/mol
# Density = 1.773683 g / cm^3
# Si number density = 17.777291 Si / 1000 Ang^3
#
#
#
# Elastic Constant Matrix: (Units=GPa)
#
#
# Indices 1 2 3 4 5 6 
#
# 1 77.0614 37.9312 44.9754 0.0000 0.0000 0.0000
# 2 37.9312 104.0005 40.4643 0.0000 0.0000 0.0000
# 3 44.9754 40.4643 88.7941 0.0000 0.0000 0.0000
# 4 0.0000 0.0000 0.0000 31.9927 0.0000 0.0000
# 5 0.0000 0.0000 0.0000 0.0000 26.6245 0.0000
# 6 0.0000 0.0000 0.0000 0.0000 0.0000 19.0088
#
#
#
# Elastic Compliance Matrix: (Units=1/GPa)
#
#
# Indices 1 2 3 4 5 6 
#
# 1 0.019713 -0.004017 -0.008154 0.000000 0.000000 0.000000
# 2 -0.004017 0.012506 -0.003664 0.000000 0.000000 0.000000
# 3 -0.008154 -0.003664 0.017062 0.000000 0.000000 0.000000
# 4 0.000000 0.000000 0.000000 0.031257 0.000000 0.000000
# 5 0.000000 0.000000 0.000000 0.000000 0.037559 0.000000
# 6 0.000000 0.000000 0.000000 0.000000 0.000000 0.052607
#
#
# Mechanical properties :
#
#
# Convention : Reuss Voigt Hill
#
# Bulk Modulus (GPa) = 56.78683 57.39975 57.09329
# Shear Modulus (GPa) = 24.00994 25.29087 24.65041
#
# Velocity S-wave (km/s) = 3.67903 3.77590 3.72778
# Velocity P-wave (km/s) = 7.07530 7.16716 7.12138
#
# Compressibility (1/GPa) = 0.01760972
#
# Stress axis : x y z
#
# Youngs Moduli (GPa) = 50.72777 79.96010 58.60905
#
# Poissons Ratio (x) = 0.32121 0.47792
# Poissons Ratio (y) = 0.20378 0.21477
# Poissons Ratio (z) = 0.41365 0.29301
#
# Static dielectric constant tensor:
#      x y z
#    x 3.258220 0.000000 0.000000 
#    y 0.000000 3.339710 0.000000 
#    z 0.000000 0.000000 3.276410 
# 
# 
# High freq. dielectric constant tensor:
#      x y z
#    x 1.674680 0.000000 0.000000 
#    y 0.000000 1.683460 0.000000 
#    z 0.000000 0.000000 1.692730 
# 
# From -- ./inp_files/6465.got.cif
#   From: 2010.03.12/outbox.cif.g09.slc.cpg/sg49_4_cif.got.tgz:6465.got - 2010.04.14 03:58:27.
