data_PCOD8203065
_publ_section_title
;
Structure prediction by ZEFSAII (Michael W. Deem and Ramdas Pophale) SiO2 
 PCOD8203065
Probable space group: P C C M
;
_chemical_formula_sum "Si O2"
_cell_formula_units_Z 54
_cell_length_a 15.673411
_cell_length_b 6.800028
_cell_length_c 27.148021
_cell_angle_alpha 90.000000
_cell_angle_beta 90.000000
_cell_angle_gamma 90.000000
_cell_volume 2893.426133
_symmetry_space_group_name_H-M "P C C M"
_symmetry_group_IT_number 49
_symmetry_cell_setting 'orthorhombic'
loop_
_space_group_symop_operation_xyz
x,y,z
-x,-y,z
x,-y,1/2-z
-x,y,1/2-z
-x,-y,-z
x,y,-z
-x,y,1/2+z
x,-y,1/2+z
loop_
_atom_site_type_symbol
_atom_site_label
_atom_site_fract_x
_atom_site_fract_y
_atom_site_fract_z
Si Si1 0.111353 0.169791 0.331910
Si Si2 0.000000 0.500000 0.618258
Si Si3 0.149343 0.242344 0.882033
Si Si4 0.000000 0.000000 0.750000
Si Si5 0.313086 0.235599 0.054557
Si Si6 0.403754 0.518332 0.126053
Si Si7 0.580071 0.872784 0.445398
Si Si8 0.242541 0.524000 0.191575
O O1 0.051715 0.338054 0.352530
O O2 0.204764 0.261493 0.322151
O O3 0.064366 0.129623 0.281231
O O4 0.119237 0.976607 0.366461
O O5 0.927913 0.365903 0.591615
O O6 0.218666 0.242868 0.924405
O O7 0.186022 0.350435 0.833090
O O8 0.382339 0.341214 0.089083
O O9 0.336984 0.008353 0.050928
O O10 0.313682 0.332608 0.000000
O O11 0.500000 0.500000 0.146553
O O12 0.394941 0.713902 0.094509
O O13 0.339589 0.519001 0.172044
O O14 0.559877 0.782965 0.500000
O O15 0.500000 0.000000 0.426975
O O16 0.243609 0.500000 0.250000
#
# Coordination Sequence:
#
# PCOD8203065 Si02
#       8
#     8   4   8   2   8   8   8   8
#     4  11  21  35  55  81 112 140 179 231 283 330
#     4  10  20  35  55  82 108 144 180 220 274 332
#     4  10  20  38  56  80 116 149 180 230 283 330
#     4  12  20  30  60  88 100 142 180 242 284 328
#     4  10  21  36  58  85 113 146 187 229 282 339
#     4  11  21  36  58  82 112 150 187 234 283 329
#     4  10  19  32  55  85 111 139 180 233 286 332
#     4  10  23  37  54  79 112 152 189 229 277 337
#
# _framework density 18.662996
#
# number of rings (size 3 to 8) (size 9 to 14) (size 15 to 20)
#    0.000    1.630    2.963    2.222    2.074    0.889 
#    0.000    0.370    0.000    1.778    0.000    0.000 
#    0.000    0.000    0.000    0.000    0.000    0.000 
#
# Total GULP energy -669070.661570 kJ/mol
# GULP energy per Si atom -12390.197436 kJ/mol
# Density = 1.862052 g / cm^3
# Si number density = 18.662996 Si / 1000 Ang^3
#
#
#
# Elastic Constant Matrix: (Units=GPa)
#
#
# Indices 1 2 3 4 5 6 
#
# 1 132.3198 40.1242 29.0800 0.0000 0.0000 0.0000
# 2 40.1242 96.4726 17.8990 0.0000 0.0000 0.0000
# 3 29.0800 17.8990 53.1962 0.0000 0.0000 0.0000
# 4 0.0000 0.0000 0.0000 -1.7891 0.0000 0.0000
# 5 0.0000 0.0000 0.0000 0.0000 44.7959 0.0000
# 6 0.0000 0.0000 0.0000 0.0000 0.0000 35.6174
#
#
#
# Elastic Compliance Matrix: (Units=1/GPa)
#
#
# Indices 1 2 3 4 5 6 
#
# 1 0.009412 -0.003157 -0.004083 0.000000 0.000000 0.000000
# 2 -0.003157 0.012115 -0.002350 0.000000 0.000000 0.000000
# 3 -0.004083 -0.002350 0.021821 0.000000 0.000000 0.000000
# 4 0.000000 0.000000 0.000000 -0.558927 0.000000 0.000000
# 5 0.000000 0.000000 0.000000 0.000000 0.022323 0.000000
# 6 0.000000 0.000000 0.000000 0.000000 0.000000 0.028076
#
#
# Mechanical properties :
#
#
# Convention : Reuss Voigt Hill
#
# Bulk Modulus (GPa) = 41.37846 50.68832 46.03339
# Shear Modulus (GPa) = -11.41702 28.71719 8.65008
#
# Velocity S-wave (km/s) = -2.47603 3.92691 2.15521
# Velocity P-wave (km/s) = 3.74769 6.91228 5.55989
#
# Compressibility (1/GPa) = 0.02416716
#
# Stress axis : x y z
#
# Youngs Moduli (GPa) = 106.24625 82.54369 45.82708
#
# Poissons Ratio (x) = 0.26060 0.18711
# Poissons Ratio (y) = 0.33543 0.10771
# Poissons Ratio (z) = 0.43379 0.19401
#
# Static dielectric constant tensor:
#      x y z
#    x 3.711160 0.000000 0.000000 
#    y 0.000000 3.520190 0.000000 
#    z 0.000000 0.000000 3.134090 
# 
# 
# High freq. dielectric constant tensor:
#      x y z
#    x 1.741150 0.000000 0.000000 
#    y 0.000000 1.735430 0.000000 
#    z 0.000000 0.000000 1.692730 
# 
# From -- ./inp_files/26813.got.cif
#   From: 2010.03.12/outbox.cif.g09.slc.cpg/sg49_14_cif.got.tgz:26813.got - 2010.04.14 03:58:27.
