data_PCOD8203085
_publ_section_title
;
Structure prediction by ZEFSAII (Michael W. Deem and Ramdas Pophale) SiO2 
 PCOD8203085
Probable space group: P C C M
;
_chemical_formula_sum "Si O2"
_cell_formula_units_Z 64
_cell_length_a 19.985651
_cell_length_b 20.111927
_cell_length_c 8.740078
_cell_angle_alpha 90.000000
_cell_angle_beta 90.000000
_cell_angle_gamma 90.000000
_cell_volume 3513.073950
_symmetry_space_group_name_H-M "P C C M"
_symmetry_group_IT_number 49
_symmetry_cell_setting 'orthorhombic'
loop_
_space_group_symop_operation_xyz
x,y,z
-x,-y,z
x,-y,1/2-z
-x,y,1/2-z
-x,-y,-z
x,y,-z
-x,y,1/2+z
x,-y,1/2+z
loop_
_atom_site_type_symbol
_atom_site_label
_atom_site_fract_x
_atom_site_fract_y
_atom_site_fract_z
Si Si1 0.432852 0.706135 0.818098
Si Si2 0.604304 0.567946 0.819793
Si Si3 0.068257 0.294212 0.820782
Si Si4 0.290736 0.751740 0.175685
Si Si5 0.829691 0.186172 0.679956
Si Si6 0.122192 0.565437 0.680922
Si Si7 0.260127 0.398341 0.322276
Si Si8 0.929168 0.071405 0.317819
O O1 0.500000 0.740264 0.750000
O O2 0.431046 0.630701 0.758517
O O3 0.367490 0.747768 0.761958
O O4 0.434845 0.704376 0.000000
O O5 0.573459 0.500000 0.750000
O O6 0.682904 0.569552 0.782119
O O7 0.592010 0.570394 0.000000
O O8 0.128841 0.249551 0.757167
O O9 0.078383 0.370801 0.774332
O O10 0.000000 0.267393 0.750000
O O11 0.063207 0.284261 0.000000
O O12 0.246214 0.808729 0.256929
O O13 0.256425 0.680637 0.204661
O O14 0.292445 0.771439 0.000000
O O15 0.823901 0.187550 0.500000
O O16 0.868838 0.120024 0.733381
O O17 0.085508 0.500000 0.750000
O O18 0.133156 0.560619 0.500000
O O19 0.192055 0.568955 0.768489
O O20 0.274874 0.414330 0.500000
O O21 0.936123 0.067659 0.500000
O O22 0.000000 0.096808 0.250000
O O23 0.910583 0.000000 0.250000
#
# Coordination Sequence:
#
# PCOD8203085 Si02
#       8
#     8   8   8   8   8   8   8   8
#     4  10  21  37  53  75 102 132 170 209 261 319
#     4  11  21  33  49  69  94 126 162 208 260 317
#     4  10  22  37  52  71  95 126 166 213 262 315
#     4   9  19  33  53  78 103 130 167 213 256 305
#     4  10  20  35  55  80 107 137 178 218 257 305
#     4  11  22  35  50  67  90 121 161 211 268 323
#     4  10  19  33  50  71  95 122 160 207 261 319
#     4  10  20  34  54  81 116 154 188 222 257 308
#
# _framework density 18.217663999999999
#
# number of rings (size 3 to 8) (size 9 to 14) (size 15 to 20)
#    0.000    1.875    1.250    4.500    0.000    5.500 
#    0.000    2.500    0.000    0.000    0.000    0.000 
#    0.000    0.500    0.000    5.500    0.000    4.000 
#
# Total GULP energy -793481.896523 kJ/mol
# GULP energy per Si atom -12398.154633 kJ/mol
# Density = 1.817620 g / cm^3
# Si number density = 18.217664 Si / 1000 Ang^3
#
#
#
# Elastic Constant Matrix: (Units=GPa)
#
#
# Indices 1 2 3 4 5 6 
#
# 1 124.9045 52.8060 35.8549 0.0000 0.0000 0.0000
# 2 52.8060 82.0794 35.5416 0.0000 0.0000 0.0000
# 3 35.8549 35.5416 66.8649 0.0000 0.0000 0.0000
# 4 0.0000 0.0000 0.0000 22.6485 0.0000 0.0000
# 5 0.0000 0.0000 0.0000 0.0000 30.2212 0.0000
# 6 0.0000 0.0000 0.0000 0.0000 0.0000 52.1043
#
#
#
# Elastic Compliance Matrix: (Units=1/GPa)
#
#
# Indices 1 2 3 4 5 6 
#
# 1 0.011409 -0.006093 -0.002879 0.000000 0.000000 0.000000
# 2 -0.006093 0.019080 -0.006875 0.000000 0.000000 0.000000
# 3 -0.002879 -0.006875 0.020153 0.000000 0.000000 0.000000
# 4 0.000000 0.000000 0.000000 0.044153 0.000000 0.000000
# 5 0.000000 0.000000 0.000000 0.000000 0.033089 0.000000
# 6 0.000000 0.000000 0.000000 0.000000 0.000000 0.019192
#
#
# Mechanical properties :
#
#
# Convention : Reuss Voigt Hill
#
# Bulk Modulus (GPa) = 52.77340 58.02821 55.40081
# Shear Modulus (GPa) = 27.01444 30.97122 28.99283
#
# Velocity S-wave (km/s) = 3.85498 4.12766 3.99365
# Velocity P-wave (km/s) = 6.98897 7.39179 7.19320
#
# Compressibility (1/GPa) = 0.01894894
#
# Stress axis : x y z
#
# Youngs Moduli (GPa) = 87.65389 52.41045 49.61945
#
# Poissons Ratio (x) = 0.31934 0.14285
# Poissons Ratio (y) = 0.53409 0.34111
# Poissons Ratio (z) = 0.25234 0.36030
#
# Static dielectric constant tensor:
#      x y z
#    x 3.504600 0.000000 0.000000 
#    y 0.000000 3.265790 0.000000 
#    z 0.000000 0.000000 3.316500 
# 
# 
# High freq. dielectric constant tensor:
#      x y z
#    x 1.705860 0.000000 0.000000 
#    y 0.000000 1.668330 0.000000 
#    z 0.000000 0.000000 1.710520 
# 
# From -- ./inp_files/6057.got.cif
#   From: 2010.03.12/outbox.cif.g09.slc.cpg/sg49_4_cif.got.tgz:6057.got - 2010.04.14 03:58:27.
