data_PCOD8203197
_publ_section_title
;
Structure prediction by ZEFSAII (Michael W. Deem and Ramdas Pophale) SiO2 
 PCOD8203197
Probable space group: P C C M
;
_chemical_formula_sum "Si O2"
_cell_formula_units_Z 34
_cell_length_a 9.144825
_cell_length_b 8.144255
_cell_length_c 21.110471
_cell_angle_alpha 90.000000
_cell_angle_beta 90.000000
_cell_angle_gamma 90.000000
_cell_volume 1572.261157
_symmetry_space_group_name_H-M "P C C M"
_symmetry_group_IT_number 49
_symmetry_cell_setting 'orthorhombic'
loop_
_space_group_symop_operation_xyz
x,y,z
-x,-y,z
x,-y,1/2-z
-x,y,1/2-z
-x,-y,-z
x,y,-z
-x,y,1/2+z
x,-y,1/2+z
loop_
_atom_site_type_symbol
_atom_site_label
_atom_site_fract_x
_atom_site_fract_y
_atom_site_fract_z
Si Si1 0.447935 0.668612 0.071391
Si Si2 0.821909 0.862935 0.570189
Si Si3 0.500000 0.000000 0.750000
Si Si4 0.672473 0.146721 0.640190
Si Si5 0.905662 0.343747 0.426433
O O1 0.500000 0.500000 0.105827
O O2 0.272967 0.693732 0.076841
O O3 0.523008 0.830013 0.101131
O O4 0.503548 0.660363 0.000000
O O5 0.794825 0.937902 0.500000
O O6 0.991203 0.817597 0.578519
O O7 0.768260 0.990025 0.622133
O O8 0.611353 0.119526 0.711196
O O9 0.772211 0.308650 0.622856
O O10 0.852147 0.365819 0.500000
O O11 0.000000 0.500000 0.404022
#
# Coordination Sequence:
#
# PCOD8203197 Si02
#       5
#     8   8   2   8   8
#     4  10  19  33  60  95 127 159 197 259 339 397
#     4  10  19  34  60  95 127 159 201 260 341 402
#     4  12  28  44  62  88 120 192 252 270 284 356
#     4  12  22  41  62  86 131 169 223 267 304 371
#     4  10  21  38  66 104 137 159 193 268 362 416
#
# _framework density 21.624908000000001
#
# number of rings (size 3 to 8) (size 9 to 14) (size 15 to 20)
#    0.000    1.412    2.353    4.235    0.000    7.529 
#    0.000    2.941    0.000    1.412    0.000    0.000 
#    0.000    0.000    0.000    0.000    0.000    0.000 
#
# Total GULP energy -421233.016571 kJ/mol
# GULP energy per Si atom -12389.206370 kJ/mol
# Density = 2.157569 g / cm^3
# Si number density = 21.624908 Si / 1000 Ang^3
#
#
#
# Elastic Constant Matrix: (Units=GPa)
#
#
# Indices 1 2 3 4 5 6 
#
# 1 107.1921 13.1352 52.1726 0.0000 0.0000 0.0000
# 2 13.1352 56.2253 37.2217 0.0000 0.0000 0.0000
# 3 52.1726 37.2217 100.0427 0.0000 0.0000 0.0000
# 4 0.0000 0.0000 0.0000 15.1831 0.0000 0.0000
# 5 0.0000 0.0000 0.0000 0.0000 25.1870 0.0000
# 6 0.0000 0.0000 0.0000 0.0000 0.0000 39.9618
#
#
#
# Elastic Compliance Matrix: (Units=1/GPa)
#
#
# Indices 1 2 3 4 5 6 
#
# 1 0.012650 0.001873 -0.007294 0.000000 0.000000 0.000000
# 2 0.001873 0.023875 -0.009860 0.000000 0.000000 0.000000
# 3 -0.007294 -0.009860 0.017468 0.000000 0.000000 0.000000
# 4 0.000000 0.000000 0.000000 0.065863 0.000000 0.000000
# 5 0.000000 0.000000 0.000000 0.000000 0.039703 0.000000
# 6 0.000000 0.000000 0.000000 0.000000 0.000000 0.025024
#
#
# Mechanical properties :
#
#
# Convention : Reuss Voigt Hill
#
# Bulk Modulus (GPa) = 42.67658 52.05768 47.36713
# Shear Modulus (GPa) = 22.42618 26.79511 24.61064
#
# Velocity S-wave (km/s) = 3.22382 3.52388 3.37719
# Velocity P-wave (km/s) = 5.79958 6.37827 6.09580
#
# Compressibility (1/GPa) = 0.02343205
#
# Stress axis : x y z
#
# Youngs Moduli (GPa) = 79.05450 41.88424 57.24773
#
# Poissons Ratio (x) = -0.07847 0.41755
# Poissons Ratio (y) = -0.14810 0.56446
# Poissons Ratio (z) = 0.57661 0.41298
#
# Static dielectric constant tensor:
#      x y z
#    x 4.181300 0.000000 0.000000 
#    y 0.000000 4.100070 0.000000 
#    z 0.000000 0.000000 3.367710 
# 
# 
# High freq. dielectric constant tensor:
#      x y z
#    x 1.876880 0.000000 0.000000 
#    y 0.000000 1.860040 0.000000 
#    z 0.000000 0.000000 1.773300 
# 
# From -- ./inp_files/19420.got.cif
#   From: 2010.03.12/outbox.cif.g09.slc.cpg/sg49_10_cif.got.tgz:19420.got - 2010.04.14 03:58:27.
