data_PCOD8203378
_publ_section_title
;
Structure prediction by ZEFSAII (Michael W. Deem and Ramdas Pophale) SiO2 
 PCOD8203378
Probable space group: P C C M
;
_chemical_formula_sum "Si O2"
_cell_formula_units_Z 56
_cell_length_a 15.208811
_cell_length_b 20.111682
_cell_length_c 8.833677
_cell_angle_alpha 90.000000
_cell_angle_beta 90.000000
_cell_angle_gamma 90.000000
_cell_volume 2701.998924
_symmetry_space_group_name_H-M "P C C M"
_symmetry_group_IT_number 49
_symmetry_cell_setting 'orthorhombic'
loop_
_space_group_symop_operation_xyz
x,y,z
-x,-y,z
x,-y,1/2-z
-x,y,1/2-z
-x,-y,-z
x,y,-z
-x,y,1/2+z
x,-y,1/2+z
loop_
_atom_site_type_symbol
_atom_site_label
_atom_site_fract_x
_atom_site_fract_y
_atom_site_fract_z
Si Si1 0.267555 0.432436 0.820872
Si Si2 0.328881 0.799166 0.174566
Si Si3 0.277941 0.067904 0.180179
Si Si4 0.870382 0.765234 0.328225
Si Si5 0.589551 0.675970 0.178977
Si Si6 0.090034 0.384938 0.678052
Si Si7 0.085597 0.105139 0.824451
O O1 0.306678 0.500000 0.750000
O O2 0.331189 0.372377 0.771654
O O3 0.170599 0.422224 0.755135
O O4 0.261992 0.438966 0.000000
O O5 0.334148 0.870869 0.255418
O O6 0.233857 0.766400 0.194277
O O7 0.396490 0.749763 0.255167
O O8 0.355219 0.808134 0.000000
O O9 0.176545 0.074102 0.237203
O O10 0.316573 0.000000 0.250000
O O11 0.284737 0.067451 0.000000
O O12 0.895140 0.785168 0.500000
O O13 0.904409 0.692974 0.284308
O O14 0.916049 0.816542 0.214298
O O15 0.500000 0.646962 0.250000
O O16 0.580712 0.680118 0.000000
O O17 0.092161 0.399036 0.500000
O O18 0.000000 0.412860 0.750000
O O19 0.000000 0.070297 0.750000
O O20 0.077890 0.093926 0.000000
#
# Coordination Sequence:
#
# PCOD8203378 Si02
#       7
#     8   8   8   8   8   8   8
#     4  11  25  44  66  92 126 167 208 256 310 367
#     4  10  19  36  62  90 121 157 198 249 305 362
#     4  10  21  36  54  80 113 156 204 251 305 367
#     4   9  18  32  53  80 111 151 196 247 305 360
#     4  11  24  42  68 100 130 162 202 250 306 370
#     4  11  22  37  58  87 122 163 211 260 309 365
#     4  10  20  31  46  70 105 147 196 253 306 361
#
# _framework density 20.725397000000001
#
# number of rings (size 3 to 8) (size 9 to 14) (size 15 to 20)
#    0.000    1.714    1.429    3.000    0.000    7.143 
#    0.000    4.286    0.000    0.429    0.000    3.000 
#    0.000    0.000    0.000    0.000    0.000    0.000 
#
# Total GULP energy -694598.480973 kJ/mol
# GULP energy per Si atom -12403.544303 kJ/mol
# Density = 2.067823 g / cm^3
# Si number density = 20.725397 Si / 1000 Ang^3
#
#
#
# Elastic Constant Matrix: (Units=GPa)
#
#
# Indices 1 2 3 4 5 6 
#
# 1 86.3849 39.1706 37.2427 0.0000 0.0000 0.0000
# 2 39.1706 116.7753 52.1467 0.0000 0.0000 0.0000
# 3 37.2427 52.1467 98.4109 0.0000 0.0000 0.0000
# 4 0.0000 0.0000 0.0000 34.0029 0.0000 0.0000
# 5 0.0000 0.0000 0.0000 0.0000 32.9990 0.0000
# 6 0.0000 0.0000 0.0000 0.0000 0.0000 6.1546
#
#
#
# Elastic Compliance Matrix: (Units=1/GPa)
#
#
# Indices 1 2 3 4 5 6 
#
# 1 0.014694 -0.003204 -0.003863 0.000000 0.000000 0.000000
# 2 -0.003204 0.011916 -0.005102 0.000000 0.000000 0.000000
# 3 -0.003863 -0.005102 0.014327 0.000000 0.000000 0.000000
# 4 0.000000 0.000000 0.000000 0.029409 0.000000 0.000000
# 5 0.000000 0.000000 0.000000 0.000000 0.030304 0.000000
# 6 0.000000 0.000000 0.000000 0.000000 0.000000 0.162480
#
#
# Mechanical properties :
#
#
# Convention : Reuss Voigt Hill
#
# Bulk Modulus (GPa) = 60.24204 62.07678 61.15941
# Shear Modulus (GPa) = 17.06473 26.16537 21.61505
#
# Velocity S-wave (km/s) = 2.87256 3.55699 3.23294
# Velocity P-wave (km/s) = 6.33498 6.84738 6.59616
#
# Compressibility (1/GPa) = 0.01659970
#
# Stress axis : x y z
#
# Youngs Moduli (GPa) = 68.05305 83.91780 69.79865
#
# Poissons Ratio (x) = 0.26886 0.26965
# Poissons Ratio (y) = 0.21803 0.35610
# Poissons Ratio (z) = 0.26291 0.42814
#
# Static dielectric constant tensor:
#      x y z
#    x 3.654620 0.000000 0.000000 
#    y 0.000000 3.756110 0.000000 
#    z 0.000000 0.000000 3.693670 
# 
# 
# High freq. dielectric constant tensor:
#      x y z
#    x 1.796170 0.000000 0.000000 
#    y 0.000000 1.810320 0.000000 
#    z 0.000000 0.000000 1.817610 
# 
# From -- ./inp_files/4072.got.cif
#   From: 2010.03.12/outbox.cif.g09.slc.cpg/sg49_3_cif.got.tgz:4072.got - 2010.04.14 03:58:27.
