data_PCOD8203808
_publ_section_title
;
Structure prediction by ZEFSAII (Michael W. Deem and Ramdas Pophale) SiO2 
 PCOD8203808
Probable space group: P C C M
;
_chemical_formula_sum "Si O2"
_cell_formula_units_Z 58
_cell_length_a 17.734741
_cell_length_b 17.517780
_cell_length_c 9.200509
_cell_angle_alpha 90.000000
_cell_angle_beta 90.000000
_cell_angle_gamma 90.000000
_cell_volume 2858.352412
_symmetry_space_group_name_H-M "P C C M"
_symmetry_group_IT_number 49
_symmetry_cell_setting 'orthorhombic'
loop_
_space_group_symop_operation_xyz
x,y,z
-x,-y,z
x,-y,1/2-z
-x,y,1/2-z
-x,-y,-z
x,y,-z
-x,y,1/2+z
x,-y,1/2+z
loop_
_atom_site_type_symbol
_atom_site_label
_atom_site_fract_x
_atom_site_fract_y
_atom_site_fract_z
Si Si1 0.650802 0.074227 0.165215
Si Si2 0.828266 0.071538 0.837952
Si Si3 0.929799 0.653227 0.839613
Si Si4 0.500000 0.500000 0.250000
Si Si5 0.929401 0.832891 0.162623
Si Si6 0.424123 0.792191 0.674772
Si Si7 0.778965 0.576738 0.827424
Si Si8 0.617627 0.374661 0.336220
O O1 0.739402 0.066236 0.153746
O O2 0.637786 0.150611 0.260023
O O3 0.617240 0.000000 0.250000
O O4 0.617103 0.078917 0.000000
O O5 0.853394 0.146664 0.749810
O O6 0.862200 0.000000 0.750000
O O7 0.862450 0.073245 0.000000
O O8 0.936866 0.743025 0.843296
O O9 0.845963 0.634086 0.780210
O O10 0.000000 0.617871 0.750000
O O11 0.937612 0.617901 0.000000
O O12 0.555367 0.442837 0.336980
O O13 0.000000 0.868468 0.250000
O O14 0.926687 0.866804 0.000000
O O15 0.500000 0.821397 0.750000
O O16 0.427639 0.798081 0.500000
O O17 0.410685 0.705155 0.732591
O O18 0.802745 0.500000 0.750000
O O19 0.697218 0.602326 0.762106
O O20 0.772858 0.565529 0.000000
O O21 0.636880 0.354294 0.500000
#
# Coordination Sequence:
#
# PCOD8203808 Si02
#       8
#     8   8   8   2   8   8   8   8
#     4  10  22  41  63  90 121 157 198 245 299 357
#     4  10  21  37  57  83 115 149 191 238 288 347
#     4   9  20  37  59  82 114 151 192 239 293 352
#     4  12  18  40  64  86 124 164 206 244 310 356
#     4  10  20  35  56  81 111 149 192 239 292 349
#     4  11  23  40  62  90 122 157 199 248 297 357
#     4  10  21  39  58  85 116 152 196 242 291 351
#     4  10  22  37  59  88 122 160 201 247 302 360
#
# _framework density 20.291409000000002
#
# number of rings (size 3 to 8) (size 9 to 14) (size 15 to 20)
#    0.000    1.931    1.379    1.862    1.931    3.586 
#    0.000    5.517    0.000    0.000    0.000    0.000 
#    0.000    0.000    0.000    0.000    0.000    0.000 
#
# Total GULP energy -718776.852336 kJ/mol
# GULP energy per Si atom -12392.704351 kJ/mol
# Density = 2.024523 g / cm^3
# Si number density = 20.291409 Si / 1000 Ang^3
#
#
#
# Elastic Constant Matrix: (Units=GPa)
#
#
# Indices 1 2 3 4 5 6 
#
# 1 99.6415 24.7004 38.8570 0.0000 0.0000 0.0000
# 2 24.7004 86.9754 42.4227 0.0000 0.0000 0.0000
# 3 38.8570 42.4227 122.5381 0.0000 0.0000 0.0000
# 4 0.0000 0.0000 0.0000 26.2266 0.0000 0.0000
# 5 0.0000 0.0000 0.0000 0.0000 30.1182 0.0000
# 6 0.0000 0.0000 0.0000 0.0000 0.0000 33.7975
#
#
#
# Elastic Compliance Matrix: (Units=1/GPa)
#
#
# Indices 1 2 3 4 5 6 
#
# 1 0.011686 -0.001818 -0.003076 0.000000 0.000000 0.000000
# 2 -0.001818 0.014116 -0.004310 0.000000 0.000000 0.000000
# 3 -0.003076 -0.004310 0.010628 0.000000 0.000000 0.000000
# 4 0.000000 0.000000 0.000000 0.038129 0.000000 0.000000
# 5 0.000000 0.000000 0.000000 0.000000 0.033202 0.000000
# 6 0.000000 0.000000 0.000000 0.000000 0.000000 0.029588
#
#
# Mechanical properties :
#
#
# Convention : Reuss Voigt Hill
#
# Bulk Modulus (GPa) = 55.49074 57.90170 56.69622
# Shear Modulus (GPa) = 30.90844 31.57347 31.24095
#
# Velocity S-wave (km/s) = 3.90709 3.94890 3.92805
# Velocity P-wave (km/s) = 6.91087 7.02771 6.96953
#
# Compressibility (1/GPa) = 0.01802102
#
# Stress axis : x y z
#
# Youngs Moduli (GPa) = 85.56969 70.83969 94.08671
#
# Poissons Ratio (x) = 0.12882 0.28943
# Poissons Ratio (y) = 0.15560 0.40556
# Poissons Ratio (z) = 0.26323 0.30535
#
# Static dielectric constant tensor:
#      x y z
#    x 3.721440 0.000000 0.000000 
#    y 0.000000 3.591230 0.000000 
#    z 0.000000 0.000000 3.887950 
# 
# 
# High freq. dielectric constant tensor:
#      x y z
#    x 1.795370 0.000000 0.000000 
#    y 0.000000 1.788040 0.000000 
#    z 0.000000 0.000000 1.788310 
# 
# From -- ./inp_files/5096.got.cif
#   From: 2010.03.12/outbox.cif.g09.slc.cpg/sg49_3_cif.got.tgz:5096.got - 2010.04.14 03:58:27.
