data_PCOD8203281
_publ_section_title
;
Structure prediction by ZEFSAII (Michael W. Deem and Ramdas Pophale) SiO2 
 PCOD8203281
Probable space group: P C C M
;
_chemical_formula_sum "Si O2"
_cell_formula_units_Z 60
_cell_length_a 11.584264
_cell_length_b 11.116027
_cell_length_c 21.791466
_cell_angle_alpha 90.000000
_cell_angle_beta 90.000000
_cell_angle_gamma 90.000000
_cell_volume 2806.108681
_symmetry_space_group_name_H-M "P C C M"
_symmetry_group_IT_number 49
_symmetry_cell_setting 'orthorhombic'
loop_
_space_group_symop_operation_xyz
x,y,z
-x,-y,z
x,-y,1/2-z
-x,y,1/2-z
-x,-y,-z
x,y,-z
-x,y,1/2+z
x,-y,1/2+z
loop_
_atom_site_type_symbol
_atom_site_label
_atom_site_fract_x
_atom_site_fract_y
_atom_site_fract_z
Si Si1 0.665170 0.588863 0.696612
Si Si2 0.786761 0.070885 0.160642
Si Si3 0.547845 0.164610 0.186343
Si Si4 0.180427 0.203441 0.130939
Si Si5 0.412266 0.752864 0.431645
Si Si6 0.959183 0.137077 0.067371
Si Si7 0.133584 0.725077 0.241878
Si Si8 0.500000 0.500000 0.598656
O O1 0.631450 0.500000 0.750000
O O2 0.593893 0.708591 0.708771
O O3 0.801437 0.627303 0.697803
O O4 0.619093 0.528300 0.634797
O O5 0.649042 0.078823 0.162316
O O6 0.836390 0.142743 0.101669
O O7 0.847390 0.137537 0.218505
O O8 0.815501 0.931844 0.156751
O O9 0.500000 0.106615 0.250000
O O10 0.464193 0.175443 0.126997
O O11 0.275055 0.242099 0.080873
O O12 0.192140 0.288260 0.190730
O O13 0.054271 0.219896 0.100894
O O14 0.432975 0.811518 0.500000
O O15 0.464422 0.618445 0.439025
O O16 0.939239 0.190387 0.000000
O O17 0.000000 0.000000 0.064478
O O18 0.000000 0.693541 0.250000
#
# Coordination Sequence:
#
# PCOD8203281 Si02
#       8
#     8   8   8   8   8   8   8   4
#     4  10  19  34  58  84 112 152 194 246 310 365
#     4  10  21  36  55  81 116 163 199 240 300 361
#     4  10  21  38  58  85 122 157 200 246 307 367
#     4  11  21  35  56  84 119 157 200 245 297 363
#     4  11  23  39  61  90 118 156 204 256 309 374
#     4   9  18  33  53  75 103 147 200 245 289 349
#     4  11  21  34  55  88 122 153 197 252 306 365
#     4  10  20  40  62  82 113 154 199 254 311 370
#
# _framework density 21.381921999999999
#
# number of rings (size 3 to 8) (size 9 to 14) (size 15 to 20)
#    0.000    1.733    1.333    5.200    0.000    2.400 
#    0.000    4.000    0.000    0.000    0.000    0.933 
#    0.000    0.000    0.000    0.000    0.000    0.000 
#
# Total GULP energy -743318.463277 kJ/mol
# GULP energy per Si atom -12388.641055 kJ/mol
# Density = 2.133326 g / cm^3
# Si number density = 21.381922 Si / 1000 Ang^3
#
#
#
# Elastic Constant Matrix: (Units=GPa)
#
#
# Indices 1 2 3 4 5 6 
#
# 1 124.8803 9.9235 58.6652 0.0000 0.0000 0.0000
# 2 9.9235 37.1344 14.5782 0.0000 0.0000 0.0000
# 3 58.6652 14.5782 159.2006 0.0000 0.0000 0.0000
# 4 0.0000 0.0000 0.0000 11.5658 0.0000 0.0000
# 5 0.0000 0.0000 0.0000 0.0000 29.7237 0.0000
# 6 0.0000 0.0000 0.0000 0.0000 0.0000 21.6114
#
#
#
# Elastic Compliance Matrix: (Units=1/GPa)
#
#
# Indices 1 2 3 4 5 6 
#
# 1 0.009739 -0.001238 -0.003475 0.000000 0.000000 0.000000
# 2 -0.001238 0.028091 -0.002116 0.000000 0.000000 0.000000
# 3 -0.003475 -0.002116 0.007756 0.000000 0.000000 0.000000
# 4 0.000000 0.000000 0.000000 0.086462 0.000000 0.000000
# 5 0.000000 0.000000 0.000000 0.000000 0.033643 0.000000
# 6 0.000000 0.000000 0.000000 0.000000 0.000000 0.046272
#
#
# Mechanical properties :
#
#
# Convention : Reuss Voigt Hill
#
# Bulk Modulus (GPa) = 31.32219 54.17211 42.74715
# Shear Modulus (GPa) = 21.16283 28.45006 24.80645
#
# Velocity S-wave (km/s) = 3.14945 3.65165 3.40981
# Velocity P-wave (km/s) = 5.28262 6.57038 5.96137
#
# Compressibility (1/GPa) = 0.03192625
#
# Stress axis : x y z
#
# Youngs Moduli (GPa) = 102.68359 35.59885 128.93583
#
# Poissons Ratio (x) = 0.04408 0.44809
# Poissons Ratio (y) = 0.12714 0.27284
# Poissons Ratio (z) = 0.35686 0.07533
#
# Static dielectric constant tensor:
#      x y z
#    x 4.053000 0.000000 0.000000 
#    y 0.000000 3.818430 0.000000 
#    z 0.000000 0.000000 4.006390 
# 
# 
# High freq. dielectric constant tensor:
#      x y z
#    x 1.841950 0.000000 0.000000 
#    y 0.000000 1.812610 0.000000 
#    z 0.000000 0.000000 1.836340 
# 
# From -- ./inp_files/20589.got.cif
#   From: 2010.03.12/outbox.cif.g09.slc.cpg/sg49_11_cif.got.tgz:20589.got - 2010.04.14 03:58:27.
