data_PCOD8203444
_publ_section_title
;
Structure prediction by ZEFSAII (Michael W. Deem and Ramdas Pophale) SiO2 
 PCOD8203444
Probable space group: P C C M
;
_chemical_formula_sum "Si O2"
_cell_formula_units_Z 64
_cell_length_a 21.425382
_cell_length_b 21.412568
_cell_length_c 8.912829
_cell_angle_alpha 90.000000
_cell_angle_beta 90.000000
_cell_angle_gamma 90.000000
_cell_volume 4088.960388
_symmetry_space_group_name_H-M "P C C M"
_symmetry_group_IT_number 49
_symmetry_cell_setting 'orthorhombic'
loop_
_space_group_symop_operation_xyz
x,y,z
-x,-y,z
x,-y,1/2-z
-x,y,1/2-z
-x,-y,-z
x,y,-z
-x,y,1/2+z
x,-y,1/2+z
loop_
_atom_site_type_symbol
_atom_site_label
_atom_site_fract_x
_atom_site_fract_y
_atom_site_fract_z
Si Si1 0.167746 0.567781 0.179465
Si Si2 0.067582 0.657863 0.320693
Si Si3 0.158280 0.238148 0.834637
Si Si4 0.565268 0.167272 0.675699
Si Si5 0.260995 0.654889 0.331396
Si Si6 0.242941 0.846488 0.166960
Si Si7 0.347988 0.741285 0.830556
Si Si8 0.669028 0.065476 0.325639
O O1 0.165116 0.500000 0.250000
O O2 0.108622 0.604551 0.244101
O O3 0.232487 0.599632 0.230809
O O4 0.164586 0.565486 0.000000
O O5 0.066850 0.647516 0.500000
O O6 0.095780 0.726258 0.279958
O O7 0.000000 0.653616 0.250000
O O8 0.212841 0.288694 0.839454
O O9 0.177164 0.180634 0.727805
O O10 0.148205 0.209931 0.000000
O O11 0.500000 0.149809 0.750000
O O12 0.556756 0.177698 0.500000
O O13 0.591813 0.231213 0.745980
O O14 0.611134 0.110132 0.711977
O O15 0.275160 0.630564 0.500000
O O16 0.324888 0.679054 0.254960
O O17 0.293437 0.791946 0.170367
O O18 0.266745 0.904548 0.265168
O O19 0.231345 0.871326 0.000000
O O20 0.366813 0.723634 0.000000
O O21 0.677699 0.054600 0.500000
O O22 0.654546 0.000000 0.250000
#
# Coordination Sequence:
#
# PCOD8203444 Si02
#       8
#     8   8   8   8   8   8   8   8
#     4  11  21  33  47  64  88 119 154 189 224 263
#     4  10  20  33  47  65  89 119 153 188 223 262
#     4   8  15  27  43  62  85 110 138 175 220 263
#     4  10  20  32  45  62  86 118 152 188 224 262
#     4   9  16  28  45  65  87 111 141 179 223 267
#     4   9  16  26  43  64  84 107 139 177 219 263
#     4   9  16  27  44  65  86 110 141 179 222 267
#     4  10  20  32  45  61  85 116 150 185 222 261
#
# _framework density 15.651901000000001
#
# number of rings (size 3 to 8) (size 9 to 14) (size 15 to 20)
#    0.000    2.500    0.000    4.125    0.000    8.500 
#    0.000    2.500    0.000    0.000    0.000    0.000 
#    0.000    1.000    0.000   10.250    0.000    6.625 
#
# Total GULP energy -793440.514817 kJ/mol
# GULP energy per Si atom -12397.508044 kJ/mol
# Density = 1.561628 g / cm^3
# Si number density = 15.651901 Si / 1000 Ang^3
#
#
#
# Elastic Constant Matrix: (Units=GPa)
#
#
# Indices 1 2 3 4 5 6 
#
# 1 57.3670 62.6639 55.4651 0.0000 0.0000 0.0000
# 2 62.6639 65.3448 61.4869 0.0000 0.0000 0.0000
# 3 55.4651 61.4869 137.1379 0.0000 0.0000 0.0000
# 4 0.0000 0.0000 0.0000 26.5487 0.0000 0.0000
# 5 0.0000 0.0000 0.0000 0.0000 24.6351 0.0000
# 6 0.0000 0.0000 0.0000 0.0000 0.0000 9.6081
#
#
#
# Elastic Compliance Matrix: (Units=1/GPa)
#
#
# Indices 1 2 3 4 5 6 
#
# 1 -0.347178 0.347353 -0.015323 0.000000 0.000000 0.000000
# 2 0.347353 -0.321056 0.003462 0.000000 0.000000 0.000000
# 3 -0.015323 0.003462 0.011937 0.000000 0.000000 0.000000
# 4 0.000000 0.000000 0.000000 0.037667 0.000000 0.000000
# 5 0.000000 0.000000 0.000000 0.000000 0.040593 0.000000
# 6 0.000000 0.000000 0.000000 0.000000 0.000000 0.104079
#
#
# Mechanical properties :
#
#
# Convention : Reuss Voigt Hill
#
# Bulk Modulus (GPa) = 68.09006 68.78683 68.43845
# Shear Modulus (GPa) = -4.38578 17.50730 6.56076
#
# Velocity S-wave (km/s) = -1.67576 3.34809 2.04958
# Velocity P-wave (km/s) = 6.31292 7.68047 7.03003
#
# Compressibility (1/GPa) = 0.01468643
#
# Stress axis : x y z
#
# Youngs Moduli (GPa) = -2.88036 -3.11472 83.77280
#
# Poissons Ratio (x) = 1.08191 1.28366
# Poissons Ratio (y) = 1.00050 -0.29003
# Poissons Ratio (z) = -0.04414 0.01078
#
# Static dielectric constant tensor:
#      x y z
#    x 2.903120 0.000000 0.000000 
#    y 0.000000 2.856430 0.000000 
#    z 0.000000 0.000000 3.246280 
# 
# 
# High freq. dielectric constant tensor:
#      x y z
#    x 1.571470 0.000000 0.000000 
#    y 0.000000 1.572490 0.000000 
#    z 0.000000 0.000000 1.622840 
# 
# From -- ./inp_files/5263.got.cif
#   From: 2010.03.12/outbox.cif.g09.slc.cpg/sg49_3_cif.got.tgz:5263.got - 2010.04.14 03:58:27.
