data_PCOD8203005
_publ_section_title
;
Structure prediction by ZEFSAII (Michael W. Deem and Ramdas Pophale) SiO2 
 PCOD8203005
Probable space group: P C C M
;
_chemical_formula_sum "Si O2"
_cell_formula_units_Z 40
_cell_length_a 9.393983
_cell_length_b 8.123692
_cell_length_c 27.417927
_cell_angle_alpha 90.000000
_cell_angle_beta 90.000000
_cell_angle_gamma 90.000000
_cell_volume 2092.366870
_symmetry_space_group_name_H-M "P C C M"
_symmetry_group_IT_number 49
_symmetry_cell_setting 'orthorhombic'
loop_
_space_group_symop_operation_xyz
x,y,z
-x,-y,z
x,-y,1/2-z
-x,y,1/2-z
-x,-y,-z
x,y,-z
-x,y,1/2+z
x,-y,1/2+z
loop_
_atom_site_type_symbol
_atom_site_label
_atom_site_fract_x
_atom_site_fract_y
_atom_site_fract_z
Si Si1 0.932750 0.673672 0.364662
Si Si2 0.753309 0.198855 0.054865
Si Si3 0.208025 0.129536 0.893707
Si Si4 0.550467 0.679430 0.055561
Si Si5 0.161729 0.051669 0.698083
O O1 0.820538 0.662636 0.409276
O O2 0.849738 0.754330 0.317773
O O3 0.000000 0.500000 0.348876
O O4 0.055269 0.789242 0.386440
O O5 0.582476 0.197239 0.060155
O O6 0.806099 0.014373 0.066268
O O7 0.798192 0.246686 0.000000
O O8 0.324085 0.263734 0.908792
O O9 0.253348 0.045873 0.842342
O O10 0.500000 0.500000 0.072482
O O11 0.608203 0.674088 0.000000
O O12 0.232143 0.000000 0.750000
O O13 0.000000 0.000000 0.699175
#
# Coordination Sequence:
#
# PCOD8203005 Si02
#       5
#     8   8   8   8   8
#     4  10  20  33  52  79 106 133 167 213 262 299
#     4  10  20  33  50  73 104 143 177 205 247 306
#     4  10  19  32  52  74  98 133 175 213 252 303
#     4  10  20  33  50  74 104 137 172 211 255 301
#     4   8  16  33  53  74 100 128 166 210 256 311
#
# _framework density 19.117107000000001
#
# number of rings (size 3 to 8) (size 9 to 14) (size 15 to 20)
#    0.000    2.400    0.000    4.200    0.000    4.400 
#    0.000    8.000    0.000    9.600    0.000    5.600 
#    0.000    0.000    0.000    0.000    0.000    0.000 
#
# Total GULP energy -495637.478385 kJ/mol
# GULP energy per Si atom -12390.936960 kJ/mol
# Density = 1.907360 g / cm^3
# Si number density = 19.117107 Si / 1000 Ang^3
#
#
#
# Elastic Constant Matrix: (Units=GPa)
#
#
# Indices 1 2 3 4 5 6 
#
# 1 45.1500 14.7195 30.7659 0.0000 0.0000 0.0000
# 2 14.7195 88.9097 40.8782 0.0000 0.0000 0.0000
# 3 30.7659 40.8782 134.6760 0.0000 0.0000 0.0000
# 4 0.0000 0.0000 0.0000 17.0856 0.0000 0.0000
# 5 0.0000 0.0000 0.0000 0.0000 13.7950 0.0000
# 6 0.0000 0.0000 0.0000 0.0000 0.0000 33.1008
#
#
#
# Elastic Compliance Matrix: (Units=1/GPa)
#
#
# Indices 1 2 3 4 5 6 
#
# 1 0.026495 -0.001864 -0.005487 0.000000 0.000000 0.000000
# 2 -0.001864 0.013203 -0.003582 0.000000 0.000000 0.000000
# 3 -0.005487 -0.003582 0.009766 0.000000 0.000000 0.000000
# 4 0.000000 0.000000 0.000000 0.058529 0.000000 0.000000
# 5 0.000000 0.000000 0.000000 0.000000 0.072490 0.000000
# 6 0.000000 0.000000 0.000000 0.000000 0.000000 0.030211
#
#
# Mechanical properties :
#
#
# Convention : Reuss Voigt Hill
#
# Bulk Modulus (GPa) = 36.23336 49.05143 42.64240
# Shear Modulus (GPa) = 20.68191 24.95442 22.81816
#
# Velocity S-wave (km/s) = 3.29272 3.61688 3.45860
# Velocity P-wave (km/s) = 5.78364 6.56936 6.18898
#
# Compressibility (1/GPa) = 0.02759887
#
# Stress axis : x y z
#
# Youngs Moduli (GPa) = 37.74327 75.74238 102.39795
#
# Poissons Ratio (x) = 0.14116 0.56185
# Poissons Ratio (y) = 0.07034 0.36676
# Poissons Ratio (z) = 0.20709 0.27128
#
# Static dielectric constant tensor:
#      x y z
#    x 3.354610 0.000000 0.000000 
#    y 0.000000 3.504970 0.000000 
#    z 0.000000 0.000000 4.059810 
# 
# 
# High freq. dielectric constant tensor:
#      x y z
#    x 1.722360 0.000000 0.000000 
#    y 0.000000 1.741340 0.000000 
#    z 0.000000 0.000000 1.731880 
# 
# From -- ./inp_files/24330.got.cif
#   From: 2010.03.12/outbox.cif.g09.slc.cpg/sg49_13_cif.got.tgz:24330.got - 2010.04.14 03:58:27.
