data_PCOD8203253
_publ_section_title
;
Structure prediction by ZEFSAII (Michael W. Deem and Ramdas Pophale) SiO2 
 PCOD8203253
Probable space group: P C C M
;
_chemical_formula_sum "Si O2"
_cell_formula_units_Z 48
_cell_length_a 8.825997
_cell_length_b 29.470775
_cell_length_c 9.679265
_cell_angle_alpha 90.000000
_cell_angle_beta 90.000000
_cell_angle_gamma 90.000000
_cell_volume 2517.663666
_symmetry_space_group_name_H-M "P C C M"
_symmetry_group_IT_number 49
_symmetry_cell_setting 'orthorhombic'
loop_
_space_group_symop_operation_xyz
x,y,z
-x,-y,z
x,-y,1/2-z
-x,y,1/2-z
-x,-y,-z
x,y,-z
-x,y,1/2+z
x,-y,1/2+z
loop_
_atom_site_type_symbol
_atom_site_label
_atom_site_fract_x
_atom_site_fract_y
_atom_site_fract_z
Si Si1 0.679183 0.609867 0.742274
Si Si2 0.675568 0.453411 0.000000
Si Si3 0.851133 0.300834 0.839834
Si Si4 0.648165 0.044462 0.834355
Si Si5 0.683987 0.445553 0.500000
Si Si6 0.148142 0.130209 0.658937
Si Si7 0.646403 0.786563 0.341712
O O1 0.500000 0.617773 0.750000
O O2 0.733718 0.574293 0.629478
O O3 0.753387 0.658217 0.719910
O O4 0.742374 0.585117 0.876142
O O5 0.751435 0.503455 0.000000
O O6 0.494642 0.453995 0.000000
O O7 0.757041 0.255378 0.819969
O O8 0.000000 0.295607 0.750000
O O9 0.892271 0.309066 0.000000
O O10 0.500000 0.061720 0.750000
O O11 0.779646 0.081013 0.818694
O O12 0.703847 0.000000 0.750000
O O13 0.615430 0.035608 0.000000
O O14 0.101957 0.138092 0.500000
O O15 0.268412 0.167948 0.706420
O O16 0.000000 0.134853 0.750000
O O17 0.500000 0.779013 0.250000
O O18 0.593459 0.790701 0.500000
#
# Coordination Sequence:
#
# PCOD8203253 Si02
#       7
#     8   4   8   8   4   8   8
#     4  10  19  34  56  83 112 143 182 231 276 327
#     4   9  16  32  51  83 117 139 181 231 274 321
#     4  11  24  40  58  81 113 148 185 228 277 334
#     4  10  20  35  56  84 115 155 201 249 294 342
#     4   9  18  28  55  85 109 145 181 225 280 327
#     4  10  22  38  58  85 120 155 194 237 287 345
#     4  10  22  41  63  89 115 144 186 235 284 338
#
# _framework density 19.065294000000002
#
# number of rings (size 3 to 8) (size 9 to 14) (size 15 to 20)
#    0.000    2.000    0.833    3.000    1.167    5.000 
#    0.000    1.667    0.000    3.000    0.000    0.000 
#    0.000    0.000    0.000    0.000    0.000    0.000 
#
# Total GULP energy -594980.885273 kJ/mol
# GULP energy per Si atom -12395.435110 kJ/mol
# Density = 1.902190 g / cm^3
# Si number density = 19.065294 Si / 1000 Ang^3
#
#
#
# Elastic Constant Matrix: (Units=GPa)
#
#
# Indices 1 2 3 4 5 6 
#
# 1 79.5522 38.4574 55.0777 0.0000 0.0000 0.0000
# 2 38.4574 101.6052 53.4074 0.0000 0.0000 0.0000
# 3 55.0777 53.4074 144.2355 0.0000 0.0000 0.0000
# 4 0.0000 0.0000 0.0000 24.2523 0.0000 0.0000
# 5 0.0000 0.0000 0.0000 0.0000 37.0657 0.0000
# 6 0.0000 0.0000 0.0000 0.0000 0.0000 -17.4682
#
#
#
# Elastic Compliance Matrix: (Units=1/GPa)
#
#
# Indices 1 2 3 4 5 6 
#
# 1 0.018338 -0.004048 -0.005504 0.000000 0.000000 0.000000
# 2 -0.004048 0.013114 -0.003310 0.000000 0.000000 0.000000
# 3 -0.005504 -0.003310 0.010260 0.000000 0.000000 0.000000
# 4 0.000000 0.000000 0.000000 0.041233 0.000000 0.000000
# 5 0.000000 0.000000 0.000000 0.000000 0.026979 0.000000
# 6 0.000000 0.000000 0.000000 0.000000 0.000000 -0.057247
#
#
# Mechanical properties :
#
#
# Convention : Reuss Voigt Hill
#
# Bulk Modulus (GPa) = 62.54349 68.80868 65.67609
# Shear Modulus (GPa) = 59.71575 20.66667 40.19121
#
# Velocity S-wave (km/s) = 5.60265 3.29598 4.59637
# Velocity P-wave (km/s) = 8.64460 7.11717 7.91780
#
# Compressibility (1/GPa) = 0.01598887
#
# Stress axis : x y z
#
# Youngs Moduli (GPa) = 54.53286 76.25404 97.46252
#
# Poissons Ratio (x) = 0.30867 0.53639
# Poissons Ratio (y) = 0.22074 0.32261
# Poissons Ratio (z) = 0.30012 0.25241
#
# Static dielectric constant tensor:
#      x y z
#    x 3.079770 0.000000 0.000000 
#    y 0.000000 3.697720 0.000000 
#    z 0.000000 0.000000 3.757330 
# 
# 
# High freq. dielectric constant tensor:
#      x y z
#    x 1.716260 0.000000 0.000000 
#    y 0.000000 1.762920 0.000000 
#    z 0.000000 0.000000 1.755610 
# 
# From -- ./inp_files/2140.got.cif
#   From: 2010.03.12/outbox.cif.g09.slc.cpg/sg49_2_cif.got.tgz:2140.got - 2010.04.14 03:58:27.
