data_PCOD8203751
_publ_section_title
;
Structure prediction by ZEFSAII (Michael W. Deem and Ramdas Pophale) SiO2 
 PCOD8203751
Probable space group: P C C M
;
_chemical_formula_sum "Si O2"
_cell_formula_units_Z 48
_cell_length_a 30.318376
_cell_length_b 9.446663
_cell_length_c 8.483969
_cell_angle_alpha 90.000000
_cell_angle_beta 90.000000
_cell_angle_gamma 90.000000
_cell_volume 2429.872188
_symmetry_space_group_name_H-M "P C C M"
_symmetry_group_IT_number 49
_symmetry_cell_setting 'orthorhombic'
loop_
_space_group_symop_operation_xyz
x,y,z
-x,-y,z
x,-y,1/2-z
-x,y,1/2-z
-x,-y,-z
x,y,-z
-x,y,1/2+z
x,-y,1/2+z
loop_
_atom_site_type_symbol
_atom_site_label
_atom_site_fract_x
_atom_site_fract_y
_atom_site_fract_z
Si Si1 0.951627 0.849802 0.314104
Si Si2 0.622987 0.350538 0.314363
Si Si3 0.545361 0.843657 0.813449
Si Si4 0.797971 0.841899 0.313875
Si Si5 0.722841 0.653697 0.187395
Si Si6 0.876869 0.343344 0.314275
O O1 0.953323 0.859484 0.500000
O O2 0.920496 0.722483 0.261834
O O3 0.000000 0.816991 0.250000
O O4 0.933524 0.000000 0.250000
O O5 0.607412 0.500000 0.250000
O O6 0.621351 0.355653 0.500000
O O7 0.588087 0.238060 0.247218
O O8 0.672631 0.314266 0.259508
O O9 0.500000 0.773328 0.750000
O O10 0.549729 0.000000 0.750000
O O11 0.544031 0.843558 0.000000
O O12 0.806058 0.841152 0.500000
O O13 0.750917 0.774829 0.271739
O O14 0.835102 0.750820 0.228750
O O15 0.799804 0.000000 0.250000
O O16 0.737804 0.500000 0.250000
O O17 0.729497 0.659465 0.000000
O O18 0.869319 0.500000 0.250000
O O19 0.882889 0.348703 0.500000
#
# Coordination Sequence:
#
# PCOD8203751 Si02
#       6
#     8   8   8   8   8   8
#     4  11  22  40  64  93 125 162 202 246 295 348
#     4   9  20  36  56  81 111 144 184 227 276 332
#     4  10  20  35  53  77 106 142 183 228 277 332
#     4  12  25  42  62  88 118 153 193 239 288 342
#     4  10  20  38  60  85 115 150 188 232 282 340
#     4  12  25  43  64  90 121 158 199 244 293 347
#
# _framework density 19.754124999999998
#
# number of rings (size 3 to 8) (size 9 to 14) (size 15 to 20)
#    0.000    1.333    0.000    7.500    0.000    3.333 
#    0.000    5.000    0.000    0.000    0.000    0.000 
#    0.000    0.000    0.000    0.000    0.000    0.000 
#
# Total GULP energy -595368.198431 kJ/mol
# GULP energy per Si atom -12403.504134 kJ/mol
# Density = 1.970916 g / cm^3
# Si number density = 19.754125 Si / 1000 Ang^3
#
#
#
# Elastic Constant Matrix: (Units=GPa)
#
#
# Indices 1 2 3 4 5 6 
#
# 1 120.2490 75.0249 30.9382 0.0000 0.0000 0.0000
# 2 75.0249 132.0960 30.3451 0.0000 0.0000 0.0000
# 3 30.9382 30.3451 107.5252 0.0000 0.0000 0.0000
# 4 0.0000 0.0000 0.0000 35.1654 0.0000 0.0000
# 5 0.0000 0.0000 0.0000 0.0000 38.7896 0.0000
# 6 0.0000 0.0000 0.0000 0.0000 0.0000 50.5200
#
#
#
# Elastic Compliance Matrix: (Units=1/GPa)
#
#
# Indices 1 2 3 4 5 6 
#
# 1 0.013198 -0.007083 -0.001799 0.000000 0.000000 0.000000
# 2 -0.007083 0.011896 -0.001319 0.000000 0.000000 0.000000
# 3 -0.001799 -0.001319 0.010190 0.000000 0.000000 0.000000
# 4 0.000000 0.000000 0.000000 0.028437 0.000000 0.000000
# 5 0.000000 0.000000 0.000000 0.000000 0.025780 0.000000
# 6 0.000000 0.000000 0.000000 0.000000 0.000000 0.019794
#
#
# Mechanical properties :
#
#
# Convention : Reuss Voigt Hill
#
# Bulk Modulus (GPa) = 67.19222 70.27629 68.73426
# Shear Modulus (GPa) = 37.13141 39.79912 38.46527
#
# Velocity S-wave (km/s) = 4.34023 4.49344 4.41750
# Velocity P-wave (km/s) = 7.69447 7.91038 7.80317
#
# Compressibility (1/GPa) = 0.01488268
#
# Stress axis : x y z
#
# Youngs Moduli (GPa) = 75.77056 84.06227 98.13560
#
# Poissons Ratio (x) = 0.59538 0.17650
# Poissons Ratio (y) = 0.53665 0.12947
# Poissons Ratio (z) = 0.13628 0.11091
#
# Static dielectric constant tensor:
#      x y z
#    x 4.093880 0.000000 0.000000 
#    y 0.000000 3.758030 0.000000 
#    z 0.000000 0.000000 3.724170 
# 
# 
# High freq. dielectric constant tensor:
#      x y z
#    x 1.785930 0.000000 0.000000 
#    y 0.000000 1.770940 0.000000 
#    z 0.000000 0.000000 1.785670 
# 
# From -- ./inp_files/6852.got.cif
#   From: 2010.03.12/outbox.cif.g09.slc.cpg/sg49_4_cif.got.tgz:6852.got - 2010.04.14 03:58:27.
