data_PCOD8203458
_publ_section_title
;
Structure prediction by ZEFSAII (Michael W. Deem and Ramdas Pophale) SiO2 
 PCOD8203458
Probable space group: P C C M
;
_chemical_formula_sum "Si O2"
_cell_formula_units_Z 56
_cell_length_a 29.972950
_cell_length_b 13.501619
_cell_length_c 8.963534
_cell_angle_alpha 90.000000
_cell_angle_beta 90.000000
_cell_angle_gamma 90.000000
_cell_volume 3627.392978
_symmetry_space_group_name_H-M "P C C M"
_symmetry_group_IT_number 49
_symmetry_cell_setting 'orthorhombic'
loop_
_space_group_symop_operation_xyz
x,y,z
-x,-y,z
x,-y,1/2-z
-x,y,1/2-z
-x,-y,-z
x,y,-z
-x,y,1/2+z
x,-y,1/2+z
loop_
_atom_site_type_symbol
_atom_site_label
_atom_site_fract_x
_atom_site_fract_y
_atom_site_fract_z
Si Si1 0.903417 0.599554 0.326190
Si Si2 0.733698 0.394145 0.674737
Si Si3 0.637641 0.395665 0.326755
Si Si4 0.823534 0.298559 0.673769
Si Si5 0.871253 0.099847 0.324541
Si Si6 0.457683 0.607886 0.324100
Si Si7 0.952873 0.201151 0.175520
O O1 0.921781 0.500000 0.250000
O O2 0.898509 0.580347 0.500000
O O3 0.854888 0.626657 0.263500
O O4 0.938437 0.686294 0.290098
O O5 0.740728 0.500000 0.750000
O O6 0.736737 0.413744 0.500000
O O7 0.685116 0.344045 0.716547
O O8 0.772550 0.318419 0.724325
O O9 0.637604 0.500000 0.250000
O O10 0.637046 0.418526 0.500000
O O11 0.590663 0.339060 0.287797
O O12 0.831321 0.320338 0.500000
O O13 0.835122 0.184983 0.711549
O O14 0.878232 0.085324 0.500000
O O15 0.918347 0.125728 0.249708
O O16 0.852497 0.000000 0.250000
O O17 0.456099 0.500000 0.250000
O O18 0.500000 0.666195 0.250000
O O19 0.465868 0.599667 0.500000
O O20 0.000000 0.180541 0.250000
O O21 0.955078 0.180063 0.000000
#
# Coordination Sequence:
#
# PCOD8203458 Si02
#       7
#     8   8   8   8   8   8   8
#     4  10  20  32  47  66  90 117 143 169 198 232
#     4   9  16  26  39  57  80 106 134 165 199 235
#     4   8  14  22  31  44  65  92 124 160 197 232
#     4   9  18  31  47  65  85 108 136 168 202 239
#     4  10  20  35  53  71  89 109 133 164 200 240
#     4   9  14  19  27  39  56  83 119 160 199 231
#     4  10  21  36  52  71  92 114 139 168 199 234
#
# _framework density 15.438084
#
# number of rings (size 3 to 8) (size 9 to 14) (size 15 to 20)
#    0.000    2.714    0.000    2.571    0.000    5.143 
#    0.000    2.857    0.000    0.000    0.000    0.000 
#    0.000    0.000    0.000    0.000    0.000    0.714 
#
# Total GULP energy -693758.880283 kJ/mol
# GULP energy per Si atom -12388.551434 kJ/mol
# Density = 1.540295 g / cm^3
# Si number density = 15.438084 Si / 1000 Ang^3
#
#
#
# Elastic Constant Matrix: (Units=GPa)
#
#
# Indices 1 2 3 4 5 6 
#
# 1 146.2366 29.4037 34.3830 0.0000 0.0000 0.0000
# 2 29.4037 57.9249 22.8511 0.0000 0.0000 0.0000
# 3 34.3830 22.8511 55.4594 0.0000 0.0000 0.0000
# 4 0.0000 0.0000 0.0000 19.8940 0.0000 0.0000
# 5 0.0000 0.0000 0.0000 0.0000 23.6218 0.0000
# 6 0.0000 0.0000 0.0000 0.0000 0.0000 7.7680
#
#
#
# Elastic Compliance Matrix: (Units=1/GPa)
#
#
# Indices 1 2 3 4 5 6 
#
# 1 0.008324 -0.002615 -0.004083 0.000000 0.000000 0.000000
# 2 -0.002615 0.021436 -0.007211 0.000000 0.000000 0.000000
# 3 -0.004083 -0.007211 0.023534 0.000000 0.000000 0.000000
# 4 0.000000 0.000000 0.000000 0.050266 0.000000 0.000000
# 5 0.000000 0.000000 0.000000 0.000000 0.042334 0.000000
# 6 0.000000 0.000000 0.000000 0.000000 0.000000 0.128734
#
#
# Mechanical properties :
#
#
# Convention : Reuss Voigt Hill
#
# Bulk Modulus (GPa) = 39.25351 48.09960 43.67655
# Shear Modulus (GPa) = 16.08036 21.78895 18.93466
#
# Velocity S-wave (km/s) = 3.23089 3.76090 3.50593
# Velocity P-wave (km/s) = 6.27693 7.07696 6.68891
#
# Compressibility (1/GPa) = 0.02547543
#
# Stress axis : x y z
#
# Youngs Moduli (GPa) = 120.13446 46.65099 42.49161
#
# Poissons Ratio (x) = 0.12197 0.17351
# Poissons Ratio (y) = 0.31410 0.30642
# Poissons Ratio (z) = 0.49055 0.33642
#
# Static dielectric constant tensor:
#      x y z
#    x 3.775600 0.000000 0.000000 
#    y 0.000000 2.623050 0.000000 
#    z 0.000000 0.000000 2.858820 
# 
# 
# High freq. dielectric constant tensor:
#      x y z
#    x 1.605870 0.000000 0.000000 
#    y 0.000000 1.533270 0.000000 
#    z 0.000000 0.000000 1.605610 
# 
# From -- ./inp_files/7023.got.cif
#   From: 2010.03.12/outbox.cif.g09.slc.cpg/sg49_4_cif.got.tgz:7023.got - 2010.04.14 03:58:27.
