data_PCOD8203436
_publ_section_title
;
Structure prediction by ZEFSAII (Michael W. Deem and Ramdas Pophale) SiO2 
 PCOD8203436
Probable space group: P C C M
;
_chemical_formula_sum "Si O2"
_cell_formula_units_Z 56
_cell_length_a 12.003194
_cell_length_b 10.527564
_cell_length_c 22.134126
_cell_angle_alpha 90.000000
_cell_angle_beta 90.000000
_cell_angle_gamma 90.000000
_cell_volume 2796.965397
_symmetry_space_group_name_H-M "P C C M"
_symmetry_group_IT_number 49
_symmetry_cell_setting 'orthorhombic'
loop_
_space_group_symop_operation_xyz
x,y,z
-x,-y,z
x,-y,1/2-z
-x,y,1/2-z
-x,-y,-z
x,y,-z
-x,y,1/2+z
x,-y,1/2+z
loop_
_atom_site_type_symbol
_atom_site_label
_atom_site_fract_x
_atom_site_fract_y
_atom_site_fract_z
Si Si1 0.052661 0.868720 0.350409
Si Si2 0.774797 0.003324 0.569522
Si Si3 0.455740 0.683677 0.432291
Si Si4 0.310873 0.456574 0.567444
Si Si5 0.826281 0.249542 0.870367
Si Si6 0.768013 0.851369 0.757268
Si Si7 0.413997 0.896009 0.344594
O O1 0.119837 0.910092 0.410736
O O2 0.132547 0.803631 0.300716
O O3 0.960500 0.760377 0.364306
O O4 0.000000 0.000000 0.324019
O O5 0.748301 0.030739 0.500000
O O6 0.672059 0.036519 0.611224
O O7 0.794818 0.853403 0.578731
O O8 0.432159 0.736265 0.500000
O O9 0.571460 0.612156 0.432733
O O10 0.346799 0.599402 0.412211
O O11 0.477539 0.792458 0.383891
O O12 0.260314 0.459135 0.500000
O O13 0.218048 0.388959 0.609823
O O14 0.769065 0.220242 0.806132
O O15 0.647538 0.829190 0.788059
O O16 0.786134 0.000000 0.750000
O O17 0.500000 0.000000 0.319454
#
# Coordination Sequence:
#
# PCOD8203436 Si02
#       7
#     8   8   8   8   8   8   8
#     4   9  18  30  51  73 108 143 177 217 283 353
#     4  10  20  31  46  77 111 136 173 225 282 343
#     4   9  19  37  57  75 107 148 179 225 284 339
#     4   9  19  36  56  80 105 139 190 230 274 337
#     4  11  19  31  54  79 106 143 182 227 277 339
#     4  11  20  35  49  77 110 149 182 224 286 346
#     4  11  22  35  53  78 109 145 184 229 281 341
#
# _framework density 20.021698000000001
#
# number of rings (size 3 to 8) (size 9 to 14) (size 15 to 20)
#    0.000    2.000    4.286    3.000    0.000    5.714 
#    0.000    0.714    0.000    5.143    0.000   13.000 
#    0.000    0.000    0.000    0.000    0.000    0.000 
#
# Total GULP energy -693970.404648 kJ/mol
# GULP energy per Si atom -12392.328654 kJ/mol
# Density = 1.997613 g / cm^3
# Si number density = 20.021698 Si / 1000 Ang^3
#
#
#
# Elastic Constant Matrix: (Units=GPa)
#
#
# Indices 1 2 3 4 5 6 
#
# 1 80.3857 11.7902 30.2532 0.0000 0.0000 0.0000
# 2 11.7902 41.1331 11.5260 0.0000 0.0000 0.0000
# 3 30.2532 11.5260 77.7648 0.0000 0.0000 0.0000
# 4 0.0000 0.0000 0.0000 10.1114 0.0000 0.0000
# 5 0.0000 0.0000 0.0000 0.0000 20.3444 0.0000
# 6 0.0000 0.0000 0.0000 0.0000 0.0000 32.1289
#
#
#
# Elastic Compliance Matrix: (Units=1/GPa)
#
#
# Indices 1 2 3 4 5 6 
#
# 1 0.014867 -0.002755 -0.005375 0.000000 0.000000 0.000000
# 2 -0.002755 0.025875 -0.002763 0.000000 0.000000 0.000000
# 3 -0.005375 -0.002763 0.015360 0.000000 0.000000 0.000000
# 4 0.000000 0.000000 0.000000 0.098898 0.000000 0.000000
# 5 0.000000 0.000000 0.000000 0.000000 0.049154 0.000000
# 6 0.000000 0.000000 0.000000 0.000000 0.000000 0.031125
#
#
# Mechanical properties :
#
#
# Convention : Reuss Voigt Hill
#
# Bulk Modulus (GPa) = 29.14201 34.04695 31.59448
# Shear Modulus (GPa) = 18.62162 22.23123 20.42643
#
# Velocity S-wave (km/s) = 3.05302 3.33582 3.19754
# Velocity P-wave (km/s) = 5.19757 5.64614 5.42649
#
# Compressibility (1/GPa) = 0.03431472
#
# Stress axis : x y z
#
# Youngs Moduli (GPa) = 67.26217 38.64683 65.10373
#
# Poissons Ratio (x) = 0.10648 0.34997
# Poissons Ratio (y) = 0.18532 0.17990
# Poissons Ratio (z) = 0.36157 0.10679
#
# Static dielectric constant tensor:
#      x y z
#    x 3.847650 0.000000 0.000000 
#    y 0.000000 3.547680 0.000000 
#    z 0.000000 0.000000 4.329200 
# 
# 
# High freq. dielectric constant tensor:
#      x y z
#    x 1.785320 0.000000 0.000000 
#    y 0.000000 1.733940 0.000000 
#    z 0.000000 0.000000 1.781490 
# 
# From -- ./inp_files/20510.got.cif
#   From: 2010.03.12/outbox.cif.g09.slc.cpg/sg49_11_cif.got.tgz:20510.got - 2010.04.14 03:58:27.
