data_PCOD8203610
_publ_section_title
;
Structure prediction by ZEFSAII (Michael W. Deem and Ramdas Pophale) SiO2 
 PCOD8203610
Probable space group: P C C M
;
_chemical_formula_sum "Si O2"
_cell_formula_units_Z 40
_cell_length_a 9.704736
_cell_length_b 25.144176
_cell_length_c 8.610820
_cell_angle_alpha 90.000000
_cell_angle_beta 90.000000
_cell_angle_gamma 90.000000
_cell_volume 2101.191544
_symmetry_space_group_name_H-M "P C C M"
_symmetry_group_IT_number 49
_symmetry_cell_setting 'orthorhombic'
loop_
_space_group_symop_operation_xyz
x,y,z
-x,-y,z
x,-y,1/2-z
-x,y,1/2-z
-x,-y,-z
x,y,-z
-x,y,1/2+z
x,-y,1/2+z
loop_
_atom_site_type_symbol
_atom_site_label
_atom_site_fract_x
_atom_site_fract_y
_atom_site_fract_z
Si Si1 0.355339 0.441562 0.315395
Si Si2 0.644893 0.735824 0.182868
Si Si3 0.847333 0.356143 0.315604
Si Si4 0.644482 0.144996 0.316404
Si Si5 0.150305 0.944875 0.315768
O O1 0.329102 0.500000 0.250000
O O2 0.500000 0.418587 0.250000
O O3 0.362351 0.443045 0.500000
O O4 0.228473 0.406224 0.259380
O O5 0.500000 0.715212 0.250000
O O6 0.767258 0.697163 0.237066
O O7 0.678922 0.795375 0.243926
O O8 0.629834 0.735292 0.000000
O O9 0.850547 0.362799 0.500000
O O10 0.000000 0.352313 0.250000
O O11 0.500000 0.125207 0.250000
O O12 0.636867 0.144008 0.500000
O O13 0.758802 0.104219 0.254961
O O14 0.145190 0.948233 0.500000
O O15 0.000000 0.934705 0.250000
O O16 0.212215 0.000000 0.250000
#
# Coordination Sequence:
#
# PCOD8203610 Si02
#       5
#     8   8   8   8   8
#     4  11  22  39  62  87 114 146 185 226 269 320
#     4   9  19  36  57  79 106 139 178 220 265 318
#     4  11  23  38  56  82 114 147 183 225 272 323
#     4   9  19  35  54  78 105 136 174 219 266 316
#     4  10  20  34  52  74 103 137 176 216 261 315
#
# _framework density 19.036816000000002
#
# number of rings (size 3 to 8) (size 9 to 14) (size 15 to 20)
#    0.000    2.000    0.000    4.800    0.000    6.400 
#    0.000    4.000    0.000    0.000    0.000    0.000 
#    0.000    0.000    0.000    0.000    0.000    0.000 
#
# Total GULP energy -496062.942997 kJ/mol
# GULP energy per Si atom -12401.573575 kJ/mol
# Density = 1.899349 g / cm^3
# Si number density = 19.036816 Si / 1000 Ang^3
#
#
#
# Elastic Constant Matrix: (Units=GPa)
#
#
# Indices 1 2 3 4 5 6 
#
# 1 156.7769 97.6368 49.6280 0.0000 0.0000 0.0000
# 2 97.6368 128.4732 47.5624 0.0000 0.0000 0.0000
# 3 49.6280 47.5624 83.7621 0.0000 0.0000 0.0000
# 4 0.0000 0.0000 0.0000 26.2049 0.0000 0.0000
# 5 0.0000 0.0000 0.0000 0.0000 34.2350 0.0000
# 6 0.0000 0.0000 0.0000 0.0000 0.0000 34.4306
#
#
#
# Elastic Compliance Matrix: (Units=1/GPa)
#
#
# Indices 1 2 3 4 5 6 
#
# 1 0.012527 -0.008575 -0.002553 0.000000 0.000000 0.000000
# 2 -0.008575 0.015725 -0.003849 0.000000 0.000000 0.000000
# 3 -0.002553 -0.003849 0.015637 0.000000 0.000000 0.000000
# 4 0.000000 0.000000 0.000000 0.038161 0.000000 0.000000
# 5 0.000000 0.000000 0.000000 0.000000 0.029210 0.000000
# 6 0.000000 0.000000 0.000000 0.000000 0.000000 0.029044
#
#
# Mechanical properties :
#
#
# Convention : Reuss Voigt Hill
#
# Bulk Modulus (GPa) = 71.75888 84.29628 78.02758
# Shear Modulus (GPa) = 28.58740 30.58643 29.58691
#
# Velocity S-wave (km/s) = 3.87937 4.01271 3.94660
# Velocity P-wave (km/s) = 7.60543 8.11455 7.86411
#
# Compressibility (1/GPa) = 0.01393556
#
# Stress axis : x y z
#
# Youngs Moduli (GPa) = 79.82762 63.59112 63.95279
#
# Poissons Ratio (x) = 0.54530 0.16327
# Poissons Ratio (y) = 0.68453 0.24613
# Poissons Ratio (z) = 0.20379 0.24474
#
# Static dielectric constant tensor:
#      x y z
#    x 3.490210 0.000000 0.000000 
#    y 0.000000 3.901400 0.000000 
#    z 0.000000 0.000000 3.496820 
# 
# 
# High freq. dielectric constant tensor:
#      x y z
#    x 1.737870 0.000000 0.000000 
#    y 0.000000 1.752620 0.000000 
#    z 0.000000 0.000000 1.745430 
# 
# From -- ./inp_files/1685.got.cif
#   From: 2010.03.12/outbox.cif.g09.slc.cpg/sg49_1_cif.got.tgz:1685.got - 2010.04.14 03:58:27.
