data_PCOD8203410
_publ_section_title
;
Structure prediction by ZEFSAII (Michael W. Deem and Ramdas Pophale) SiO2 
 PCOD8203410
Probable space group: P C C M
;
_chemical_formula_sum "Si O2"
_cell_formula_units_Z 64
_cell_length_a 19.808994
_cell_length_b 11.455303
_cell_length_c 14.600984
_cell_angle_alpha 90.000000
_cell_angle_beta 90.000000
_cell_angle_gamma 90.000000
_cell_volume 3313.226502
_symmetry_space_group_name_H-M "P C C M"
_symmetry_group_IT_number 49
_symmetry_cell_setting 'orthorhombic'
loop_
_space_group_symop_operation_xyz
x,y,z
-x,-y,z
x,-y,1/2-z
-x,y,1/2-z
-x,-y,-z
x,y,-z
-x,y,1/2+z
x,-y,1/2+z
loop_
_atom_site_type_symbol
_atom_site_label
_atom_site_fract_x
_atom_site_fract_y
_atom_site_fract_z
Si Si1 0.791555 0.251088 0.602945
Si Si2 0.925135 0.868087 0.642226
Si Si3 0.236412 0.499991 0.602813
Si Si4 0.925125 0.131914 0.357769
Si Si5 0.395506 0.499987 0.105387
Si Si6 0.425503 0.307406 0.250007
Si Si7 0.791573 0.251082 0.897058
Si Si8 0.700589 0.863896 0.749989
O O1 0.761131 0.256080 0.500000
O O2 0.789899 0.380390 0.649654
O O3 0.868972 0.211541 0.595757
O O4 0.745487 0.163335 0.660741
O O5 0.914770 0.863834 0.749997
O O6 0.868990 0.788455 0.595741
O O7 0.000005 0.822448 0.615341
O O8 0.916281 0.000001 0.606744
O O9 0.208449 0.500011 0.500000
O O10 0.315942 0.499940 0.608696
O O11 0.210077 0.380384 0.649650
O O12 0.420539 0.385097 0.158182
O O13 0.420598 0.614822 0.158203
O O14 0.422001 0.499977 0.000000
O O15 0.500000 0.248903 0.250000
O O16 0.368930 0.207579 0.250053
O O17 0.745520 0.163313 0.839254
O O18 0.761142 0.256075 0.000000
O O19 0.682265 0.000000 0.750000
#
# Coordination Sequence:
#
# PCOD8203410 Si02
#       8
#     8   8   8   8   8   8   8   8
#     4  11  22  38  60  86 115 150 195 241 290 345
#     4   9  18  34  55  81 116 154 193 239 286 333
#     4   9  19  35  59  87 113 147 185 233 293 340
#     4   9  18  34  55  81 116 154 193 239 286 333
#     4  10  19  38  64  92 121 147 186 242 289 335
#     4  11  24  39  61  92 119 153 195 230 285 352
#     4  11  22  38  60  86 115 150 195 241 290 345
#     4  12  25  40  59  84 117 155 193 239 288 334
#
# _framework density 19.316517000000001
#
# number of rings (size 3 to 8) (size 9 to 14) (size 15 to 20)
#    0.000    1.750    3.750    2.250    0.000    4.250 
#    0.000    1.875    0.000    3.750    0.000    3.500 
#    0.000    0.000    0.000    0.000    0.000    0.000 
#
# Total GULP energy -793327.438289 kJ/mol
# GULP energy per Si atom -12395.741223 kJ/mol
# Density = 1.927255 g / cm^3
# Si number density = 19.316517 Si / 1000 Ang^3
#
#
#
# Elastic Constant Matrix: (Units=GPa)
#
#
# Indices 1 2 3 4 5 6 
#
# 1 137.7439 64.1001 28.1526 0.0000 0.0000 0.0000
# 2 64.1001 127.0545 35.0031 0.0000 0.0000 0.0000
# 3 28.1526 35.0031 102.7650 0.0000 0.0000 0.0000
# 4 0.0000 0.0000 0.0000 18.0589 0.0000 0.0000
# 5 0.0000 0.0000 0.0000 0.0000 16.8950 0.0000
# 6 0.0000 0.0000 0.0000 0.0000 0.0000 32.2754
#
#
#
# Elastic Compliance Matrix: (Units=1/GPa)
#
#
# Indices 1 2 3 4 5 6 
#
# 1 0.009595 -0.004543 -0.001081 0.000000 0.000000 0.000000
# 2 -0.004543 0.010837 -0.002447 0.000000 0.000000 0.000000
# 3 -0.001081 -0.002447 0.010860 0.000000 0.000000 0.000000
# 4 0.000000 0.000000 0.000000 0.055374 0.000000 0.000000
# 5 0.000000 0.000000 0.000000 0.000000 0.059189 0.000000
# 6 0.000000 0.000000 0.000000 0.000000 0.000000 0.030983
#
#
# Mechanical properties :
#
#
# Convention : Reuss Voigt Hill
#
# Bulk Modulus (GPa) = 66.00339 69.11947 67.56143
# Shear Modulus (GPa) = 25.24868 29.46636 27.35752
#
# Velocity S-wave (km/s) = 3.61931 3.90994 3.76743
# Velocity P-wave (km/s) = 7.19093 7.49958 7.34688
#
# Compressibility (1/GPa) = 0.01515074
#
# Stress axis : x y z
#
# Youngs Moduli (GPa) = 104.22242 92.28022 92.07717
#
# Poissons Ratio (x) = 0.41921 0.09955
# Poissons Ratio (y) = 0.47347 0.22527
# Poissons Ratio (z) = 0.11268 0.22577
#
# Static dielectric constant tensor:
#      x y z
#    x 3.597490 0.000000 0.000000 
#    y 0.000000 3.585410 0.000000 
#    z 0.000000 0.000000 3.634640 
# 
# 
# High freq. dielectric constant tensor:
#      x y z
#    x 1.750840 0.000000 0.000000 
#    y 0.000000 1.736490 0.000000 
#    z 0.000000 0.000000 1.757130 
# 
# From -- ./inp_files/14208.got.cif
#   From: 2010.03.12/outbox.cif.g09.slc.cpg/sg49_8_cif.got.tgz:14208.got - 2010.04.14 03:58:27.
