data_PCOD8203866
_publ_section_title
;
Structure prediction by ZEFSAII (Michael W. Deem and Ramdas Pophale) SiO2 
 PCOD8203866
Probable space group: P C C M
;
_chemical_formula_sum "Si O2"
_cell_formula_units_Z 56
_cell_length_a 15.323056
_cell_length_b 20.606208
_cell_length_c 8.455857
_cell_angle_alpha 90.000000
_cell_angle_beta 90.000000
_cell_angle_gamma 90.000000
_cell_volume 2669.937517
_symmetry_space_group_name_H-M "P C C M"
_symmetry_group_IT_number 49
_symmetry_cell_setting 'orthorhombic'
loop_
_space_group_symop_operation_xyz
x,y,z
-x,-y,z
x,-y,1/2-z
-x,y,1/2-z
-x,-y,-z
x,y,-z
-x,y,1/2+z
x,-y,1/2+z
loop_
_atom_site_type_symbol
_atom_site_label
_atom_site_fract_x
_atom_site_fract_y
_atom_site_fract_z
Si Si1 0.281887 0.677991 0.686309
Si Si2 0.915942 0.827914 0.817921
Si Si3 0.814685 0.064355 0.819026
Si Si4 0.908093 0.689926 0.682527
Si Si5 0.590401 0.209663 0.685419
Si Si6 0.370639 0.063761 0.811938
Si Si7 0.592959 0.570249 0.685182
O O1 0.291374 0.671836 0.500000
O O2 0.180084 0.668077 0.729114
O O3 0.325845 0.746970 0.743662
O O4 0.332250 0.619993 0.768680
O O5 0.834518 0.874374 0.792870
O O6 0.910357 0.766873 0.702465
O O7 0.000000 0.867102 0.750000
O O8 0.921554 0.805667 0.000000
O O9 0.712501 0.056087 0.801125
O O10 0.862318 0.000000 0.750000
O O11 0.842595 0.075779 0.000000
O O12 0.901104 0.670392 0.500000
O O13 0.000000 0.660024 0.750000
O O14 0.500000 0.240140 0.750000
O O15 0.587700 0.214273 0.500000
O O16 0.591728 0.133979 0.738517
O O17 0.426679 0.000000 0.750000
O O18 0.352313 0.061224 0.000000
O O19 0.618964 0.500000 0.750000
O O20 0.500000 0.594452 0.750000
O O21 0.585072 0.565101 0.500000
#
# Coordination Sequence:
#
# PCOD8203866 Si02
#       7
#     8   8   8   8   8   8   8
#     4  11  22  39  62  91 125 163 203 253 307 361
#     4  11  21  35  52  73 101 135 175 226 285 350
#     4  11  21  34  51  72  95 127 170 222 282 349
#     4  11  22  38  60  88 118 155 198 245 297 354
#     4  10  23  38  56  81 114 151 193 243 300 357
#     4  10  20  36  54  75 101 139 186 236 290 349
#     4  11  22  39  63  95 132 173 214 255 301 360
#
# _framework density 20.974273
#
# number of rings (size 3 to 8) (size 9 to 14) (size 15 to 20)
#    0.000    1.286    0.000    9.429    0.000    5.143 
#    0.000    2.857    0.000    0.429    0.000    3.000 
#    0.000    0.000    0.000    0.000    0.000    0.000 
#
# Total GULP energy -693859.720543 kJ/mol
# GULP energy per Si atom -12390.352153 kJ/mol
# Density = 2.092654 g / cm^3
# Si number density = 20.974273 Si / 1000 Ang^3
#
#
#
# Elastic Constant Matrix: (Units=GPa)
#
#
# Indices 1 2 3 4 5 6 
#
# 1 108.2134 46.2979 22.1562 0.0000 0.0000 0.0000
# 2 46.2979 90.0221 29.8208 0.0000 0.0000 0.0000
# 3 22.1562 29.8208 109.4407 0.0000 0.0000 0.0000
# 4 0.0000 0.0000 0.0000 -99.0598 0.0000 0.0000
# 5 0.0000 0.0000 0.0000 0.0000 33.7823 0.0000
# 6 0.0000 0.0000 0.0000 0.0000 0.0000 -28.5876
#
#
#
# Elastic Compliance Matrix: (Units=1/GPa)
#
#
# Indices 1 2 3 4 5 6 
#
# 1 0.011914 -0.005857 -0.000816 0.000000 0.000000 0.000000
# 2 -0.005857 0.015090 -0.002926 0.000000 0.000000 0.000000
# 3 -0.000816 -0.002926 0.010100 0.000000 0.000000 0.000000
# 4 0.000000 0.000000 0.000000 -0.010095 0.000000 0.000000
# 5 0.000000 0.000000 0.000000 0.000000 0.029601 0.000000
# 6 0.000000 0.000000 0.000000 0.000000 0.000000 -0.034980
#
#
# Mechanical properties :
#
#
# Convention : Reuss Voigt Hill
#
# Bulk Modulus (GPa) = 55.84828 56.02510 55.93669
# Shear Modulus (GPa) = 106.84597 -4.81294 51.01651
#
# Velocity S-wave (km/s) = 7.14507 -1.51647 4.93722
# Velocity P-wave (km/s) = 9.73418 4.86858 7.69602
#
# Compressibility (1/GPa) = 0.01790565
#
# Stress axis : x y z
#
# Youngs Moduli (GPa) = 83.93556 66.26974 99.01124
#
# Poissons Ratio (x) = 0.38814 0.08080
# Poissons Ratio (y) = 0.49160 0.28971
# Poissons Ratio (z) = 0.06849 0.19391
#
# Static dielectric constant tensor:
#      x y z
#    x 4.283030 0.000000 0.000000 
#    y 0.000000 3.900290 0.000000 
#    z 0.000000 0.000000 3.699820 
# 
# 
# High freq. dielectric constant tensor:
#      x y z
#    x 1.824930 0.000000 0.000000 
#    y 0.000000 1.802110 0.000000 
#    z 0.000000 0.000000 1.829090 
# 
# From -- ./inp_files/4086.got.cif
#   From: 2010.03.12/outbox.cif.g09.slc.cpg/sg49_3_cif.got.tgz:4086.got - 2010.04.14 03:58:27.
