data_PCOD8203814
_publ_section_title
;
Structure prediction by ZEFSAII (Michael W. Deem and Ramdas Pophale) SiO2 
 PCOD8203814
Probable space group: P C C M
;
_chemical_formula_sum "Si O2"
_cell_formula_units_Z 40
_cell_length_a 23.825728
_cell_length_b 8.999254
_cell_length_c 9.667327
_cell_angle_alpha 90.000000
_cell_angle_beta 90.000000
_cell_angle_gamma 90.000000
_cell_volume 2072.808105
_symmetry_space_group_name_H-M "P C C M"
_symmetry_group_IT_number 49
_symmetry_cell_setting 'orthorhombic'
loop_
_space_group_symop_operation_xyz
x,y,z
-x,-y,z
x,-y,1/2-z
-x,y,1/2-z
-x,-y,-z
x,y,-z
-x,y,1/2+z
x,-y,1/2+z
loop_
_atom_site_type_symbol
_atom_site_label
_atom_site_fract_x
_atom_site_fract_y
_atom_site_fract_z
Si Si1 0.651187 0.135590 0.657334
Si Si2 0.550071 0.651504 0.834974
Si Si3 0.222182 0.138936 0.158522
Si Si4 0.120500 0.676205 0.262899
Si Si5 0.922473 0.154332 0.000000
Si Si6 0.055150 0.182552 0.000000
O O1 0.648561 0.080613 0.500000
O O2 0.609312 0.269784 0.684109
O O3 0.714255 0.186857 0.697058
O O4 0.630903 0.000000 0.750000
O O5 0.556606 0.500000 0.750000
O O6 0.500000 0.737593 0.750000
O O7 0.536115 0.631548 0.000000
O O8 0.182511 0.280013 0.185262
O O9 0.202184 0.000000 0.250000
O O10 0.217886 0.088474 0.000000
O O11 0.118371 0.500000 0.250000
O O12 0.107223 0.765883 0.125931
O O13 0.072320 0.724127 0.367539
O O14 0.988827 0.172952 0.000000
O O15 0.912428 0.976422 0.000000
#
# Coordination Sequence:
#
# PCOD8203814 Si02
#       6
#     8   8   8   8   4   4
#     4   9  20  37  58  85 114 150 194 243 289 341
#     4  10  20  35  56  82 116 156 198 242 294 351
#     4  10  21  40  63  85 115 155 199 240 290 356
#     4  12  25  39  61  91 123 153 191 247 302 348
#     4  11  25  41  67  87 117 155 204 233 294 357
#     4  11  23  45  63  89 115 159 198 243 282 361
#
# _framework density 19.297492999999999
#
# number of rings (size 3 to 8) (size 9 to 14) (size 15 to 20)
#    0.000    1.600    1.000    4.200    1.400    6.800 
#    0.000    2.000    0.000    0.000    0.000    0.000 
#    0.000    0.000    0.000    0.000    0.000    0.000 
#
# Total GULP energy -495845.609572 kJ/mol
# GULP energy per Si atom -12396.140239 kJ/mol
# Density = 1.925357 g / cm^3
# Si number density = 19.297493 Si / 1000 Ang^3
#
#
#
# Elastic Constant Matrix: (Units=GPa)
#
#
# Indices 1 2 3 4 5 6 
#
# 1 88.4002 40.8213 32.6557 0.0000 0.0000 0.0000
# 2 40.8213 113.2960 44.0119 0.0000 0.0000 0.0000
# 3 32.6557 44.0119 125.8014 0.0000 0.0000 0.0000
# 4 0.0000 0.0000 0.0000 32.4728 0.0000 0.0000
# 5 0.0000 0.0000 0.0000 0.0000 30.1065 0.0000
# 6 0.0000 0.0000 0.0000 0.0000 0.0000 32.4400
#
#
#
# Elastic Compliance Matrix: (Units=1/GPa)
#
#
# Indices 1 2 3 4 5 6 
#
# 1 0.014065 -0.004224 -0.002174 0.000000 0.000000 0.000000
# 2 -0.004224 0.011483 -0.002921 0.000000 0.000000 0.000000
# 3 -0.002174 -0.002921 0.009535 0.000000 0.000000 0.000000
# 4 0.000000 0.000000 0.000000 0.030795 0.000000 0.000000
# 5 0.000000 0.000000 0.000000 0.000000 0.033215 0.000000
# 6 0.000000 0.000000 0.000000 0.000000 0.000000 0.030826
#
#
# Mechanical properties :
#
#
# Convention : Reuss Voigt Hill
#
# Bulk Modulus (GPa) = 60.79965 62.49728 61.64846
# Shear Modulus (GPa) = 32.45939 33.00443 32.73191
#
# Velocity S-wave (km/s) = 4.10573 4.14006 4.12293
# Velocity P-wave (km/s) = 7.35193 7.43707 7.39462
#
# Compressibility (1/GPa) = 0.01644746
#
# Stress axis : x y z
#
# Youngs Moduli (GPa) = 71.09625 87.08600 104.87511
#
# Poissons Ratio (x) = 0.36781 0.22795
# Poissons Ratio (y) = 0.30028 0.30634
# Poissons Ratio (z) = 0.15453 0.25438
#
# Static dielectric constant tensor:
#      x y z
#    x 3.978090 0.000000 0.000000 
#    y 0.000000 3.392530 0.000000 
#    z 0.000000 0.000000 3.720950 
# 
# 
# High freq. dielectric constant tensor:
#      x y z
#    x 1.768950 0.000000 0.000000 
#    y 0.000000 1.733700 0.000000 
#    z 0.000000 0.000000 1.769960 
# 
# From -- ./inp_files/6678.got.cif
#   From: 2010.03.12/outbox.cif.g09.slc.cpg/sg49_4_cif.got.tgz:6678.got - 2010.04.14 03:58:27.
