data_PCOD8203046
_publ_section_title
;
Structure prediction by ZEFSAII (Michael W. Deem and Ramdas Pophale) SiO2 
 PCOD8203046
Probable space group: P C C M
;
_chemical_formula_sum "Si O2"
_cell_formula_units_Z 60
_cell_length_a 15.751673
_cell_length_b 21.818281
_cell_length_c 9.399155
_cell_angle_alpha 90.000000
_cell_angle_beta 90.000000
_cell_angle_gamma 90.000000
_cell_volume 3230.249216
_symmetry_space_group_name_H-M "P C C M"
_symmetry_group_IT_number 49
_symmetry_cell_setting 'orthorhombic'
loop_
_space_group_symop_operation_xyz
x,y,z
-x,-y,z
x,-y,1/2-z
-x,y,1/2-z
-x,-y,-z
x,y,-z
-x,y,1/2+z
x,-y,1/2+z
loop_
_atom_site_type_symbol
_atom_site_label
_atom_site_fract_x
_atom_site_fract_y
_atom_site_fract_z
Si Si1 0.583238 0.144096 0.163957
Si Si2 0.000000 0.643833 0.750000
Si Si3 0.855928 0.559551 0.156686
Si Si4 0.583849 0.286258 0.166752
Si Si5 0.918649 0.124921 0.834699
Si Si6 0.743103 0.937530 0.332105
Si Si7 0.128663 0.738443 0.842311
Si Si8 0.739412 0.668989 0.831861
O O1 0.500000 0.122590 0.250000
O O2 0.604490 0.214997 0.191828
O O3 0.666401 0.107280 0.213396
O O4 0.562064 0.131827 0.000000
O O5 0.059326 0.600473 0.655365
O O6 0.055257 0.687310 0.852269
O O7 0.865242 0.500000 0.250000
O O8 0.777190 0.602017 0.203342
O O9 0.840575 0.534223 0.000000
O O10 0.500000 0.305176 0.250000
O O11 0.654741 0.327608 0.240396
O O12 0.575783 0.302056 0.000000
O O13 0.832765 0.091348 0.784095
O O14 0.910351 0.196596 0.799592
O O15 0.000000 0.098463 0.750000
O O16 0.935423 0.112961 0.000000
O O17 0.741876 0.949482 0.500000
O O18 0.728219 0.000000 0.250000
O O19 0.197201 0.721779 0.722834
O O20 0.171338 0.742616 0.000000
O O21 0.723932 0.678825 0.000000
#
# Coordination Sequence:
#
# PCOD8203046 Si02
#       8
#     8   4   8   8   8   8   8   8
#     4   9  19  36  58  84 114 142 173 215 268 331
#     4  10  19  32  54  80 107 136 178 222 270 322
#     4  10  22  36  51  74 106 144 184 224 262 310
#     4  10  19  34  58  86 114 142 173 213 268 325
#     4  10  21  37  56  78 105 140 182 230 280 329
#     4  10  22  39  56  76 106 143 185 228 270 323
#     4  10  19  33  54  78 107 140 175 219 276 330
#     4  10  21  35  52  78 110 143 182 224 265 315
#
# _framework density 18.574418999999999
#
# number of rings (size 3 to 8) (size 9 to 14) (size 15 to 20)
#    0.000    2.133    0.667    2.200    0.000    9.067 
#    0.000    4.000    0.000    0.400    0.000    2.800 
#    0.000    0.000    0.000    0.000    0.000    0.000 
#
# Total GULP energy -743984.972261 kJ/mol
# GULP energy per Si atom -12399.749538 kJ/mol
# Density = 1.853214 g / cm^3
# Si number density = 18.574419 Si / 1000 Ang^3
#
#
#
# Elastic Constant Matrix: (Units=GPa)
#
#
# Indices 1 2 3 4 5 6 
#
# 1 137.7078 42.7122 48.8847 0.0000 0.0000 0.0000
# 2 42.7122 62.1475 25.7821 0.0000 0.0000 0.0000
# 3 48.8847 25.7821 72.3379 0.0000 0.0000 0.0000
# 4 0.0000 0.0000 0.0000 24.8129 0.0000 0.0000
# 5 0.0000 0.0000 0.0000 0.0000 34.7206 0.0000
# 6 0.0000 0.0000 0.0000 0.0000 0.0000 16.9134
#
#
#
# Elastic Compliance Matrix: (Units=1/GPa)
#
#
# Indices 1 2 3 4 5 6 
#
# 1 0.010800 -0.005157 -0.005460 0.000000 0.000000 0.000000
# 2 -0.005157 0.021345 -0.004123 0.000000 0.000000 0.000000
# 3 -0.005460 -0.004123 0.018983 0.000000 0.000000 0.000000
# 4 0.000000 0.000000 0.000000 0.040302 0.000000 0.000000
# 5 0.000000 0.000000 0.000000 0.000000 0.028801 0.000000
# 6 0.000000 0.000000 0.000000 0.000000 0.000000 0.059125
#
#
# Mechanical properties :
#
#
# Convention : Reuss Voigt Hill
#
# Bulk Modulus (GPa) = 46.19274 56.32791 51.26033
# Shear Modulus (GPa) = 23.14258 25.61031 24.37645
#
# Velocity S-wave (km/s) = 3.53361 3.71724 3.62659
# Velocity P-wave (km/s) = 6.44760 6.98679 6.72260
#
# Compressibility (1/GPa) = 0.02164842
#
# Stress axis : x y z
#
# Youngs Moduli (GPa) = 92.59610 46.84856 52.67811
#
# Poissons Ratio (x) = 0.24160 0.28763
# Poissons Ratio (y) = 0.47753 0.21717
# Poissons Ratio (z) = 0.50559 0.19314
#
# Static dielectric constant tensor:
#      x y z
#    x 3.531390 0.000000 0.000000 
#    y 0.000000 3.279000 0.000000 
#    z 0.000000 0.000000 3.381990 
# 
# 
# High freq. dielectric constant tensor:
#      x y z
#    x 1.724600 0.000000 0.000000 
#    y 0.000000 1.707570 0.000000 
#    z 0.000000 0.000000 1.722630 
# 
# From -- ./inp_files/4249.got.cif
#   From: 2010.03.12/outbox.cif.g09.slc.cpg/sg49_3_cif.got.tgz:4249.got - 2010.04.14 03:58:27.
