data_PCOD8203148
_publ_section_title
;
Structure prediction by ZEFSAII (Michael W. Deem and Ramdas Pophale) SiO2 
 PCOD8203148
Probable space group: P C C M
;
_chemical_formula_sum "Si O2"
_cell_formula_units_Z 56
_cell_length_a 32.024057
_cell_length_b 5.077081
_cell_length_c 16.807065
_cell_angle_alpha 90.000000
_cell_angle_beta 90.000000
_cell_angle_gamma 90.000000
_cell_volume 2732.639376
_symmetry_space_group_name_H-M "P C C M"
_symmetry_group_IT_number 49
_symmetry_cell_setting 'orthorhombic'
loop_
_space_group_symop_operation_xyz
x,y,z
-x,-y,z
x,-y,1/2-z
-x,y,1/2-z
-x,-y,-z
x,y,-z
-x,y,1/2+z
x,-y,1/2+z
loop_
_atom_site_type_symbol
_atom_site_label
_atom_site_fract_x
_atom_site_fract_y
_atom_site_fract_z
Si Si1 0.303122 0.754644 0.803042
Si Si2 0.525113 0.749434 0.594092
Si Si3 0.098068 0.990875 0.591311
Si Si4 0.185663 0.068157 0.158998
Si Si5 0.603406 0.241736 0.802789
Si Si6 0.771212 0.415648 0.908029
Si Si7 0.045619 0.476415 0.590903
O O1 0.304698 0.500000 0.750000
O O2 0.349735 0.813724 0.835770
O O3 0.272936 0.694573 0.876572
O O4 0.286581 0.000000 0.750000
O O5 0.500000 0.500000 0.627189
O O6 0.527207 0.751620 0.500000
O O7 0.572689 0.736795 0.622835
O O8 0.500000 0.000000 0.627093
O O9 0.112872 0.033841 0.500000
O O10 0.136634 0.891240 0.644745
O O11 0.064496 0.763034 0.597513
O O12 0.076523 0.254564 0.628268
O O13 0.212490 0.327309 0.138398
O O14 0.195423 0.000000 0.250000
O O15 0.196464 0.821465 0.102807
O O16 0.601766 0.500000 0.750000
O O17 0.587926 0.000000 0.750000
O O18 0.766536 0.491254 0.000000
O O19 0.039203 0.383809 0.500000
O O20 0.000000 0.500000 0.632598
#
# Coordination Sequence:
#
# PCOD8203148 Si02
#       7
#     8   8   8   8   8   8   8
#     4  10  21  39  60  84 117 152 188 233 293 353
#     4  10  21  36  54  79 113 151 190 237 291 341
#     4  10  19  33  54  80 111 145 188 238 278 329
#     4  12  25  41  61  86 120 159 194 235 295 354
#     4  10  21  36  57  84 112 148 191 235 282 342
#     4  12  24  40  63  90 116 149 197 244 288 344
#     4   9  17  30  52  81 110 143 185 233 283 331
#
# _framework density 20.493009000000001
#
# number of rings (size 3 to 8) (size 9 to 14) (size 15 to 20)
#    0.000    1.571    0.000    6.000    0.000    5.143 
#    0.000    0.000    0.000   11.143    0.000    0.000 
#    0.000    0.000    0.000    0.000    0.000    0.000 
#
# Total GULP energy -694424.189376 kJ/mol
# GULP energy per Si atom -12400.431953 kJ/mol
# Density = 2.044637 g / cm^3
# Si number density = 20.493009 Si / 1000 Ang^3
#
#
#
# Elastic Constant Matrix: (Units=GPa)
#
#
# Indices 1 2 3 4 5 6 
#
# 1 132.1205 37.7950 49.0453 0.0000 0.0000 0.0000
# 2 37.7950 141.6472 29.9309 0.0000 0.0000 0.0000
# 3 49.0453 29.9309 62.1742 0.0000 0.0000 0.0000
# 4 0.0000 0.0000 0.0000 16.2497 0.0000 0.0000
# 5 0.0000 0.0000 0.0000 0.0000 15.9837 0.0000
# 6 0.0000 0.0000 0.0000 0.0000 0.0000 37.5490
#
#
#
# Elastic Compliance Matrix: (Units=1/GPa)
#
#
# Indices 1 2 3 4 5 6 
#
# 1 0.010887 -0.001214 -0.008004 0.000000 0.000000 0.000000
# 2 -0.001214 0.007995 -0.002891 0.000000 0.000000 0.000000
# 3 -0.008004 -0.002891 0.023790 0.000000 0.000000 0.000000
# 4 0.000000 0.000000 0.000000 0.061539 0.000000 0.000000
# 5 0.000000 0.000000 0.000000 0.000000 0.062564 0.000000
# 6 0.000000 0.000000 0.000000 0.000000 0.000000 0.026632
#
#
# Mechanical properties :
#
#
# Convention : Reuss Voigt Hill
#
# Bulk Modulus (GPa) = 54.19008 63.27605 58.73307
# Shear Modulus (GPa) = 22.34384 28.56788 25.45586
#
# Velocity S-wave (km/s) = 3.30557 3.73772 3.52827
# Velocity P-wave (km/s) = 6.40857 7.04069 6.73205
#
# Compressibility (1/GPa) = 0.01845356
#
# Stress axis : x y z
#
# Youngs Moduli (GPa) = 91.85048 125.08495 42.03526
#
# Poissons Ratio (x) = 0.15182 0.33645
# Poissons Ratio (y) = 0.11148 0.12153
# Poissons Ratio (z) = 0.73517 0.36165
#
# Static dielectric constant tensor:
#      x y z
#    x 4.027780 0.000000 0.000000 
#    y 0.000000 3.972930 0.000000 
#    z 0.000000 0.000000 3.323100 
# 
# 
# High freq. dielectric constant tensor:
#      x y z
#    x 1.817610 0.000000 0.000000 
#    y 0.000000 1.822940 0.000000 
#    z 0.000000 0.000000 1.763760 
# 
# From -- ./inp_files/14623.got.cif
#   From: 2010.03.12/outbox.cif.g09.slc.cpg/sg49_8_cif.got.tgz:14623.got - 2010.04.14 03:58:27.
