data_PCOD8203207
_publ_section_title
;
Structure prediction by ZEFSAII (Michael W. Deem and Ramdas Pophale) SiO2 
 PCOD8203207
Probable space group: P C C M
;
_chemical_formula_sum "Si O2"
_cell_formula_units_Z 52
_cell_length_a 18.061955
_cell_length_b 16.154377
_cell_length_c 9.107860
_cell_angle_alpha 90.000000
_cell_angle_beta 90.000000
_cell_angle_gamma 90.000000
_cell_volume 2657.488025
_symmetry_space_group_name_H-M "P C C M"
_symmetry_group_IT_number 49
_symmetry_cell_setting 'orthorhombic'
loop_
_space_group_symop_operation_xyz
x,y,z
-x,-y,z
x,-y,1/2-z
-x,y,1/2-z
-x,-y,-z
x,y,-z
-x,y,1/2+z
x,-y,1/2+z
loop_
_atom_site_type_symbol
_atom_site_label
_atom_site_fract_x
_atom_site_fract_y
_atom_site_fract_z
Si Si1 0.925015 0.850004 0.665218
Si Si2 0.426719 0.323615 0.824016
Si Si3 0.293583 0.885170 0.341271
Si Si4 0.572238 0.854320 0.674631
Si Si5 0.186764 0.259010 0.169790
Si Si6 0.277176 0.414787 0.171760
Si Si7 0.827541 0.000000 0.750000
O O1 0.944619 0.825551 0.500000
O O2 0.882470 0.771969 0.735067
O O3 0.000000 0.868562 0.750000
O O4 0.877292 0.934213 0.663206
O O5 0.500000 0.364325 0.750000
O O6 0.415511 0.234715 0.748882
O O7 0.357572 0.380899 0.781198
O O8 0.435738 0.313726 0.000000
O O9 0.333106 0.879285 0.500000
O O10 0.355023 0.908180 0.217977
O O11 0.258647 0.796841 0.299540
O O12 0.227071 0.950832 0.358268
O O13 0.500000 0.895748 0.750000
O O14 0.563326 0.849138 0.500000
O O15 0.211520 0.351208 0.215737
O O16 0.163108 0.253788 0.000000
O O17 0.259145 0.500000 0.250000
O O18 0.276389 0.430433 0.000000
#
# Coordination Sequence:
#
# PCOD8203207 Si02
#       7
#     8   8   8   8   8   8   4
#     4  11  23  39  62  92 121 152 187 222 269 331
#     4  10  19  34  52  76 109 147 191 239 292 342
#     4  10  19  36  58  79 112 149 186 234 284 334
#     4  11  21  33  53  78 105 143 194 243 288 339
#     4   9  19  38  59  81 114 153 188 229 280 334
#     4  10  21  36  55  81 115 152 192 237 288 338
#     4  10  23  38  59  90 120 150 186 222 273 330
#
# _framework density 19.567350000000001
#
# number of rings (size 3 to 8) (size 9 to 14) (size 15 to 20)
#    0.000    1.846    1.538    3.923    0.000    7.692 
#    0.000    1.923    0.000    2.308    0.000    3.231 
#    0.000    0.000    0.000    0.000    0.000    0.000 
#
# Total GULP energy -644585.272880 kJ/mol
# GULP energy per Si atom -12395.870632 kJ/mol
# Density = 1.952281 g / cm^3
# Si number density = 19.567350 Si / 1000 Ang^3
#
#
#
# Elastic Constant Matrix: (Units=GPa)
#
#
# Indices 1 2 3 4 5 6 
#
# 1 119.9837 55.9682 65.0116 0.0000 0.0000 0.0000
# 2 55.9682 87.5482 34.0520 0.0000 0.0000 0.0000
# 3 65.0116 34.0520 122.1112 0.0000 0.0000 0.0000
# 4 0.0000 0.0000 0.0000 17.0063 0.0000 0.0000
# 5 0.0000 0.0000 0.0000 0.0000 32.8712 0.0000
# 6 0.0000 0.0000 0.0000 0.0000 0.0000 21.0587
#
#
#
# Elastic Compliance Matrix: (Units=1/GPa)
#
#
# Indices 1 2 3 4 5 6 
#
# 1 0.014919 -0.007233 -0.005926 0.000000 0.000000 0.000000
# 2 -0.007233 0.016318 -0.000700 0.000000 0.000000 0.000000
# 3 -0.005926 -0.000700 0.011539 0.000000 0.000000 0.000000
# 4 0.000000 0.000000 0.000000 0.058802 0.000000 0.000000
# 5 0.000000 0.000000 0.000000 0.000000 0.030422 0.000000
# 6 0.000000 0.000000 0.000000 0.000000 0.000000 0.047486
#
#
# Mechanical properties :
#
#
# Convention : Reuss Voigt Hill
#
# Bulk Modulus (GPa) = 66.40227 71.07853 68.74040
# Shear Modulus (GPa) = 23.56006 25.82799 24.69402
#
# Velocity S-wave (km/s) = 3.47371 3.63706 3.55632
# Velocity P-wave (km/s) = 7.07798 7.35129 7.21593
#
# Compressibility (1/GPa) = 0.01505972
#
# Stress axis : x y z
#
# Youngs Moduli (GPa) = 67.02772 61.28116 86.65946
#
# Poissons Ratio (x) = 0.44323 0.51355
# Poissons Ratio (y) = 0.48479 0.06065
# Poissons Ratio (z) = 0.39721 0.04289
#
# Static dielectric constant tensor:
#      x y z
#    x 3.706620 0.000000 0.000000 
#    y 0.000000 3.483150 0.000000 
#    z 0.000000 0.000000 3.510470 
# 
# 
# High freq. dielectric constant tensor:
#      x y z
#    x 1.762760 0.000000 0.000000 
#    y 0.000000 1.741630 0.000000 
#    z 0.000000 0.000000 1.762680 
# 
# From -- ./inp_files/5744.got.cif
#   From: 2010.03.12/outbox.cif.g09.slc.cpg/sg49_3_cif.got.tgz:5744.got - 2010.04.14 03:58:27.
