data_PCOD8203797
_publ_section_title
;
Structure prediction by ZEFSAII (Michael W. Deem and Ramdas Pophale) SiO2 
 PCOD8203797
Probable space group: P C C M
;
_chemical_formula_sum "Si O2"
_cell_formula_units_Z 40
_cell_length_a 9.661493
_cell_length_b 25.204984
_cell_length_c 8.687312
_cell_angle_alpha 90.000000
_cell_angle_beta 90.000000
_cell_angle_gamma 90.000000
_cell_volume 2115.514902
_symmetry_space_group_name_H-M "P C C M"
_symmetry_group_IT_number 49
_symmetry_cell_setting 'orthorhombic'
loop_
_space_group_symop_operation_xyz
x,y,z
-x,-y,z
x,-y,1/2-z
-x,y,1/2-z
-x,-y,-z
x,y,-z
-x,y,1/2+z
x,-y,1/2+z
loop_
_atom_site_type_symbol
_atom_site_label
_atom_site_fract_x
_atom_site_fract_y
_atom_site_fract_z
Si Si1 0.354720 0.239843 0.819589
Si Si2 0.848727 0.445632 0.182522
Si Si3 0.151600 0.849826 0.318494
Si Si4 0.647592 0.943648 0.817586
Si Si5 0.646841 0.638883 0.181854
O O1 0.500000 0.221160 0.750000
O O2 0.231851 0.202428 0.756596
O O3 0.320075 0.300291 0.774666
O O4 0.370482 0.232886 0.000000
O O5 0.783361 0.500000 0.250000
O O6 0.760745 0.395645 0.234004
O O7 0.000000 0.437245 0.250000
O O8 0.855270 0.449468 0.000000
O O9 0.137511 0.847569 0.500000
O O10 0.237166 0.901431 0.266161
O O11 0.000000 0.851994 0.250000
O O12 0.500000 0.925818 0.750000
O O13 0.694599 0.000000 0.750000
O O14 0.633710 0.947725 0.000000
O O15 0.500000 0.621629 0.250000
O O16 0.648900 0.628963 0.000000
#
# Coordination Sequence:
#
# PCOD8203797 Si02
#       5
#     8   8   8   8   8
#     4   9  19  36  57  80 107 139 178 220 265 317
#     4  11  22  38  58  81 110 145 183 223 269 322
#     4  10  22  37  53  78 109 142 178 219 265 316
#     4  10  20  35  56  80 106 137 178 220 264 316
#     4  10  20  36  57  83 112 142 179 224 271 321
#
# _framework density 18.907924999999999
#
# number of rings (size 3 to 8) (size 9 to 14) (size 15 to 20)
#    0.000    2.000    0.000    4.800    0.000    4.800 
#    0.000    6.000    0.000    0.000    0.000    0.000 
#    0.000    0.000    0.000    0.000    0.000    0.000 
#
# Total GULP energy -496082.409292 kJ/mol
# GULP energy per Si atom -12402.060232 kJ/mol
# Density = 1.886489 g / cm^3
# Si number density = 18.907925 Si / 1000 Ang^3
#
#
#
# Elastic Constant Matrix: (Units=GPa)
#
#
# Indices 1 2 3 4 5 6 
#
# 1 146.1293 98.5478 49.8570 0.0000 0.0000 0.0000
# 2 98.5478 134.6902 51.8906 0.0000 0.0000 0.0000
# 3 49.8570 51.8906 90.4180 0.0000 0.0000 0.0000
# 4 0.0000 0.0000 0.0000 28.4052 0.0000 0.0000
# 5 0.0000 0.0000 0.0000 0.0000 37.6515 0.0000
# 6 0.0000 0.0000 0.0000 0.0000 0.0000 34.7843
#
#
#
# Elastic Compliance Matrix: (Units=1/GPa)
#
#
# Indices 1 2 3 4 5 6 
#
# 1 0.013885 -0.009256 -0.002344 0.000000 0.000000 0.000000
# 2 -0.009256 0.015702 -0.003908 0.000000 0.000000 0.000000
# 3 -0.002344 -0.003908 0.014595 0.000000 0.000000 0.000000
# 4 0.000000 0.000000 0.000000 0.035205 0.000000 0.000000
# 5 0.000000 0.000000 0.000000 0.000000 0.026559 0.000000
# 6 0.000000 0.000000 0.000000 0.000000 0.000000 0.028749
#
#
# Mechanical properties :
#
#
# Convention : Reuss Voigt Hill
#
# Bulk Modulus (GPa) = 75.95115 85.75872 80.85493
# Shear Modulus (GPa) = 29.39436 31.56434 30.47935
#
# Velocity S-wave (km/s) = 3.94713 4.09023 4.01931
# Velocity P-wave (km/s) = 7.81212 8.23171 8.02466
#
# Compressibility (1/GPa) = 0.01316636
#
# Stress axis : x y z
#
# Youngs Moduli (GPa) = 72.01806 63.68487 68.51669
#
# Poissons Ratio (x) = 0.58948 0.16063
# Poissons Ratio (y) = 0.66662 0.26773
# Poissons Ratio (z) = 0.16884 0.24885
#
# Static dielectric constant tensor:
#      x y z
#    x 3.612940 0.000000 0.000000 
#    y 0.000000 3.804000 0.000000 
#    z 0.000000 0.000000 3.500600 
# 
# 
# High freq. dielectric constant tensor:
#      x y z
#    x 1.732600 0.000000 0.000000 
#    y 0.000000 1.748140 0.000000 
#    z 0.000000 0.000000 1.741570 
# 
# From -- ./inp_files/1672.got.cif
#   From: 2010.03.12/outbox.cif.g09.slc.cpg/sg49_1_cif.got.tgz:1672.got - 2010.04.14 03:58:27.
