data_PCOD8203671
_publ_section_title
;
Structure prediction by ZEFSAII (Michael W. Deem and Ramdas Pophale) SiO2 
 PCOD8203671
Probable space group: P C C M
;
_chemical_formula_sum "Si O2"
_cell_formula_units_Z 34
_cell_length_a 12.146580
_cell_length_b 13.609806
_cell_length_c 9.212366
_cell_angle_alpha 90.000000
_cell_angle_beta 90.000000
_cell_angle_gamma 90.000000
_cell_volume 1522.920151
_symmetry_space_group_name_H-M "P C C M"
_symmetry_group_IT_number 49
_symmetry_cell_setting 'orthorhombic'
loop_
_space_group_symop_operation_xyz
x,y,z
-x,-y,z
x,-y,1/2-z
-x,y,1/2-z
-x,-y,-z
x,y,-z
-x,y,1/2+z
x,-y,1/2+z
loop_
_atom_site_type_symbol
_atom_site_label
_atom_site_fract_x
_atom_site_fract_y
_atom_site_fract_z
Si Si1 0.397261 0.704377 0.669439
Si Si2 0.156268 0.663952 0.659862
Si Si3 0.099365 0.150147 0.335715
Si Si4 0.343273 0.904169 0.831022
Si Si5 0.000000 0.500000 0.250000
O O1 0.500000 0.650401 0.750000
O O2 0.424176 0.717976 0.500000
O O3 0.285526 0.641537 0.694362
O O4 0.387220 0.810593 0.745200
O O5 0.151522 0.713160 0.500000
O O6 0.110952 0.738542 0.778491
O O7 0.082620 0.565994 0.654664
O O8 0.061306 0.159257 0.500000
O O9 0.211103 0.090116 0.318414
O O10 0.000000 0.096454 0.250000
O O11 0.391350 0.000000 0.750000
O O12 0.379728 0.900976 0.000000
#
# Coordination Sequence:
#
# PCOD8203671 Si02
#       5
#     8   8   8   8   2
#     4  10  21  40  63  86 117 158 200 246 295 350
#     4  10  22  38  59  89 122 154 193 241 296 351
#     4  10  20  34  54  79 115 157 198 241 293 351
#     4  10  21  36  55  84 117 155 200 249 296 345
#     4  12  22  36  66  98 124 152 190 238 298 352
#
# _framework density 22.325530000000001
#
# number of rings (size 3 to 8) (size 9 to 14) (size 15 to 20)
#    0.000    1.882    1.176    2.471    0.000    5.647 
#    0.000    5.294    0.000    2.824    0.000    0.000 
#    0.000    0.000    0.000    0.000    0.000    0.000 
#
# Total GULP energy -421434.593010 kJ/mol
# GULP energy per Si atom -12395.135089 kJ/mol
# Density = 2.227472 g / cm^3
# Si number density = 22.325530 Si / 1000 Ang^3
#
#
#
# Elastic Constant Matrix: (Units=GPa)
#
#
# Indices 1 2 3 4 5 6 
#
# 1 144.1292 20.2730 59.2085 0.0000 0.0000 0.0000
# 2 20.2730 63.7008 21.4738 0.0000 0.0000 0.0000
# 3 59.2085 21.4738 163.3372 0.0000 0.0000 0.0000
# 4 0.0000 0.0000 0.0000 19.4118 0.0000 0.0000
# 5 0.0000 0.0000 0.0000 0.0000 35.9769 0.0000
# 6 0.0000 0.0000 0.0000 0.0000 0.0000 13.3789
#
#
#
# Elastic Compliance Matrix: (Units=1/GPa)
#
#
# Indices 1 2 3 4 5 6 
#
# 1 0.008326 -0.001708 -0.002794 0.000000 0.000000 0.000000
# 2 -0.001708 0.016777 -0.001586 0.000000 0.000000 0.000000
# 3 -0.002794 -0.001586 0.007344 0.000000 0.000000 0.000000
# 4 0.000000 0.000000 0.000000 0.051515 0.000000 0.000000
# 5 0.000000 0.000000 0.000000 0.000000 0.027796 0.000000
# 6 0.000000 0.000000 0.000000 0.000000 0.000000 0.074745
#
#
# Mechanical properties :
#
#
# Convention : Reuss Voigt Hill
#
# Bulk Modulus (GPa) = 49.33363 63.67531 56.50447
# Shear Modulus (GPa) = 24.33861 31.76762 28.05312
#
# Velocity S-wave (km/s) = 3.30535 3.77626 3.54863
# Velocity P-wave (km/s) = 6.05909 6.89904 6.49266
#
# Compressibility (1/GPa) = 0.02027015
#
# Stress axis : x y z
#
# Youngs Moduli (GPa) = 120.10451 59.60618 136.17428
#
# Poissons Ratio (x) = 0.10181 0.38041
# Poissons Ratio (y) = 0.20515 0.21604
# Poissons Ratio (z) = 0.33552 0.09456
#
# Static dielectric constant tensor:
#      x y z
#    x 4.644770 0.000000 0.000000 
#    y 0.000000 3.438530 0.000000 
#    z 0.000000 0.000000 4.057430 
# 
# 
# High freq. dielectric constant tensor:
#      x y z
#    x 1.909640 0.000000 0.000000 
#    y 0.000000 1.831420 0.000000 
#    z 0.000000 0.000000 1.887430 
# 
# From -- ./inp_files/3347.got.cif
#   From: 2010.03.12/outbox.cif.g09.slc.cpg/sg49_2_cif.got.tgz:3347.got - 2010.04.14 03:58:27.
