data_PCOD8203921
_publ_section_title
;
Structure prediction by ZEFSAII (Michael W. Deem and Ramdas Pophale) SiO2 
 PCOD8203921
Probable space group: P C C M
;
_chemical_formula_sum "Si O2"
_cell_formula_units_Z 64
_cell_length_a 15.470074
_cell_length_b 23.714389
_cell_length_c 8.645086
_cell_angle_alpha 90.000000
_cell_angle_beta 90.000000
_cell_angle_gamma 90.000000
_cell_volume 3171.565234
_symmetry_space_group_name_H-M "P C C M"
_symmetry_group_IT_number 49
_symmetry_cell_setting 'orthorhombic'
loop_
_space_group_symop_operation_xyz
x,y,z
-x,-y,z
x,-y,1/2-z
-x,y,1/2-z
-x,-y,-z
x,y,-z
-x,y,1/2+z
x,-y,1/2+z
loop_
_atom_site_type_symbol
_atom_site_label
_atom_site_fract_x
_atom_site_fract_y
_atom_site_fract_z
Si Si1 0.755528 0.560459 0.316770
Si Si2 0.848295 0.247988 0.680945
Si Si3 0.410160 0.140526 0.183161
Si Si4 0.343635 0.740627 0.683978
Si Si5 0.408438 0.379249 0.183925
Si Si6 0.089895 0.128932 0.183357
Si Si7 0.089770 0.631079 0.318510
Si Si8 0.255982 0.061477 0.183197
O O1 0.781070 0.500000 0.250000
O O2 0.748836 0.558004 0.500000
O O3 0.664178 0.578997 0.247118
O O4 0.830149 0.603285 0.267549
O O5 0.835771 0.238044 0.500000
O O6 0.753216 0.257238 0.753423
O O7 0.892348 0.191871 0.750804
O O8 0.907236 0.302096 0.715787
O O9 0.500000 0.117539 0.250000
O O10 0.394774 0.204367 0.243253
O O11 0.333495 0.100793 0.245120
O O12 0.413323 0.138944 0.000000
O O13 0.339672 0.739104 0.500000
O O14 0.390252 0.684235 0.745215
O O15 0.500000 0.399682 0.250000
O O16 0.408660 0.382532 0.000000
O O17 0.165622 0.087606 0.241756
O O18 0.000000 0.105852 0.250000
O O19 0.084831 0.129454 0.000000
O O20 0.095890 0.617623 0.500000
O O21 0.000000 0.607363 0.250000
O O22 0.269085 0.000000 0.250000
O O23 0.257677 0.058706 0.000000
#
# Coordination Sequence:
#
# PCOD8203921 Si02
#       8
#     8   8   8   8   8   8   8   8
#     4  12  26  45  66  90 120 159 207 254 299 352
#     4   9  16  32  60  88 118 155 191 232 289 353
#     4  10  20  36  59  85 114 150 191 235 289 348
#     4   9  16  32  60  88 118 155 191 232 289 353
#     4  11  22  39  64  94 126 161 197 242 298 357
#     4  10  20  36  59  85 114 150 191 235 289 348
#     4  11  22  39  64  94 126 161 197 242 298 357
#     4  10  22  39  58  78 108 151 195 240 289 344
#
# _framework density 20.179310999999998
#
# number of rings (size 3 to 8) (size 9 to 14) (size 15 to 20)
#    0.000    1.750    2.500    2.625    0.000    2.000 
#    0.000    6.250    0.000    0.000    0.000    0.000 
#    0.000    0.000    0.000    0.000    0.000    0.000 
#
# Total GULP energy -793725.641822 kJ/mol
# GULP energy per Si atom -12401.963153 kJ/mol
# Density = 2.013338 g / cm^3
# Si number density = 20.179311 Si / 1000 Ang^3
#
#
#
# Elastic Constant Matrix: (Units=GPa)
#
#
# Indices 1 2 3 4 5 6 
#
# 1 138.7755 11.7514 30.8807 0.0000 0.0000 0.0000
# 2 11.7514 74.5667 25.2581 0.0000 0.0000 0.0000
# 3 30.8807 25.2581 60.5427 0.0000 0.0000 0.0000
# 4 0.0000 0.0000 0.0000 26.6850 0.0000 0.0000
# 5 0.0000 0.0000 0.0000 0.0000 32.6795 0.0000
# 6 0.0000 0.0000 0.0000 0.0000 0.0000 11.4223
#
#
#
# Elastic Compliance Matrix: (Units=1/GPa)
#
#
# Indices 1 2 3 4 5 6 
#
# 1 0.008130 0.000144 -0.004207 0.000000 0.000000 0.000000
# 2 0.000144 0.015620 -0.006590 0.000000 0.000000 0.000000
# 3 -0.004207 -0.006590 0.021412 0.000000 0.000000 0.000000
# 4 0.000000 0.000000 0.000000 0.037474 0.000000 0.000000
# 5 0.000000 0.000000 0.000000 0.000000 0.030600 0.000000
# 6 0.000000 0.000000 0.000000 0.000000 0.000000 0.087548
#
#
# Mechanical properties :
#
#
# Convention : Reuss Voigt Hill
#
# Bulk Modulus (GPa) = 41.91740 45.51838 43.71789
# Shear Modulus (GPa) = 21.73503 27.89035 24.81269
#
# Velocity S-wave (km/s) = 3.28547 3.72173 3.51038
# Velocity P-wave (km/s) = 5.93380 6.40892 6.17593
#
# Compressibility (1/GPa) = 0.02385644
#
# Stress axis : x y z
#
# Youngs Moduli (GPa) = 123.00432 64.01870 46.70214
#
# Poissons Ratio (x) = -0.00920 0.19646
# Poissons Ratio (y) = -0.01768 0.30777
# Poissons Ratio (z) = 0.51744 0.42189
#
# Static dielectric constant tensor:
#      x y z
#    x 3.833360 0.000000 0.000000 
#    y 0.000000 3.818280 0.000000 
#    z 0.000000 0.000000 3.317760 
# 
# 
# High freq. dielectric constant tensor:
#      x y z
#    x 1.803860 0.000000 0.000000 
#    y 0.000000 1.788770 0.000000 
#    z 0.000000 0.000000 1.759290 
# 
# From -- ./inp_files/4328.got.cif
#   From: 2010.03.12/outbox.cif.g09.slc.cpg/sg49_3_cif.got.tgz:4328.got - 2010.04.14 03:58:27.
