data_PCOD8203769
_publ_section_title
;
Structure prediction by ZEFSAII (Michael W. Deem and Ramdas Pophale) SiO2 
 PCOD8203769
Probable space group: P C C M
;
_chemical_formula_sum "Si O2"
_cell_formula_units_Z 48
_cell_length_a 14.595504
_cell_length_b 18.785768
_cell_length_c 8.506944
_cell_angle_alpha 90.000000
_cell_angle_beta 90.000000
_cell_angle_gamma 90.000000
_cell_volume 2332.499852
_symmetry_space_group_name_H-M "P C C M"
_symmetry_group_IT_number 49
_symmetry_cell_setting 'orthorhombic'
loop_
_space_group_symop_operation_xyz
x,y,z
-x,-y,z
x,-y,1/2-z
-x,y,1/2-z
-x,-y,-z
x,y,-z
-x,y,1/2+z
x,-y,1/2+z
loop_
_atom_site_type_symbol
_atom_site_label
_atom_site_fract_x
_atom_site_fract_y
_atom_site_fract_z
Si Si1 0.844491 0.925680 0.178046
Si Si2 0.901330 0.774823 0.314683
Si Si3 0.598642 0.577265 0.314917
Si Si4 0.734832 0.307276 0.681994
Si Si5 0.591273 0.786351 0.680911
Si Si6 0.372714 0.927784 0.321584
O O1 0.879084 0.856253 0.269694
O O2 0.736041 0.926841 0.186307
O O3 0.883221 0.000000 0.250000
O O4 0.880284 0.919762 0.000000
O O5 0.897903 0.769013 0.500000
O O6 0.834461 0.713410 0.246941
O O7 0.000000 0.753565 0.250000
O O8 0.623727 0.500000 0.250000
O O9 0.500000 0.603825 0.250000
O O10 0.589700 0.573528 0.500000
O O11 0.682837 0.628825 0.270830
O O12 0.742534 0.326742 0.500000
O O13 0.675411 0.236703 0.710246
O O14 0.500000 0.749341 0.750000
O O15 0.605482 0.763856 0.500000
O O16 0.584740 0.870581 0.702251
O O17 0.406754 0.915305 0.500000
O O18 0.411899 0.000000 0.250000
#
# Coordination Sequence:
#
# PCOD8203769 Si02
#       6
#     8   8   8   8   8   8
#     4  10  20  36  59  85 116 153 199 257 318 378
#     4  12  25  42  64  91 122 160 207 259 315 375
#     4  11  22  40  66 101 138 175 212 252 298 354
#     4  12  24  42  64  91 126 164 203 250 305 363
#     4  12  24  38  57  83 115 154 200 248 300 361
#     4  10  20  35  55  78 109 148 194 246 302 361
#
# _framework density 20.578779000000001
#
# number of rings (size 3 to 8) (size 9 to 14) (size 15 to 20)
#    0.000    0.833    1.667    8.000    0.000    2.000 
#    0.000    3.333    0.000    0.500    0.000    3.500 
#    0.000    0.000    0.000    0.000    0.000    0.000 
#
# Total GULP energy -595147.844149 kJ/mol
# GULP energy per Si atom -12398.913420 kJ/mol
# Density = 2.053194 g / cm^3
# Si number density = 20.578779 Si / 1000 Ang^3
#
#
#
# Elastic Constant Matrix: (Units=GPa)
#
#
# Indices 1 2 3 4 5 6 
#
# 1 109.4748 44.5442 47.3292 0.0000 0.0000 0.0000
# 2 44.5442 120.0551 37.8529 0.0000 0.0000 0.0000
# 3 47.3292 37.8529 172.7614 0.0000 0.0000 0.0000
# 4 0.0000 0.0000 0.0000 33.8555 0.0000 0.0000
# 5 0.0000 0.0000 0.0000 0.0000 32.3423 0.0000
# 6 0.0000 0.0000 0.0000 0.0000 0.0000 28.0508
#
#
#
# Elastic Compliance Matrix: (Units=1/GPa)
#
#
# Indices 1 2 3 4 5 6 
#
# 1 0.011620 -0.003553 -0.002405 0.000000 0.000000 0.000000
# 2 -0.003553 0.010034 -0.001225 0.000000 0.000000 0.000000
# 3 -0.002405 -0.001225 0.006716 0.000000 0.000000 0.000000
# 4 0.000000 0.000000 0.000000 0.029537 0.000000 0.000000
# 5 0.000000 0.000000 0.000000 0.000000 0.030919 0.000000
# 6 0.000000 0.000000 0.000000 0.000000 0.000000 0.035650
#
#
# Mechanical properties :
#
#
# Convention : Reuss Voigt Hill
#
# Bulk Modulus (GPa) = 71.41105 73.52710 72.46907
# Shear Modulus (GPa) = 34.84081 37.02072 35.93077
#
# Velocity S-wave (km/s) = 4.11913 4.24603 4.18306
# Velocity P-wave (km/s) = 7.57625 7.73599 7.65654
#
# Compressibility (1/GPa) = 0.01400344
#
# Stress axis : x y z
#
# Youngs Moduli (GPa) = 86.05898 99.66010 148.90735
#
# Poissons Ratio (x) = 0.35410 0.35810
# Poissons Ratio (y) = 0.30578 0.18243
# Poissons Ratio (z) = 0.20696 0.12210
#
# Static dielectric constant tensor:
#      x y z
#    x 3.769980 0.000000 0.000000 
#    y 0.000000 3.745810 0.000000 
#    z 0.000000 0.000000 3.893310 
# 
# 
# High freq. dielectric constant tensor:
#      x y z
#    x 1.800950 0.000000 0.000000 
#    y 0.000000 1.795520 0.000000 
#    z 0.000000 0.000000 1.822370 
# 
# From -- ./inp_files/3706.got.cif
#   From: 2010.03.12/outbox.cif.g09.slc.cpg/sg49_2_cif.got.tgz:3706.got - 2010.04.14 03:58:27.
