data_PCOD8203849
_publ_section_title
;
Structure prediction by ZEFSAII (Michael W. Deem and Ramdas Pophale) SiO2 
 PCOD8203849
Probable space group: P C C M
;
_chemical_formula_sum "Si O2"
_cell_formula_units_Z 64
_cell_length_a 16.292450
_cell_length_b 10.740498
_cell_length_c 18.242026
_cell_angle_alpha 90.000000
_cell_angle_beta 90.000000
_cell_angle_gamma 90.000000
_cell_volume 3192.154374
_symmetry_space_group_name_H-M "P C C M"
_symmetry_group_IT_number 49
_symmetry_cell_setting 'orthorhombic'
loop_
_space_group_symop_operation_xyz
x,y,z
-x,-y,z
x,-y,1/2-z
-x,y,1/2-z
-x,-y,-z
x,y,-z
-x,y,1/2+z
x,-y,1/2+z
loop_
_atom_site_type_symbol
_atom_site_label
_atom_site_fract_x
_atom_site_fract_y
_atom_site_fract_z
Si Si1 0.535803 0.298027 0.673883
Si Si2 0.747460 0.686586 0.416258
Si Si3 0.097703 0.363269 0.332977
Si Si4 0.345216 0.445820 0.082565
Si Si5 0.087512 0.647996 0.662473
Si Si6 0.774240 0.212684 0.417432
Si Si7 0.405123 0.147311 0.415562
Si Si8 0.347555 0.930576 0.324517
O O1 0.500000 0.348036 0.750000
O O2 0.577042 0.415743 0.633616
O O3 0.466884 0.245562 0.619688
O O4 0.601767 0.192454 0.695080
O O5 0.771004 0.660337 0.500000
O O6 0.831619 0.715346 0.373264
O O7 0.701938 0.564437 0.383643
O O8 0.688028 0.804067 0.407784
O O9 0.104309 0.505741 0.360840
O O10 0.112198 0.344923 0.247162
O O11 0.006909 0.314187 0.352168
O O12 0.286193 0.328492 0.081838
O O13 0.375733 0.476629 0.000000
O O14 0.139198 0.745595 0.615658
O O15 0.787790 0.162606 0.500000
O O16 0.735297 0.102509 0.368770
O O17 0.430417 0.128451 0.500000
O O18 0.407600 0.015121 0.374482
O O19 0.322319 0.000000 0.250000
#
# Coordination Sequence:
#
# PCOD8203849 Si02
#       8
#     8   8   8   8   8   8   8   8
#     4  11  22  38  59  83 113 143 194 250 290 340
#     4  10  21  37  57  83 118 154 191 233 281 351
#     4   9  18  33  54  85 125 155 185 230 283 343
#     4   9  19  36  56  82 117 153 186 231 292 347
#     4   9  18  32  55  88 121 154 188 230 282 340
#     4  10  20  35  58  89 118 150 194 241 290 347
#     4  11  24  39  58  82 111 154 197 238 292 344
#     4  11  23  39  61  84 113 146 193 253 296 337
#
# _framework density 20.049156
#
# number of rings (size 3 to 8) (size 9 to 14) (size 15 to 20)
#    0.000    2.000    2.500    1.875    1.750    3.000 
#    0.000    3.750    0.000    0.750    0.000    2.625 
#    0.000    0.000    0.000    0.000    0.000    0.000 
#
# Total GULP energy -793749.412019 kJ/mol
# GULP energy per Si atom -12402.334563 kJ/mol
# Density = 2.000352 g / cm^3
# Si number density = 20.049156 Si / 1000 Ang^3
#
#
#
# Elastic Constant Matrix: (Units=GPa)
#
#
# Indices 1 2 3 4 5 6 
#
# 1 102.6012 10.2165 53.1364 0.0000 0.0000 0.0000
# 2 10.2165 24.2904 20.9642 0.0000 0.0000 0.0000
# 3 53.1364 20.9642 114.3015 0.0000 0.0000 0.0000
# 4 0.0000 0.0000 0.0000 25.1081 0.0000 0.0000
# 5 0.0000 0.0000 0.0000 0.0000 38.7461 0.0000
# 6 0.0000 0.0000 0.0000 0.0000 0.0000 25.6595
#
#
#
# Elastic Compliance Matrix: (Units=1/GPa)
#
#
# Indices 1 2 3 4 5 6 
#
# 1 0.012839 -0.000296 -0.005914 0.000000 0.000000 0.000000
# 2 -0.000296 0.048918 -0.008835 0.000000 0.000000 0.000000
# 3 -0.005914 -0.008835 0.013119 0.000000 0.000000 0.000000
# 4 0.000000 0.000000 0.000000 0.039828 0.000000 0.000000
# 5 0.000000 0.000000 0.000000 0.000000 0.025809 0.000000
# 6 0.000000 0.000000 0.000000 0.000000 0.000000 0.038972
#
#
# Mechanical properties :
#
#
# Convention : Reuss Voigt Hill
#
# Bulk Modulus (GPa) = 22.32831 45.53635 33.93233
# Shear Modulus (GPa) = 22.27153 28.36115 25.31634
#
# Velocity S-wave (km/s) = 3.33655 3.76517 3.55732
# Velocity P-wave (km/s) = 5.09945 6.45474 5.81670
#
# Compressibility (1/GPa) = 0.04478620
#
# Stress axis : x y z
#
# Youngs Moduli (GPa) = 77.88840 20.44245 76.22759
#
# Poissons Ratio (x) = 0.00604 0.45083
# Poissons Ratio (y) = 0.02302 0.67345
# Poissons Ratio (z) = 0.46066 0.18060
#
# Static dielectric constant tensor:
#      x y z
#    x 3.600330 0.000000 0.000000 
#    y 0.000000 3.414020 0.000000 
#    z 0.000000 0.000000 3.678600 
# 
# 
# High freq. dielectric constant tensor:
#      x y z
#    x 1.779120 0.000000 0.000000 
#    y 0.000000 1.758230 0.000000 
#    z 0.000000 0.000000 1.787140 
# 
# From -- ./inp_files/18219.got.cif
#   From: 2010.03.12/outbox.cif.g09.slc.cpg/sg49_10_cif.got.tgz:18219.got - 2010.04.14 03:58:27.
