data_PCOD8203861
_publ_section_title
;
Structure prediction by ZEFSAII (Michael W. Deem and Ramdas Pophale) SiO2 
 PCOD8203861
Probable space group: P C C M
;
_chemical_formula_sum "Si O2"
_cell_formula_units_Z 40
_cell_length_a 22.699926
_cell_length_b 8.856280
_cell_length_c 10.075801
_cell_angle_alpha 90.000000
_cell_angle_beta 90.000000
_cell_angle_gamma 90.000000
_cell_volume 2025.607804
_symmetry_space_group_name_H-M "P C C M"
_symmetry_group_IT_number 49
_symmetry_cell_setting 'orthorhombic'
loop_
_space_group_symop_operation_xyz
x,y,z
-x,-y,z
x,-y,1/2-z
-x,y,1/2-z
-x,-y,-z
x,y,-z
-x,y,1/2+z
x,-y,1/2+z
loop_
_atom_site_type_symbol
_atom_site_label
_atom_site_fract_x
_atom_site_fract_y
_atom_site_fract_z
Si Si1 0.581175 0.838824 0.500000
Si Si2 0.751620 0.643279 0.156159
Si Si3 0.863361 0.178440 0.738887
Si Si4 0.622988 0.678005 0.236748
Si Si5 0.058354 0.823088 0.500000
Si Si6 0.926243 0.182166 0.000000
Si Si7 0.558161 0.180346 0.500000
O O1 0.612236 0.763519 0.374112
O O2 0.511722 0.818096 0.500000
O O3 0.590765 0.018576 0.500000
O O4 0.761268 0.500000 0.250000
O O5 0.798822 0.766144 0.201013
O O6 0.688034 0.716696 0.183366
O O7 0.757569 0.600767 0.000000
O O8 0.909104 0.238129 0.629774
O O9 0.888554 0.243178 0.876350
O O10 0.859820 0.000000 0.750000
O O11 0.614938 0.500000 0.250000
O O12 0.575345 0.732005 0.131847
O O13 0.992682 0.753786 0.500000
O O14 0.063566 0.003412 0.500000
#
# Coordination Sequence:
#
# PCOD8203861 Si02
#       7
#     4   8   8   8   4   4   4
#     4  11  25  40  67  96 130 167 198 253 320 373
#     4  11  25  44  64  86 121 163 203 253 308 362
#     4  10  20  35  60  90 120 153 201 254 301 363
#     4  11  24  42  66  92 123 166 216 258 301 369
#     4   9  16  33  53  84 126 155 194 249 300 361
#     4   9  18  29  55  90 118 157 196 243 310 359
#     4  11  23  44  63  96 134 163 202 251 316 375
#
# _framework density 19.747157999999999
#
# number of rings (size 3 to 8) (size 9 to 14) (size 15 to 20)
#    0.000    1.600    2.000    2.400    5.600    8.000 
#    0.000    0.000    0.000    3.600    0.000    0.000 
#    0.000    0.000    0.000    0.000    0.000    0.000 
#
# Total GULP energy -495972.720118 kJ/mol
# GULP energy per Si atom -12399.318003 kJ/mol
# Density = 1.970221 g / cm^3
# Si number density = 19.747158 Si / 1000 Ang^3
#
#
#
# Elastic Constant Matrix: (Units=GPa)
#
#
# Indices 1 2 3 4 5 6 
#
# 1 107.9841 42.6145 61.0474 0.0000 0.0000 0.0000
# 2 42.6145 58.2554 40.8185 0.0000 0.0000 0.0000
# 3 61.0474 40.8185 191.4829 0.0000 0.0000 0.0000
# 4 0.0000 0.0000 0.0000 26.4177 0.0000 0.0000
# 5 0.0000 0.0000 0.0000 0.0000 6.2169 0.0000
# 6 0.0000 0.0000 0.0000 0.0000 0.0000 15.0762
#
#
#
# Elastic Compliance Matrix: (Units=1/GPa)
#
#
# Indices 1 2 3 4 5 6 
#
# 1 0.014116 -0.008432 -0.002703 0.000000 0.000000 0.000000
# 2 -0.008432 0.025217 -0.002687 0.000000 0.000000 0.000000
# 3 -0.002703 -0.002687 0.006657 0.000000 0.000000 0.000000
# 4 0.000000 0.000000 0.000000 0.037853 0.000000 0.000000
# 5 0.000000 0.000000 0.000000 0.000000 0.160852 0.000000
# 6 0.000000 0.000000 0.000000 0.000000 0.000000 0.066330
#
#
# Mechanical properties :
#
#
# Convention : Reuss Voigt Hill
#
# Bulk Modulus (GPa) = 54.50969 71.85368 63.18169
# Shear Modulus (GPa) = 14.50175 23.75827 19.13001
#
# Velocity S-wave (km/s) = 2.71287 3.47237 3.11585
# Velocity P-wave (km/s) = 6.12181 7.24861 6.70891
#
# Compressibility (1/GPa) = 0.01834536
#
# Stress axis : x y z
#
# Youngs Moduli (GPa) = 70.83921 39.65565 150.21857
#
# Poissons Ratio (x) = 0.33439 0.40604
# Poissons Ratio (y) = 0.59735 0.40366
# Poissons Ratio (z) = 0.19148 0.10656
#
# Static dielectric constant tensor:
#      x y z
#    x 3.777750 0.000000 0.000000 
#    y 0.000000 3.389200 0.000000 
#    z 0.000000 0.000000 3.880820 
# 
# 
# High freq. dielectric constant tensor:
#      x y z
#    x 1.784840 0.000000 0.000000 
#    y 0.000000 1.743430 0.000000 
#    z 0.000000 0.000000 1.793650 
# 
# From -- ./inp_files/6264.got.cif
#   From: 2010.03.12/outbox.cif.g09.slc.cpg/sg49_4_cif.got.tgz:6264.got - 2010.04.14 03:58:27.
