data_PCOD8203043
_publ_section_title
;
Structure prediction by ZEFSAII (Michael W. Deem and Ramdas Pophale) SiO2 
 PCOD8203043
Probable space group: P C C M
;
_chemical_formula_sum "Si O2"
_cell_formula_units_Z 48
_cell_length_a 9.463958
_cell_length_b 28.833190
_cell_length_c 9.322340
_cell_angle_alpha 90.000000
_cell_angle_beta 90.000000
_cell_angle_gamma 90.000000
_cell_volume 2543.843774
_symmetry_space_group_name_H-M "P C C M"
_symmetry_group_IT_number 49
_symmetry_cell_setting 'orthorhombic'
loop_
_space_group_symop_operation_xyz
x,y,z
-x,-y,z
x,-y,1/2-z
-x,y,1/2-z
-x,-y,-z
x,y,-z
-x,y,1/2+z
x,-y,1/2+z
loop_
_atom_site_type_symbol
_atom_site_label
_atom_site_fract_x
_atom_site_fract_y
_atom_site_fract_z
Si Si1 0.360976 0.696478 0.331880
Si Si2 0.833554 0.615040 0.756847
Si Si3 0.851822 0.118378 0.328742
Si Si4 0.642093 0.049993 0.822405
Si Si5 0.171788 0.555056 0.000000
Si Si6 0.635141 0.801730 0.163867
Si Si7 0.163712 0.548090 0.500000
O O1 0.500000 0.679549 0.250000
O O2 0.385983 0.690677 0.500000
O O3 0.231201 0.665596 0.278884
O O4 0.324377 0.749480 0.289853
O O5 0.773050 0.587862 0.623458
O O6 0.000000 0.623376 0.750000
O O7 0.781305 0.577880 0.870034
O O8 0.865279 0.105947 0.500000
O O9 0.773319 0.079133 0.236216
O O10 0.770550 0.166624 0.307583
O O11 0.000000 0.124769 0.250000
O O12 0.500000 0.071625 0.750000
O O13 0.661422 0.000000 0.750000
O O14 0.635553 0.048528 0.000000
O O15 0.235568 0.503004 0.000000
O O16 0.005124 0.546157 0.000000
O O17 0.500000 0.820522 0.250000
O O18 0.587500 0.803546 0.000000
#
# Coordination Sequence:
#
# PCOD8203043 Si02
#       7
#     8   8   8   8   4   8   4
#     4  10  21  38  57  79 109 145 183 225 277 334
#     4  10  19  32  54  79 107 137 177 225 275 324
#     4  11  23  39  59  87 122 157 194 241 299 350
#     4  11  22  39  63  91 123 161 207 250 292 342
#     4   9  18  28  51  79 107 131 185 215 274 321
#     4   9  20  38  60  82 107 144 190 234 278 337
#     4   9  16  32  49  77 105 143 169 229 264 325
#
# _framework density 18.869084000000001
#
# number of rings (size 3 to 8) (size 9 to 14) (size 15 to 20)
#    0.000    2.000    0.833    3.500    1.167    5.667 
#    0.000    1.667    0.000    3.000    0.000    0.000 
#    0.000    0.000    0.000    0.000    0.000    0.000 
#
# Total GULP energy -594648.525668 kJ/mol
# GULP energy per Si atom -12388.510951 kJ/mol
# Density = 1.882614 g / cm^3
# Si number density = 18.869084 Si / 1000 Ang^3
#
#
#
# Elastic Constant Matrix: (Units=GPa)
#
#
# Indices 1 2 3 4 5 6 
#
# 1 102.6092 57.3276 57.4535 0.0000 0.0000 0.0000
# 2 57.3276 101.4113 58.7575 0.0000 0.0000 0.0000
# 3 57.4535 58.7575 155.1713 0.0000 0.0000 0.0000
# 4 0.0000 0.0000 0.0000 15.8596 0.0000 0.0000
# 5 0.0000 0.0000 0.0000 0.0000 32.7680 0.0000
# 6 0.0000 0.0000 0.0000 0.0000 0.0000 24.2670
#
#
#
# Elastic Compliance Matrix: (Units=1/GPa)
#
#
# Indices 1 2 3 4 5 6 
#
# 1 0.015302 -0.006876 -0.003062 0.000000 0.000000 0.000000
# 2 -0.006876 0.015722 -0.003407 0.000000 0.000000 0.000000
# 3 -0.003062 -0.003407 0.008868 0.000000 0.000000 0.000000
# 4 0.000000 0.000000 0.000000 0.063053 0.000000 0.000000
# 5 0.000000 0.000000 0.000000 0.000000 0.030518 0.000000
# 6 0.000000 0.000000 0.000000 0.000000 0.000000 0.041208
#
#
# Mechanical properties :
#
#
# Convention : Reuss Voigt Hill
#
# Bulk Modulus (GPa) = 75.74858 78.47432 77.11145
# Shear Modulus (GPa) = 24.29983 26.95580 25.62782
#
# Velocity S-wave (km/s) = 3.59250 3.78374 3.68936
# Velocity P-wave (km/s) = 7.57889 7.79539 7.68790
#
# Compressibility (1/GPa) = 0.01320157
#
# Stress axis : x y z
#
# Youngs Moduli (GPa) = 65.35191 63.60475 112.75882
#
# Poissons Ratio (x) = 0.43734 0.34526
# Poissons Ratio (y) = 0.44936 0.38422
# Poissons Ratio (z) = 0.20010 0.21673
#
# Static dielectric constant tensor:
#      x y z
#    x 3.214220 0.000000 0.000000 
#    y 0.000000 3.634110 0.000000 
#    z 0.000000 0.000000 3.785580 
# 
# 
# High freq. dielectric constant tensor:
#      x y z
#    x 1.706170 0.000000 0.000000 
#    y 0.000000 1.747060 0.000000 
#    z 0.000000 0.000000 1.752110 
# 
# From -- ./inp_files/2181.got.cif
#   From: 2010.03.12/outbox.cif.g09.slc.cpg/sg49_2_cif.got.tgz:2181.got - 2010.04.14 03:58:27.
