data_PCOD8203489
_publ_section_title
;
Structure prediction by ZEFSAII (Michael W. Deem and Ramdas Pophale) SiO2 
 PCOD8203489
Probable space group: P C C M
;
_chemical_formula_sum "Si O2"
_cell_formula_units_Z 64
_cell_length_a 19.455375
_cell_length_b 19.352352
_cell_length_c 8.735401
_cell_angle_alpha 90.000000
_cell_angle_beta 90.000000
_cell_angle_gamma 90.000000
_cell_volume 3288.941942
_symmetry_space_group_name_H-M "P C C M"
_symmetry_group_IT_number 49
_symmetry_cell_setting 'orthorhombic'
loop_
_space_group_symop_operation_xyz
x,y,z
-x,-y,z
x,-y,1/2-z
-x,y,1/2-z
-x,-y,-z
x,y,-z
-x,y,1/2+z
x,-y,1/2+z
loop_
_atom_site_type_symbol
_atom_site_label
_atom_site_fract_x
_atom_site_fract_y
_atom_site_fract_z
Si Si1 0.067467 0.799371 0.830734
Si Si2 0.934648 0.360123 0.168009
Si Si3 0.820397 0.432055 0.320288
Si Si4 0.335459 0.288845 0.176541
Si Si5 0.693525 0.926354 0.681178
Si Si6 0.425365 0.843361 0.678962
Si Si7 0.785085 0.809615 0.180821
Si Si8 0.671709 0.570258 0.679597
O O1 0.050457 0.719790 0.854002
O O2 0.135706 0.805913 0.728805
O O3 0.000000 0.833851 0.750000
O O4 0.078172 0.832947 0.000000
O O5 0.868919 0.368137 0.278599
O O6 0.000000 0.395700 0.250000
O O7 0.922840 0.393975 0.000000
O O8 0.857432 0.500000 0.250000
O O9 0.806651 0.436641 0.500000
O O10 0.749711 0.423707 0.232154
O O11 0.391801 0.230915 0.212008
O O12 0.259485 0.259431 0.224166
O O13 0.361039 0.357026 0.267527
O O14 0.333506 0.310061 0.000000
O O15 0.690890 0.930487 0.500000
O O16 0.619343 0.903026 0.743012
O O17 0.752808 0.874243 0.732418
O O18 0.712930 0.000000 0.750000
O O19 0.500000 0.844305 0.750000
O O20 0.428876 0.859070 0.500000
O O21 0.778963 0.822143 0.000000
O O22 0.637773 0.500000 0.750000
O O23 0.665219 0.563253 0.500000
#
# Coordination Sequence:
#
# PCOD8203489 Si02
#       8
#     8   8   8   8   8   8   8   8
#     4  10  20  33  51  75 103 136 175 223 276 328
#     4  10  20  33  47  65  89 119 159 205 258 318
#     4  11  21  33  47  63  87 119 158 205 260 319
#     4   9  19  35  55  80 111 145 182 226 276 329
#     4  11  22  38  60  87 120 155 192 229 269 318
#     4  10  21  38  60  88 121 155 190 227 269 318
#     4  10  20  35  56  82 112 146 185 230 279 331
#     4  11  21  33  51  74 101 133 173 221 274 327
#
# _framework density 19.459147000000002
#
# number of rings (size 3 to 8) (size 9 to 14) (size 15 to 20)
#    0.000    1.750    0.000    7.125    0.000    7.000 
#    0.000    2.500    0.000    0.750    0.000    5.250 
#    0.000    0.000    0.000    0.000    0.000    0.000 
#
# Total GULP energy -793376.141692 kJ/mol
# GULP energy per Si atom -12396.502214 kJ/mol
# Density = 1.941486 g / cm^3
# Si number density = 19.459147 Si / 1000 Ang^3
#
#
#
# Elastic Constant Matrix: (Units=GPa)
#
#
# Indices 1 2 3 4 5 6 
#
# 1 68.9963 0.8755 16.7824 0.0000 0.0000 0.0000
# 2 0.8755 77.1879 40.3645 0.0000 0.0000 0.0000
# 3 16.7824 40.3645 132.1851 0.0000 0.0000 0.0000
# 4 0.0000 0.0000 0.0000 31.8484 0.0000 0.0000
# 5 0.0000 0.0000 0.0000 0.0000 30.5400 0.0000
# 6 0.0000 0.0000 0.0000 0.0000 0.0000 11.5413
#
#
#
# Elastic Compliance Matrix: (Units=1/GPa)
#
#
# Indices 1 2 3 4 5 6 
#
# 1 0.015018 0.000984 -0.002207 0.000000 0.000000 0.000000
# 2 0.000984 0.015482 -0.004852 0.000000 0.000000 0.000000
# 3 -0.002207 -0.004852 0.009327 0.000000 0.000000 0.000000
# 4 0.000000 0.000000 0.000000 0.031399 0.000000 0.000000
# 5 0.000000 0.000000 0.000000 0.000000 0.032744 0.000000
# 6 0.000000 0.000000 0.000000 0.000000 0.000000 0.086645
#
#
# Mechanical properties :
#
#
# Convention : Reuss Voigt Hill
#
# Bulk Modulus (GPa) = 36.13330 43.82380 39.97855
# Shear Modulus (GPa) = 23.58588 29.47574 26.53081
#
# Velocity S-wave (km/s) = 3.48526 3.89620 3.69644
# Velocity P-wave (km/s) = 5.89959 6.54296 6.22959
#
# Compressibility (1/GPa) = 0.02767530
#
# Stress axis : x y z
#
# Youngs Moduli (GPa) = 66.58717 64.59203 107.21396
#
# Poissons Ratio (x) = -0.06355 0.23663
# Poissons Ratio (y) = -0.06551 0.52025
# Poissons Ratio (z) = 0.14697 0.31343
#
# Static dielectric constant tensor:
#      x y z
#    x 3.348710 0.000000 0.000000 
#    y 0.000000 7.334220 0.000000 
#    z 0.000000 0.000000 3.791700 
# 
# 
# High freq. dielectric constant tensor:
#      x y z
#    x 1.740380 0.000000 0.000000 
#    y 0.000000 1.741580 0.000000 
#    z 0.000000 0.000000 1.775920 
# 
# From -- ./inp_files/5934.got.cif
#   From: 2010.03.12/outbox.cif.g09.slc.cpg/sg49_3_cif.got.tgz:5934.got - 2010.04.14 03:58:27.
