data_PCOD8203702
_publ_section_title
;
Structure prediction by ZEFSAII (Michael W. Deem and Ramdas Pophale) SiO2 
 PCOD8203702
Probable space group: P C C M
;
_chemical_formula_sum "Si O2"
_cell_formula_units_Z 58
_cell_length_a 25.690806
_cell_length_b 12.714163
_cell_length_c 8.882495
_cell_angle_alpha 90.000000
_cell_angle_beta 90.000000
_cell_angle_gamma 90.000000
_cell_volume 2901.352364
_symmetry_space_group_name_H-M "P C C M"
_symmetry_group_IT_number 49
_symmetry_cell_setting 'orthorhombic'
loop_
_space_group_symop_operation_xyz
x,y,z
-x,-y,z
x,-y,1/2-z
-x,y,1/2-z
-x,-y,-z
x,y,-z
-x,y,1/2+z
x,-y,1/2+z
loop_
_atom_site_type_symbol
_atom_site_label
_atom_site_fract_x
_atom_site_fract_y
_atom_site_fract_z
Si Si1 0.948665 0.886145 0.821475
Si Si2 0.443991 0.103119 0.678908
Si Si3 0.420675 0.318990 0.166491
Si Si4 0.152714 0.197183 0.675995
Si Si5 0.306145 0.698333 0.330609
Si Si6 0.198512 0.605610 0.324622
Si Si7 0.500000 0.500000 0.250000
Si Si8 0.262016 0.894233 0.175023
O O1 0.896700 0.825758 0.778685
O O2 0.000000 0.830250 0.750000
O O3 0.943791 0.000000 0.750000
O O4 0.954439 0.892951 0.000000
O O5 0.500000 0.095007 0.750000
O O6 0.443599 0.092498 0.500000
O O7 0.426026 0.221798 0.718815
O O8 0.413202 0.000000 0.750000
O O9 0.361616 0.359653 0.196115
O O10 0.460936 0.417925 0.168441
O O11 0.426230 0.270442 0.000000
O O12 0.138506 0.189187 0.500000
O O13 0.169106 0.312710 0.720493
O O14 0.201297 0.122159 0.718054
O O15 0.301841 0.742106 0.500000
O O16 0.260681 0.614347 0.301575
O O17 0.299054 0.799033 0.224301
O O18 0.178784 0.500000 0.250000
O O19 0.182724 0.614915 0.500000
O O20 0.282587 0.000000 0.250000
O O21 0.269312 0.906207 0.000000
#
# Coordination Sequence:
#
# PCOD8203702 Si02
#       8
#     8   8   8   8   8   8   2   8
#     4  11  21  34  53  81 118 160 203 245 292 344
#     4  11  22  39  64  89 115 146 183 228 276 332
#     4  11  24  43  63  90 122 154 194 236 289 351
#     4  10  20  35  55  82 115 153 198 245 293 347
#     4   9  21  39  58  81 114 150 186 231 280 339
#     4  10  20  36  58  83 111 146 189 238 292 346
#     4  12  26  40  70  90 122 152 194 238 300 344
#     4  10  20  34  56  85 118 153 191 234 286 347
#
# _framework density 19.990677000000002
#
# number of rings (size 3 to 8) (size 9 to 14) (size 15 to 20)
#    0.000    1.655    0.690    5.172    0.966    4.966 
#    0.000    0.000    0.000    0.414    0.000    2.897 
#    0.000    0.000    0.000    0.000    0.000    0.000 
#
# Total GULP energy -718529.135427 kJ/mol
# GULP energy per Si atom -12388.433369 kJ/mol
# Density = 1.994518 g / cm^3
# Si number density = 19.990677 Si / 1000 Ang^3
#
#
#
# Elastic Constant Matrix: (Units=GPa)
#
#
# Indices 1 2 3 4 5 6 
#
# 1 110.7882 19.5928 38.6687 0.0000 0.0000 0.0000
# 2 19.5928 82.3033 35.6482 0.0000 0.0000 0.0000
# 3 38.6687 35.6482 112.2814 0.0000 0.0000 0.0000
# 4 0.0000 0.0000 0.0000 -7.6585 0.0000 0.0000
# 5 0.0000 0.0000 0.0000 0.0000 25.3314 0.0000
# 6 0.0000 0.0000 0.0000 0.0000 0.0000 3.6883
#
#
#
# Elastic Compliance Matrix: (Units=1/GPa)
#
#
# Indices 1 2 3 4 5 6 
#
# 1 0.010339 -0.001066 -0.003222 0.000000 0.000000 0.000000
# 2 -0.001066 0.014197 -0.004140 0.000000 0.000000 0.000000
# 3 -0.003222 -0.004140 0.011331 0.000000 0.000000 0.000000
# 4 0.000000 0.000000 0.000000 -0.130573 0.000000 0.000000
# 5 0.000000 0.000000 0.000000 0.000000 0.039477 0.000000
# 6 0.000000 0.000000 0.000000 0.000000 0.000000 0.271130
#
#
# Mechanical properties :
#
#
# Convention : Reuss Voigt Hill
#
# Bulk Modulus (GPa) = 52.60372 54.79913 53.70143
# Shear Modulus (GPa) = 20.91227 18.36978 19.64102
#
# Velocity S-wave (km/s) = 3.23786 3.03465 3.13790
# Velocity P-wave (km/s) = 6.35213 6.30481 6.32852
#
# Compressibility (1/GPa) = 0.01901006
#
# Stress axis : x y z
#
# Youngs Moduli (GPa) = 96.71701 70.43627 88.25691
#
# Poissons Ratio (x) = 0.07506 0.28441
# Poissons Ratio (y) = 0.10306 0.36543
# Poissons Ratio (z) = 0.31167 0.29164
#
# Static dielectric constant tensor:
#      x y z
#    x 4.073210 0.000000 0.000000 
#    y 0.000000 4.971330 0.000000 
#    z 0.000000 0.000000 3.776030 
# 
# 
# High freq. dielectric constant tensor:
#      x y z
#    x 1.776230 0.000000 0.000000 
#    y 0.000000 1.770820 0.000000 
#    z 0.000000 0.000000 1.790250 
# 
# From -- ./inp_files/6733.got.cif
#   From: 2010.03.12/outbox.cif.g09.slc.cpg/sg49_4_cif.got.tgz:6733.got - 2010.04.14 03:58:27.
