data_PCOD8203716
_publ_section_title
;
Structure prediction by ZEFSAII (Michael W. Deem and Ramdas Pophale) SiO2 
 PCOD8203716
Probable space group: P C C M
;
_chemical_formula_sum "Si O2"
_cell_formula_units_Z 56
_cell_length_a 30.593038
_cell_length_b 4.916298
_cell_length_c 17.269141
_cell_angle_alpha 90.000000
_cell_angle_beta 90.000000
_cell_angle_gamma 90.000000
_cell_volume 2597.356371
_symmetry_space_group_name_H-M "P C C M"
_symmetry_group_IT_number 49
_symmetry_cell_setting 'orthorhombic'
loop_
_space_group_symop_operation_xyz
x,y,z
-x,-y,z
x,-y,1/2-z
-x,y,1/2-z
-x,-y,-z
x,y,-z
-x,y,1/2+z
x,-y,1/2+z
loop_
_atom_site_type_symbol
_atom_site_label
_atom_site_fract_x
_atom_site_fract_y
_atom_site_fract_z
Si Si1 0.770917 0.014669 0.663029
Si Si2 0.187808 0.516025 0.909069
Si Si3 0.905540 0.468232 0.658878
Si Si4 0.545850 0.576195 0.586163
Si Si5 0.324485 0.770093 0.302859
Si Si6 0.397221 0.936691 0.414644
Si Si7 0.950158 0.961829 0.409369
O O1 0.799303 0.207439 0.608554
O O2 0.721922 0.127751 0.665057
O O3 0.790200 0.000000 0.750000
O O4 0.774690 0.714765 0.625695
O O5 0.142015 0.569450 0.867678
O O6 0.183215 0.562072 0.000000
O O7 0.909994 0.500000 0.750000
O O8 0.916848 0.159319 0.636076
O O9 0.940004 0.653939 0.613761
O O10 0.500000 0.500000 0.629984
O O11 0.535719 0.695109 0.500000
O O12 0.566068 0.283691 0.578811
O O13 0.579177 0.797886 0.626240
O O14 0.320135 0.500000 0.250000
O O15 0.357799 0.771451 0.373629
O O16 0.345520 0.000000 0.250000
O O17 0.379834 0.025222 0.500000
O O18 0.943431 0.011688 0.500000
O O19 0.000000 0.000000 0.383743
#
# Coordination Sequence:
#
# PCOD8203716 Si02
#       7
#     8   8   8   8   8   8   8
#     4  11  23  43  65  89 121 163 208 250 308 381
#     4  12  25  42  65  94 126 160 203 259 318 371
#     4  12  25  42  65  94 128 167 210 257 309 376
#     4   9  17  31  53  83 117 152 194 245 299 352
#     4  11  23  41  62  86 120 162 200 246 311 378
#     4  10  20  34  57  87 116 151 199 251 296 354
#     4  11  24  43  66  93 128 168 210 260 316 370
#
# _framework density 21.560383000000002
#
# number of rings (size 3 to 8) (size 9 to 14) (size 15 to 20)
#    0.000    1.143    0.000    7.714    0.000    5.714 
#    0.000    1.429    0.000    6.429    0.000    0.000 
#    0.000    0.000    0.000    0.000    0.000    0.000 
#
# Total GULP energy -694006.700309 kJ/mol
# GULP energy per Si atom -12392.976791 kJ/mol
# Density = 2.151131 g / cm^3
# Si number density = 21.560383 Si / 1000 Ang^3
#
#
#
# Elastic Constant Matrix: (Units=GPa)
#
#
# Indices 1 2 3 4 5 6 
#
# 1 106.9124 22.9684 34.5553 0.0000 0.0000 0.0000
# 2 22.9684 100.2915 13.2263 0.0000 0.0000 0.0000
# 3 34.5553 13.2263 74.3911 0.0000 0.0000 0.0000
# 4 0.0000 0.0000 0.0000 35.3573 0.0000 0.0000
# 5 0.0000 0.0000 0.0000 0.0000 -402.2869 0.0000
# 6 0.0000 0.0000 0.0000 0.0000 0.0000 40.3269
#
#
#
# Elastic Compliance Matrix: (Units=1/GPa)
#
#
# Indices 1 2 3 4 5 6 
#
# 1 0.011367 -0.001953 -0.004933 0.000000 0.000000 0.000000
# 2 -0.001953 0.010546 -0.000968 0.000000 0.000000 0.000000
# 3 -0.004933 -0.000968 0.015906 0.000000 0.000000 0.000000
# 4 0.000000 0.000000 0.000000 0.028283 0.000000 0.000000
# 5 0.000000 0.000000 0.000000 0.000000 -0.002486 0.000000
# 6 0.000000 0.000000 0.000000 0.000000 0.000000 0.024797
#
#
# Mechanical properties :
#
#
# Convention : Reuss Voigt Hill
#
# Bulk Modulus (GPa) = 45.22485 47.01056 46.11770
# Shear Modulus (GPa) = 44.84649 -51.26419 -3.20885
#
# Velocity S-wave (km/s) = 4.56569 -4.88146 -1.22129
# Velocity P-wave (km/s) = 6.98681 3.14961 4.40996
#
# Compressibility (1/GPa) = 0.02211174
#
# Stress axis : x y z
#
# Youngs Moduli (GPa) = 87.97095 94.82457 62.86936
#
# Poissons Ratio (x) = 0.18517 0.31014
# Poissons Ratio (y) = 0.17179 0.06085
# Poissons Ratio (z) = 0.43397 0.09178
#
# Static dielectric constant tensor:
#      x y z
#    x 3.873940 0.000000 0.000000 
#    y 0.000000 4.008630 0.000000 
#    z 0.000000 0.000000 3.713790 
# 
# 
# High freq. dielectric constant tensor:
#      x y z
#    x 1.852410 0.000000 0.000000 
#    y 0.000000 1.864790 0.000000 
#    z 0.000000 0.000000 1.828660 
# 
# From -- ./inp_files/14610.got.cif
#   From: 2010.03.12/outbox.cif.g09.slc.cpg/sg49_8_cif.got.tgz:14610.got - 2010.04.14 03:58:27.
