data_PCOD8203420
_publ_section_title
;
Structure prediction by ZEFSAII (Michael W. Deem and Ramdas Pophale) SiO2 
 PCOD8203420
Probable space group: P C C M
;
_chemical_formula_sum "Si O2"
_cell_formula_units_Z 52
_cell_length_a 13.621750
_cell_length_b 11.467770
_cell_length_c 18.685322
_cell_angle_alpha 90.000000
_cell_angle_beta 90.000000
_cell_angle_gamma 90.000000
_cell_volume 2918.854629
_symmetry_space_group_name_H-M "P C C M"
_symmetry_group_IT_number 49
_symmetry_cell_setting 'orthorhombic'
loop_
_space_group_symop_operation_xyz
x,y,z
-x,-y,z
x,-y,1/2-z
-x,y,1/2-z
-x,-y,-z
x,y,-z
-x,y,1/2+z
x,-y,1/2+z
loop_
_atom_site_type_symbol
_atom_site_label
_atom_site_fract_x
_atom_site_fract_y
_atom_site_fract_z
Si Si1 0.640767 0.609177 0.000000
Si Si2 0.324174 0.500000 0.250000
Si Si3 0.867748 0.392133 0.081064
Si Si4 0.330030 0.686472 0.144901
Si Si5 0.384404 0.135911 0.754213
Si Si6 0.588255 0.357098 0.000000
Si Si7 0.918150 0.661335 0.080924
Si Si8 0.269452 0.700145 0.353268
O O1 0.660075 0.470325 0.000000
O O2 0.525183 0.619741 0.000000
O O3 0.684753 0.663805 0.071047
O O4 0.383200 0.581742 0.192288
O O5 0.263286 0.594295 0.296208
O O6 0.782988 0.349159 0.133902
O O7 0.875247 0.530772 0.081869
O O8 0.970223 0.335859 0.109310
O O9 0.847322 0.349007 0.000000
O O10 0.331976 0.808160 0.185816
O O11 0.386915 0.712753 0.071776
O O12 0.500000 0.163536 0.750000
O O13 0.334932 0.191969 0.824983
O O14 0.362398 0.000000 0.750000
O O15 0.844114 0.737143 0.130909
O O16 0.915078 0.709303 0.000000
#
# Coordination Sequence:
#
# PCOD8203420 Si02
#       8
#     4   4   8   8   8   4   8   8
#     4  11  20  30  50  82 114 139 172 223 278 331
#     4  10  20  28  48  76 112 148 170 204 268 344
#     4   9  16  28  52  83 116 149 175 209 264 327
#     4  11  19  35  55  79 112 144 181 224 273 321
#     4  10  24  44  59  73 102 148 195 232 273 323
#     4  11  20  30  50  82 114 139 172 223 278 331
#     4   9  16  28  52  83 116 149 175 209 264 327
#     4  11  19  35  55  79 112 144 181 224 273 321
#
# _framework density 17.815206
#
# number of rings (size 3 to 8) (size 9 to 14) (size 15 to 20)
#    0.000    1.846    4.615    1.846    0.000    0.000 
#    0.000    6.923    0.000    4.615    0.000    2.154 
#    0.000    0.000    0.000    0.000    0.000    0.000 
#
# Total GULP energy -644283.650789 kJ/mol
# GULP energy per Si atom -12390.070207 kJ/mol
# Density = 1.777466 g / cm^3
# Si number density = 17.815206 Si / 1000 Ang^3
#
#
#
# Elastic Constant Matrix: (Units=GPa)
#
#
# Indices 1 2 3 4 5 6 
#
# 1 84.9575 36.6506 36.7076 0.0000 0.0000 0.0000
# 2 36.6506 76.4602 38.5501 0.0000 0.0000 0.0000
# 3 36.7076 38.5501 111.8500 0.0000 0.0000 0.0000
# 4 0.0000 0.0000 0.0000 16.7724 0.0000 0.0000
# 5 0.0000 0.0000 0.0000 0.0000 20.3444 0.0000
# 6 0.0000 0.0000 0.0000 0.0000 0.0000 18.9080
#
#
#
# Elastic Compliance Matrix: (Units=1/GPa)
#
#
# Indices 1 2 3 4 5 6 
#
# 1 0.015676 -0.005955 -0.003092 0.000000 0.000000 0.000000
# 2 -0.005955 0.018092 -0.004281 0.000000 0.000000 0.000000
# 3 -0.003092 -0.004281 0.011431 0.000000 0.000000 0.000000
# 4 0.000000 0.000000 0.000000 0.059622 0.000000 0.000000
# 5 0.000000 0.000000 0.000000 0.000000 0.049154 0.000000
# 6 0.000000 0.000000 0.000000 0.000000 0.000000 0.052888
#
#
# Mechanical properties :
#
#
# Convention : Reuss Voigt Hill
#
# Bulk Modulus (GPa) = 53.93235 55.23157 54.58196
# Shear Modulus (GPa) = 20.85960 21.96227 21.41093
#
# Velocity S-wave (km/s) = 3.42554 3.51491 3.47051
# Velocity P-wave (km/s) = 6.78120 6.89511 6.83839
#
# Compressibility (1/GPa) = 0.01854175
#
# Stress axis : x y z
#
# Youngs Moduli (GPa) = 63.79361 55.27419 87.48273
#
# Poissons Ratio (x) = 0.32916 0.27050
# Poissons Ratio (y) = 0.37989 0.37452
# Poissons Ratio (z) = 0.19725 0.23663
#
# Static dielectric constant tensor:
#      x y z
#    x 3.531790 0.000000 0.000000 
#    y 0.000000 2.878590 0.000000 
#    z 0.000000 0.000000 3.608060 
# 
# 
# High freq. dielectric constant tensor:
#      x y z
#    x 1.695310 0.000000 0.000000 
#    y 0.000000 1.627570 0.000000 
#    z 0.000000 0.000000 1.703570 
# 
# From -- ./inp_files/17876.got.cif
#   From: 2010.03.12/outbox.cif.g09.slc.cpg/sg49_9_cif.got.tgz:17876.got - 2010.04.14 03:58:27.
