data_PCOD8203105
_publ_section_title
;
Structure prediction by ZEFSAII (Michael W. Deem and Ramdas Pophale) SiO2 
 PCOD8203105
Probable space group: P C C M
;
_chemical_formula_sum "Si O2"
_cell_formula_units_Z 64
_cell_length_a 24.800151
_cell_length_b 14.959444
_cell_length_c 8.823298
_cell_angle_alpha 90.000000
_cell_angle_beta 90.000000
_cell_angle_gamma 90.000000
_cell_volume 3273.412412
_symmetry_space_group_name_H-M "P C C M"
_symmetry_group_IT_number 49
_symmetry_cell_setting 'orthorhombic'
loop_
_space_group_symop_operation_xyz
x,y,z
-x,-y,z
x,-y,1/2-z
-x,y,1/2-z
-x,-y,-z
x,y,-z
-x,y,1/2+z
x,-y,1/2+z
loop_
_atom_site_type_symbol
_atom_site_label
_atom_site_fract_x
_atom_site_fract_y
_atom_site_fract_z
Si Si1 0.057317 0.094153 0.819462
Si Si2 0.704814 0.360566 0.327024
Si Si3 0.813809 0.409095 0.178645
Si Si4 0.447056 0.771294 0.175667
Si Si5 0.330392 0.819470 0.823063
Si Si6 0.585535 0.588672 0.826566
Si Si7 0.760423 0.087476 0.677224
Si Si8 0.149761 0.769725 0.323770
O O1 0.098317 0.172451 0.771908
O O2 0.000000 0.121346 0.750000
O O3 0.077182 0.000000 0.750000
O O4 0.053607 0.083562 0.000000
O O5 0.725822 0.356840 0.500000
O O6 0.751066 0.403648 0.224619
O O7 0.692839 0.261137 0.274172
O O8 0.650270 0.417008 0.312163
O O9 0.838485 0.500000 0.250000
O O10 0.847810 0.323284 0.233841
O O11 0.818420 0.415453 0.000000
O O12 0.500000 0.816494 0.250000
O O13 0.394314 0.831935 0.208754
O O14 0.438755 0.672767 0.240747
O O15 0.458029 0.761514 0.000000
O O16 0.297522 0.904421 0.761799
O O17 0.319830 0.801988 0.000000
O O18 0.561326 0.500000 0.750000
O O19 0.567146 0.594133 0.000000
O O20 0.752218 0.072871 0.500000
O O21 0.796821 0.173489 0.712659
O O22 0.788578 0.000000 0.750000
O O23 0.146021 0.746713 0.500000
#
# Coordination Sequence:
#
# PCOD8203105 Si02
#       8
#     8   8   8   8   8   8   8   8
#     4  10  20  36  60  90 125 163 203 247 291 345
#     4  10  19  33  52  75 106 143 185 230 279 335
#     4  12  24  36  55  80 113 156 200 246 291 343
#     4  10  21  36  54  74  98 130 174 223 274 337
#     4  10  20  35  55  80 109 142 181 225 278 337
#     4  10  20  32  48  70  98 132 172 221 276 333
#     4  11  22  36  58  86 120 155 188 229 282 346
#     4  10  22  39  58  85 122 160 199 244 291 340
#
# _framework density 19.551462000000001
#
# number of rings (size 3 to 8) (size 9 to 14) (size 15 to 20)
#    0.000    1.625    1.250    4.500    0.000    5.750 
#    0.000    1.250    0.000    0.750    0.000    5.250 
#    0.000    0.000    0.000    0.000    0.000    0.000 
#
# Total GULP energy -793622.578428 kJ/mol
# GULP energy per Si atom -12400.352788 kJ/mol
# Density = 1.950696 g / cm^3
# Si number density = 19.551462 Si / 1000 Ang^3
#
#
#
# Elastic Constant Matrix: (Units=GPa)
#
#
# Indices 1 2 3 4 5 6 
#
# 1 103.9063 43.9820 55.5067 0.0000 0.0000 0.0000
# 2 43.9820 98.6213 56.2472 0.0000 0.0000 0.0000
# 3 55.5067 56.2472 122.9476 0.0000 0.0000 0.0000
# 4 0.0000 0.0000 0.0000 32.2265 0.0000 0.0000
# 5 0.0000 0.0000 0.0000 0.0000 27.0691 0.0000
# 6 0.0000 0.0000 0.0000 0.0000 0.0000 3.2938
#
#
#
# Elastic Compliance Matrix: (Units=1/GPa)
#
#
# Indices 1 2 3 4 5 6 
#
# 1 0.013494 -0.003441 -0.004518 0.000000 0.000000 0.000000
# 2 -0.003441 0.014597 -0.005124 0.000000 0.000000 0.000000
# 3 -0.004518 -0.005124 0.012518 0.000000 0.000000 0.000000
# 4 0.000000 0.000000 0.000000 0.031030 0.000000 0.000000
# 5 0.000000 0.000000 0.000000 0.000000 0.036942 0.000000
# 6 0.000000 0.000000 0.000000 0.000000 0.000000 0.303598
#
#
# Mechanical properties :
#
#
# Convention : Reuss Voigt Hill
#
# Bulk Modulus (GPa) = 69.24338 70.77189 70.00764
# Shear Modulus (GPa) = 11.28259 23.83385 17.55822
#
# Velocity S-wave (km/s) = 2.40484 3.49525 3.00000
# Velocity P-wave (km/s) = 6.57296 7.25020 6.91987
#
# Compressibility (1/GPa) = 0.01444181
#
# Stress axis : x y z
#
# Youngs Moduli (GPa) = 74.10651 68.50655 79.88809
#
# Poissons Ratio (x) = 0.23575 0.36092
# Poissons Ratio (y) = 0.25502 0.40938
# Poissons Ratio (z) = 0.33480 0.35105
#
# Static dielectric constant tensor:
#      x y z
#    x 3.649270 0.000000 0.000000 
#    y 0.000000 3.486190 0.000000 
#    z 0.000000 0.000000 3.612480 
# 
# 
# High freq. dielectric constant tensor:
#      x y z
#    x 1.748500 0.000000 0.000000 
#    y 0.000000 1.747740 0.000000 
#    z 0.000000 0.000000 1.775070 
# 
# From -- ./inp_files/6497.got.cif
#   From: 2010.03.12/outbox.cif.g09.slc.cpg/sg49_4_cif.got.tgz:6497.got - 2010.04.14 03:58:27.
