data_PCOD8203573
_publ_section_title
;
Structure prediction by ZEFSAII (Michael W. Deem and Ramdas Pophale) SiO2 
 PCOD8203573
Probable space group: P C C M
;
_chemical_formula_sum "Si O2"
_cell_formula_units_Z 56
_cell_length_a 22.690842
_cell_length_b 14.780944
_cell_length_c 8.669295
_cell_angle_alpha 90.000000
_cell_angle_beta 90.000000
_cell_angle_gamma 90.000000
_cell_volume 2907.612751
_symmetry_space_group_name_H-M "P C C M"
_symmetry_group_IT_number 49
_symmetry_cell_setting 'orthorhombic'
loop_
_space_group_symop_operation_xyz
x,y,z
-x,-y,z
x,-y,1/2-z
-x,y,1/2-z
-x,-y,-z
x,y,-z
-x,y,1/2+z
x,-y,1/2+z
loop_
_atom_site_type_symbol
_atom_site_label
_atom_site_fract_x
_atom_site_fract_y
_atom_site_fract_z
Si Si1 0.336201 0.095645 0.816628
Si Si2 0.062769 0.403967 0.817775
Si Si3 0.166729 0.271537 0.818432
Si Si4 0.394602 0.405831 0.680053
Si Si5 0.209552 0.903666 0.817357
Si Si6 0.560320 0.773082 0.818462
Si Si7 0.742419 0.405222 0.819429
O O1 0.273770 0.123967 0.745207
O O2 0.384565 0.167635 0.761319
O O3 0.356996 0.000000 0.750000
O O4 0.329850 0.090280 0.000000
O O5 0.083722 0.500000 0.750000
O O6 0.109133 0.327473 0.768248
O O7 0.000000 0.374606 0.750000
O O8 0.057873 0.413962 0.000000
O O9 0.163954 0.173739 0.736256
O O10 0.224762 0.323877 0.764385
O O11 0.169624 0.256787 0.000000
O O12 0.416674 0.500000 0.750000
O O13 0.407476 0.404791 0.500000
O O14 0.432330 0.328606 0.760332
O O15 0.326005 0.391045 0.717329
O O16 0.188842 0.000000 0.750000
O O17 0.211376 0.910527 0.000000
O O18 0.500000 0.814108 0.750000
O O19 0.555754 0.774677 0.000000
O O20 0.764951 0.500000 0.750000
O O21 0.756469 0.403998 0.000000
#
# Coordination Sequence:
#
# PCOD8203573 Si02
#       7
#     8   8   8   8   8   8   8
#     4  10  21  38  60  84 111 142 175 217 269 326
#     4  10  21  36  56  81 114 154 194 234 273 317
#     4  11  22  35  54  82 114 148 186 229 274 324
#     4  10  21  37  56  77 104 137 175 218 266 321
#     4  11  22  37  59  85 113 145 180 223 273 327
#     4  11  24  39  56  78 104 136 176 221 267 317
#     4  10  20  33  52  80 111 144 178 219 271 326
#
# _framework density 19.259785000000001
#
# number of rings (size 3 to 8) (size 9 to 14) (size 15 to 20)
#    0.000    1.571    0.000    6.429    0.000   10.286 
#    0.000    2.857    0.000    0.429    0.000    3.000 
#    0.000    0.000    0.000    0.000    0.000    0.000 
#
# Total GULP energy -694697.798670 kJ/mol
# GULP energy per Si atom -12405.317833 kJ/mol
# Density = 1.921595 g / cm^3
# Si number density = 19.259785 Si / 1000 Ang^3
#
#
#
# Elastic Constant Matrix: (Units=GPa)
#
#
# Indices 1 2 3 4 5 6 
#
# 1 77.4615 59.6717 40.8148 0.0000 0.0000 0.0000
# 2 59.6717 134.7822 45.4078 0.0000 0.0000 0.0000
# 3 40.8148 45.4078 96.7682 0.0000 0.0000 0.0000
# 4 0.0000 0.0000 0.0000 34.9581 0.0000 0.0000
# 5 0.0000 0.0000 0.0000 0.0000 12.7471 0.0000
# 6 0.0000 0.0000 0.0000 0.0000 0.0000 24.1766
#
#
#
# Elastic Compliance Matrix: (Units=1/GPa)
#
#
# Indices 1 2 3 4 5 6 
#
# 1 0.021845 -0.007800 -0.005553 0.000000 0.000000 0.000000
# 2 -0.007800 0.011598 -0.002152 0.000000 0.000000 0.000000
# 3 -0.005553 -0.002152 0.013686 0.000000 0.000000 0.000000
# 4 0.000000 0.000000 0.000000 0.028606 0.000000 0.000000
# 5 0.000000 0.000000 0.000000 0.000000 0.078449 0.000000
# 6 0.000000 0.000000 0.000000 0.000000 0.000000 0.041362
#
#
# Mechanical properties :
#
#
# Convention : Reuss Voigt Hill
#
# Bulk Modulus (GPa) = 62.04666 66.75562 64.40114
# Shear Modulus (GPa) = 21.55823 25.25086 23.40454
#
# Velocity S-wave (km/s) = 3.34928 3.62479 3.48976
# Velocity P-wave (km/s) = 6.87332 7.22874 7.05327
#
# Compressibility (1/GPa) = 0.01611690
#
# Stress axis : x y z
#
# Youngs Moduli (GPa) = 45.77792 86.22286 73.06644
#
# Poissons Ratio (x) = 0.67256 0.40576
# Poissons Ratio (y) = 0.35708 0.15725
# Poissons Ratio (z) = 0.25422 0.18557
#
# Static dielectric constant tensor:
#      x y z
#    x 3.488760 0.000000 0.000000 
#    y 0.000000 3.615220 0.000000 
#    z 0.000000 0.000000 3.606030 
# 
# 
# High freq. dielectric constant tensor:
#      x y z
#    x 1.734500 0.000000 0.000000 
#    y 0.000000 1.754360 0.000000 
#    z 0.000000 0.000000 1.766450 
# 
# From -- ./inp_files/4060.got.cif
#   From: 2010.03.12/outbox.cif.g09.slc.cpg/sg49_3_cif.got.tgz:4060.got - 2010.04.14 03:58:27.
