data_PCOD8203932
_publ_section_title
;
Structure prediction by ZEFSAII (Michael W. Deem and Ramdas Pophale) SiO2 
 PCOD8203932
Probable space group: P C C M
;
_chemical_formula_sum "Si O2"
_cell_formula_units_Z 64
_cell_length_a 8.830914
_cell_length_b 23.994363
_cell_length_c 15.337585
_cell_angle_alpha 90.000000
_cell_angle_beta 90.000000
_cell_angle_gamma 90.000000
_cell_volume 3249.913956
_symmetry_space_group_name_H-M "P C C M"
_symmetry_group_IT_number 49
_symmetry_cell_setting 'orthorhombic'
loop_
_space_group_symop_operation_xyz
x,y,z
-x,-y,z
x,-y,1/2-z
-x,y,1/2-z
-x,-y,-z
x,y,-z
-x,y,1/2+z
x,-y,1/2+z
loop_
_atom_site_type_symbol
_atom_site_label
_atom_site_fract_x
_atom_site_fract_y
_atom_site_fract_z
Si Si1 0.674917 0.614064 0.098994
Si Si2 0.179669 0.810339 0.250000
Si Si3 0.174124 0.111669 0.097199
Si Si4 0.819707 0.315266 0.250000
Si Si5 0.825876 0.888331 0.402801
Si Si6 0.674917 0.385936 0.901006
Si Si7 0.823252 0.500000 0.147386
Si Si8 0.678632 1.000000 0.651510
O O1 0.761059 0.655823 0.162721
O O2 0.500000 0.610690 0.126819
O O3 0.746871 0.553318 0.104672
O O4 0.692660 0.636034 0.000000
O O5 0.239961 0.842832 0.335439
O O6 0.243711 0.747798 0.250000
O O7 0.239961 0.842832 0.164561
O O8 0.000000 0.807316 0.250000
O O9 1.000000 0.098644 0.119510
O O10 0.264305 0.054360 0.102113
O O11 0.192201 0.136393 0.000000
O O12 0.761059 0.344176 0.162721
O O13 0.000000 0.318593 0.250000
O O14 0.807799 0.863607 0.500000
O O15 0.735695 0.945640 0.397887
O O16 0.746871 0.446682 0.895328
O O17 0.692660 0.363966 0.000000
O O18 0.794127 0.500000 0.250000
O O19 0.000000 0.500000 0.124912
O O20 0.500000 0.000000 0.649494
O O21 0.741546 0.000000 0.750000
#
# Coordination Sequence:
#
# PCOD8203932 Si02
#       8
#     8   8   8   8   8   8   8   8
#     4  11  24  41  62  89 122 161 199 238 291 354
#     4   9  20  38  59  84 114 146 189 243 288 333
#     4  10  20  36  60  86 111 146 189 232 284 343
#     4  11  23  40  63  90 117 154 200 249 300 343
#     4  10  20  36  60  86 111 146 189 232 284 343
#     4  11  24  41  62  89 122 161 199 238 291 354
#     4  11  22  37  62  95 124 153 192 243 301 351
#     4  11  22  35  54  83 117 152 185 226 285 343
#
# _framework density 19.692829
#
# number of rings (size 3 to 8) (size 9 to 14) (size 15 to 20)
#    0.000    1.500    2.500    2.625    0.000    7.500 
#    0.000    5.000    0.000    0.000    0.000    0.000 
#    0.000    0.000    0.000    0.000    0.000    0.000 
#
# Total GULP energy -793832.798066 kJ/mol
# GULP energy per Si atom -12403.637470 kJ/mol
# Density = 1.964801 g / cm^3
# Si number density = 19.692829 Si / 1000 Ang^3
#
#
#
# Elastic Constant Matrix: (Units=GPa)
#
#
# Indices 1 2 3 4 5 6 
#
# 1 85.5317 41.1522 45.2535 0.0000 0.0000 0.0000
# 2 41.1522 163.8710 67.6507 0.0000 0.0000 0.0000
# 3 45.2535 67.6507 142.1331 0.0000 0.0000 0.0000
# 4 0.0000 0.0000 0.0000 6.5708 0.0000 0.0000
# 5 0.0000 0.0000 0.0000 0.0000 28.3448 0.0000
# 6 0.0000 0.0000 0.0000 0.0000 0.0000 -37.0233
#
#
#
# Elastic Compliance Matrix: (Units=1/GPa)
#
#
# Indices 1 2 3 4 5 6 
#
# 1 0.014662 -0.002184 -0.003629 0.000000 0.000000 0.000000
# 2 -0.002184 0.007920 -0.003074 0.000000 0.000000 0.000000
# 3 -0.003629 -0.003074 0.009654 0.000000 0.000000 0.000000
# 4 0.000000 0.000000 0.000000 0.152189 0.000000 0.000000
# 5 0.000000 0.000000 0.000000 0.000000 0.035280 0.000000
# 6 0.000000 0.000000 0.000000 0.000000 0.000000 -0.027010
#
#
# Mechanical properties :
#
#
# Convention : Reuss Voigt Hill
#
# Bulk Modulus (GPa) = 69.14486 77.73875 73.44181
# Shear Modulus (GPa) = 23.22443 15.41041 19.31742
#
# Velocity S-wave (km/s) = 3.43787 2.80042 3.13539
# Velocity P-wave (km/s) = 7.13768 7.07233 7.10508
#
# Compressibility (1/GPa) = 0.01446239
#
# Stress axis : x y z
#
# Youngs Moduli (GPa) = 68.20208 126.26299 103.58091
#
# Poissons Ratio (x) = 0.27576 0.37587
# Poissons Ratio (y) = 0.14895 0.31844
# Poissons Ratio (z) = 0.24749 0.38817
#
# Static dielectric constant tensor:
#      x y z
#    x 3.509810 0.000000 0.000000 
#    y 0.000000 3.648110 0.000000 
#    z 0.000000 0.000000 3.813250 
# 
# 
# High freq. dielectric constant tensor:
#      x y z
#    x 1.759780 0.000000 0.000000 
#    y 0.000000 1.761920 0.000000 
#    z 0.000000 0.000000 1.786580 
# 
# From -- ./inp_files/12113.got.cif
#   From: 2010.03.12/outbox.cif.g09.slc.cpg/sg49_7_cif.got.tgz:12113.got - 2010.04.14 03:58:27.
