data_PCOD8203440
_publ_section_title
;
Structure prediction by ZEFSAII (Michael W. Deem and Ramdas Pophale) SiO2 
 PCOD8203440
Probable space group: P C C M
;
_chemical_formula_sum "Si O2"
_cell_formula_units_Z 48
_cell_length_a 16.959979
_cell_length_b 5.134649
_cell_length_c 32.626211
_cell_angle_alpha 90.000000
_cell_angle_beta 90.000000
_cell_angle_gamma 90.000000
_cell_volume 2841.205925
_symmetry_space_group_name_H-M "P C C M"
_symmetry_group_IT_number 49
_symmetry_cell_setting 'orthorhombic'
loop_
_space_group_symop_operation_xyz
x,y,z
-x,-y,z
x,-y,1/2-z
-x,y,1/2-z
-x,-y,-z
x,y,-z
-x,y,1/2+z
x,-y,1/2+z
loop_
_atom_site_type_symbol
_atom_site_label
_atom_site_fract_x
_atom_site_fract_y
_atom_site_fract_z
Si Si1 0.093549 0.010337 0.154440
Si Si2 0.964604 0.250525 0.954146
Si Si3 0.281009 0.608891 0.548086
Si Si4 0.545557 0.749666 0.048706
Si Si5 0.805924 0.881944 0.574251
Si Si6 0.092604 0.485297 0.704765
O O1 0.150359 0.941091 0.116634
O O2 0.116247 0.793547 0.187449
O O3 0.119943 0.285819 0.173815
O O4 0.000000 0.000000 0.143355
O O5 0.870621 0.247318 0.955753
O O6 0.000000 0.500000 0.929969
O O7 0.000081 0.256226 0.000000
O O8 0.000000 0.000000 0.930706
O O9 0.284063 0.533785 0.500000
O O10 0.364525 0.722534 0.563817
O O11 0.261166 0.344983 0.574192
O O12 0.220539 0.843347 0.555692
O O13 0.500000 0.500000 0.065358
O O14 0.500000 0.000000 0.067283
O O15 0.543832 0.766391 0.000000
O O16 0.132063 0.500000 0.750000
O O17 0.000000 0.500000 0.709997
#
# Coordination Sequence:
#
# PCOD8203440 Si02
#       6
#     8   8   8   8   8   8
#     4  10  20  32  47  67  91 122 157 195 239 279
#     4  10  20  32  44  56  75 113 163 206 236 260
#     4  11  22  34  49  68  91 123 160 199 242 282
#     4   9  17  31  50  69  87 109 146 195 239 282
#     4  12  22  33  46  65  94 122 156 198 241 282
#     4   9  17  31  50  69  87 110 149 198 240 282
#
# _framework density 16.894234999999998
#
# number of rings (size 3 to 8) (size 9 to 14) (size 15 to 20)
#    0.000    1.833    0.000    5.500    0.000    8.000 
#    0.000    0.000    0.000    0.000    0.000    0.000 
#    0.000    0.000    0.000    0.000    0.000  175.000 
#
# Total GULP energy -594784.419530 kJ/mol
# GULP energy per Si atom -12391.342074 kJ/mol
# Density = 1.685578 g / cm^3
# Si number density = 16.894235 Si / 1000 Ang^3
#
#
#
# Elastic Constant Matrix: (Units=GPa)
#
#
# Indices 1 2 3 4 5 6 
#
# 1 70.7148 31.5333 25.9984 0.0000 0.0000 0.0000
# 2 31.5333 129.9029 25.7741 0.0000 0.0000 0.0000
# 3 25.9984 25.7741 64.8042 0.0000 0.0000 0.0000
# 4 0.0000 0.0000 0.0000 41.9376 0.0000 0.0000
# 5 0.0000 0.0000 0.0000 0.0000 4.2739 0.0000
# 6 0.0000 0.0000 0.0000 0.0000 0.0000 30.9898
#
#
#
# Elastic Compliance Matrix: (Units=1/GPa)
#
#
# Indices 1 2 3 4 5 6 
#
# 1 0.017689 -0.003133 -0.005851 0.000000 0.000000 0.000000
# 2 -0.003133 0.008913 -0.002288 0.000000 0.000000 0.000000
# 3 -0.005851 -0.002288 0.018688 0.000000 0.000000 0.000000
# 4 0.000000 0.000000 0.000000 0.023845 0.000000 0.000000
# 5 0.000000 0.000000 0.000000 0.000000 0.233980 0.000000
# 6 0.000000 0.000000 0.000000 0.000000 0.000000 0.032269
#
#
# Mechanical properties :
#
#
# Convention : Reuss Voigt Hill
#
# Bulk Modulus (GPa) = 43.96164 48.00372 45.98268
# Shear Modulus (GPa) = 13.67956 27.58133 20.63044
#
# Velocity S-wave (km/s) = 2.84864 4.04491 3.49829
# Velocity P-wave (km/s) = 6.07436 7.09162 6.60261
#
# Compressibility (1/GPa) = 0.02274711
#
# Stress axis : x y z
#
# Youngs Moduli (GPa) = 56.53093 112.20144 53.50991
#
# Poissons Ratio (x) = 0.35155 0.31306
# Poissons Ratio (y) = 0.17712 0.12242
# Poissons Ratio (z) = 0.33074 0.25669
#
# Static dielectric constant tensor:
#      x y z
#    x 4.676070 0.000000 0.000000 
#    y 0.000000 2.920140 0.000000 
#    z 0.000000 0.000000 2.950110 
# 
# 
# High freq. dielectric constant tensor:
#      x y z
#    x 1.617230 0.000000 0.000000 
#    y 0.000000 1.683100 0.000000 
#    z 0.000000 0.000000 1.610810 
# 
# From -- ./inp_files/25040.got.cif
#   From: 2010.03.12/outbox.cif.g09.slc.cpg/sg49_13_cif.got.tgz:25040.got - 2010.04.14 03:58:27.
