data_PCOD8203765
_publ_section_title
;
Structure prediction by ZEFSAII (Michael W. Deem and Ramdas Pophale) SiO2 
 PCOD8203765
Probable space group: P C C M
;
_chemical_formula_sum "Si O2"
_cell_formula_units_Z 42
_cell_length_a 10.314515
_cell_length_b 25.344604
_cell_length_c 9.095728
_cell_angle_alpha 90.000000
_cell_angle_beta 90.000000
_cell_angle_gamma 90.000000
_cell_volume 2377.780638
_symmetry_space_group_name_H-M "P C C M"
_symmetry_group_IT_number 49
_symmetry_cell_setting 'orthorhombic'
loop_
_space_group_symop_operation_xyz
x,y,z
-x,-y,z
x,-y,1/2-z
-x,y,1/2-z
-x,-y,-z
x,y,-z
-x,y,1/2+z
x,-y,1/2+z
loop_
_atom_site_type_symbol
_atom_site_label
_atom_site_fract_x
_atom_site_fract_y
_atom_site_fract_z
Si Si1 0.632464 0.139611 0.172527
Si Si2 0.137494 0.548330 0.171055
Si Si3 0.000000 0.000000 0.750000
Si Si4 0.137018 0.334532 0.670940
Si Si5 0.754342 0.950890 0.163378
Si Si6 0.632675 0.260825 0.171932
O O1 0.500000 0.122627 0.250000
O O2 0.741770 0.102897 0.243938
O O3 0.665996 0.200209 0.207532
O O4 0.622468 0.129056 0.000000
O O5 0.217496 0.500000 0.250000
O O6 0.196911 0.606585 0.195377
O O7 0.000000 0.550146 0.250000
O O8 0.123064 0.535060 0.000000
O O9 0.091833 0.037103 0.850415
O O10 0.110078 0.324235 0.500000
O O11 0.246268 0.294809 0.732502
O O12 0.000000 0.325066 0.750000
O O13 0.685558 0.000000 0.250000
O O14 0.694832 0.944981 0.000000
O O15 0.500000 0.278611 0.250000
O O16 0.612140 0.270587 0.000000
#
# Coordination Sequence:
#
# PCOD8203765 Si02
#       6
#     8   8   2   8   8   8
#     4  10  20  35  55  76 101 128 164 207 248 292
#     4   9  15  24  41  65  95 129 163 203 249 298
#     4   8  22  36  56  72 102 132 166 194 236 292
#     4   9  18  32  49  73 104 133 167 211 256 301
#     4  10  20  35  55  76 101 130 162 197 240 289
#     4   9  19  36  55  75 101 134 172 212 254 303
#
# _framework density 17.663530000000002
#
# number of rings (size 3 to 8) (size 9 to 14) (size 15 to 20)
#    0.571    2.095    0.000    2.571    0.000    2.667 
#    1.714    1.905    0.000    0.571    0.000    4.000 
#    0.000    0.000    0.000    0.000    0.000    0.000 
#
# Total GULP energy -520373.319417 kJ/mol
# GULP energy per Si atom -12389.840938 kJ/mol
# Density = 1.762333 g / cm^3
# Si number density = 17.663530 Si / 1000 Ang^3
#
#
#
# Elastic Constant Matrix: (Units=GPa)
#
#
# Indices 1 2 3 4 5 6 
#
# 1 86.5920 66.0765 37.9741 0.0000 0.0000 0.0000
# 2 66.0765 124.9817 57.6338 0.0000 0.0000 0.0000
# 3 37.9741 57.6338 104.1917 0.0000 0.0000 0.0000
# 4 0.0000 0.0000 0.0000 17.6076 0.0000 0.0000
# 5 0.0000 0.0000 0.0000 0.0000 21.4903 0.0000
# 6 0.0000 0.0000 0.0000 0.0000 0.0000 18.4864
#
#
#
# Elastic Compliance Matrix: (Units=1/GPa)
#
#
# Indices 1 2 3 4 5 6 
#
# 1 0.019634 -0.009505 -0.001898 0.000000 0.000000 0.000000
# 2 -0.009505 0.015342 -0.005022 0.000000 0.000000 0.000000
# 3 -0.001898 -0.005022 0.013068 0.000000 0.000000 0.000000
# 4 0.000000 0.000000 0.000000 0.056794 0.000000 0.000000
# 5 0.000000 0.000000 0.000000 0.000000 0.046533 0.000000
# 6 0.000000 0.000000 0.000000 0.000000 0.000000 0.054094
#
#
# Mechanical properties :
#
#
# Convention : Reuss Voigt Hill
#
# Bulk Modulus (GPa) = 65.82052 71.01490 68.41771
# Shear Modulus (GPa) = 20.54408 21.78894 21.16651
#
# Velocity S-wave (km/s) = 3.41409 3.51601 3.46543
# Velocity P-wave (km/s) = 7.27226 7.53489 7.40474
#
# Compressibility (1/GPa) = 0.01519283
#
# Stress axis : x y z
#
# Youngs Moduli (GPa) = 50.93258 65.17918 76.52461
#
# Poissons Ratio (x) = 0.61952 0.14526
# Poissons Ratio (y) = 0.48411 0.38434
# Poissons Ratio (z) = 0.09668 0.32736
#
# Static dielectric constant tensor:
#      x y z
#    x 2.948010 0.000000 0.000000 
#    y 0.000000 3.946630 0.000000 
#    z 0.000000 0.000000 3.300830 
# 
# 
# High freq. dielectric constant tensor:
#      x y z
#    x 1.640720 0.000000 0.000000 
#    y 0.000000 1.694380 0.000000 
#    z 0.000000 0.000000 1.690930 
# 
# From -- ./inp_files/2849.got.cif
#   From: 2010.03.12/outbox.cif.g09.slc.cpg/sg49_2_cif.got.tgz:2849.got - 2010.04.14 03:58:27.
