data_PCOD8203747
_publ_section_title
;
Structure prediction by ZEFSAII (Michael W. Deem and Ramdas Pophale) SiO2 
 PCOD8203747
Probable space group: P C C M
;
_chemical_formula_sum "Si O2"
_cell_formula_units_Z 48
_cell_length_a 29.589481
_cell_length_b 10.131448
_cell_length_c 8.486539
_cell_angle_alpha 90.000000
_cell_angle_beta 90.000000
_cell_angle_gamma 90.000000
_cell_volume 2544.131053
_symmetry_space_group_name_H-M "P C C M"
_symmetry_group_IT_number 49
_symmetry_cell_setting 'orthorhombic'
loop_
_space_group_symop_operation_xyz
x,y,z
-x,-y,z
x,-y,1/2-z
-x,y,1/2-z
-x,-y,-z
x,y,-z
-x,y,1/2+z
x,-y,1/2+z
loop_
_atom_site_type_symbol
_atom_site_label
_atom_site_fract_x
_atom_site_fract_y
_atom_site_fract_z
Si Si1 0.951272 0.858234 0.685319
Si Si2 0.883696 0.643348 0.185770
Si Si3 0.720686 0.141322 0.686879
Si Si4 0.785895 0.639796 0.685610
Si Si5 0.617473 0.861274 0.185317
Si Si6 0.548741 0.357465 0.686890
O O1 0.954423 0.868142 0.500000
O O2 0.915127 0.750469 0.734018
O O3 0.000000 0.815940 0.750000
O O4 0.935788 0.000000 0.750000
O O5 0.897381 0.500000 0.250000
O O6 0.832320 0.678261 0.228741
O O7 0.890461 0.647094 0.000000
O O8 0.727672 0.150517 0.500000
O O9 0.748890 0.251640 0.775856
O O10 0.668879 0.164708 0.738541
O O11 0.737432 0.000000 0.750000
O O12 0.767860 0.500000 0.750000
O O13 0.794599 0.629961 0.500000
O O14 0.585716 0.745471 0.252050
O O15 0.599427 0.000000 0.250000
O O16 0.614161 0.866729 0.000000
O O17 0.563040 0.500000 0.750000
O O18 0.500000 0.313664 0.750000
O O19 0.547177 0.361776 0.500000
#
# Coordination Sequence:
#
# PCOD8203747 Si02
#       6
#     8   8   8   8   8   8
#     4  11  22  39  60  86 116 150 188 231 278 329
#     4  11  22  39  60  85 114 148 186 230 277 328
#     4  10  20  37  57  81 110 143 181 225 271 324
#     4  11  22  38  58  83 112 146 183 226 274 326
#     4   9  20  36  55  78 107 139 177 219 266 318
#     4  10  20  35  53  77 105 138 176 219 265 317
#
# _framework density 18.866954
#
# number of rings (size 3 to 8) (size 9 to 14) (size 15 to 20)
#    0.000    1.667    0.000    7.500    0.000    4.000 
#    0.000    8.333    0.000    0.000    0.000    0.000 
#    0.000    0.000    0.000    0.000    0.000    0.000 
#
# Total GULP energy -595389.853328 kJ/mol
# GULP energy per Si atom -12403.955278 kJ/mol
# Density = 1.882401 g / cm^3
# Si number density = 18.866954 Si / 1000 Ang^3
#
#
#
# Elastic Constant Matrix: (Units=GPa)
#
#
# Indices 1 2 3 4 5 6 
#
# 1 92.8218 91.0599 22.4958 0.0000 0.0000 0.0000
# 2 91.0599 147.1149 32.7946 0.0000 0.0000 0.0000
# 3 22.4958 32.7946 103.2889 0.0000 0.0000 0.0000
# 4 0.0000 0.0000 0.0000 35.2793 0.0000 0.0000
# 5 0.0000 0.0000 0.0000 0.0000 31.4360 0.0000
# 6 0.0000 0.0000 0.0000 0.0000 0.0000 45.9330
#
#
#
# Elastic Compliance Matrix: (Units=1/GPa)
#
#
# Indices 1 2 3 4 5 6 
#
# 1 0.027466 -0.016861 -0.000629 0.000000 0.000000 0.000000
# 2 -0.016861 0.017665 -0.001937 0.000000 0.000000 0.000000
# 3 -0.000629 -0.001937 0.010433 0.000000 0.000000 0.000000
# 4 0.000000 0.000000 0.000000 0.028345 0.000000 0.000000
# 5 0.000000 0.000000 0.000000 0.000000 0.031811 0.000000
# 6 0.000000 0.000000 0.000000 0.000000 0.000000 0.021771
#
#
# Mechanical properties :
#
#
# Convention : Reuss Voigt Hill
#
# Bulk Modulus (GPa) = 59.83353 70.65846 65.24600
# Shear Modulus (GPa) = 27.48533 35.65468 31.57000
#
# Velocity S-wave (km/s) = 3.82094 4.35189 4.09503
# Velocity P-wave (km/s) = 7.15880 7.92365 7.55091
#
# Compressibility (1/GPa) = 0.01671304
#
# Stress axis : x y z
#
# Youngs Moduli (GPa) = 36.40811 56.60765 95.84596
#
# Poissons Ratio (x) = 0.95445 0.06026
# Poissons Ratio (y) = 0.61387 0.18562
# Poissons Ratio (z) = 0.02289 0.10963
#
# Static dielectric constant tensor:
#      x y z
#    x 3.572310 0.000000 0.000000 
#    y 0.000000 3.623830 0.000000 
#    z 0.000000 0.000000 3.579330 
# 
# 
# High freq. dielectric constant tensor:
#      x y z
#    x 1.732910 0.000000 0.000000 
#    y 0.000000 1.741900 0.000000 
#    z 0.000000 0.000000 1.750690 
# 
# From -- ./inp_files/2097.got.cif
#   From: 2010.03.12/outbox.cif.g09.slc.cpg/sg49_2_cif.got.tgz:2097.got - 2010.04.14 03:58:27.
