data_PCOD8203832
_publ_section_title
;
Structure prediction by ZEFSAII (Michael W. Deem and Ramdas Pophale) SiO2 
 PCOD8203832
Probable space group: P C C M
;
_chemical_formula_sum "Si O2"
_cell_formula_units_Z 48
_cell_length_a 20.580539
_cell_length_b 14.347583
_cell_length_c 8.620493
_cell_angle_alpha 90.000000
_cell_angle_beta 90.000000
_cell_angle_gamma 90.000000
_cell_volume 2545.467720
_symmetry_space_group_name_H-M "P C C M"
_symmetry_group_IT_number 49
_symmetry_cell_setting 'orthorhombic'
loop_
_space_group_symop_operation_xyz
x,y,z
-x,-y,z
x,-y,1/2-z
-x,y,1/2-z
-x,-y,-z
x,y,-z
-x,y,1/2+z
x,-y,1/2+z
loop_
_atom_site_type_symbol
_atom_site_label
_atom_site_fract_x
_atom_site_fract_y
_atom_site_fract_z
Si Si1 0.810616 0.398126 0.682581
Si Si2 0.692577 0.716294 0.682183
Si Si3 0.127904 0.905301 0.818133
Si Si4 0.432475 0.600292 0.817958
Si Si5 0.068945 0.709617 0.181029
Si Si6 0.730747 0.902342 0.183508
O O1 0.799449 0.500000 0.750000
O O2 0.813335 0.405581 0.500000
O O3 0.751143 0.333386 0.730414
O O4 0.877492 0.354751 0.741051
O O5 0.706555 0.710586 0.500000
O O6 0.624640 0.670061 0.729000
O O7 0.687404 0.822459 0.738355
O O8 0.080646 0.818982 0.784663
O O9 0.194578 0.886057 0.728875
O O10 0.095553 0.000000 0.750000
O O11 0.142788 0.917317 0.000000
O O12 0.414850 0.500000 0.750000
O O13 0.500000 0.639308 0.750000
O O14 0.440029 0.590047 0.000000
O O15 0.000000 0.680529 0.250000
O O16 0.070096 0.688645 0.000000
O O17 0.704870 0.000000 0.250000
O O18 0.723020 0.899711 0.000000
#
# Coordination Sequence:
#
# PCOD8203832 Si02
#       6
#     8   8   8   8   8   8
#     4  12  25  41  62  86 113 148 191 240 292 345
#     4  11  22  38  60  89 121 154 194 239 287 339
#     4  10  20  35  57  82 114 148 186 235 287 343
#     4  10  21  36  58  86 122 160 196 238 283 339
#     4  11  24  41  60  82 113 150 191 241 291 349
#     4  11  21  34  57  86 117 153 191 236 288 342
#
# _framework density 18.857044999999999
#
# number of rings (size 3 to 8) (size 9 to 14) (size 15 to 20)
#    0.000    1.167    1.667    7.000    0.000    6.667 
#    0.000    3.333    0.000    0.500    0.000    3.500 
#    0.000    0.000    0.000    0.000    0.000    0.000 
#
# Total GULP energy -595423.933035 kJ/mol
# GULP energy per Si atom -12404.665272 kJ/mol
# Density = 1.881413 g / cm^3
# Si number density = 18.857045 Si / 1000 Ang^3
#
#
#
# Elastic Constant Matrix: (Units=GPa)
#
#
# Indices 1 2 3 4 5 6 
#
# 1 112.5028 59.1529 40.4187 0.0000 0.0000 0.0000
# 2 59.1529 117.4964 37.9650 0.0000 0.0000 0.0000
# 3 40.4187 37.9650 98.5434 0.0000 0.0000 0.0000
# 4 0.0000 0.0000 0.0000 35.4474 0.0000 0.0000
# 5 0.0000 0.0000 0.0000 0.0000 109.1948 0.0000
# 6 0.0000 0.0000 0.0000 0.0000 0.0000 27.9398
#
#
#
# Elastic Compliance Matrix: (Units=1/GPa)
#
#
# Indices 1 2 3 4 5 6 
#
# 1 0.012910 -0.005469 -0.003188 0.000000 0.000000 0.000000
# 2 -0.005469 0.012038 -0.002395 0.000000 0.000000 0.000000
# 3 -0.003188 -0.002395 0.012378 0.000000 0.000000 0.000000
# 4 0.000000 0.000000 0.000000 0.028211 0.000000 0.000000
# 5 0.000000 0.000000 0.000000 0.000000 0.009158 0.000000
# 6 0.000000 0.000000 0.000000 0.000000 0.000000 0.035791
#
#
# Mechanical properties :
#
#
# Convention : Reuss Voigt Hill
#
# Bulk Modulus (GPa) = 65.69354 67.06841 66.38098
# Shear Modulus (GPa) = 36.32054 47.25012 41.78533
#
# Velocity S-wave (km/s) = 4.39350 5.01113 4.71244
# Velocity P-wave (km/s) = 7.78783 8.31420 8.05532
#
# Compressibility (1/GPa) = 0.01522220
#
# Stress axis : x y z
#
# Youngs Moduli (GPa) = 77.46133 83.06985 80.78894
#
# Poissons Ratio (x) = 0.45433 0.25755
# Poissons Ratio (y) = 0.42365 0.19345
# Poissons Ratio (z) = 0.24694 0.19891
#
# Static dielectric constant tensor:
#      x y z
#    x 3.398730 0.000000 0.000000 
#    y 0.000000 3.845830 0.000000 
#    z 0.000000 0.000000 3.738250 
# 
# 
# High freq. dielectric constant tensor:
#      x y z
#    x 1.715190 0.000000 0.000000 
#    y 0.000000 1.742590 0.000000 
#    z 0.000000 0.000000 1.754600 
# 
# From -- ./inp_files/4890.got.cif
#   From: 2010.03.12/outbox.cif.g09.slc.cpg/sg49_3_cif.got.tgz:4890.got - 2010.04.14 03:58:27.
