data_PCOD8203479
_publ_section_title
;
Structure prediction by ZEFSAII (Michael W. Deem and Ramdas Pophale) SiO2 
 PCOD8203479
Probable space group: P C C M
;
_chemical_formula_sum "Si O2"
_cell_formula_units_Z 40
_cell_length_a 13.664542
_cell_length_b 18.595451
_cell_length_c 8.858010
_cell_angle_alpha 90.000000
_cell_angle_beta 90.000000
_cell_angle_gamma 90.000000
_cell_volume 2250.805470
_symmetry_space_group_name_H-M "P C C M"
_symmetry_group_IT_number 49
_symmetry_cell_setting 'orthorhombic'
loop_
_space_group_symop_operation_xyz
x,y,z
-x,-y,z
x,-y,1/2-z
-x,y,1/2-z
-x,-y,-z
x,y,-z
-x,y,1/2+z
x,-y,1/2+z
loop_
_atom_site_type_symbol
_atom_site_label
_atom_site_fract_x
_atom_site_fract_y
_atom_site_fract_z
Si Si1 0.786778 0.283320 0.323823
Si Si2 0.101112 0.843417 0.821723
Si Si3 0.897568 0.573182 0.824158
Si Si4 0.396476 0.782161 0.179271
Si Si5 0.707275 0.074313 0.824645
O O1 0.778387 0.264494 0.500000
O O2 0.868592 0.232398 0.250040
O O3 0.817947 0.365197 0.295851
O O4 0.682378 0.273669 0.243868
O O5 0.181996 0.903581 0.781913
O O6 0.000000 0.870447 0.750000
O O7 0.090435 0.832706 0.000000
O O8 0.856831 0.500000 0.750000
O O9 0.000000 0.596133 0.750000
O O10 0.915944 0.560210 0.000000
O O11 0.500000 0.762291 0.250000
O O12 0.365932 0.862771 0.229303
O O13 0.399426 0.774538 0.000000
O O14 0.676157 0.000000 0.750000
O O15 0.696589 0.062385 0.000000
#
# Coordination Sequence:
#
# PCOD8203479 Si02
#       5
#     8   8   8   8   8
#     4  10  20  34  53  77 103 134 170 210 253 299
#     4  10  20  33  49  72 100 134 173 210 251 300
#     4  10  20  32  50  77 109 142 174 205 243 290
#     4  10  21  37  56  78 101 129 166 209 256 306
#     4   9  20  35  50  71  99 130 166 207 253 302
#
# _framework density 17.771415999999999
#
# number of rings (size 3 to 8) (size 9 to 14) (size 15 to 20)
#    0.000    2.200    0.000    4.800    0.000   10.400 
#    0.000    4.000    0.000    0.600    0.000    4.200 
#    0.000    0.000    0.000    0.000    0.000    0.000 
#
# Total GULP energy -496080.728528 kJ/mol
# GULP energy per Si atom -12402.018213 kJ/mol
# Density = 1.773097 g / cm^3
# Si number density = 17.771416 Si / 1000 Ang^3
#
#
#
# Elastic Constant Matrix: (Units=GPa)
#
#
# Indices 1 2 3 4 5 6 
#
# 1 104.0843 40.1476 44.0795 0.0000 0.0000 0.0000
# 2 40.1476 101.5474 49.7609 0.0000 0.0000 0.0000
# 3 44.0795 49.7609 101.0968 0.0000 0.0000 0.0000
# 4 0.0000 0.0000 0.0000 30.0658 0.0000 0.0000
# 5 0.0000 0.0000 0.0000 0.0000 18.1537 0.0000
# 6 0.0000 0.0000 0.0000 0.0000 0.0000 13.2440
#
#
#
# Elastic Compliance Matrix: (Units=1/GPa)
#
#
# Indices 1 2 3 4 5 6 
#
# 1 0.012431 -0.002977 -0.003955 0.000000 0.000000 0.000000
# 2 -0.002977 0.013691 -0.005441 0.000000 0.000000 0.000000
# 3 -0.003955 -0.005441 0.014294 0.000000 0.000000 0.000000
# 4 0.000000 0.000000 0.000000 0.033260 0.000000 0.000000
# 5 0.000000 0.000000 0.000000 0.000000 0.055085 0.000000
# 6 0.000000 0.000000 0.000000 0.000000 0.000000 0.075506
#
#
# Mechanical properties :
#
#
# Convention : Reuss Voigt Hill
#
# Bulk Modulus (GPa) = 63.81354 63.85606 63.83480
# Shear Modulus (GPa) = 21.34612 23.80872 22.57742
#
# Velocity S-wave (km/s) = 3.46952 3.66419 3.56818
# Velocity P-wave (km/s) = 7.21360 7.34245 7.27831
#
# Compressibility (1/GPa) = 0.01567066
#
# Stress axis : x y z
#
# Youngs Moduli (GPa) = 80.44677 73.04288 69.95995
#
# Poissons Ratio (x) = 0.21742 0.27668
# Poissons Ratio (y) = 0.23946 0.38064
# Poissons Ratio (z) = 0.31815 0.39741
#
# Static dielectric constant tensor:
#      x y z
#    x 3.214080 0.000000 0.000000 
#    y 0.000000 3.258990 0.000000 
#    z 0.000000 0.000000 3.402450 
# 
# 
# High freq. dielectric constant tensor:
#      x y z
#    x 1.679660 0.000000 0.000000 
#    y 0.000000 1.677170 0.000000 
#    z 0.000000 0.000000 1.704010 
# 
# From -- ./inp_files/2686.got.cif
#   From: 2010.03.12/outbox.cif.g09.slc.cpg/sg49_2_cif.got.tgz:2686.got - 2010.04.14 03:58:27.
