data_PCOD8203836
_publ_section_title
;
Structure prediction by ZEFSAII (Michael W. Deem and Ramdas Pophale) SiO2 
 PCOD8203836
Probable space group: P C C M
;
_chemical_formula_sum "Si O2"
_cell_formula_units_Z 56
_cell_length_a 9.755356
_cell_length_b 14.997619
_cell_length_c 18.698554
_cell_angle_alpha 90.000000
_cell_angle_beta 90.000000
_cell_angle_gamma 90.000000
_cell_volume 2735.731444
_symmetry_space_group_name_H-M "P C C M"
_symmetry_group_IT_number 49
_symmetry_cell_setting 'orthorhombic'
loop_
_space_group_symop_operation_xyz
x,y,z
-x,-y,z
x,-y,1/2-z
-x,y,1/2-z
-x,-y,-z
x,y,-z
-x,y,1/2+z
x,-y,1/2+z
loop_
_atom_site_type_symbol
_atom_site_label
_atom_site_fract_x
_atom_site_fract_y
_atom_site_fract_z
Si Si1 0.005207 0.726950 0.667826
Si Si2 0.731431 0.840556 0.175253
Si Si3 0.504783 0.292461 0.330923
Si Si4 0.118001 0.567598 0.077663
Si Si5 0.341334 0.998066 0.916818
Si Si6 0.636984 0.552619 0.078613
Si Si7 0.257757 0.825746 0.159559
O O1 0.956504 0.640573 0.625654
O O2 0.900283 0.804298 0.647348
O O3 0.000000 0.698548 0.750000
O O4 0.155157 0.767183 0.650877
O O5 0.582398 0.800810 0.159805
O O6 0.732097 0.862710 0.259546
O O7 0.745323 0.930606 0.129457
O O8 0.500000 0.328420 0.250000
O O9 0.594259 0.363260 0.374272
O O10 0.349515 0.265031 0.354299
O O11 0.247742 0.513700 0.113636
O O12 0.000000 0.500000 0.061296
O O13 0.166642 0.607132 0.000000
O O14 0.290523 0.899671 0.898684
O O15 0.500000 0.000000 0.896154
O O16 0.316528 0.018777 0.000000
O O17 0.500000 0.500000 0.067635
O O18 0.690739 0.584348 0.000000
#
# Coordination Sequence:
#
# PCOD8203836 Si02
#       7
#     8   8   8   8   8   8   8
#     4  10  22  39  59  88 118 151 198 243 292 349
#     4  10  21  38  60  84 116 154 192 238 292 349
#     4  10  20  35  57  84 112 150 197 242 290 348
#     4  10  21  38  59  83 116 157 196 236 292 355
#     4  11  23  38  59  90 118 147 195 242 289 350
#     4  10  21  36  55  81 114 151 191 239 293 348
#     4  10  21  38  60  84 118 155 191 240 295 351
#
# _framework density 20.469844999999999
#
# number of rings (size 3 to 8) (size 9 to 14) (size 15 to 20)
#    0.000    1.857    1.429    2.143    0.000    4.000 
#    0.000    4.286    0.000    0.000    0.000    0.000 
#    0.000    0.000    0.000    0.000    0.000    0.000 
#
# Total GULP energy -693841.133432 kJ/mol
# GULP energy per Si atom -12390.020240 kJ/mol
# Density = 2.042326 g / cm^3
# Si number density = 20.469845 Si / 1000 Ang^3
#
#
#
# Elastic Constant Matrix: (Units=GPa)
#
#
# Indices 1 2 3 4 5 6 
#
# 1 92.6319 20.1761 29.7362 0.0000 0.0000 0.0000
# 2 20.1761 93.5965 52.9245 0.0000 0.0000 0.0000
# 3 29.7362 52.9245 69.2465 0.0000 0.0000 0.0000
# 4 0.0000 0.0000 0.0000 28.2492 0.0000 0.0000
# 5 0.0000 0.0000 0.0000 0.0000 25.6284 0.0000
# 6 0.0000 0.0000 0.0000 0.0000 0.0000 30.5967
#
#
#
# Elastic Compliance Matrix: (Units=1/GPa)
#
#
# Indices 1 2 3 4 5 6 
#
# 1 0.012541 0.000602 -0.005845 0.000000 0.000000 0.000000
# 2 0.000602 0.018845 -0.014661 0.000000 0.000000 0.000000
# 3 -0.005845 -0.014661 0.028157 0.000000 0.000000 0.000000
# 4 0.000000 0.000000 0.000000 0.035399 0.000000 0.000000
# 5 0.000000 0.000000 0.000000 0.000000 0.039019 0.000000
# 6 0.000000 0.000000 0.000000 0.000000 0.000000 0.032683
#
#
# Mechanical properties :
#
#
# Convention : Reuss Voigt Hill
#
# Bulk Modulus (GPa) = 50.67711 51.23873 50.95792
# Shear Modulus (GPa) = 23.47076 27.07074 25.27075
#
# Velocity S-wave (km/s) = 3.38982 3.64052 3.51741
# Velocity P-wave (km/s) = 6.33498 6.53887 6.43773
#
# Compressibility (1/GPa) = 0.01973277
#
# Stress axis : x y z
#
# Youngs Moduli (GPa) = 79.73997 53.06538 35.51535
#
# Poissons Ratio (x) = -0.03194 0.20760
# Poissons Ratio (y) = -0.04800 0.52070
# Poissons Ratio (z) = 0.46611 0.77801
#
# Static dielectric constant tensor:
#      x y z
#    x 3.937740 0.000000 0.000000 
#    y 0.000000 3.378940 0.000000 
#    z 0.000000 0.000000 3.814810 
# 
# 
# High freq. dielectric constant tensor:
#      x y z
#    x 1.815840 0.000000 0.000000 
#    y 0.000000 1.790390 0.000000 
#    z 0.000000 0.000000 1.789120 
# 
# From -- ./inp_files/19877.got.cif
#   From: 2010.03.12/outbox.cif.g09.slc.cpg/sg49_10_cif.got.tgz:19877.got - 2010.04.14 03:58:27.
