data_PCOD8203852
_publ_section_title
;
Structure prediction by ZEFSAII (Michael W. Deem and Ramdas Pophale) SiO2 
 PCOD8203852
Probable space group: P C C M
;
_chemical_formula_sum "Si O2"
_cell_formula_units_Z 64
_cell_length_a 8.753931
_cell_length_b 24.140949
_cell_length_c 14.943277
_cell_angle_alpha 90.000000
_cell_angle_beta 90.000000
_cell_angle_gamma 90.000000
_cell_volume 3157.935858
_symmetry_space_group_name_H-M "P C C M"
_symmetry_group_IT_number 49
_symmetry_cell_setting 'orthorhombic'
loop_
_space_group_symop_operation_xyz
x,y,z
-x,-y,z
x,-y,1/2-z
-x,y,1/2-z
-x,-y,-z
x,y,-z
-x,y,1/2+z
x,-y,1/2+z
loop_
_atom_site_type_symbol
_atom_site_label
_atom_site_fract_x
_atom_site_fract_y
_atom_site_fract_z
Si Si1 0.888198 0.851450 0.665178
Si Si2 0.321374 0.064657 0.754719
Si Si3 0.497121 0.563317 0.901437
Si Si4 0.167556 0.320530 0.751582
Si Si5 0.739158 0.436310 0.250392
Si Si6 0.307509 0.252472 0.396393
Si Si7 0.804236 0.863236 0.097257
Si Si8 0.332736 0.749321 0.603914
O O1 0.773895 0.903430 0.677942
O O2 0.783176 0.799675 0.642212
O O3 0.000000 0.840995 0.750000
O O4 0.010772 0.864255 0.587559
O O5 0.500000 0.078410 0.750000
O O6 0.258604 0.084614 0.849527
O O7 0.287777 0.000000 0.750000
O O8 0.500000 0.500000 0.926207
O O9 0.348922 0.575864 0.842121
O O10 0.641066 0.576082 0.839113
O O11 0.498304 0.594820 0.000000
O O12 0.138004 0.387153 0.754916
O O13 0.256420 0.305712 0.660262
O O14 0.265069 0.300571 0.837303
O O15 0.000000 0.292680 0.750000
O O16 0.803324 0.500000 0.250000
O O17 0.266741 0.262053 0.500000
O O18 0.487072 0.244270 0.381894
O O19 0.745600 0.805556 0.140623
O O20 0.730132 0.868241 0.000000
O O21 0.291470 0.738219 0.500000
#
# Coordination Sequence:
#
# PCOD8203852 Si02
#       8
#     8   8   8   8   8   8   8   8
#     4  10  20  35  59  87 117 155 191 235 290 346
#     4  10  21  38  58  82 116 159 200 238 282 335
#     4   8  15  31  56  82 107 137 177 228 276 320
#     4  12  25  39  57  83 119 156 187 234 290 345
#     4   9  20  36  55  83 112 146 190 231 278 344
#     4  11  23  39  61  88 115 150 195 241 286 342
#     4  10  20  37  60  86 116 149 187 238 292 345
#     4  10  23  41  63  87 113 147 193 243 292 344
#
# _framework density 20.266403
#
# number of rings (size 3 to 8) (size 9 to 14) (size 15 to 20)
#    0.000    2.000    0.000    4.875    3.500    5.000 
#    0.000    3.750    0.000    0.000    0.000    5.250 
#    0.000    0.000    0.000    0.000    0.000    0.000 
#
# Total GULP energy -792921.237645 kJ/mol
# GULP energy per Si atom -12389.394338 kJ/mol
# Density = 2.022028 g / cm^3
# Si number density = 20.266403 Si / 1000 Ang^3
#
#
#
# Elastic Constant Matrix: (Units=GPa)
#
#
# Indices 1 2 3 4 5 6 
#
# 1 122.7619 55.0074 39.0400 0.0000 0.0000 0.0000
# 2 55.0074 139.8936 41.2871 0.0000 0.0000 0.0000
# 3 39.0400 41.2871 125.5134 0.0000 0.0000 0.0000
# 4 0.0000 0.0000 0.0000 12.3012 0.0000 0.0000
# 5 0.0000 0.0000 0.0000 0.0000 18.5360 0.0000
# 6 0.0000 0.0000 0.0000 0.0000 0.0000 25.3215
#
#
#
# Elastic Compliance Matrix: (Units=1/GPa)
#
#
# Indices 1 2 3 4 5 6 
#
# 1 0.010358 -0.003458 -0.002084 0.000000 0.000000 0.000000
# 2 -0.003458 0.009071 -0.001908 0.000000 0.000000 0.000000
# 3 -0.002084 -0.001908 0.009243 0.000000 0.000000 0.000000
# 4 0.000000 0.000000 0.000000 0.081293 0.000000 0.000000
# 5 0.000000 0.000000 0.000000 0.000000 0.053949 0.000000
# 6 0.000000 0.000000 0.000000 0.000000 0.000000 0.039492
#
#
# Mechanical properties :
#
#
# Convention : Reuss Voigt Hill
#
# Bulk Modulus (GPa) = 72.61360 73.20419 72.90890
# Shear Modulus (GPa) = 22.43174 28.08736 25.25955
#
# Velocity S-wave (km/s) = 3.33054 3.72682 3.53423
# Velocity P-wave (km/s) = 7.12020 7.39718 7.26001
#
# Compressibility (1/GPa) = 0.01377152
#
# Stress axis : x y z
#
# Youngs Moduli (GPa) = 96.54324 110.23992 108.18552
#
# Poissons Ratio (x) = 0.38118 0.22550
# Poissons Ratio (y) = 0.33382 0.20646
# Poissons Ratio (z) = 0.20123 0.21038
#
# Static dielectric constant tensor:
#      x y z
#    x 3.770550 0.000000 0.000000 
#    y 0.000000 3.556140 0.000000 
#    z 0.000000 0.000000 3.949380 
# 
# 
# High freq. dielectric constant tensor:
#      x y z
#    x 1.789960 0.000000 0.000000 
#    y 0.000000 1.786840 0.000000 
#    z 0.000000 0.000000 1.797690 
# 
# From -- ./inp_files/12137.got.cif
#   From: 2010.03.12/outbox.cif.g09.slc.cpg/sg49_7_cif.got.tgz:12137.got - 2010.04.14 03:58:27.
