data_PCOD8203998
_publ_section_title
;
Structure prediction by ZEFSAII (Michael W. Deem and Ramdas Pophale) SiO2 
 PCOD8203998
Probable space group: P C C M
;
_chemical_formula_sum "Si O2"
_cell_formula_units_Z 64
_cell_length_a 14.690247
_cell_length_b 24.353101
_cell_length_c 8.656514
_cell_angle_alpha 90.000000
_cell_angle_beta 90.000000
_cell_angle_gamma 90.000000
_cell_volume 3096.894450
_symmetry_space_group_name_H-M "P C C M"
_symmetry_group_IT_number 49
_symmetry_cell_setting 'orthorhombic'
loop_
_space_group_symop_operation_xyz
x,y,z
-x,-y,z
x,-y,1/2-z
-x,y,1/2-z
-x,-y,-z
x,y,-z
-x,y,1/2+z
x,-y,1/2+z
loop_
_atom_site_type_symbol
_atom_site_label
_atom_site_fract_x
_atom_site_fract_y
_atom_site_fract_z
Si Si1 0.399554 0.615682 0.682943
Si Si2 0.100907 0.118908 0.182488
Si Si3 0.402529 0.734653 0.679228
Si Si4 0.263409 0.942136 0.182685
Si Si5 0.900438 0.771022 0.318552
Si Si6 0.099459 0.650765 0.818878
Si Si7 0.765754 0.442279 0.817000
Si Si8 0.398581 0.146393 0.183293
O O1 0.500000 0.607656 0.750000
O O2 0.401957 0.607167 0.500000
O O3 0.358405 0.676359 0.731454
O O4 0.335617 0.569915 0.757832
O O5 0.163978 0.070899 0.248471
O O6 0.146850 0.177393 0.233166
O O7 0.000000 0.112211 0.250000
O O8 0.097281 0.114768 0.000000
O O9 0.500000 0.738994 0.750000
O O10 0.418869 0.730762 0.500000
O O11 0.353969 0.792760 0.720463
O O12 0.336353 0.897212 0.232197
O O13 0.296590 0.000000 0.250000
O O14 0.257137 0.945033 0.000000
O O15 0.903425 0.783726 0.500000
O O16 0.856437 0.711245 0.282262
O O17 0.000000 0.767211 0.250000
O O18 0.166417 0.604520 0.751633
O O19 0.000000 0.642702 0.750000
O O20 0.087960 0.643993 0.000000
O O21 0.799743 0.500000 0.750000
O O22 0.766314 0.444383 0.000000
O O23 0.500000 0.141213 0.250000
O O24 0.400043 0.135391 0.000000
#
# Coordination Sequence:
#
# PCOD8203998 Si02
#       8
#     8   8   8   8   8   8   8   8
#     4  10  20  37  60  87 116 150 186 230 283 338
#     4  11  22  39  62  90 121 155 191 235 287 344
#     4   8  16  31  55  86 119 149 184 225 277 339
#     4  12  26  44  62  85 115 153 200 248 291 341
#     4   9  16  31  55  86 118 150 186 229 281 341
#     4   9  20  37  59  85 116 150 188 233 286 340
#     4  11  24  41  57  80 111 148 194 242 284 336
#     4  10  20  38  62  91 123 157 193 236 287 343
#
# _framework density 20.665866000000001
#
# number of rings (size 3 to 8) (size 9 to 14) (size 15 to 20)
#    0.000    2.000    0.000    4.500    0.000    4.500 
#    0.000    7.500    0.000    0.000    0.000    0.000 
#    0.000    0.000    0.000    0.000    0.000    0.000 
#
# Total GULP energy -793083.185986 kJ/mol
# GULP energy per Si atom -12391.924781 kJ/mol
# Density = 2.061883 g / cm^3
# Si number density = 20.665866 Si / 1000 Ang^3
#
#
#
# Elastic Constant Matrix: (Units=GPa)
#
#
# Indices 1 2 3 4 5 6 
#
# 1 48.1708 11.7849 14.7682 0.0000 0.0000 0.0000
# 2 11.7849 93.8332 29.9551 0.0000 0.0000 0.0000
# 3 14.7682 29.9551 104.2361 0.0000 0.0000 0.0000
# 4 0.0000 0.0000 0.0000 31.8965 0.0000 0.0000
# 5 0.0000 0.0000 0.0000 0.0000 27.5755 0.0000
# 6 0.0000 0.0000 0.0000 0.0000 0.0000 39.3625
#
#
#
# Elastic Compliance Matrix: (Units=1/GPa)
#
#
# Indices 1 2 3 4 5 6 
#
# 1 0.022021 -0.001948 -0.002560 0.000000 0.000000 0.000000
# 2 -0.001948 0.011906 -0.003145 0.000000 0.000000 0.000000
# 3 -0.002560 -0.003145 0.010860 0.000000 0.000000 0.000000
# 4 0.000000 0.000000 0.000000 0.031351 0.000000 0.000000
# 5 0.000000 0.000000 0.000000 0.000000 0.036264 0.000000
# 6 0.000000 0.000000 0.000000 0.000000 0.000000 0.025405
#
#
# Mechanical properties :
#
#
# Convention : Reuss Voigt Hill
#
# Bulk Modulus (GPa) = 33.92193 39.91736 36.91965
# Shear Modulus (GPa) = 30.68578 32.41570 31.55074
#
# Velocity S-wave (km/s) = 3.85756 3.96480 3.91155
# Velocity P-wave (km/s) = 6.02421 6.34957 6.18903
#
# Compressibility (1/GPa) = 0.02947946
#
# Stress axis : x y z
#
# Youngs Moduli (GPa) = 45.41127 83.99069 92.07899
#
# Poissons Ratio (x) = 0.16365 0.23572
# Poissons Ratio (y) = 0.08848 0.28963
# Poissons Ratio (z) = 0.11625 0.26419
#
# Static dielectric constant tensor:
#      x y z
#    x 3.507940 0.000000 0.000000 
#    y 0.000000 4.526380 0.000000 
#    z 0.000000 0.000000 3.652670 
# 
# 
# High freq. dielectric constant tensor:
#      x y z
#    x 1.787700 0.000000 0.000000 
#    y 0.000000 1.826200 0.000000 
#    z 0.000000 0.000000 1.816920 
# 
# From -- ./inp_files/4353.got.cif
#   From: 2010.03.12/outbox.cif.g09.slc.cpg/sg49_3_cif.got.tgz:4353.got - 2010.04.14 03:58:27.
