data_PCOD8203066
_publ_section_title
;
Structure prediction by ZEFSAII (Michael W. Deem and Ramdas Pophale) SiO2 
 PCOD8203066
Probable space group: P C C M
;
_chemical_formula_sum "Si O2"
_cell_formula_units_Z 34
_cell_length_a 19.053291
_cell_length_b 7.455037
_cell_length_c 10.358421
_cell_angle_alpha 90.000000
_cell_angle_beta 90.000000
_cell_angle_gamma 90.000000
_cell_volume 1471.341084
_symmetry_space_group_name_H-M "P C C M"
_symmetry_group_IT_number 49
_symmetry_cell_setting 'orthorhombic'
loop_
_space_group_symop_operation_xyz
x,y,z
-x,-y,z
x,-y,1/2-z
-x,y,1/2-z
-x,-y,-z
x,y,-z
-x,y,1/2+z
x,-y,1/2+z
loop_
_atom_site_type_symbol
_atom_site_label
_atom_site_fract_x
_atom_site_fract_y
_atom_site_fract_z
Si Si1 0.602815 0.195763 0.265615
Si Si2 0.156264 0.216124 0.000000
Si Si3 0.327514 0.313000 0.500000
Si Si4 0.921157 0.786755 0.747493
Si Si5 0.834997 0.209190 0.000000
Si Si6 0.500000 0.500000 0.250000
Si Si7 0.312907 0.284279 0.000000
O O1 0.635523 0.239321 0.127486
O O2 0.550561 0.353409 0.320971
O O3 0.663934 0.175867 0.372143
O O4 0.566027 0.000000 0.250000
O O5 0.115643 0.287195 0.124748
O O6 0.230440 0.311442 0.000000
O O7 0.166361 0.004162 0.000000
O O8 0.244735 0.275621 0.500000
O O9 0.345875 0.520529 0.500000
O O10 0.877080 0.717818 0.624444
O O11 0.000000 0.708914 0.750000
O O12 0.923700 0.000000 0.750000
#
# Coordination Sequence:
#
# PCOD8203066 Si02
#       7
#     8   4   4   8   4   2   4
#     4  12  26  46  73 100 137 179 223 273 330 397
#     4  10  19  32  56  85 117 161 216 267 326 391
#     4  12  24  45  66  97 135 175 225 280 332 393
#     4   9  17  30  51  83 120 159 209 271 327 387
#     4  10  19  32  56  85 117 161 216 267 326 391
#     4  12  26  50  72 108 140 174 220 270 332 404
#     4  12  24  45  66  97 135 175 225 280 332 393
#
# _framework density 23.108170000000001
#
# number of rings (size 3 to 8) (size 9 to 14) (size 15 to 20)
#    0.000    1.176    2.353    4.588    0.000    6.588 
#    0.000    2.353    0.000    4.235    0.000    0.000 
#    0.000    0.000    0.000    0.000    0.000    0.000 
#
# Total GULP energy -421291.096187 kJ/mol
# GULP energy per Si atom -12390.914594 kJ/mol
# Density = 2.305558 g / cm^3
# Si number density = 23.108170 Si / 1000 Ang^3
#
#
#
# Elastic Constant Matrix: (Units=GPa)
#
#
# Indices 1 2 3 4 5 6 
#
# 1 162.4021 30.8323 74.4490 0.0000 0.0000 0.0000
# 2 30.8323 124.6962 22.9504 0.0000 0.0000 0.0000
# 3 74.4490 22.9504 206.7103 0.0000 0.0000 0.0000
# 4 0.0000 0.0000 0.0000 -101.6889 0.0000 0.0000
# 5 0.0000 0.0000 0.0000 0.0000 9.8795 0.0000
# 6 0.0000 0.0000 0.0000 0.0000 0.0000 223.3876
#
#
#
# Elastic Compliance Matrix: (Units=1/GPa)
#
#
# Indices 1 2 3 4 5 6 
#
# 1 0.007609 -0.001406 -0.002584 0.000000 0.000000 0.000000
# 2 -0.001406 0.008446 -0.000431 0.000000 0.000000 0.000000
# 3 -0.002584 -0.000431 0.005816 0.000000 0.000000 0.000000
# 4 0.000000 0.000000 0.000000 -0.009834 0.000000 0.000000
# 5 0.000000 0.000000 0.000000 0.000000 0.101220 0.000000
# 6 0.000000 0.000000 0.000000 0.000000 0.000000 0.004477
#
#
# Mechanical properties :
#
#
# Convention : Reuss Voigt Hill
#
# Bulk Modulus (GPa) = 76.75372 83.36356 80.05864
# Shear Modulus (GPa) = 38.19096 50.68742 44.43919
#
# Velocity S-wave (km/s) = 4.06976 4.68855 4.39007
# Velocity P-wave (km/s) = 7.44117 8.09096 7.77286
#
# Compressibility (1/GPa) = 0.01302868
#
# Stress axis : x y z
#
# Youngs Moduli (GPa) = 131.41941 118.39226 171.92707
#
# Poissons Ratio (x) = 0.16643 0.44434
# Poissons Ratio (y) = 0.18475 0.07418
# Poissons Ratio (z) = 0.33965 0.05108
#
# Static dielectric constant tensor:
#      x y z
#    x 4.314950 0.000000 0.000000 
#    y 0.000000 4.106530 0.000000 
#    z 0.000000 0.000000 4.283070 
# 
# 
# High freq. dielectric constant tensor:
#      x y z
#    x 1.922530 0.000000 0.000000 
#    y 0.000000 1.912490 0.000000 
#    z 0.000000 0.000000 1.911820 
# 
# From -- ./inp_files/5577.got.cif
#   From: 2010.03.12/outbox.cif.g09.slc.cpg/sg49_3_cif.got.tgz:5577.got - 2010.04.14 03:58:27.
