data_PCOD8203144
_publ_section_title
;
Structure prediction by ZEFSAII (Michael W. Deem and Ramdas Pophale) SiO2 
 PCOD8203144
Probable space group: P C C M
;
_chemical_formula_sum "Si O2"
_cell_formula_units_Z 40
_cell_length_a 9.887376
_cell_length_b 25.945862
_cell_length_c 8.627280
_cell_angle_alpha 90.000000
_cell_angle_beta 90.000000
_cell_angle_gamma 90.000000
_cell_volume 2213.212157
_symmetry_space_group_name_H-M "P C C M"
_symmetry_group_IT_number 49
_symmetry_cell_setting 'orthorhombic'
loop_
_space_group_symop_operation_xyz
x,y,z
-x,-y,z
x,-y,1/2-z
-x,y,1/2-z
-x,-y,-z
x,y,-z
-x,y,1/2+z
x,-y,1/2+z
loop_
_atom_site_type_symbol
_atom_site_label
_atom_site_fract_x
_atom_site_fract_y
_atom_site_fract_z
Si Si1 0.349314 0.636081 0.683444
Si Si2 0.354725 0.747737 0.319772
Si Si3 0.648849 0.859057 0.816571
Si Si4 0.146067 0.945282 0.684512
Si Si5 0.143293 0.444587 0.316946
O O1 0.500000 0.631389 0.750000
O O2 0.351742 0.625234 0.500000
O O3 0.282625 0.693091 0.720128
O O4 0.258012 0.595216 0.770361
O O5 0.500000 0.743205 0.250000
O O6 0.375687 0.751851 0.500000
O O7 0.290171 0.802456 0.264305
O O8 0.500000 0.868397 0.750000
O O9 0.749910 0.902393 0.752690
O O10 0.638955 0.863483 0.000000
O O11 0.139086 0.947750 0.500000
O O12 0.000000 0.930525 0.750000
O O13 0.195681 0.000000 0.750000
O O14 0.183857 0.500000 0.250000
O O15 0.131693 0.448631 0.500000
O O16 0.000000 0.425706 0.250000
#
# Coordination Sequence:
#
# PCOD8203144 Si02
#       5
#     8   8   8   8   8
#     4  10  19  33  54  80 107 136 170 210 252 298
#     4   8  15  29  49  72 101 132 163 200 245 293
#     4   9  18  32  51  75 100 129 164 204 246 293
#     4  10  20  34  51  70  96 129 166 204 248 297
#     4  11  22  38  57  77 103 136 172 210 255 305
#
# _framework density 18.073277000000001
#
# number of rings (size 3 to 8) (size 9 to 14) (size 15 to 20)
#    0.000    2.400    0.000    4.200    0.000    3.200 
#    0.000    5.000    0.000    2.400    0.000    0.000 
#    0.000    0.000    0.000    0.000    0.000    0.000 
#
# Total GULP energy -495532.568963 kJ/mol
# GULP energy per Si atom -12388.314224 kJ/mol
# Density = 1.803214 g / cm^3
# Si number density = 18.073277 Si / 1000 Ang^3
#
#
#
# Elastic Constant Matrix: (Units=GPa)
#
#
# Indices 1 2 3 4 5 6 
#
# 1 87.4544 88.3741 34.9253 0.0000 0.0000 0.0000
# 2 88.3741 162.4898 51.6231 0.0000 0.0000 0.0000
# 3 34.9253 51.6231 82.2920 0.0000 0.0000 0.0000
# 4 0.0000 0.0000 0.0000 25.5467 0.0000 0.0000
# 5 0.0000 0.0000 0.0000 0.0000 26.6024 0.0000
# 6 0.0000 0.0000 0.0000 0.0000 0.0000 2.1204
#
#
#
# Elastic Compliance Matrix: (Units=1/GPa)
#
#
# Indices 1 2 3 4 5 6 
#
# 1 0.025854 -0.013208 -0.002687 0.000000 0.000000 0.000000
# 2 -0.013208 0.014433 -0.003449 0.000000 0.000000 0.000000
# 3 -0.002687 -0.003449 0.015456 0.000000 0.000000 0.000000
# 4 0.000000 0.000000 0.000000 0.039144 0.000000 0.000000
# 5 0.000000 0.000000 0.000000 0.000000 0.037591 0.000000
# 6 0.000000 0.000000 0.000000 0.000000 0.000000 0.471600
#
#
# Mechanical properties :
#
#
# Convention : Reuss Voigt Hill
#
# Bulk Modulus (GPa) = 58.63112 75.78679 67.20896
# Shear Modulus (GPa) = 7.71068 21.34150 14.52609
#
# Velocity S-wave (km/s) = 2.06775 3.44005 2.83809
# Velocity P-wave (km/s) = 6.18159 7.60281 6.92873
#
# Compressibility (1/GPa) = 0.01705579
#
# Stress axis : x y z
#
# Youngs Moduli (GPa) = 38.67803 69.28412 64.70049
#
# Poissons Ratio (x) = 0.91509 0.17387
# Poissons Ratio (y) = 0.51085 0.22314
# Poissons Ratio (z) = 0.10394 0.23894
#
# Static dielectric constant tensor:
#      x y z
#    x 3.528650 0.000000 0.000000 
#    y 0.000000 4.099620 0.000000 
#    z 0.000000 0.000000 3.256870 
# 
# 
# High freq. dielectric constant tensor:
#      x y z
#    x 1.668120 0.000000 0.000000 
#    y 0.000000 1.725040 0.000000 
#    z 0.000000 0.000000 1.709490 
# 
# From -- ./inp_files/1702.got.cif
#   From: 2010.03.12/outbox.cif.g09.slc.cpg/sg49_1_cif.got.tgz:1702.got - 2010.04.14 03:58:27.
