data_PCOD8203746
_publ_section_title
;
Structure prediction by ZEFSAII (Michael W. Deem and Ramdas Pophale) SiO2 
 PCOD8203746
Probable space group: P C C M
;
_chemical_formula_sum "Si O2"
_cell_formula_units_Z 48
_cell_length_a 29.708661
_cell_length_b 10.122995
_cell_length_c 8.620814
_cell_angle_alpha 90.000000
_cell_angle_beta 90.000000
_cell_angle_gamma 90.000000
_cell_volume 2592.629006
_symmetry_space_group_name_H-M "P C C M"
_symmetry_group_IT_number 49
_symmetry_cell_setting 'orthorhombic'
loop_
_space_group_symop_operation_xyz
x,y,z
-x,-y,z
x,-y,1/2-z
-x,y,1/2-z
-x,-y,-z
x,y,-z
-x,y,1/2+z
x,-y,1/2+z
loop_
_atom_site_type_symbol
_atom_site_label
_atom_site_fract_x
_atom_site_fract_y
_atom_site_fract_z
Si Si1 0.716067 0.858506 0.183560
Si Si2 0.116432 0.637336 0.817819
Si Si3 0.548262 0.640196 0.683282
Si Si4 0.780734 0.360135 0.183748
Si Si5 0.951881 0.858575 0.684357
Si Si6 0.380240 0.140779 0.316414
O O1 0.752506 0.753471 0.236076
O O2 0.667531 0.815502 0.247500
O O3 0.730644 0.000000 0.250000
O O4 0.713896 0.867170 0.000000
O O5 0.098377 0.500000 0.750000
O O6 0.167652 0.664294 0.766231
O O7 0.085174 0.755016 0.755277
O O8 0.112862 0.626816 0.000000
O O9 0.564527 0.500000 0.750000
O O10 0.500000 0.681395 0.750000
O O11 0.544622 0.628574 0.500000
O O12 0.583617 0.750738 0.735752
O O13 0.763864 0.500000 0.250000
O O14 0.773870 0.356847 0.000000
O O15 0.954470 0.865956 0.500000
O O16 0.000000 0.813936 0.750000
O O17 0.937352 0.000000 0.750000
O O18 0.375871 0.130076 0.500000
O O19 0.395965 0.000000 0.250000
#
# Coordination Sequence:
#
# PCOD8203746 Si02
#       6
#     8   8   8   8   8   8
#     4  11  22  37  57  81 109 143 179 222 269 318
#     4   9  20  36  55  78 106 138 175 216 261 312
#     4  10  21  36  56  80 108 140 177 218 263 313
#     4  10  20  37  57  80 109 141 178 221 266 318
#     4  10  20  35  53  77 105 137 175 216 261 311
#     4  10  21  37  56  80 108 141 179 221 265 316
#
# _framework density 18.514025
#
# number of rings (size 3 to 8) (size 9 to 14) (size 15 to 20)
#    0.000    2.000    0.000    5.500    0.000    6.667 
#    0.000    6.667    0.000    0.000    0.000    0.000 
#    0.000    0.000    0.000    0.000    0.000    0.000 
#
# Total GULP energy -595352.137244 kJ/mol
# GULP energy per Si atom -12403.169526 kJ/mol
# Density = 1.847189 g / cm^3
# Si number density = 18.514025 Si / 1000 Ang^3
#
#
#
# Elastic Constant Matrix: (Units=GPa)
#
#
# Indices 1 2 3 4 5 6 
#
# 1 119.2050 111.8812 46.1403 0.0000 0.0000 0.0000
# 2 111.8812 160.6165 54.3292 0.0000 0.0000 0.0000
# 3 46.1403 54.3292 89.4793 0.0000 0.0000 0.0000
# 4 0.0000 0.0000 0.0000 32.4083 0.0000 0.0000
# 5 0.0000 0.0000 0.0000 0.0000 -69.8922 0.0000
# 6 0.0000 0.0000 0.0000 0.0000 0.0000 40.6826
#
#
#
# Elastic Compliance Matrix: (Units=1/GPa)
#
#
# Indices 1 2 3 4 5 6 
#
# 1 0.024812 -0.016304 -0.002895 0.000000 0.000000 0.000000
# 2 -0.016304 0.018549 -0.002855 0.000000 0.000000 0.000000
# 3 -0.002895 -0.002855 0.014402 0.000000 0.000000 0.000000
# 4 0.000000 0.000000 0.000000 0.030856 0.000000 0.000000
# 5 0.000000 0.000000 0.000000 0.000000 -0.014308 0.000000
# 6 0.000000 0.000000 0.000000 0.000000 0.000000 0.024581
#
#
# Mechanical properties :
#
#
# Convention : Reuss Voigt Hill
#
# Bulk Modulus (GPa) = 73.23561 88.22245 80.72903
# Shear Modulus (GPa) = 33.88667 11.10309 22.49488
#
# Velocity S-wave (km/s) = 4.28287 2.45156 3.48949
# Velocity P-wave (km/s) = 8.00625 7.46784 7.74173
#
# Compressibility (1/GPa) = 0.01365456
#
# Stress axis : x y z
#
# Youngs Moduli (GPa) = 40.30362 53.91240 69.43463
#
# Poissons Ratio (x) = 0.87898 0.20101
# Poissons Ratio (y) = 0.65711 0.19824
# Poissons Ratio (z) = 0.11668 0.15392
#
# Static dielectric constant tensor:
#      x y z
#    x 3.537770 0.000000 0.000000 
#    y 0.000000 3.632510 0.000000 
#    z 0.000000 0.000000 3.496460 
# 
# 
# High freq. dielectric constant tensor:
#      x y z
#    x 1.719240 0.000000 0.000000 
#    y 0.000000 1.726000 0.000000 
#    z 0.000000 0.000000 1.733270 
# 
# From -- ./inp_files/6892.got.cif
#   From: 2010.03.12/outbox.cif.g09.slc.cpg/sg49_4_cif.got.tgz:6892.got - 2010.04.14 03:58:27.
