data_PCOD8203280
_publ_section_title
;
Structure prediction by ZEFSAII (Michael W. Deem and Ramdas Pophale) SiO2 
 PCOD8203280
Probable space group: P C C M
;
_chemical_formula_sum "Si O2"
_cell_formula_units_Z 56
_cell_length_a 17.748093
_cell_length_b 9.073509
_cell_length_c 19.075310
_cell_angle_alpha 90.000000
_cell_angle_beta 90.000000
_cell_angle_gamma 90.000000
_cell_volume 3071.839883
_symmetry_space_group_name_H-M "P C C M"
_symmetry_group_IT_number 49
_symmetry_cell_setting 'orthorhombic'
loop_
_space_group_symop_operation_xyz
x,y,z
-x,-y,z
x,-y,1/2-z
-x,y,1/2-z
-x,-y,-z
x,y,-z
-x,y,1/2+z
x,-y,1/2+z
loop_
_atom_site_type_symbol
_atom_site_label
_atom_site_fract_x
_atom_site_fract_y
_atom_site_fract_z
Si Si1 0.801496 0.146054 0.788762
Si Si2 0.047259 0.224378 0.078106
Si Si3 0.076524 0.661914 0.278417
Si Si4 0.632512 0.898441 0.686788
Si Si5 0.492643 0.669667 0.167634
Si Si6 0.887865 0.903988 0.422521
Si Si7 0.574036 0.099743 0.420324
O O1 0.844756 0.275440 0.749230
O O2 0.711669 0.164303 0.785186
O O3 0.822949 0.144221 0.870063
O O4 0.828953 0.000000 0.750000
O O5 0.076589 0.338102 0.136702
O O6 0.957574 0.207673 0.084318
O O7 0.085643 0.068647 0.093644
O O8 0.068558 0.282069 0.000000
O O9 0.072363 0.500000 0.250000
O O10 0.000000 0.745695 0.250000
O O11 0.586423 0.756250 0.658346
O O12 0.595777 0.000000 0.750000
O O13 0.639908 0.009402 0.620001
O O14 0.500000 0.500000 0.142037
O O15 0.500000 0.678218 0.250000
O O16 0.557730 0.750962 0.123141
O O17 0.852998 0.894093 0.500000
O O18 0.599152 0.137131 0.500000
O O19 0.500000 0.000000 0.419763
#
# Coordination Sequence:
#
# PCOD8203280 Si02
#       7
#     8   8   8   8   8   8   8
#     4  11  21  34  55  81 107 145 180 233 281 324
#     4   9  17  32  54  78 105 137 183 238 278 320
#     4  11  22  36  53  79 112 144 190 232 278 338
#     4  10  20  35  54  83 114 142 184 229 282 329
#     4  10  19  34  58  84 111 149 188 224 264 331
#     4   9  17  30  53  82 103 133 181 231 281 324
#     4   9  18  33  57  84 111 144 182 228 274 320
#
# _framework density 18.230118000000001
#
# number of rings (size 3 to 8) (size 9 to 14) (size 15 to 20)
#    0.000    2.143    4.286    0.857    0.000    1.143 
#    2.571    2.143    0.000    0.000    0.000    0.000 
#    0.000    0.000    0.000    0.000    0.000    0.000 
#
# Total GULP energy -693820.174030 kJ/mol
# GULP energy per Si atom -12389.645965 kJ/mol
# Density = 1.818862 g / cm^3
# Si number density = 18.230118 Si / 1000 Ang^3
#
#
#
# Elastic Constant Matrix: (Units=GPa)
#
#
# Indices 1 2 3 4 5 6 
#
# 1 69.0635 34.7100 24.5833 0.0000 0.0000 0.0000
# 2 34.7100 98.6603 49.8706 0.0000 0.0000 0.0000
# 3 24.5833 49.8706 138.0832 0.0000 0.0000 0.0000
# 4 0.0000 0.0000 0.0000 19.3669 0.0000 0.0000
# 5 0.0000 0.0000 0.0000 0.0000 22.7404 0.0000
# 6 0.0000 0.0000 0.0000 0.0000 0.0000 19.8315
#
#
#
# Elastic Compliance Matrix: (Units=1/GPa)
#
#
# Indices 1 2 3 4 5 6 
#
# 1 0.017726 -0.005678 -0.001105 0.000000 0.000000 0.000000
# 2 -0.005678 0.014218 -0.004124 0.000000 0.000000 0.000000
# 3 -0.001105 -0.004124 0.008928 0.000000 0.000000 0.000000
# 4 0.000000 0.000000 0.000000 0.051634 0.000000 0.000000
# 5 0.000000 0.000000 0.000000 0.000000 0.043975 0.000000
# 6 0.000000 0.000000 0.000000 0.000000 0.000000 0.050425
#
#
# Mechanical properties :
#
#
# Convention : Reuss Voigt Hill
#
# Bulk Modulus (GPa) = 52.47065 58.23722 55.35393
# Shear Modulus (GPa) = 23.24788 25.49732 24.37260
#
# Velocity S-wave (km/s) = 3.57493 3.74389 3.66039
# Velocity P-wave (km/s) = 6.77385 7.12067 6.94942
#
# Compressibility (1/GPa) = 0.01905827
#
# Stress axis : x y z
#
# Youngs Moduli (GPa) = 56.41324 70.33360 112.00342
#
# Poissons Ratio (x) = 0.39933 0.12380
# Poissons Ratio (y) = 0.32029 0.46192
# Poissons Ratio (z) = 0.06235 0.29007
#
# Static dielectric constant tensor:
#      x y z
#    x 3.090700 0.000000 0.000000 
#    y 0.000000 3.227210 0.000000 
#    z 0.000000 0.000000 3.633800 
# 
# 
# High freq. dielectric constant tensor:
#      x y z
#    x 1.675520 0.000000 0.000000 
#    y 0.000000 1.684260 0.000000 
#    z 0.000000 0.000000 1.721760 
# 
# From -- ./inp_files/21014.got.cif
#   From: 2010.03.12/outbox.cif.g09.slc.cpg/sg49_11_cif.got.tgz:21014.got - 2010.04.14 03:58:27.
