data_PCOD8203774
_publ_section_title
;
Structure prediction by ZEFSAII (Michael W. Deem and Ramdas Pophale) SiO2 
 PCOD8203774
Probable space group: P C C M
;
_chemical_formula_sum "Si O2"
_cell_formula_units_Z 64
_cell_length_a 15.184681
_cell_length_b 23.547372
_cell_length_c 9.105036
_cell_angle_alpha 90.000000
_cell_angle_beta 90.000000
_cell_angle_gamma 90.000000
_cell_volume 3255.590592
_symmetry_space_group_name_H-M "P C C M"
_symmetry_group_IT_number 49
_symmetry_cell_setting 'orthorhombic'
loop_
_space_group_symop_operation_xyz
x,y,z
-x,-y,z
x,-y,1/2-z
-x,y,1/2-z
-x,-y,-z
x,y,-z
-x,y,1/2+z
x,-y,1/2+z
loop_
_atom_site_type_symbol
_atom_site_label
_atom_site_fract_x
_atom_site_fract_y
_atom_site_fract_z
Si Si1 0.258367 0.557758 0.175115
Si Si2 0.575099 0.941610 0.664047
Si Si3 0.773319 0.057963 0.836222
Si Si4 0.911043 0.259261 0.330011
Si Si5 0.411458 0.227598 0.328238
Si Si6 0.774546 0.819661 0.325664
Si Si7 0.412424 0.357557 0.670788
Si Si8 0.090178 0.608046 0.671810
O O1 0.291824 0.500000 0.250000
O O2 0.328987 0.605499 0.218995
O O3 0.165604 0.573681 0.246100
O O4 0.248583 0.551155 0.000000
O O5 0.500000 0.904263 0.750000
O O6 0.540613 0.950095 0.500000
O O7 0.673262 0.918228 0.665280
O O8 0.582195 0.000000 0.750000
O O9 0.815116 0.117460 0.780259
O O10 0.794336 0.000000 0.750000
O O11 0.803803 0.042767 0.000000
O O12 0.920144 0.243318 0.500000
O O13 0.829770 0.226659 0.260027
O O14 0.892496 0.325419 0.306220
O O15 0.000000 0.239991 0.250000
O O16 0.500000 0.205629 0.250000
O O17 0.428375 0.220090 0.500000
O O18 0.327745 0.189672 0.279486
O O19 0.391730 0.292743 0.284793
O O20 0.784914 0.810431 0.500000
O O21 0.500000 0.380214 0.750000
O O22 0.430982 0.363598 0.500000
O O23 0.086871 0.591708 0.500000
O O24 0.000000 0.589843 0.750000
#
# Coordination Sequence:
#
# PCOD8203774 Si02
#       8
#     8   8   8   8   8   8   8   8
#     4  11  23  38  56  81 113 150 192 234 277 324
#     4   9  15  24  38  57  82 116 161 207 250 294
#     4   9  19  33  48  68  97 136 177 217 263 317
#     4  10  21  37  60  89 115 140 174 219 272 328
#     4   9  18  33  53  78 108 142 181 226 276 328
#     4  10  20  35  55  79 110 145 180 223 275 326
#     4   9  19  35  55  77 104 142 185 231 281 328
#     4  10  21  38  60  86 115 146 180 220 269 327
#
# _framework density 19.658491000000001
#
# number of rings (size 3 to 8) (size 9 to 14) (size 15 to 20)
#    0.000    2.375    0.000    2.625    0.000    6.000 
#    0.000    5.000    0.000    0.375    0.000    2.625 
#    0.000    0.000    0.000    0.000    0.000    0.000 
#
# Total GULP energy -793042.114943 kJ/mol
# GULP energy per Si atom -12391.283046 kJ/mol
# Density = 1.961375 g / cm^3
# Si number density = 19.658491 Si / 1000 Ang^3
#
#
#
# Elastic Constant Matrix: (Units=GPa)
#
#
# Indices 1 2 3 4 5 6 
#
# 1 73.6225 36.5065 35.1816 0.0000 0.0000 0.0000
# 2 36.5065 96.0186 40.6327 0.0000 0.0000 0.0000
# 3 35.1816 40.6327 93.4557 0.0000 0.0000 0.0000
# 4 0.0000 0.0000 0.0000 23.4863 0.0000 0.0000
# 5 0.0000 0.0000 0.0000 0.0000 35.3424 0.0000
# 6 0.0000 0.0000 0.0000 0.0000 0.0000 -1.1696
#
#
#
# Elastic Compliance Matrix: (Units=1/GPa)
#
#
# Indices 1 2 3 4 5 6 
#
# 1 0.018303 -0.004955 -0.004736 0.000000 0.000000 0.000000
# 2 -0.004955 0.014104 -0.004267 0.000000 0.000000 0.000000
# 3 -0.004736 -0.004267 0.014338 0.000000 0.000000 0.000000
# 4 0.000000 0.000000 0.000000 0.042578 0.000000 0.000000
# 5 0.000000 0.000000 0.000000 0.000000 0.028295 0.000000
# 6 0.000000 0.000000 0.000000 0.000000 0.000000 -0.854966
#
#
# Mechanical properties :
#
#
# Convention : Reuss Voigt Hill
#
# Bulk Modulus (GPa) = 53.10662 54.19315 53.64988
# Shear Modulus (GPa) = -7.11080 21.58355 7.23638
#
# Velocity S-wave (km/s) = -1.90395 3.31709 1.92069
# Velocity P-wave (km/s) = 4.71592 6.50369 5.68057
#
# Compressibility (1/GPa) = 0.01883004
#
# Stress axis : x y z
#
# Youngs Moduli (GPa) = 54.63668 70.90140 69.74314
#
# Poissons Ratio (x) = 0.35129 0.33030
# Poissons Ratio (y) = 0.27070 0.29760
# Poissons Ratio (z) = 0.25876 0.30254
#
# Static dielectric constant tensor:
#      x y z
#    x 3.144330 0.000000 0.000000 
#    y 0.000000 3.601970 0.000000 
#    z 0.000000 0.000000 3.617710 
# 
# 
# High freq. dielectric constant tensor:
#      x y z
#    x 1.752890 0.000000 0.000000 
#    y 0.000000 1.771840 0.000000 
#    z 0.000000 0.000000 1.766480 
# 
# From -- ./inp_files/4365.got.cif
#   From: 2010.03.12/outbox.cif.g09.slc.cpg/sg49_3_cif.got.tgz:4365.got - 2010.04.14 03:58:27.
