data_PCOD8203013
_publ_section_title
;
Structure prediction by ZEFSAII (Michael W. Deem and Ramdas Pophale) SiO2 
 PCOD8203013
Probable space group: P C C M
;
_chemical_formula_sum "Si O2"
_cell_formula_units_Z 56
_cell_length_a 14.917254
_cell_length_b 22.470173
_cell_length_c 8.970830
_cell_angle_alpha 90.000000
_cell_angle_beta 90.000000
_cell_angle_gamma 90.000000
_cell_volume 3006.961915
_symmetry_space_group_name_H-M "P C C M"
_symmetry_group_IT_number 49
_symmetry_cell_setting 'orthorhombic'
loop_
_space_group_symop_operation_xyz
x,y,z
-x,-y,z
x,-y,1/2-z
-x,y,1/2-z
-x,-y,-z
x,y,-z
-x,y,1/2+z
x,-y,1/2+z
loop_
_atom_site_type_symbol
_atom_site_label
_atom_site_fract_x
_atom_site_fract_y
_atom_site_fract_z
Si Si1 0.590992 0.296052 0.824917
Si Si2 0.220828 0.654536 0.173845
Si Si3 0.907951 0.436001 0.678627
Si Si4 0.590695 0.161164 0.824067
Si Si5 0.089265 0.108585 0.324341
Si Si6 0.912451 0.757110 0.327552
Si Si7 0.275787 0.059914 0.324233
O O1 0.500000 0.320694 0.750000
O O2 0.674776 0.338180 0.781150
O O3 0.611826 0.228590 0.771336
O O4 0.575740 0.297207 0.000000
O O5 0.176254 0.604723 0.277359
O O6 0.174191 0.717639 0.207211
O O7 0.210301 0.637001 0.000000
O O8 0.889559 0.500000 0.750000
O O9 0.916906 0.440157 0.500000
O O10 0.000000 0.409868 0.750000
O O11 0.500000 0.137816 0.750000
O O12 0.668852 0.117262 0.769062
O O13 0.579752 0.158546 0.000000
O O14 0.077576 0.106535 0.500000
O O15 0.105988 0.176242 0.268732
O O16 0.173379 0.069401 0.272421
O O17 0.000000 0.081733 0.250000
O O18 0.934751 0.758060 0.500000
O O19 0.000000 0.729062 0.250000
O O20 0.283863 0.053099 0.500000
O O21 0.313671 0.000000 0.250000
#
# Coordination Sequence:
#
# PCOD8203013 Si02
#       7
#     8   8   8   8   8   8   8
#     4   9  18  33  54  78 105 135 169 209 256 308
#     4  10  19  32  52  78 107 139 172 210 256 305
#     4  11  22  37  56  79 110 147 184 219 253 294
#     4   9  18  34  54  75  99 130 163 201 251 306
#     4   9  18  33  50  68  92 125 161 200 245 297
#     4   9  17  29  47  71  99 128 160 198 246 301
#     4  10  21  35  50  68  93 124 162 204 249 299
#
# _framework density 18.623449000000001
#
# number of rings (size 3 to 8) (size 9 to 14) (size 15 to 20)
#    0.000    2.429    0.000    3.000    0.000    7.429 
#    0.000    2.857    0.000    9.000    0.000    3.000 
#    0.000    0.000    0.000    0.000    0.000    0.000 
#
# Total GULP energy -694358.297079 kJ/mol
# GULP energy per Si atom -12399.255305 kJ/mol
# Density = 1.858106 g / cm^3
# Si number density = 18.623449 Si / 1000 Ang^3
#
#
#
# Elastic Constant Matrix: (Units=GPa)
#
#
# Indices 1 2 3 4 5 6 
#
# 1 136.7048 49.0916 45.9210 0.0000 0.0000 0.0000
# 2 49.0916 67.8970 33.5361 0.0000 0.0000 0.0000
# 3 45.9210 33.5361 55.2171 0.0000 0.0000 0.0000
# 4 0.0000 0.0000 0.0000 19.2296 0.0000 0.0000
# 5 0.0000 0.0000 0.0000 0.0000 32.6218 0.0000
# 6 0.0000 0.0000 0.0000 0.0000 0.0000 14.6016
#
#
#
# Elastic Compliance Matrix: (Units=1/GPa)
#
#
# Indices 1 2 3 4 5 6 
#
# 1 0.011229 -0.005009 -0.006296 0.000000 0.000000 0.000000
# 2 -0.005009 0.023274 -0.009970 0.000000 0.000000 0.000000
# 3 -0.006296 -0.009970 0.029402 0.000000 0.000000 0.000000
# 4 0.000000 0.000000 0.000000 0.052003 0.000000 0.000000
# 5 0.000000 0.000000 0.000000 0.000000 0.030654 0.000000
# 6 0.000000 0.000000 0.000000 0.000000 0.000000 0.068486
#
#
# Mechanical properties :
#
#
# Convention : Reuss Voigt Hill
#
# Bulk Modulus (GPa) = 46.82823 57.43516 52.13169
# Shear Modulus (GPa) = 18.88816 22.04195 20.46506
#
# Velocity S-wave (km/s) = 3.18813 3.44402 3.31854
# Velocity P-wave (km/s) = 6.22508 6.83537 6.53735
#
# Compressibility (1/GPa) = 0.02135464
#
# Stress axis : x y z
#
# Youngs Moduli (GPa) = 89.05736 42.96608 34.01149
#
# Poissons Ratio (x) = 0.21521 0.21414
# Poissons Ratio (y) = 0.44607 0.33909
# Poissons Ratio (z) = 0.56072 0.42837
#
# Static dielectric constant tensor:
#      x y z
#    x 3.608510 0.000000 0.000000 
#    y 0.000000 3.356820 0.000000 
#    z 0.000000 0.000000 3.310620 
# 
# 
# High freq. dielectric constant tensor:
#      x y z
#    x 1.724360 0.000000 0.000000 
#    y 0.000000 1.708640 0.000000 
#    z 0.000000 0.000000 1.711040 
# 
# From -- ./inp_files/4010.got.cif
#   From: 2010.03.12/outbox.cif.g09.slc.cpg/sg49_3_cif.got.tgz:4010.got - 2010.04.14 03:58:27.
