data_PCOD8203203
_publ_section_title
;
Structure prediction by ZEFSAII (Michael W. Deem and Ramdas Pophale) SiO2 
 PCOD8203203
Probable space group: P C C M
;
_chemical_formula_sum "Si O2"
_cell_formula_units_Z 56
_cell_length_a 15.059982
_cell_length_b 11.499336
_cell_length_c 16.706868
_cell_angle_alpha 90.000000
_cell_angle_beta 90.000000
_cell_angle_gamma 90.000000
_cell_volume 2893.291945
_symmetry_space_group_name_H-M "P C C M"
_symmetry_group_IT_number 49
_symmetry_cell_setting 'orthorhombic'
loop_
_space_group_symop_operation_xyz
x,y,z
-x,-y,z
x,-y,1/2-z
-x,y,1/2-z
-x,-y,-z
x,y,-z
-x,y,1/2+z
x,-y,1/2+z
loop_
_atom_site_type_symbol
_atom_site_label
_atom_site_fract_x
_atom_site_fract_y
_atom_site_fract_z
Si Si1 0.669004 0.112690 0.905308
Si Si2 0.232973 0.687360 0.144463
Si Si3 0.338058 0.150519 0.906743
Si Si4 0.258902 0.355371 0.829599
Si Si5 0.487388 0.268405 0.656158
Si Si6 0.382629 0.469976 0.589852
Si Si7 0.903370 0.512171 0.656452
O O1 0.761756 0.175400 0.877660
O O2 0.595653 0.184644 0.857759
O O3 0.668032 0.980920 0.874012
O O4 0.652795 0.117957 0.000000
O O5 0.259705 0.649293 0.234277
O O6 0.302649 0.623290 0.086725
O O7 0.133264 0.639530 0.130675
O O8 0.261138 0.224766 0.863626
O O9 0.432803 0.205806 0.888687
O O10 0.318791 0.152016 0.000000
O O11 0.350654 0.421349 0.855170
O O12 0.171346 0.416518 0.867428
O O13 0.500000 0.279319 0.750000
O O14 0.470718 0.399541 0.621059
O O15 0.399980 0.515316 0.500000
O O16 0.918376 0.500000 0.750000
O O17 0.000000 0.500000 0.613785
#
# Coordination Sequence:
#
# PCOD8203203 Si02
#       7
#     8   8   8   8   8   8   8
#     4  10  21  37  54  71  97 136 177 214 256 304
#     4   9  17  31  54  79 101 130 170 210 248 296
#     4  11  22  35  51  71 101 138 174 215 258 299
#     4  10  20  33  52  79 105 132 168 208 254 302
#     4  11  22  34  52  75  99 132 178 222 255 292
#     4  10  19  34  52  70 101 137 167 203 251 305
#     4   8  15  30  54  82 108 130 156 199 253 306
#
# _framework density 19.355115000000001
#
# number of rings (size 3 to 8) (size 9 to 14) (size 15 to 20)
#    0.000    2.143    0.000    6.429    0.000    4.571 
#    0.000    3.571    0.000   16.286    0.000    6.000 
#    0.000    0.000    0.000    0.000    0.000    0.000 
#
# Total GULP energy -694081.942338 kJ/mol
# GULP energy per Si atom -12394.320399 kJ/mol
# Density = 1.931106 g / cm^3
# Si number density = 19.355115 Si / 1000 Ang^3
#
#
#
# Elastic Constant Matrix: (Units=GPa)
#
#
# Indices 1 2 3 4 5 6 
#
# 1 76.4388 39.3469 16.7605 0.0000 0.0000 0.0000
# 2 39.3469 146.0793 29.4307 0.0000 0.0000 0.0000
# 3 16.7605 29.4307 77.0953 0.0000 0.0000 0.0000
# 4 0.0000 0.0000 0.0000 27.8904 0.0000 0.0000
# 5 0.0000 0.0000 0.0000 0.0000 5.0819 0.0000
# 6 0.0000 0.0000 0.0000 0.0000 0.0000 17.2147
#
#
#
# Elastic Compliance Matrix: (Units=1/GPa)
#
#
# Indices 1 2 3 4 5 6 
#
# 1 0.015445 -0.003774 -0.001917 0.000000 0.000000 0.000000
# 2 -0.003774 0.008338 -0.002363 0.000000 0.000000 0.000000
# 3 -0.001917 -0.002363 0.014290 0.000000 0.000000 0.000000
# 4 0.000000 0.000000 0.000000 0.035855 0.000000 0.000000
# 5 0.000000 0.000000 0.000000 0.000000 0.196778 0.000000
# 6 0.000000 0.000000 0.000000 0.000000 0.000000 0.058090
#
#
# Mechanical properties :
#
#
# Convention : Reuss Voigt Hill
#
# Bulk Modulus (GPa) = 45.52539 52.29886 48.91213
# Shear Modulus (GPa) = 14.19547 24.30909 19.25228
#
# Velocity S-wave (km/s) = 2.71111 3.54779 3.15729
# Velocity P-wave (km/s) = 5.77688 6.62282 6.21426
#
# Compressibility (1/GPa) = 0.02196576
#
# Stress axis : x y z
#
# Youngs Moduli (GPa) = 64.74415 119.93100 69.98079
#
# Poissons Ratio (x) = 0.45262 0.13416
# Poissons Ratio (y) = 0.24435 0.16533
# Poissons Ratio (z) = 0.12412 0.28334
#
# Static dielectric constant tensor:
#      x y z
#    x 3.779050 0.000000 0.000000 
#    y 0.000000 3.955810 0.000000 
#    z 0.000000 0.000000 3.384490 
# 
# 
# High freq. dielectric constant tensor:
#      x y z
#    x 1.724910 0.000000 0.000000 
#    y 0.000000 1.758330 0.000000 
#    z 0.000000 0.000000 1.750130 
# 
# From -- ./inp_files/13596.got.cif
#   From: 2010.03.12/outbox.cif.g09.slc.cpg/sg49_7_cif.got.tgz:13596.got - 2010.04.14 03:58:27.
