data_PCOD8203846
_publ_section_title
;
Structure prediction by ZEFSAII (Michael W. Deem and Ramdas Pophale) SiO2 
 PCOD8203846
Probable space group: P C C M
;
_chemical_formula_sum "Si O2"
_cell_formula_units_Z 48
_cell_length_a 9.189554
_cell_length_b 15.770464
_cell_length_c 15.449144
_cell_angle_alpha 90.000000
_cell_angle_beta 90.000000
_cell_angle_gamma 90.000000
_cell_volume 2238.944492
_symmetry_space_group_name_H-M "P C C M"
_symmetry_group_IT_number 49
_symmetry_cell_setting 'orthorhombic'
loop_
_space_group_symop_operation_xyz
x,y,z
-x,-y,z
x,-y,1/2-z
-x,y,1/2-z
-x,-y,-z
x,y,-z
-x,y,1/2+z
x,-y,1/2+z
loop_
_atom_site_type_symbol
_atom_site_label
_atom_site_fract_x
_atom_site_fract_y
_atom_site_fract_z
Si Si1 0.906334 0.239338 0.099652
Si Si2 0.605005 0.078305 0.602355
Si Si3 0.919138 0.578391 0.599233
Si Si4 0.580630 0.579325 0.400780
Si Si5 0.928627 0.081857 0.655785
Si Si6 0.585630 0.233739 0.896700
O O1 0.958222 0.329319 0.141462
O O2 0.748972 0.210798 0.137851
O O3 0.029788 0.168536 0.107936
O O4 0.877230 0.260110 0.000000
O O5 0.639757 0.080927 0.500000
O O6 0.755018 0.070374 0.655521
O O7 0.527104 0.163489 0.637142
O O8 0.500000 0.000000 0.624742
O O9 0.971466 0.579306 0.500000
O O10 0.749587 0.561657 0.608397
O O11 0.000000 0.500000 0.647400
O O12 0.500000 0.500000 0.353582
O O13 0.529957 0.581676 0.500000
O O14 0.540504 0.672413 0.361705
O O15 0.000000 0.087564 0.750000
O O16 0.000000 0.000000 0.608134
O O17 0.584824 0.231565 0.000000
#
# Coordination Sequence:
#
# PCOD8203846 Si02
#       6
#     8   8   8   8   8   8
#     4   9  17  32  54  76 103 140 178 220 267 317
#     4  10  20  35  58  84 106 133 175 226 275 323
#     4   8  14  24  41  70 103 132 167 212 262 312
#     4   8  13  21  35  59  96 133 158 194 251 307
#     4  11  24  39  52  74 107 140 176 219 271 332
#     4   8  15  28  46  72 101 128 166 213 259 305
#
# _framework density 21.438673000000001
#
# number of rings (size 3 to 8) (size 9 to 14) (size 15 to 20)
#    0.000    3.000    0.000    3.500    0.000    4.000 
#    0.000   10.833    0.000    0.500    0.000    0.000 
#    0.000    1.333    0.000    0.000    0.000    0.000 
#
# Total GULP energy -594657.533644 kJ/mol
# GULP energy per Si atom -12388.698618 kJ/mol
# Density = 2.138988 g / cm^3
# Si number density = 21.438673 Si / 1000 Ang^3
#
#
#
# Elastic Constant Matrix: (Units=GPa)
#
#
# Indices 1 2 3 4 5 6 
#
# 1 137.0754 103.0978 18.1484 0.0000 0.0000 0.0000
# 2 103.0978 214.6791 7.2744 0.0000 0.0000 0.0000
# 3 18.1484 7.2744 20.4358 0.0000 0.0000 0.0000
# 4 0.0000 0.0000 0.0000 -5.7252 0.0000 0.0000
# 5 0.0000 0.0000 0.0000 0.0000 17.0633 0.0000
# 6 0.0000 0.0000 0.0000 0.0000 0.0000 48.4629
#
#
#
# Elastic Compliance Matrix: (Units=1/GPa)
#
#
# Indices 1 2 3 4 5 6 
#
# 1 0.013000 -0.005923 -0.009436 0.000000 0.000000 0.000000
# 2 -0.005923 0.007414 0.002621 0.000000 0.000000 0.000000
# 3 -0.009436 0.002621 0.056380 0.000000 0.000000 0.000000
# 4 0.000000 0.000000 0.000000 -0.174665 0.000000 0.000000
# 5 0.000000 0.000000 0.000000 0.000000 0.058605 0.000000
# 6 0.000000 0.000000 0.000000 0.000000 0.000000 0.020634
#
#
# Mechanical properties :
#
#
# Convention : Reuss Voigt Hill
#
# Bulk Modulus (GPa) = 19.48648 69.91462 44.70055
# Shear Modulus (GPa) = 208.76496 28.20484 118.48490
#
# Velocity S-wave (km/s) = 9.87872 3.63106 7.44224
# Velocity P-wave (km/s) = 11.79949 7.08955 9.73370
#
# Compressibility (1/GPa) = 0.05131763
#
# Stress axis : x y z
#
# Youngs Moduli (GPa) = 76.92603 134.88284 17.73666
#
# Poissons Ratio (x) = 0.79893 0.16736
# Poissons Ratio (y) = 0.45564 -0.04649
# Poissons Ratio (z) = 0.72587 -0.35354
#
# Static dielectric constant tensor:
#      x y z
#    x 3.804550 0.000000 0.000000 
#    y 0.000000 4.669910 0.000000 
#    z 0.000000 0.000000 3.139600 
# 
# 
# High freq. dielectric constant tensor:
#      x y z
#    x 1.832640 0.000000 0.000000 
#    y 0.000000 1.871180 0.000000 
#    z 0.000000 0.000000 1.774640 
# 
# From -- ./inp_files/16324.got.cif
#   From: 2010.03.12/outbox.cif.g09.slc.cpg/sg49_9_cif.got.tgz:16324.got - 2010.04.14 03:58:27.
