data_PCOD8203468
_publ_section_title
;
Structure prediction by ZEFSAII (Michael W. Deem and Ramdas Pophale) SiO2 
 PCOD8203468
Probable space group: P C C M
;
_chemical_formula_sum "Si O2"
_cell_formula_units_Z 64
_cell_length_a 14.444769
_cell_length_b 28.083100
_cell_length_c 9.004972
_cell_angle_alpha 90.000000
_cell_angle_beta 90.000000
_cell_angle_gamma 90.000000
_cell_volume 3652.901942
_symmetry_space_group_name_H-M "P C C M"
_symmetry_group_IT_number 49
_symmetry_cell_setting 'orthorhombic'
loop_
_space_group_symop_operation_xyz
x,y,z
-x,-y,z
x,-y,1/2-z
-x,y,1/2-z
-x,-y,-z
x,y,-z
-x,y,1/2+z
x,-y,1/2+z
loop_
_atom_site_type_symbol
_atom_site_label
_atom_site_fract_x
_atom_site_fract_y
_atom_site_fract_z
Si Si1 0.908365 0.830723 0.174628
Si Si2 0.402303 0.049047 0.677765
Si Si3 0.410475 0.331210 0.667208
Si Si4 0.791767 0.359051 0.173841
Si Si5 0.097500 0.548641 0.823333
Si Si6 0.326478 0.763280 0.165836
Si Si7 0.724825 0.135585 0.170037
Si Si8 0.155652 0.729596 0.670251
O O1 0.817704 0.857118 0.236032
O O2 0.909672 0.774102 0.213153
O O3 0.000000 0.852890 0.250000
O O4 0.911330 0.839670 0.000000
O O5 0.500000 0.063073 0.750000
O O6 0.412683 0.044457 0.500000
O O7 0.328644 0.089005 0.725260
O O8 0.366419 0.000000 0.750000
O O9 0.500000 0.352046 0.750000
O O10 0.419864 0.349260 0.500000
O O11 0.313566 0.351771 0.734100
O O12 0.413092 0.272971 0.677267
O O13 0.827871 0.411076 0.217806
O O14 0.862276 0.319118 0.239145
O O15 0.792853 0.351019 0.000000
O O16 0.134750 0.500000 0.750000
O O17 0.000000 0.562696 0.750000
O O18 0.085180 0.542622 0.000000
O O19 0.346730 0.819483 0.188058
O O20 0.258408 0.747548 0.295628
O O21 0.281792 0.756165 0.000000
O O22 0.755424 0.129637 0.000000
O O23 0.145701 0.715960 0.500000
#
# Coordination Sequence:
#
# PCOD8203468 Si02
#       8
#     8   8   8   8   8   8   8   8
#     4  10  20  32  48  72 102 135 168 203 241 285
#     4  10  20  34  53  76 101 129 162 203 252 302
#     4   9  17  29  45  67  95 128 162 194 231 274
#     4   9  19  34  50  68  96 132 162 193 239 290
#     4  10  20  35  54  75  97 121 152 193 242 293
#     4   8  15  29  45  62  91 127 159 193 235 280
#     4   9  18  33  52  72  96 130 168 204 246 294
#     4   9  17  28  44  68  94 122 161 201 232 268
#
# _framework density 17.520316999999999
#
# number of rings (size 3 to 8) (size 9 to 14) (size 15 to 20)
#    0.000    2.750    0.000    3.000    0.000    6.500 
#    0.000    2.500    0.000    0.750    0.000    5.250 
#    0.000    0.000    0.000    0.000    0.000    0.000 
#
# Total GULP energy -792905.621012 kJ/mol
# GULP energy per Si atom -12389.150328 kJ/mol
# Density = 1.748044 g / cm^3
# Si number density = 17.520317 Si / 1000 Ang^3
#
#
#
# Elastic Constant Matrix: (Units=GPa)
#
#
# Indices 1 2 3 4 5 6 
#
# 1 91.6536 66.2180 45.7118 0.0000 0.0000 0.0000
# 2 66.2180 126.9749 47.5980 0.0000 0.0000 0.0000
# 3 45.7118 47.5980 65.5373 0.0000 0.0000 0.0000
# 4 0.0000 0.0000 0.0000 22.9801 0.0000 0.0000
# 5 0.0000 0.0000 0.0000 0.0000 23.2216 0.0000
# 6 0.0000 0.0000 0.0000 0.0000 0.0000 24.2308
#
#
#
# Elastic Compliance Matrix: (Units=1/GPa)
#
#
# Indices 1 2 3 4 5 6 
#
# 1 0.020846 -0.007449 -0.009130 0.000000 0.000000 0.000000
# 2 -0.007449 0.013483 -0.004597 0.000000 0.000000 0.000000
# 3 -0.009130 -0.004597 0.024965 0.000000 0.000000 0.000000
# 4 0.000000 0.000000 0.000000 0.043516 0.000000 0.000000
# 5 0.000000 0.000000 0.000000 0.000000 0.043063 0.000000
# 6 0.000000 0.000000 0.000000 0.000000 0.000000 0.041270
#
#
# Mechanical properties :
#
#
# Convention : Reuss Voigt Hill
#
# Bulk Modulus (GPa) = 59.02213 67.02458 63.02336
# Shear Modulus (GPa) = 21.26367 22.39570 21.82968
#
# Velocity S-wave (km/s) = 3.48754 3.57917 3.53365
# Velocity P-wave (km/s) = 7.06953 7.44439 7.25938
#
# Compressibility (1/GPa) = 0.01694280
#
# Stress axis : x y z
#
# Youngs Moduli (GPa) = 47.97159 74.16513 40.05541
#
# Poissons Ratio (x) = 0.55243 0.36570
# Poissons Ratio (y) = 0.35732 0.18415
# Poissons Ratio (z) = 0.43798 0.34096
#
# Static dielectric constant tensor:
#      x y z
#    x 3.072010 0.000000 0.000000 
#    y 0.000000 3.342970 0.000000 
#    z 0.000000 0.000000 3.266990 
# 
# 
# High freq. dielectric constant tensor:
#      x y z
#    x 1.653070 0.000000 0.000000 
#    y 0.000000 1.664540 0.000000 
#    z 0.000000 0.000000 1.682710 
# 
# From -- ./inp_files/4529.got.cif
#   From: 2010.03.12/outbox.cif.g09.slc.cpg/sg49_3_cif.got.tgz:4529.got - 2010.04.14 03:58:27.
