data_PCOD8203455
_publ_section_title
;
Structure prediction by ZEFSAII (Michael W. Deem and Ramdas Pophale) SiO2 
 PCOD8203455
Probable space group: P C C M
;
_chemical_formula_sum "Si O2"
_cell_formula_units_Z 64
_cell_length_a 20.962459
_cell_length_b 9.277393
_cell_length_c 17.962993
_cell_angle_alpha 90.000000
_cell_angle_beta 90.000000
_cell_angle_gamma 90.000000
_cell_volume 3493.388458
_symmetry_space_group_name_H-M "P C C M"
_symmetry_group_IT_number 49
_symmetry_cell_setting 'orthorhombic'
loop_
_space_group_symop_operation_xyz
x,y,z
-x,-y,z
x,-y,1/2-z
-x,y,1/2-z
-x,-y,-z
x,y,-z
-x,y,1/2+z
x,-y,1/2+z
loop_
_atom_site_type_symbol
_atom_site_label
_atom_site_fract_x
_atom_site_fract_y
_atom_site_fract_z
Si Si1 0.872625 0.333815 0.662490
Si Si2 0.363511 0.338495 0.911160
Si Si3 0.127375 0.666185 0.162489
Si Si4 0.000000 0.328760 0.416137
Si Si5 0.758994 0.831375 0.086700
Si Si6 0.241006 0.831375 0.913300
Si Si7 0.636488 0.338495 0.911160
Si Si8 0.500000 0.328840 0.081524
O O1 0.879868 0.315712 0.750000
O O2 0.861004 0.500000 0.640008
O O3 0.814416 0.240109 0.633873
O O4 0.937020 0.271962 0.625395
O O5 0.308261 0.231405 0.884036
O O6 0.347071 0.500000 0.882946
O O7 0.432860 0.285851 0.878070
O O8 0.369009 0.338453 0.000000
O O9 0.062980 0.728038 0.125394
O O10 0.185585 0.759890 0.133873
O O11 1.000000 0.268272 0.500000
O O12 0.000000 0.500000 0.414642
O O13 0.758867 1.000000 0.102046
O O14 0.769429 0.794730 0.000000
O O15 0.308261 0.768595 0.884036
O O16 0.230571 0.794730 0.000000
O O17 0.567140 0.285851 0.878070
O O18 0.630990 0.338453 0.000000
O O19 0.500000 0.500000 0.072797
O O20 0.500000 0.255943 0.000000
#
# Coordination Sequence:
#
# PCOD8203455 Si02
#       8
#     8   8   8   8   8   8   8   8
#     4  10  20  34  53  76 100 127 161 200 241 287
#     4   8  13  23  41  64  91 124 161 201 244 289
#     4  10  20  34  53  76 100 127 161 200 241 287
#     4   9  17  31  54  81 104 125 152 192 242 291
#     4  10  20  32  46  68  99 133 168 204 242 287
#     4  10  20  32  46  68  99 133 168 204 242 287
#     4   8  13  23  41  64  91 124 161 201 244 289
#     4   7  10  18  35  61  90 119 154 197 244 290
#
# _framework density 18.320321
#
# number of rings (size 3 to 8) (size 9 to 14) (size 15 to 20)
#    0.000    3.000    0.000    3.375    0.000    4.500 
#    0.000    1.250    0.000    7.500    0.000    0.875 
#    0.000    7.000    0.000    0.000    0.000    0.000 
#
# Total GULP energy -793106.466757 kJ/mol
# GULP energy per Si atom -12392.288543 kJ/mol
# Density = 1.827862 g / cm^3
# Si number density = 18.320321 Si / 1000 Ang^3
#
#
#
# Elastic Constant Matrix: (Units=GPa)
#
#
# Indices 1 2 3 4 5 6 
#
# 1 193.6033 60.3212 49.9622 0.0000 0.0000 0.0000
# 2 60.3212 65.4580 30.5646 0.0000 0.0000 0.0000
# 3 49.9622 30.5646 52.9872 0.0000 0.0000 0.0000
# 4 0.0000 0.0000 0.0000 16.5496 0.0000 0.0000
# 5 0.0000 0.0000 0.0000 0.0000 -0.8765 0.0000
# 6 0.0000 0.0000 0.0000 0.0000 0.0000 -1.7363
#
#
#
# Elastic Compliance Matrix: (Units=1/GPa)
#
#
# Indices 1 2 3 4 5 6 
#
# 1 0.007953 -0.005238 -0.004477 0.000000 0.000000 0.000000
# 2 -0.005238 0.024358 -0.009112 0.000000 0.000000 0.000000
# 3 -0.004477 -0.009112 0.028350 0.000000 0.000000 0.000000
# 4 0.000000 0.000000 0.000000 0.060424 0.000000 0.000000
# 5 0.000000 0.000000 0.000000 0.000000 -1.140931 0.000000
# 6 0.000000 0.000000 0.000000 0.000000 0.000000 -0.575943
#
#
# Mechanical properties :
#
#
# Convention : Reuss Voigt Hill
#
# Bulk Modulus (GPa) = 43.46450 65.97160 54.71805
# Shear Modulus (GPa) = -3.22484 14.20074 5.48795
#
# Velocity S-wave (km/s) = -1.32818 2.78715 1.73264
# Velocity P-wave (km/s) = 4.62862 6.81512 5.82537
#
# Compressibility (1/GPa) = 0.02300728
#
# Stress axis : x y z
#
# Youngs Moduli (GPa) = 125.74498 41.05347 35.27338
#
# Poissons Ratio (x) = 0.21504 0.15793
# Poissons Ratio (y) = 0.65865 0.32140
# Poissons Ratio (z) = 0.56298 0.37407
#
# Static dielectric constant tensor:
#      x y z
#    x 3.918310 0.000000 0.000000 
#    y 0.000000 3.097470 0.000000 
#    z 0.000000 0.000000 2.988000 
# 
# 
# High freq. dielectric constant tensor:
#      x y z
#    x 1.738510 0.000000 0.000000 
#    y 0.000000 1.675280 0.000000 
#    z 0.000000 0.000000 1.665430 
# 
# From -- ./inp_files/18314.got.cif
#   From: 2010.03.12/outbox.cif.g09.slc.cpg/sg49_10_cif.got.tgz:18314.got - 2010.04.14 03:58:27.
