data_PCOD8203933
_publ_section_title
;
Structure prediction by ZEFSAII (Michael W. Deem and Ramdas Pophale) SiO2 
 PCOD8203933
Probable space group: P C C M
;
_chemical_formula_sum "Si O2"
_cell_formula_units_Z 32
_cell_length_a 7.087335
_cell_length_b 15.882260
_cell_length_c 14.285922
_cell_angle_alpha 90.000000
_cell_angle_beta 90.000000
_cell_angle_gamma 90.000000
_cell_volume 1608.064769
_symmetry_space_group_name_H-M "P C C M"
_symmetry_group_IT_number 49
_symmetry_cell_setting 'orthorhombic'
loop_
_space_group_symop_operation_xyz
x,y,z
-x,-y,z
x,-y,1/2-z
-x,y,1/2-z
-x,-y,-z
x,y,-z
-x,y,1/2+z
x,-y,1/2+z
loop_
_atom_site_type_symbol
_atom_site_label
_atom_site_fract_x
_atom_site_fract_y
_atom_site_fract_z
Si Si1 1.000000 0.599751 0.893068
Si Si2 0.274807 0.324241 0.750000
Si Si3 0.722673 0.867139 0.250000
Si Si4 0.724181 0.000000 0.896418
O O1 0.810709 0.632887 0.842637
O O2 0.000000 0.500000 0.887224
O O3 0.189291 0.632888 0.842636
O O4 0.000000 0.631447 0.000000
O O5 0.500000 0.334635 0.750000
O O6 0.203688 0.227812 0.750000
O O7 0.500000 0.867131 0.250000
O O8 0.795666 0.916555 0.342079
O O9 0.795666 0.916556 0.157921
O O10 0.500000 0.000000 0.900932
O O11 0.812877 0.000000 0.000000
#
# Coordination Sequence:
#
# PCOD8203933 Si02
#       4
#     8   8   8   8
#     4  10  23  41  58  81 113 145 180 225 279 339
#     4  10  20  36  60  86 112 144 184 230 276 324
#     4   8  15  26  43  73 105 135 178 222 260 311
#     4   8  13  23  40  65 103 143 174 213 263 310
#
# _framework density 19.899697
#
# number of rings (size 3 to 8) (size 9 to 14) (size 15 to 20)
#    0.000    3.000    0.000    3.000    0.000    5.000 
#    0.000    7.500    0.000   12.000    0.000   14.000 
#    0.000    0.000    0.000    0.000    0.000    0.000 
#
# Total GULP energy -396598.318515 kJ/mol
# GULP energy per Si atom -12393.697454 kJ/mol
# Density = 1.985440 g / cm^3
# Si number density = 19.899697 Si / 1000 Ang^3
#
#
#
# Elastic Constant Matrix: (Units=GPa)
#
#
# Indices 1 2 3 4 5 6 
#
# 1 114.1957 29.5572 40.6518 0.0000 0.0000 0.0000
# 2 29.5572 139.1680 79.5619 0.0000 0.0000 0.0000
# 3 40.6518 79.5619 211.1676 0.0000 0.0000 0.0000
# 4 0.0000 0.0000 0.0000 14.2387 0.0000 0.0000
# 5 0.0000 0.0000 0.0000 0.0000 -15.8951 0.0000
# 6 0.0000 0.0000 0.0000 0.0000 0.0000 95.5458
#
#
#
# Elastic Compliance Matrix: (Units=1/GPa)
#
#
# Indices 1 2 3 4 5 6 
#
# 1 0.009568 -0.001248 -0.001372 0.000000 0.000000 0.000000
# 2 -0.001248 0.009321 -0.003272 0.000000 0.000000 0.000000
# 3 -0.001372 -0.003272 0.006232 0.000000 0.000000 0.000000
# 4 0.000000 0.000000 0.000000 0.070231 0.000000 0.000000
# 5 0.000000 0.000000 0.000000 0.000000 -0.062912 0.000000
# 6 0.000000 0.000000 0.000000 0.000000 0.000000 0.010466
#
#
# Mechanical properties :
#
#
# Convention : Reuss Voigt Hill
#
# Bulk Modulus (GPa) = 74.96900 84.89699 79.93300
# Shear Modulus (GPa) = 84.55192 39.76191 62.15692
#
# Velocity S-wave (km/s) = 6.52543 4.47488 5.59490
# Velocity P-wave (km/s) = 9.72267 8.33393 9.05496
#
# Compressibility (1/GPa) = 0.01333885
#
# Stress axis : x y z
#
# Youngs Moduli (GPa) = 104.51254 107.28485 160.45378
#
# Poissons Ratio (x) = 0.13388 0.22011
# Poissons Ratio (y) = 0.13042 0.52495
# Poissons Ratio (z) = 0.14337 0.35100
#
# Static dielectric constant tensor:
#      x y z
#    x 3.335770 0.000000 0.000000 
#    y 0.000000 3.997170 0.000000 
#    z 0.000000 0.000000 3.951730 
# 
# 
# High freq. dielectric constant tensor:
#      x y z
#    x 1.773870 0.000000 0.000000 
#    y 0.000000 1.781340 0.000000 
#    z 0.000000 0.000000 1.776450 
# 
# From -- ./inp_files/11388.got.cif
#   From: 2010.03.12/outbox.cif.g09.slc.cpg/sg49_6_cif.got.tgz:11388.got - 2010.04.14 03:58:27.
