data_PCOD8203161
_publ_section_title
;
Structure prediction by ZEFSAII (Michael W. Deem and Ramdas Pophale) SiO2 
 PCOD8203161
Probable space group: P C C M
;
_chemical_formula_sum "Si O2"
_cell_formula_units_Z 56
_cell_length_a 15.236119
_cell_length_b 20.025399
_cell_length_c 8.701268
_cell_angle_alpha 90.000000
_cell_angle_beta 90.000000
_cell_angle_gamma 90.000000
_cell_volume 2654.838330
_symmetry_space_group_name_H-M "P C C M"
_symmetry_group_IT_number 49
_symmetry_cell_setting 'orthorhombic'
loop_
_space_group_symop_operation_xyz
x,y,z
-x,-y,z
x,-y,1/2-z
-x,y,1/2-z
-x,-y,-z
x,y,-z
-x,y,1/2+z
x,-y,1/2+z
loop_
_atom_site_type_symbol
_atom_site_label
_atom_site_fract_x
_atom_site_fract_y
_atom_site_fract_z
Si Si1 0.134787 0.249412 0.825021
Si Si2 0.310484 0.797355 0.823222
Si Si3 0.407752 0.332620 0.676449
Si Si4 0.730451 0.430860 0.318236
Si Si5 0.721445 0.931074 0.816624
Si Si6 0.090070 0.616511 0.180637
Si Si7 0.913728 0.897984 0.172877
O O1 0.233799 0.235022 0.776398
O O2 0.092659 0.304189 0.713569
O O3 0.079100 0.181868 0.812885
O O4 0.135446 0.276803 0.000000
O O5 0.392925 0.747259 0.809304
O O6 0.335237 0.869843 0.752944
O O7 0.280666 0.805240 0.000000
O O8 0.500000 0.352232 0.750000
O O9 0.407436 0.355466 0.500000
O O10 0.329995 0.370537 0.762648
O O11 0.693577 0.500000 0.250000
O O12 0.729138 0.434217 0.500000
O O13 0.829332 0.420330 0.260805
O O14 0.821980 0.923412 0.754415
O O15 0.682603 0.000000 0.750000
O O16 0.715551 0.928835 0.000000
O O17 0.000000 0.586753 0.250000
O O18 0.093913 0.603587 0.000000
O O19 0.000000 0.930046 0.250000
O O20 0.914939 0.922860 0.000000
#
# Coordination Sequence:
#
# PCOD8203161 Si02
#       7
#     8   8   8   8   8   8   8
#     4  10  19  33  54  82 116 158 206 257 316 370
#     4  10  20  36  61  90 123 160 203 254 310 372
#     4  11  24  43  70 104 135 167 210 257 315 384
#     4  12  26  46  70  96 132 173 214 265 321 380
#     4  10  21  36  54  79 113 155 206 254 312 379
#     4  12  24  39  60  90 126 169 220 268 319 377
#     4   9  19  31  45  70 105 147 197 252 306 366
#
# _framework density 21.093563
#
# number of rings (size 3 to 8) (size 9 to 14) (size 15 to 20)
#    0.000    1.429    1.429    5.571    0.000    7.143 
#    0.000    4.286    0.000    0.429    0.000    3.000 
#    0.000    0.000    0.000    0.000    0.000    0.000 
#
# Total GULP energy -694484.540555 kJ/mol
# GULP energy per Si atom -12401.509653 kJ/mol
# Density = 2.104555 g / cm^3
# Si number density = 21.093563 Si / 1000 Ang^3
#
#
#
# Elastic Constant Matrix: (Units=GPa)
#
#
# Indices 1 2 3 4 5 6 
#
# 1 80.3604 23.7440 40.3633 0.0000 0.0000 0.0000
# 2 23.7440 108.2451 46.0463 0.0000 0.0000 0.0000
# 3 40.3633 46.0463 148.4039 0.0000 0.0000 0.0000
# 4 0.0000 0.0000 0.0000 31.3475 0.0000 0.0000
# 5 0.0000 0.0000 0.0000 0.0000 26.3516 0.0000
# 6 0.0000 0.0000 0.0000 0.0000 0.0000 4.2301
#
#
#
# Elastic Compliance Matrix: (Units=1/GPa)
#
#
# Indices 1 2 3 4 5 6 
#
# 1 0.014697 -0.001755 -0.003453 0.000000 0.000000 0.000000
# 2 -0.001755 0.010853 -0.002890 0.000000 0.000000 0.000000
# 3 -0.003453 -0.002890 0.008574 0.000000 0.000000 0.000000
# 4 0.000000 0.000000 0.000000 0.031900 0.000000 0.000000
# 5 0.000000 0.000000 0.000000 0.000000 0.037948 0.000000
# 6 0.000000 0.000000 0.000000 0.000000 0.000000 0.236401
#
#
# Mechanical properties :
#
#
# Convention : Reuss Voigt Hill
#
# Bulk Modulus (GPa) = 55.77855 61.92407 58.85131
# Shear Modulus (GPa) = 13.79141 27.50957 20.65049
#
# Velocity S-wave (km/s) = 2.55977 3.61525 3.13228
# Velocity P-wave (km/s) = 5.93610 6.84451 6.40643
#
# Compressibility (1/GPa) = 0.01792804
#
# Stress axis : x y z
#
# Youngs Moduli (GPa) = 68.04234 92.14355 116.62978
#
# Poissons Ratio (x) = 0.16172 0.40269
# Poissons Ratio (y) = 0.11942 0.33706
# Poissons Ratio (z) = 0.23493 0.26629
#
# Static dielectric constant tensor:
#      x y z
#    x 3.524710 0.000000 0.000000 
#    y 0.000000 3.960410 0.000000 
#    z 0.000000 0.000000 3.847340 
# 
# 
# High freq. dielectric constant tensor:
#      x y z
#    x 1.797960 0.000000 0.000000 
#    y 0.000000 1.830620 0.000000 
#    z 0.000000 0.000000 1.837120 
# 
# From -- ./inp_files/4006.got.cif
#   From: 2010.03.12/outbox.cif.g09.slc.cpg/sg49_3_cif.got.tgz:4006.got - 2010.04.14 03:58:27.
