data_PCOD8203400
_publ_section_title
;
Structure prediction by ZEFSAII (Michael W. Deem and Ramdas Pophale) SiO2 
 PCOD8203400
Probable space group: P C C M
;
_chemical_formula_sum "Si O2"
_cell_formula_units_Z 64
_cell_length_a 12.452881
_cell_length_b 15.084796
_cell_length_c 16.617152
_cell_angle_alpha 90.000000
_cell_angle_beta 90.000000
_cell_angle_gamma 90.000000
_cell_volume 3121.518203
_symmetry_space_group_name_H-M "P C C M"
_symmetry_group_IT_number 49
_symmetry_cell_setting 'orthorhombic'
loop_
_space_group_symop_operation_xyz
x,y,z
-x,-y,z
x,-y,1/2-z
-x,y,1/2-z
-x,-y,-z
x,y,-z
-x,y,1/2+z
x,-y,1/2+z
loop_
_atom_site_type_symbol
_atom_site_label
_atom_site_fract_x
_atom_site_fract_y
_atom_site_fract_z
Si Si1 0.937751 0.085050 0.904977
Si Si2 0.375328 0.401612 0.739435
Si Si3 0.277426 0.155925 0.360217
Si Si4 0.679939 0.780142 0.183806
Si Si5 0.027126 0.595664 0.904031
Si Si6 0.254979 0.654841 0.090604
Si Si7 0.493958 0.099902 0.091909
Si Si8 0.900025 0.762868 0.095043
O O1 0.818715 0.084645 0.865974
O O2 0.007161 0.169684 0.878249
O O3 0.923725 0.079562 0.000000
O O4 0.000000 0.000000 0.871189
O O5 0.322274 0.500000 0.750000
O O6 0.500000 0.411764 0.750000
O O7 0.337994 0.325845 0.803015
O O8 0.353221 0.371110 0.648066
O O9 0.305492 0.171515 0.267925
O O10 0.233054 0.240939 0.407443
O O11 0.383713 0.130223 0.407583
O O12 0.580726 0.830991 0.141106
O O13 0.787232 0.791030 0.132498
O O14 0.146833 0.613290 0.873096
O O15 0.000000 0.500000 0.868591
O O16 0.939687 0.666822 0.872818
O O17 0.027485 0.598554 0.000000
O O18 0.280964 0.622492 0.000000
O O19 0.500000 0.000000 0.128424
O O20 0.451566 0.098337 0.000000
O O21 0.883407 0.763528 0.000000
#
# Coordination Sequence:
#
# PCOD8203400 Si02
#       8
#     8   8   8   8   8   8   8   8
#     4  10  21  38  62  89 121 164 211 256 309 370
#     4  10  23  43  62  87 127 165 204 263 327 381
#     4  11  22  40  63  89 123 165 208 261 312 375
#     4  11  24  41  63  91 132 167 204 260 332 385
#     4   9  18  33  58  91 122 155 204 263 310 364
#     4  10  19  37  65  89 115 161 216 255 306 382
#     4  11  25  44  69  96 123 163 220 272 322 390
#     4  10  21  39  61  90 129 168 209 262 320 381
#
# _framework density 20.502844
#
# number of rings (size 3 to 8) (size 9 to 14) (size 15 to 20)
#    0.000    1.750    1.250    3.375    3.500    1.500 
#    0.000    3.125    0.000    0.000    0.000    0.000 
#    0.000    0.000    0.000    0.000    0.000    0.000 
#
# Total GULP energy -793374.933473 kJ/mol
# GULP energy per Si atom -12396.483336 kJ/mol
# Density = 2.045618 g / cm^3
# Si number density = 20.502844 Si / 1000 Ang^3
#
#
#
# Elastic Constant Matrix: (Units=GPa)
#
#
# Indices 1 2 3 4 5 6 
#
# 1 135.9536 48.3515 34.1635 0.0000 0.0000 0.0000
# 2 48.3515 129.7089 32.3459 0.0000 0.0000 0.0000
# 3 34.1635 32.3459 64.2647 0.0000 0.0000 0.0000
# 4 0.0000 0.0000 0.0000 21.2906 0.0000 0.0000
# 5 0.0000 0.0000 0.0000 0.0000 32.9607 0.0000
# 6 0.0000 0.0000 0.0000 0.0000 0.0000 34.2247
#
#
#
# Elastic Compliance Matrix: (Units=1/GPa)
#
#
# Indices 1 2 3 4 5 6 
#
# 1 0.009155 -0.002515 -0.003601 0.000000 0.000000 0.000000
# 2 -0.002515 0.009507 -0.003448 0.000000 0.000000 0.000000
# 3 -0.003601 -0.003448 0.019211 0.000000 0.000000 0.000000
# 4 0.000000 0.000000 0.000000 0.046969 0.000000 0.000000
# 5 0.000000 0.000000 0.000000 0.000000 0.030339 0.000000
# 6 0.000000 0.000000 0.000000 0.000000 0.000000 0.029219
#
#
# Mechanical properties :
#
#
# Convention : Reuss Voigt Hill
#
# Bulk Modulus (GPa) = 53.34940 62.18320 57.76630
# Shear Modulus (GPa) = 29.45081 32.03296 30.74188
#
# Velocity S-wave (km/s) = 3.79413 3.95697 3.87640
# Velocity P-wave (km/s) = 6.72836 7.16042 6.94775
#
# Compressibility (1/GPa) = 0.01874435
#
# Stress axis : x y z
#
# Youngs Moduli (GPa) = 109.23421 105.18759 52.05472
#
# Poissons Ratio (x) = 0.26450 0.18745
# Poissons Ratio (y) = 0.27468 0.17950
# Poissons Ratio (z) = 0.39335 0.36271
#
# Static dielectric constant tensor:
#      x y z
#    x 3.387840 0.000000 0.000000 
#    y 0.000000 4.271930 0.000000 
#    z 0.000000 0.000000 3.496710 
# 
# 
# High freq. dielectric constant tensor:
#      x y z
#    x 1.810070 0.000000 0.000000 
#    y 0.000000 1.811270 0.000000 
#    z 0.000000 0.000000 1.784590 
# 
# From -- ./inp_files/17321.got.cif
#   From: 2010.03.12/outbox.cif.g09.slc.cpg/sg49_9_cif.got.tgz:17321.got - 2010.04.14 03:58:27.
