data_PCOD8203897
_publ_section_title
;
Structure prediction by ZEFSAII (Michael W. Deem and Ramdas Pophale) SiO2 
 PCOD8203897
Probable space group: P C C M
;
_chemical_formula_sum "Si O2"
_cell_formula_units_Z 48
_cell_length_a 30.595077
_cell_length_b 9.399129
_cell_length_c 8.507971
_cell_angle_alpha 90.000000
_cell_angle_beta 90.000000
_cell_angle_gamma 90.000000
_cell_volume 2446.612339
_symmetry_space_group_name_H-M "P C C M"
_symmetry_group_IT_number 49
_symmetry_cell_setting 'orthorhombic'
loop_
_space_group_symop_operation_xyz
x,y,z
-x,-y,z
x,-y,1/2-z
-x,y,1/2-z
-x,-y,-z
x,y,-z
-x,y,1/2+z
x,-y,1/2+z
loop_
_atom_site_type_symbol
_atom_site_label
_atom_site_fract_x
_atom_site_fract_y
_atom_site_fract_z
Si Si1 0.626901 0.157741 0.314272
Si Si2 0.878806 0.151132 0.314096
Si Si3 0.216095 0.153403 0.685714
Si Si4 0.291500 0.342536 0.813712
Si Si5 0.954983 0.341504 0.187187
Si Si6 0.546557 0.344944 0.686141
O O1 0.627267 0.151538 0.500000
O O2 0.668271 0.246982 0.252346
O O3 0.582839 0.233960 0.253563
O O4 0.629451 0.000000 0.250000
O O5 0.874213 0.145338 0.500000
O O6 0.832333 0.192902 0.241387
O O7 0.913737 0.265412 0.261590
O O8 0.894898 0.000000 0.250000
O O9 0.217649 0.147149 0.500000
O O10 0.247044 0.277339 0.747617
O O11 0.231319 0.000000 0.750000
O O12 0.298179 0.500000 0.750000
O O13 0.289307 0.346618 0.000000
O O14 0.953065 0.500000 0.250000
O O15 0.000000 0.269904 0.250000
O O16 0.953349 0.335708 0.000000
O O17 0.558764 0.500000 0.750000
O O18 0.500000 0.291694 0.750000
O O19 0.544738 0.353503 0.500000
#
# Coordination Sequence:
#
# PCOD8203897 Si02
#       6
#     8   8   8   8   8   8
#     4  10  23  39  58  83 114 149 190 233 283 338
#     4  11  22  39  61  88 118 153 193 238 287 342
#     4  11  22  39  61  87 117 152 189 233 284 341
#     4  11  23  40  60  86 115 149 190 236 285 340
#     4  11  22  39  60  86 117 154 195 240 290 344
#     4  10  20  36  57  84 113 148 188 232 281 336
#
# _framework density 19.618963999999998
#
# number of rings (size 3 to 8) (size 9 to 14) (size 15 to 20)
#    0.000    1.333    0.000    8.500    0.000    5.333 
#    0.000    6.667    0.000    0.000    0.000    0.000 
#    0.000    0.000    0.000    0.000    0.000    0.000 
#
# Total GULP energy -595395.638412 kJ/mol
# GULP energy per Si atom -12404.075800 kJ/mol
# Density = 1.957431 g / cm^3
# Si number density = 19.618964 Si / 1000 Ang^3
#
#
#
# Elastic Constant Matrix: (Units=GPa)
#
#
# Indices 1 2 3 4 5 6 
#
# 1 119.7290 83.7698 21.0710 0.0000 0.0000 0.0000
# 2 83.7698 132.2809 35.6199 0.0000 0.0000 0.0000
# 3 21.0710 35.6199 77.2514 0.0000 0.0000 0.0000
# 4 0.0000 0.0000 0.0000 35.6316 0.0000 0.0000
# 5 0.0000 0.0000 0.0000 0.0000 33.0417 0.0000
# 6 0.0000 0.0000 0.0000 0.0000 0.0000 47.3887
#
#
#
# Elastic Compliance Matrix: (Units=1/GPa)
#
#
# Indices 1 2 3 4 5 6 
#
# 1 0.015004 -0.009591 0.000330 0.000000 0.000000 0.000000
# 2 -0.009591 0.014762 -0.004190 0.000000 0.000000 0.000000
# 3 0.000330 -0.004190 0.014787 0.000000 0.000000 0.000000
# 4 0.000000 0.000000 0.000000 0.028065 0.000000 0.000000
# 5 0.000000 0.000000 0.000000 0.000000 0.030265 0.000000
# 6 0.000000 0.000000 0.000000 0.000000 0.000000 0.021102
#
#
# Mechanical properties :
#
#
# Convention : Reuss Voigt Hill
#
# Bulk Modulus (GPa) = 56.65751 67.79808 62.22780
# Shear Modulus (GPa) = 31.89363 35.79910 33.84636
#
# Velocity S-wave (km/s) = 4.03631 4.27631 4.15804
# Velocity P-wave (km/s) = 7.11787 7.68211 7.40537
#
# Compressibility (1/GPa) = 0.01764991
#
# Stress axis : x y z
#
# Youngs Moduli (GPa) = 66.64732 67.74374 67.62671
#
# Poissons Ratio (x) = 0.64970 -0.02229
# Poissons Ratio (y) = 0.63919 0.28339
# Poissons Ratio (z) = -0.02196 0.28388
#
# Static dielectric constant tensor:
#      x y z
#    x 3.936340 0.000000 0.000000 
#    y 0.000000 3.465310 0.000000 
#    z 0.000000 0.000000 3.774280 
# 
# 
# High freq. dielectric constant tensor:
#      x y z
#    x 1.782040 0.000000 0.000000 
#    y 0.000000 1.764640 0.000000 
#    z 0.000000 0.000000 1.781120 
# 
# From -- ./inp_files/2072.got.cif
#   From: 2010.03.12/outbox.cif.g09.slc.cpg/sg49_2_cif.got.tgz:2072.got - 2010.04.14 03:58:27.
