data_PCOD8203369
_publ_section_title
;
Structure prediction by ZEFSAII (Michael W. Deem and Ramdas Pophale) SiO2 
 PCOD8203369
Probable space group: P C C M
;
_chemical_formula_sum "Si O2"
_cell_formula_units_Z 48
_cell_length_a 14.064169
_cell_length_b 9.807668
_cell_length_c 15.232556
_cell_angle_alpha 90.000000
_cell_angle_beta 90.000000
_cell_angle_gamma 90.000000
_cell_volume 2101.128511
_symmetry_space_group_name_H-M "P C C M"
_symmetry_group_IT_number 49
_symmetry_cell_setting 'orthorhombic'
loop_
_space_group_symop_operation_xyz
x,y,z
-x,-y,z
x,-y,1/2-z
-x,y,1/2-z
-x,-y,-z
x,y,-z
-x,y,1/2+z
x,-y,1/2+z
loop_
_atom_site_type_symbol
_atom_site_label
_atom_site_fract_x
_atom_site_fract_y
_atom_site_fract_z
Si Si1 0.786926 0.496169 0.353086
Si Si2 0.784655 0.949501 0.395332
Si Si3 0.870260 0.224428 0.398312
Si Si4 0.415402 0.421270 0.343944
Si Si5 0.923192 0.722407 0.399144
Si Si6 0.425939 0.881283 0.104327
O O1 0.791688 0.500000 0.250000
O O2 0.792368 0.341475 0.384956
O O3 0.688229 0.561613 0.389521
O O4 0.879554 0.571993 0.390979
O O5 0.787803 0.948987 0.500000
O O6 0.848485 0.827234 0.355352
O O7 0.676478 0.934833 0.364646
O O8 0.827594 0.088273 0.354781
O O9 0.885336 0.196013 0.500000
O O10 0.972278 0.264704 0.354586
O O11 0.500000 0.500000 0.396449
O O12 0.409088 0.500000 0.250000
O O13 0.443587 0.260762 0.342970
O O14 0.935919 0.760432 0.500000
O O15 0.500000 0.000000 0.131782
O O16 0.431618 0.851802 0.000000
#
# Coordination Sequence:
#
# PCOD8203369 Si02
#       6
#     8   8   8   8   8   8
#     4  11  23  38  58  83 119 158 198 248 296 357
#     4   9  18  35  58  86 120 151 189 244 299 354
#     4  10  21  35  58  89 117 155 202 244 295 361
#     4  10  23  43  63  84 121 163 207 247 299 381
#     4  10  19  36  60  85 116 157 201 244 298 356
#     4  10  21  38  65  99 126 152 197 262 324 366
#
# _framework density 22.844866
#
# number of rings (size 3 to 8) (size 9 to 14) (size 15 to 20)
#    0.000    2.000    1.667    1.500    2.333    5.667 
#    0.000    2.500    0.000    2.000    0.000    0.000 
#    0.000    0.000    0.000    0.000    0.000    0.000 
#
# Total GULP energy -594909.654257 kJ/mol
# GULP energy per Si atom -12393.951130 kJ/mol
# Density = 2.279287 g / cm^3
# Si number density = 22.844866 Si / 1000 Ang^3
#
#
#
# Elastic Constant Matrix: (Units=GPa)
#
#
# Indices 1 2 3 4 5 6 
#
# 1 161.0354 64.6998 9.1621 0.0000 0.0000 0.0000
# 2 64.6998 171.6497 13.5347 0.0000 0.0000 0.0000
# 3 9.1621 13.5347 23.3211 0.0000 0.0000 0.0000
# 4 0.0000 0.0000 0.0000 20.8201 0.0000 0.0000
# 5 0.0000 0.0000 0.0000 0.0000 15.2867 0.0000
# 6 0.0000 0.0000 0.0000 0.0000 0.0000 55.2994
#
#
#
# Elastic Compliance Matrix: (Units=1/GPa)
#
#
# Indices 1 2 3 4 5 6 
#
# 1 0.007358 -0.002668 -0.001343 0.000000 0.000000 0.000000
# 2 -0.002668 0.007072 -0.003057 0.000000 0.000000 0.000000
# 3 -0.001343 -0.003057 0.045181 0.000000 0.000000 0.000000
# 4 0.000000 0.000000 0.000000 0.048031 0.000000 0.000000
# 5 0.000000 0.000000 0.000000 0.000000 0.065416 0.000000
# 6 0.000000 0.000000 0.000000 0.000000 0.000000 0.018083
#
#
# Mechanical properties :
#
#
# Convention : Reuss Voigt Hill
#
# Bulk Modulus (GPa) = 21.98864 58.97771 40.48318
# Shear Modulus (GPa) = 22.68252 36.18854 29.43553
#
# Velocity S-wave (km/s) = 3.15444 3.98439 3.59346
# Velocity P-wave (km/s) = 4.78680 6.85856 5.91410
#
# Compressibility (1/GPa) = 0.04547803
#
# Stress axis : x y z
#
# Youngs Moduli (GPa) = 135.90722 141.39644 22.13320
#
# Poissons Ratio (x) = 0.37719 0.02971
# Poissons Ratio (y) = 0.36254 0.06765
# Poissons Ratio (z) = 0.18246 0.43218
#
# Static dielectric constant tensor:
#      x y z
#    x 4.971340 0.000000 0.000000 
#    y 0.000000 4.089130 0.000000 
#    z 0.000000 0.000000 3.483780 
# 
# 
# High freq. dielectric constant tensor:
#      x y z
#    x 1.921440 0.000000 0.000000 
#    y 0.000000 1.911740 0.000000 
#    z 0.000000 0.000000 1.855230 
# 
# From -- ./inp_files/16243.got.cif
#   From: 2010.03.12/outbox.cif.g09.slc.cpg/sg49_9_cif.got.tgz:16243.got - 2010.04.14 03:58:27.
