data_PCOD8203153
_publ_section_title
;
Structure prediction by ZEFSAII (Michael W. Deem and Ramdas Pophale) SiO2 
 PCOD8203153
Probable space group: P C C M
;
_chemical_formula_sum "Si O2"
_cell_formula_units_Z 48
_cell_length_a 9.556479
_cell_length_b 31.051546
_cell_length_c 8.586661
_cell_angle_alpha 90.000000
_cell_angle_beta 90.000000
_cell_angle_gamma 90.000000
_cell_volume 2548.035386
_symmetry_space_group_name_H-M "P C C M"
_symmetry_group_IT_number 49
_symmetry_cell_setting 'orthorhombic'
loop_
_space_group_symop_operation_xyz
x,y,z
-x,-y,z
x,-y,1/2-z
-x,y,1/2-z
-x,-y,-z
x,y,-z
-x,y,1/2+z
x,-y,1/2+z
loop_
_atom_site_type_symbol
_atom_site_label
_atom_site_fract_x
_atom_site_fract_y
_atom_site_fract_z
Si Si1 0.348895 0.789088 0.681428
Si Si2 0.849004 0.954867 0.317008
Si Si3 0.845176 0.381594 0.685379
Si Si4 0.654500 0.303873 0.684164
Si Si5 0.655649 0.117857 0.315888
Si Si6 0.352832 0.547371 0.185111
O O1 0.500000 0.792754 0.750000
O O2 0.368446 0.785793 0.500000
O O3 0.282693 0.743352 0.737979
O O4 0.273870 0.834742 0.721997
O O5 0.860932 0.959256 0.500000
O O6 0.744539 0.917287 0.272737
O O7 0.000000 0.943340 0.250000
O O8 0.792248 0.000000 0.250000
O O9 0.847072 0.384931 0.500000
O O10 0.760114 0.339964 0.746885
O O11 0.774402 0.423742 0.756563
O O12 0.000000 0.377583 0.750000
O O13 0.500000 0.311901 0.750000
O O14 0.643319 0.307214 0.500000
O O15 0.500000 0.115213 0.250000
O O16 0.654810 0.108765 0.500000
O O17 0.325702 0.500000 0.250000
O O18 0.500000 0.565829 0.250000
O O19 0.358734 0.546353 0.000000
#
# Coordination Sequence:
#
# PCOD8203153 Si02
#       6
#     8   8   8   8   8   8
#     4   8  15  29  50  76 106 138 173 216 263 312
#     4  11  22  38  57  77 103 137 177 218 265 319
#     4  11  23  38  55  79 112 148 185 225 272 321
#     4   9  18  33  55  80 106 139 180 222 264 314
#     4  10  19  33  54  81 111 141 176 219 267 316
#     4  11  22  39  62  87 113 142 180 223 268 318
#
# _framework density 18.838041
#
# number of rings (size 3 to 8) (size 9 to 14) (size 15 to 20)
#    0.000    2.000    0.000    5.500    0.000    4.000 
#    0.000    4.167    0.000    2.000    0.000    0.000 
#    0.000    0.000    0.000    0.000    0.000    0.000 
#
# Total GULP energy -594803.091209 kJ/mol
# GULP energy per Si atom -12391.731067 kJ/mol
# Density = 1.879516 g / cm^3
# Si number density = 18.838041 Si / 1000 Ang^3
#
#
#
# Elastic Constant Matrix: (Units=GPa)
#
#
# Indices 1 2 3 4 5 6 
#
# 1 104.6390 80.4832 40.0599 0.0000 0.0000 0.0000
# 2 80.4832 147.6113 52.1404 0.0000 0.0000 0.0000
# 3 40.0599 52.1404 105.7149 0.0000 0.0000 0.0000
# 4 0.0000 0.0000 0.0000 25.4682 0.0000 0.0000
# 5 0.0000 0.0000 0.0000 0.0000 30.5976 0.0000
# 6 0.0000 0.0000 0.0000 0.0000 0.0000 -0.3796
#
#
#
# Elastic Compliance Matrix: (Units=1/GPa)
#
#
# Indices 1 2 3 4 5 6 
#
# 1 0.016890 -0.008414 -0.002250 0.000000 0.000000 0.000000
# 2 -0.008414 0.012396 -0.002925 0.000000 0.000000 0.000000
# 3 -0.002250 -0.002925 0.011755 0.000000 0.000000 0.000000
# 4 0.000000 0.000000 0.000000 0.039265 0.000000 0.000000
# 5 0.000000 0.000000 0.000000 0.000000 0.032682 0.000000
# 6 0.000000 0.000000 0.000000 0.000000 0.000000 -2.634472
#
#
# Mechanical properties :
#
#
# Convention : Reuss Voigt Hill
#
# Bulk Modulus (GPa) = 72.14474 78.14802 75.14638
# Shear Modulus (GPa) = -2.00829 23.48934 10.74053
#
# Velocity S-wave (km/s) = -1.03363 3.53499 2.39037
# Velocity P-wave (km/s) = 6.07914 7.63124 6.89898
#
# Compressibility (1/GPa) = 0.01386102
#
# Stress axis : x y z
#
# Youngs Moduli (GPa) = 59.20694 80.67438 85.07082
#
# Poissons Ratio (x) = 0.67880 0.19144
# Poissons Ratio (y) = 0.49818 0.24885
# Poissons Ratio (z) = 0.13323 0.23599
#
# Static dielectric constant tensor:
#      x y z
#    x 3.242170 0.000000 0.000000 
#    y 0.000000 4.197430 0.000000 
#    z 0.000000 0.000000 3.760880 
# 
# 
# High freq. dielectric constant tensor:
#      x y z
#    x 1.701100 0.000000 0.000000 
#    y 0.000000 1.759730 0.000000 
#    z 0.000000 0.000000 1.743300 
# 
# From -- ./inp_files/2034.got.cif
#   From: 2010.03.12/outbox.cif.g09.slc.cpg/sg49_2_cif.got.tgz:2034.got - 2010.04.14 03:58:27.
