data_PCOD8203426
_publ_section_title
;
Structure prediction by ZEFSAII (Michael W. Deem and Ramdas Pophale) SiO2 
 PCOD8203426
Probable space group: P C C M
;
_chemical_formula_sum "Si O2"
_cell_formula_units_Z 56
_cell_length_a 22.889043
_cell_length_b 14.447708
_cell_length_c 8.850957
_cell_angle_alpha 90.000000
_cell_angle_beta 90.000000
_cell_angle_gamma 90.000000
_cell_volume 2926.960230
_symmetry_space_group_name_H-M "P C C M"
_symmetry_group_IT_number 49
_symmetry_cell_setting 'orthorhombic'
loop_
_space_group_symop_operation_xyz
x,y,z
-x,-y,z
x,-y,1/2-z
-x,y,1/2-z
-x,-y,-z
x,y,-z
-x,y,1/2+z
x,-y,1/2+z
loop_
_atom_site_type_symbol
_atom_site_label
_atom_site_fract_x
_atom_site_fract_y
_atom_site_fract_z
Si Si1 0.103656 0.090459 0.175346
Si Si2 0.827888 0.353560 0.831778
Si Si3 0.288025 0.407479 0.820968
Si Si4 0.438849 0.097004 0.678622
Si Si5 0.331552 0.223796 0.677331
Si Si6 0.060879 0.709786 0.320368
Si Si7 0.786740 0.145319 0.165730
O O1 0.072728 0.184190 0.232704
O O2 0.172716 0.090539 0.217038
O O3 0.073753 0.000000 0.250000
O O4 0.096309 0.079614 0.000000
O O5 0.778993 0.405841 0.735075
O O6 0.889673 0.358884 0.744497
O O7 0.809241 0.248726 0.847638
O O8 0.833507 0.397595 0.000000
O O9 0.317054 0.500000 0.750000
O O10 0.325597 0.319239 0.768015
O O11 0.289481 0.412347 0.000000
O O12 0.500000 0.129006 0.750000
O O13 0.445464 0.083876 0.500000
O O14 0.392632 0.176623 0.719456
O O15 0.418262 0.000000 0.750000
O O16 0.326026 0.246755 0.500000
O O17 0.280343 0.150704 0.722978
O O18 0.059928 0.701851 0.500000
O O19 0.000000 0.677023 0.250000
O O20 0.791034 0.097720 0.000000
#
# Coordination Sequence:
#
# PCOD8203426 Si02
#       7
#     8   8   8   8   8   8   8
#     4  10  20  31  43  61  88 121 160 206 258 314
#     4   9  17  32  52  73  99 129 162 204 252 304
#     4  11  21  34  56  85 115 145 177 216 264 323
#     4  10  20  35  55  79 111 149 192 236 276 319
#     4   9  19  35  54  79 110 144 181 225 273 321
#     4  10  20  33  49  69  91 123 167 212 260 315
#     4   8  15  29  47  66  91 122 157 199 252 307
#
# _framework density 19.132477999999999
#
# number of rings (size 3 to 8) (size 9 to 14) (size 15 to 20)
#    0.000    2.429    0.000    4.286    0.000    7.143 
#    0.000    2.857    0.000    0.857    0.000    6.000 
#    0.000    0.000    0.000    0.000    0.000    0.000 
#
# Total GULP energy -694223.116602 kJ/mol
# GULP energy per Si atom -12396.841368 kJ/mol
# Density = 1.908893 g / cm^3
# Si number density = 19.132478 Si / 1000 Ang^3
#
#
#
# Elastic Constant Matrix: (Units=GPa)
#
#
# Indices 1 2 3 4 5 6 
#
# 1 112.0167 36.2152 44.3154 0.0000 0.0000 0.0000
# 2 36.2152 63.6288 37.1097 0.0000 0.0000 0.0000
# 3 44.3154 37.1097 109.5248 0.0000 0.0000 0.0000
# 4 0.0000 0.0000 0.0000 24.4214 0.0000 0.0000
# 5 0.0000 0.0000 0.0000 0.0000 27.0793 0.0000
# 6 0.0000 0.0000 0.0000 0.0000 0.0000 14.8779
#
#
#
# Elastic Compliance Matrix: (Units=1/GPa)
#
#
# Indices 1 2 3 4 5 6 
#
# 1 0.011726 -0.004869 -0.003095 0.000000 0.000000 0.000000
# 2 -0.004869 0.021608 -0.005351 0.000000 0.000000 0.000000
# 3 -0.003095 -0.005351 0.012196 0.000000 0.000000 0.000000
# 4 0.000000 0.000000 0.000000 0.040948 0.000000 0.000000
# 5 0.000000 0.000000 0.000000 0.000000 0.036929 0.000000
# 6 0.000000 0.000000 0.000000 0.000000 0.000000 0.067214
#
#
# Mechanical properties :
#
#
# Convention : Reuss Voigt Hill
#
# Bulk Modulus (GPa) = 52.91077 57.82787 55.36932
# Shear Modulus (GPa) = 22.36637 24.44439 23.40538
#
# Velocity S-wave (km/s) = 3.42281 3.57828 3.50141
# Velocity P-wave (km/s) = 6.58300 6.88206 6.73419
#
# Compressibility (1/GPa) = 0.01889974
#
# Stress axis : x y z
#
# Youngs Moduli (GPa) = 85.28294 46.27816 81.99619
#
# Poissons Ratio (x) = 0.22533 0.25375
# Poissons Ratio (y) = 0.41524 0.43880
# Poissons Ratio (z) = 0.26392 0.24765
#
# Static dielectric constant tensor:
#      x y z
#    x 3.547760 0.000000 0.000000 
#    y 0.000000 3.455700 0.000000 
#    z 0.000000 0.000000 3.563470 
# 
# 
# High freq. dielectric constant tensor:
#      x y z
#    x 1.726370 0.000000 0.000000 
#    y 0.000000 1.727220 0.000000 
#    z 0.000000 0.000000 1.752120 
# 
# From -- ./inp_files/4018.got.cif
#   From: 2010.03.12/outbox.cif.g09.slc.cpg/sg49_3_cif.got.tgz:4018.got - 2010.04.14 03:58:27.
