data_PCOD8203967
_publ_section_title
;
Structure prediction by ZEFSAII (Michael W. Deem and Ramdas Pophale) SiO2 
 PCOD8203967
Probable space group: P C C M
;
_chemical_formula_sum "Si O2"
_cell_formula_units_Z 48
_cell_length_a 9.384101
_cell_length_b 30.621913
_cell_length_c 8.530273
_cell_angle_alpha 90.000000
_cell_angle_beta 90.000000
_cell_angle_gamma 90.000000
_cell_volume 2451.251780
_symmetry_space_group_name_H-M "P C C M"
_symmetry_group_IT_number 49
_symmetry_cell_setting 'orthorhombic'
loop_
_space_group_symop_operation_xyz
x,y,z
-x,-y,z
x,-y,1/2-z
-x,y,1/2-z
-x,-y,-z
x,y,-z
-x,y,1/2+z
x,-y,1/2+z
loop_
_atom_site_type_symbol
_atom_site_label
_atom_site_fract_x
_atom_site_fract_y
_atom_site_fract_z
Si Si1 0.155757 0.285098 0.313719
Si Si2 0.349301 0.952023 0.685655
Si Si3 0.156565 0.622648 0.314371
Si Si4 0.842664 0.877846 0.313813
Si Si5 0.657715 0.203852 0.815157
Si Si6 0.657268 0.454935 0.814739
O O1 0.147508 0.289559 0.500000
O O2 0.213336 0.330155 0.240458
O O3 0.264109 0.247721 0.257459
O O4 0.000000 0.273150 0.250000
O O5 0.500000 0.933857 0.750000
O O6 0.356313 0.953273 0.500000
O O7 0.220719 0.921965 0.742433
O O8 0.318675 0.000000 0.750000
O O9 0.157615 0.619774 0.500000
O O10 0.254493 0.585931 0.242350
O O11 0.000000 0.614739 0.250000
O O12 0.845806 0.881250 0.500000
O O13 0.746527 0.837624 0.253935
O O14 0.000000 0.870369 0.250000
O O15 0.500000 0.202013 0.750000
O O16 0.649777 0.203003 0.000000
O O17 0.725501 0.500000 0.750000
O O18 0.500000 0.449232 0.750000
O O19 0.654409 0.456801 0.000000
#
# Coordination Sequence:
#
# PCOD8203967 Si02
#       6
#     8   8   8   8   8   8
#     4  10  20  37  58  84 114 149 189 234 284 341
#     4  11  22  39  62  89 119 155 194 239 288 343
#     4  11  22  38  59  86 116 152 192 237 287 341
#     4  11  23  40  60  87 118 154 195 240 290 345
#     4  10  23  39  59  85 116 150 191 236 285 341
#     4  11  22  39  60  85 115 151 191 236 286 342
#
# _framework density 19.581831999999999
#
# number of rings (size 3 to 8) (size 9 to 14) (size 15 to 20)
#    0.000    1.333    0.000    8.500    0.000    5.333 
#    0.000    5.000    0.000    0.000    0.000    0.000 
#    0.000    0.000    0.000    0.000    0.000    0.000 
#
# Total GULP energy -595407.116012 kJ/mol
# GULP energy per Si atom -12404.314917 kJ/mol
# Density = 1.953726 g / cm^3
# Si number density = 19.581832 Si / 1000 Ang^3
#
#
#
# Elastic Constant Matrix: (Units=GPa)
#
#
# Indices 1 2 3 4 5 6 
#
# 1 131.8578 95.9916 48.9521 0.0000 0.0000 0.0000
# 2 95.9916 151.1237 59.9762 0.0000 0.0000 0.0000
# 3 48.9521 59.9762 149.9910 0.0000 0.0000 0.0000
# 4 0.0000 0.0000 0.0000 30.0596 0.0000 0.0000
# 5 0.0000 0.0000 0.0000 0.0000 37.2740 0.0000
# 6 0.0000 0.0000 0.0000 0.0000 0.0000 49.2970
#
#
#
# Elastic Compliance Matrix: (Units=1/GPa)
#
#
# Indices 1 2 3 4 5 6 
#
# 1 0.014296 -0.008592 -0.001230 0.000000 0.000000 0.000000
# 2 -0.008592 0.013030 -0.002406 0.000000 0.000000 0.000000
# 3 -0.001230 -0.002406 0.008030 0.000000 0.000000 0.000000
# 4 0.000000 0.000000 0.000000 0.033267 0.000000 0.000000
# 5 0.000000 0.000000 0.000000 0.000000 0.026828 0.000000
# 6 0.000000 0.000000 0.000000 0.000000 0.000000 0.020285
#
#
# Mechanical properties :
#
#
# Convention : Reuss Voigt Hill
#
# Bulk Modulus (GPa) = 91.74561 93.64582 92.69572
# Shear Modulus (GPa) = 34.76429 38.52962 36.64696
#
# Velocity S-wave (km/s) = 4.21804 4.44060 4.33075
# Velocity P-wave (km/s) = 8.40694 8.61502 8.51161
#
# Compressibility (1/GPa) = 0.01089970
#
# Stress axis : x y z
#
# Youngs Moduli (GPa) = 69.95139 76.74831 124.52575
#
# Poissons Ratio (x) = 0.65944 0.15315
# Poissons Ratio (y) = 0.60104 0.29959
# Poissons Ratio (z) = 0.08603 0.18464
#
# Static dielectric constant tensor:
#      x y z
#    x 3.465670 0.000000 0.000000 
#    y 0.000000 4.030550 0.000000 
#    z 0.000000 0.000000 3.708830 
# 
# 
# High freq. dielectric constant tensor:
#      x y z
#    x 1.762800 0.000000 0.000000 
#    y 0.000000 1.781010 0.000000 
#    z 0.000000 0.000000 1.780310 
# 
# From -- ./inp_files/2091.got.cif
#   From: 2010.03.12/outbox.cif.g09.slc.cpg/sg49_2_cif.got.tgz:2091.got - 2010.04.14 03:58:27.
