data_PCOD8203286
_publ_section_title
;
Structure prediction by ZEFSAII (Michael W. Deem and Ramdas Pophale) SiO2 
 PCOD8203286
Probable space group: P C C M
;
_chemical_formula_sum "Si O2"
_cell_formula_units_Z 32
_cell_length_a 5.132038
_cell_length_b 17.259788
_cell_length_c 16.504746
_cell_angle_alpha 90.000000
_cell_angle_beta 90.000000
_cell_angle_gamma 90.000000
_cell_volume 1461.955541
_symmetry_space_group_name_H-M "P C C M"
_symmetry_group_IT_number 49
_symmetry_cell_setting 'orthorhombic'
loop_
_space_group_symop_operation_xyz
x,y,z
-x,-y,z
x,-y,1/2-z
-x,y,1/2-z
-x,-y,-z
x,y,-z
-x,y,1/2+z
x,-y,1/2+z
loop_
_atom_site_type_symbol
_atom_site_label
_atom_site_fract_x
_atom_site_fract_y
_atom_site_fract_z
Si Si1 0.122298 0.787182 0.163531
Si Si2 0.250131 0.456029 0.096331
Si Si3 0.247605 0.034687 0.340276
Si Si4 0.635318 0.283665 0.593416
O O1 0.237317 0.873299 0.160555
O O2 0.374700 0.735034 0.144394
O O3 0.000000 0.765787 0.250000
O O4 0.878396 0.775794 0.102635
O O5 0.500000 0.500000 0.131662
O O6 0.257954 0.366657 0.123540
O O7 0.000000 0.500000 0.133220
O O8 0.243683 0.461114 0.000000
O O9 0.500000 0.000000 0.385997
O O10 0.248322 0.000000 0.250000
O O11 0.000000 0.000000 0.387773
O O12 0.547929 0.284669 0.500000
#
# Coordination Sequence:
#
# PCOD8203286 Si02
#       4
#     8   8   8   8
#     4  12  23  39  65  96 124 164 216 264 312 379
#     4   9  17  33  59  87 116 162 217 251 283 356
#     4  10  19  34  59  89 111 150 208 273 288 343
#     4  11  24  40  62  95 136 166 201 268 331 372
#
# _framework density 21.888490000000001
#
# number of rings (size 3 to 8) (size 9 to 14) (size 15 to 20)
#    0.000    1.500    2.500    4.500    3.500    4.000 
#    0.000    0.000    0.000   26.250    0.000    0.000 
#    0.000    0.000    0.000    0.000    0.000    0.250 
#
# Total GULP energy -396605.701106 kJ/mol
# GULP energy per Si atom -12393.928160 kJ/mol
# Density = 2.183867 g / cm^3
# Si number density = 21.888490 Si / 1000 Ang^3
#
#
#
# Elastic Constant Matrix: (Units=GPa)
#
#
# Indices 1 2 3 4 5 6 
#
# 1 240.7376 86.9939 35.7806 0.0000 0.0000 0.0000
# 2 86.9939 149.8255 46.9098 0.0000 0.0000 0.0000
# 3 35.7806 46.9098 41.0459 0.0000 0.0000 0.0000
# 4 0.0000 0.0000 0.0000 21.8395 0.0000 0.0000
# 5 0.0000 0.0000 0.0000 0.0000 8.6512 0.0000
# 6 0.0000 0.0000 0.0000 0.0000 0.0000 52.0934
#
#
#
# Elastic Compliance Matrix: (Units=1/GPa)
#
#
# Indices 1 2 3 4 5 6 
#
# 1 0.005335 -0.002556 -0.001729 0.000000 0.000000 0.000000
# 2 -0.002556 0.011618 -0.011050 0.000000 0.000000 0.000000
# 3 -0.001729 -0.011050 0.038499 0.000000 0.000000 0.000000
# 4 0.000000 0.000000 0.000000 0.045789 0.000000 0.000000
# 5 0.000000 0.000000 0.000000 0.000000 0.115591 0.000000
# 6 0.000000 0.000000 0.000000 0.000000 0.000000 0.019196
#
#
# Mechanical properties :
#
#
# Convention : Reuss Voigt Hill
#
# Bulk Modulus (GPa) = 40.35257 85.66417 63.00837
# Shear Modulus (GPa) = 18.18461 33.97847 26.08154
#
# Velocity S-wave (km/s) = 2.88546 3.94425 3.45565
# Velocity P-wave (km/s) = 5.43845 7.74367 6.69108
#
# Compressibility (1/GPa) = 0.02478157
#
# Stress axis : x y z
#
# Youngs Moduli (GPa) = 187.45706 86.07136 25.97491
#
# Poissons Ratio (x) = 0.22001 0.04491
# Poissons Ratio (y) = 0.47916 0.28702
# Poissons Ratio (z) = 0.32411 0.95108
#
# Static dielectric constant tensor:
#      x y z
#    x 2.787560 0.000000 0.000000 
#    y 0.000000 4.024850 0.000000 
#    z 0.000000 0.000000 3.416050 
# 
# 
# High freq. dielectric constant tensor:
#      x y z
#    x 1.896290 0.000000 0.000000 
#    y 0.000000 1.868840 0.000000 
#    z 0.000000 0.000000 1.803860 
# 
# From -- ./inp_files/10526.got.cif
#   From: 2010.03.12/outbox.cif.g09.slc.cpg/sg49_6_cif.got.tgz:10526.got - 2010.04.14 03:58:27.
