data_PCOD8203515
_publ_section_title
;
Structure prediction by ZEFSAII (Michael W. Deem and Ramdas Pophale) SiO2 
 PCOD8203515
Probable space group: P C C M
;
_chemical_formula_sum "Si O2"
_cell_formula_units_Z 64
_cell_length_a 20.588308
_cell_length_b 17.437985
_cell_length_c 9.176989
_cell_angle_alpha 90.000000
_cell_angle_beta 90.000000
_cell_angle_gamma 90.000000
_cell_volume 3294.709799
_symmetry_space_group_name_H-M "P C C M"
_symmetry_group_IT_number 49
_symmetry_cell_setting 'orthorhombic'
loop_
_space_group_symop_operation_xyz
x,y,z
-x,-y,z
x,-y,1/2-z
-x,y,1/2-z
-x,-y,-z
x,y,-z
-x,y,1/2+z
x,-y,1/2+z
loop_
_atom_site_type_symbol
_atom_site_label
_atom_site_fract_x
_atom_site_fract_y
_atom_site_fract_z
Si Si1 0.064854 0.623946 0.671561
Si Si2 0.439032 0.765830 0.329301
Si Si3 0.588179 0.077329 0.833730
Si Si4 0.267518 0.126599 0.336486
Si Si5 0.295566 0.278835 0.169306
Si Si6 0.059946 0.202438 0.833448
Si Si7 0.153099 0.068927 0.168165
Si Si8 0.791886 0.424194 0.671846
O O1 0.054344 0.614270 0.500000
O O2 0.073737 0.711880 0.720787
O O3 0.132822 0.586505 0.722454
O O4 0.000000 0.589126 0.750000
O O5 0.500000 0.723100 0.250000
O O6 0.452920 0.775147 0.500000
O O7 0.436463 0.849933 0.257380
O O8 0.373555 0.715503 0.303907
O O9 0.665128 0.082584 0.839112
O O10 0.566143 0.000000 0.750000
O O11 0.560645 0.077583 0.000000
O O12 0.239895 0.135644 0.500000
O O13 0.268907 0.210509 0.266203
O O14 0.223576 0.071803 0.239155
O O15 0.256630 0.355214 0.217154
O O16 0.281152 0.260207 0.000000
O O17 0.122275 0.151469 0.802435
O O18 0.000000 0.164738 0.750000
O O19 0.040056 0.202591 0.000000
O O20 0.114434 0.000000 0.250000
O O21 0.157679 0.048132 0.000000
O O22 0.764812 0.500000 0.750000
O O23 0.789334 0.435676 0.500000
#
# Coordination Sequence:
#
# PCOD8203515 Si02
#       8
#     8   8   8   8   8   8   8   8
#     4   9  18  34  55  78 106 140 177 215 257 309
#     4  10  20  35  56  80 106 139 179 223 271 321
#     4  10  20  33  49  73 106 141 178 220 266 315
#     4  10  20  33  52  77 102 132 174 220 264 315
#     4   9  19  37  59  80 107 143 178 217 267 319
#     4   9  19  35  53  70  91 125 168 215 264 315
#     4  11  22  34  48  68  97 132 172 220 273 323
#     4  10  21  37  57  83 114 145 177 214 259 311
#
# _framework density 19.425080000000001
#
# number of rings (size 3 to 8) (size 9 to 14) (size 15 to 20)
#    0.000    2.250    0.000    2.625    0.000    7.750 
#    0.000    6.250    0.000    0.375    0.000    2.625 
#    0.000    0.000    0.000    0.000    0.000    0.000 
#
# Total GULP energy -793290.425252 kJ/mol
# GULP energy per Si atom -12395.162895 kJ/mol
# Density = 1.938087 g / cm^3
# Si number density = 19.425080 Si / 1000 Ang^3
#
#
#
# Elastic Constant Matrix: (Units=GPa)
#
#
# Indices 1 2 3 4 5 6 
#
# 1 95.0539 34.9892 43.6328 0.0000 0.0000 0.0000
# 2 34.9892 80.1697 37.8852 0.0000 0.0000 0.0000
# 3 43.6328 37.8852 83.4638 0.0000 0.0000 0.0000
# 4 0.0000 0.0000 0.0000 30.2868 0.0000 0.0000
# 5 0.0000 0.0000 0.0000 0.0000 28.4846 0.0000
# 6 0.0000 0.0000 0.0000 0.0000 0.0000 -209.2051
#
#
#
# Elastic Compliance Matrix: (Units=1/GPa)
#
#
# Indices 1 2 3 4 5 6 
#
# 1 0.014581 -0.003516 -0.006027 0.000000 0.000000 0.000000
# 2 -0.003516 0.016727 -0.005755 0.000000 0.000000 0.000000
# 3 -0.006027 -0.005755 0.017744 0.000000 0.000000 0.000000
# 4 0.000000 0.000000 0.000000 0.033018 0.000000 0.000000
# 5 0.000000 0.000000 0.000000 0.000000 0.035107 0.000000
# 6 0.000000 0.000000 0.000000 0.000000 0.000000 -0.004780
#
#
# Mechanical properties :
#
#
# Convention : Reuss Voigt Hill
#
# Bulk Modulus (GPa) = 54.17741 54.63351 54.40546
# Shear Modulus (GPa) = 33.52463 -20.60806 6.45828
#
# Velocity S-wave (km/s) = 4.15883 -3.26068 1.82536
# Velocity P-wave (km/s) = 7.14228 3.74303 5.70186
#
# Compressibility (1/GPa) = 0.01845788
#
# Stress axis : x y z
#
# Youngs Moduli (GPa) = 68.58274 59.78199 56.35683
#
# Poissons Ratio (x) = 0.21017 0.33965
# Poissons Ratio (y) = 0.24111 0.32433
# Poissons Ratio (z) = 0.41333 0.34404
#
# Static dielectric constant tensor:
#      x y z
#    x 3.844750 0.000000 0.000000 
#    y 0.000000 3.441380 0.000000 
#    z 0.000000 0.000000 3.606610 
# 
# 
# High freq. dielectric constant tensor:
#      x y z
#    x 1.760050 0.000000 0.000000 
#    y 0.000000 1.736220 0.000000 
#    z 0.000000 0.000000 1.760960 
# 
# From -- ./inp_files/5986.got.cif
#   From: 2010.03.12/outbox.cif.g09.slc.cpg/sg49_3_cif.got.tgz:5986.got - 2010.04.14 03:58:27.
