data_PCOD8203767
_publ_section_title
;
Structure prediction by ZEFSAII (Michael W. Deem and Ramdas Pophale) SiO2 
 PCOD8203767
Probable space group: P C C M
;
_chemical_formula_sum "Si O2"
_cell_formula_units_Z 48
_cell_length_a 18.752152
_cell_length_b 14.658868
_cell_length_c 8.594155
_cell_angle_alpha 90.000000
_cell_angle_beta 90.000000
_cell_angle_gamma 90.000000
_cell_volume 2362.407055
_symmetry_space_group_name_H-M "P C C M"
_symmetry_group_IT_number 49
_symmetry_cell_setting 'orthorhombic'
loop_
_space_group_symop_operation_xyz
x,y,z
-x,-y,z
x,-y,1/2-z
-x,y,1/2-z
-x,-y,-z
x,y,-z
-x,y,1/2+z
x,-y,1/2+z
loop_
_atom_site_type_symbol
_atom_site_label
_atom_site_fract_x
_atom_site_fract_y
_atom_site_fract_z
Si Si1 0.713568 0.409826 0.320259
Si Si2 0.077349 0.598121 0.814963
Si Si3 0.572406 0.626467 0.677894
Si Si4 0.276176 0.096674 0.182962
Si Si5 0.574052 0.842681 0.323250
Si Si6 0.197392 0.261415 0.680738
O O1 0.751637 0.500000 0.250000
O O2 0.734377 0.396579 0.500000
O O3 0.629456 0.417871 0.294632
O O4 0.734868 0.324351 0.214910
O O5 0.103385 0.500000 0.750000
O O6 0.128719 0.680945 0.758632
O O7 0.000000 0.622829 0.750000
O O8 0.075699 0.591482 0.000000
O O9 0.500000 0.588435 0.750000
O O10 0.583789 0.593973 0.500000
O O11 0.574787 0.734783 0.688796
O O12 0.355866 0.120213 0.238057
O O13 0.213221 0.166741 0.232742
O O14 0.252037 0.000000 0.250000
O O15 0.277685 0.093110 0.000000
O O16 0.500000 0.880803 0.250000
O O17 0.577522 0.877031 0.500000
O O18 0.190809 0.239570 0.500000
#
# Coordination Sequence:
#
# PCOD8203767 Si02
#       6
#     8   8   8   8   8   8
#     4  12  24  37  56  82 113 152 197 242 293 352
#     4  10  21  37  63  96 133 168 203 242 285 342
#     4  10  20  35  55  77 108 146 190 243 295 353
#     4  12  25  41  63  89 119 157 202 252 307 365
#     4  10  20  36  59  84 115 150 195 252 310 369
#     4  11  23  41  62  89 123 159 197 243 297 353
#
# _framework density 20.318259999999999
#
# number of rings (size 3 to 8) (size 9 to 14) (size 15 to 20)
#    0.000    1.167    1.667    6.000    0.000    6.000 
#    0.000    3.333    0.000    0.500    0.000    3.500 
#    0.000    0.000    0.000    0.000    0.000    0.000 
#
# Total GULP energy -595111.401403 kJ/mol
# GULP energy per Si atom -12398.154196 kJ/mol
# Density = 2.027201 g / cm^3
# Si number density = 20.318260 Si / 1000 Ang^3
#
#
#
# Elastic Constant Matrix: (Units=GPa)
#
#
# Indices 1 2 3 4 5 6 
#
# 1 117.0792 53.0811 44.5781 0.0000 0.0000 0.0000
# 2 53.0811 118.9361 50.8495 0.0000 0.0000 0.0000
# 3 44.5781 50.8495 135.0966 0.0000 0.0000 0.0000
# 4 0.0000 0.0000 0.0000 32.3739 0.0000 0.0000
# 5 0.0000 0.0000 0.0000 0.0000 26.8507 0.0000
# 6 0.0000 0.0000 0.0000 0.0000 0.0000 -68.7637
#
#
#
# Elastic Compliance Matrix: (Units=1/GPa)
#
#
# Indices 1 2 3 4 5 6 
#
# 1 0.011215 -0.004080 -0.002165 0.000000 0.000000 0.000000
# 2 -0.004080 0.011504 -0.002984 0.000000 0.000000 0.000000
# 3 -0.002165 -0.002984 0.009240 0.000000 0.000000 0.000000
# 4 0.000000 0.000000 0.000000 0.030889 0.000000 0.000000
# 5 0.000000 0.000000 0.000000 0.000000 0.037243 0.000000
# 6 0.000000 0.000000 0.000000 0.000000 0.000000 -0.014543
#
#
# Mechanical properties :
#
#
# Convention : Reuss Voigt Hill
#
# Bulk Modulus (GPa) = 74.06478 74.23658 74.15068
# Shear Modulus (GPa) = 46.07992 12.93239 29.50616
#
# Velocity S-wave (km/s) = 4.76742 2.52561 3.81491
# Velocity P-wave (km/s) = 8.17532 6.71723 7.48188
#
# Compressibility (1/GPa) = 0.01350169
#
# Stress axis : x y z
#
# Youngs Moduli (GPa) = 89.16440 86.92325 108.22849
#
# Poissons Ratio (x) = 0.35462 0.23433
# Poissons Ratio (y) = 0.36376 0.32295
# Poissons Ratio (z) = 0.19305 0.25938
#
# Static dielectric constant tensor:
#      x y z
#    x 3.769120 0.000000 0.000000 
#    y 0.000000 3.762080 0.000000 
#    z 0.000000 0.000000 3.775430 
# 
# 
# High freq. dielectric constant tensor:
#      x y z
#    x 1.781200 0.000000 0.000000 
#    y 0.000000 1.791260 0.000000 
#    z 0.000000 0.000000 1.805680 
# 
# From -- ./inp_files/3714.got.cif
#   From: 2010.03.12/outbox.cif.g09.slc.cpg/sg49_2_cif.got.tgz:3714.got - 2010.04.14 03:58:27.
