data_PCOD8203051
_publ_section_title
;
Structure prediction by ZEFSAII (Michael W. Deem and Ramdas Pophale) SiO2 
 PCOD8203051
Probable space group: P C C M
;
_chemical_formula_sum "Si O2"
_cell_formula_units_Z 64
_cell_length_a 16.114277
_cell_length_b 22.547111
_cell_length_c 8.905334
_cell_angle_alpha 90.000000
_cell_angle_beta 90.000000
_cell_angle_gamma 90.000000
_cell_volume 3235.578495
_symmetry_space_group_name_H-M "P C C M"
_symmetry_group_IT_number 49
_symmetry_cell_setting 'orthorhombic'
loop_
_space_group_symop_operation_xyz
x,y,z
-x,-y,z
x,-y,1/2-z
-x,y,1/2-z
-x,-y,-z
x,y,-z
-x,y,1/2+z
x,-y,1/2+z
loop_
_atom_site_type_symbol
_atom_site_label
_atom_site_fract_x
_atom_site_fract_y
_atom_site_fract_z
Si Si1 0.884921 0.775503 0.669110
Si Si2 0.585307 0.603924 0.822056
Si Si3 0.080560 0.103932 0.178198
Si Si4 0.698789 0.184751 0.163406
Si Si5 0.765994 0.561216 0.822319
Si Si6 0.243984 0.058068 0.675794
Si Si7 0.579169 0.262499 0.327524
Si Si8 0.914512 0.350498 0.320865
O O1 0.923387 0.773624 0.500000
O O2 0.922872 0.827997 0.767297
O O3 0.788602 0.787644 0.654098
O O4 0.902410 0.714791 0.754933
O O5 0.500000 0.576494 0.750000
O O6 0.671375 0.574165 0.765515
O O7 0.594788 0.671508 0.765090
O O8 0.576786 0.598152 0.000000
O O9 0.157882 0.067701 0.239906
O O10 0.000000 0.072416 0.250000
O O11 0.079637 0.101254 0.000000
O O12 0.697924 0.115028 0.203779
O O13 0.655327 0.219726 0.296407
O O14 0.655624 0.193867 0.000000
O O15 0.795886 0.500000 0.750000
O O16 0.833712 0.610680 0.773337
O O17 0.765505 0.555414 0.000000
O O18 0.227453 0.048855 0.500000
O O19 0.286775 0.000000 0.750000
O O20 0.500000 0.233038 0.250000
O O21 0.561359 0.266552 0.500000
O O22 0.922959 0.348109 0.500000
O O23 0.000000 0.377308 0.250000
#
# Coordination Sequence:
#
# PCOD8203051 Si02
#       8
#     8   8   8   8   8   8   8   8
#     4  10  20  35  55  81 110 140 176 221 273 331
#     4   9  19  36  57  85 116 146 178 218 268 328
#     4  11  21  34  52  75 105 139 174 217 268 321
#     4   9  19  34  53  78 109 140 174 217 265 318
#     4  10  23  41  59  80 110 146 188 232 276 328
#     4  10  21  37  54  75 102 136 180 225 267 317
#     4  10  19  32  54  82 113 143 174 211 260 319
#     4  11  23  39  58  81 109 144 187 236 285 336
#
# _framework density 19.780080000000002
#
# number of rings (size 3 to 8) (size 9 to 14) (size 15 to 20)
#    0.000    2.000    0.000    4.500    0.000    6.750 
#    0.000    3.750    0.000    0.375    0.000    2.625 
#    0.000    0.000    0.000    0.000    0.000    0.000 
#
# Total GULP energy -793304.629350 kJ/mol
# GULP energy per Si atom -12395.384834 kJ/mol
# Density = 1.973506 g / cm^3
# Si number density = 19.780080 Si / 1000 Ang^3
#
#
#
# Elastic Constant Matrix: (Units=GPa)
#
#
# Indices 1 2 3 4 5 6 
#
# 1 70.3257 24.7816 21.2453 0.0000 0.0000 0.0000
# 2 24.7816 77.4334 29.0276 0.0000 0.0000 0.0000
# 3 21.2453 29.0276 90.0605 0.0000 0.0000 0.0000
# 4 0.0000 0.0000 0.0000 37.2172 0.0000 0.0000
# 5 0.0000 0.0000 0.0000 0.0000 33.7817 0.0000
# 6 0.0000 0.0000 0.0000 0.0000 0.0000 26.0952
#
#
#
# Elastic Compliance Matrix: (Units=1/GPa)
#
#
# Indices 1 2 3 4 5 6 
#
# 1 0.016505 -0.004348 -0.002492 0.000000 0.000000 0.000000
# 2 -0.004348 0.015835 -0.004078 0.000000 0.000000 0.000000
# 3 -0.002492 -0.004078 0.013006 0.000000 0.000000 0.000000
# 4 0.000000 0.000000 0.000000 0.026869 0.000000 0.000000
# 5 0.000000 0.000000 0.000000 0.000000 0.029602 0.000000
# 6 0.000000 0.000000 0.000000 0.000000 0.000000 0.038321
#
#
# Mechanical properties :
#
#
# Convention : Reuss Voigt Hill
#
# Bulk Modulus (GPa) = 42.53668 43.10319 42.81993
# Shear Modulus (GPa) = 29.44476 30.26983 29.85730
#
# Velocity S-wave (km/s) = 3.86243 3.91617 3.88940
# Velocity P-wave (km/s) = 6.43760 6.50285 6.47031
#
# Compressibility (1/GPa) = 0.02350912
#
# Stress axis : x y z
#
# Youngs Moduli (GPa) = 60.58948 63.15314 76.88809
#
# Poissons Ratio (x) = 0.27458 0.19161
# Poissons Ratio (y) = 0.26344 0.31355
# Poissons Ratio (z) = 0.15099 0.25754
#
# Static dielectric constant tensor:
#      x y z
#    x 3.843230 0.000000 0.000000 
#    y 0.000000 3.622470 0.000000 
#    z 0.000000 0.000000 3.601280 
# 
# 
# High freq. dielectric constant tensor:
#      x y z
#    x 1.764080 0.000000 0.000000 
#    y 0.000000 1.766200 0.000000 
#    z 0.000000 0.000000 1.777230 
# 
# From -- ./inp_files/4345.got.cif
#   From: 2010.03.12/outbox.cif.g09.slc.cpg/sg49_3_cif.got.tgz:4345.got - 2010.04.14 03:58:27.
