data_PCOD8203385
_publ_section_title
;
Structure prediction by ZEFSAII (Michael W. Deem and Ramdas Pophale) SiO2 
 PCOD8203385
Probable space group: P C C M
;
_chemical_formula_sum "Si O2"
_cell_formula_units_Z 56
_cell_length_a 16.599115
_cell_length_b 9.531708
_cell_length_c 18.556599
_cell_angle_alpha 90.000000
_cell_angle_beta 90.000000
_cell_angle_gamma 90.000000
_cell_volume 2935.986445
_symmetry_space_group_name_H-M "P C C M"
_symmetry_group_IT_number 49
_symmetry_cell_setting 'orthorhombic'
loop_
_space_group_symop_operation_xyz
x,y,z
-x,-y,z
x,-y,1/2-z
-x,y,1/2-z
-x,-y,-z
x,y,-z
-x,y,1/2+z
x,-y,1/2+z
loop_
_atom_site_type_symbol
_atom_site_label
_atom_site_fract_x
_atom_site_fract_y
_atom_site_fract_z
Si Si1 0.693636 0.243298 0.584734
Si Si2 0.928328 0.086688 0.824087
Si Si3 0.520867 0.848260 0.916105
Si Si4 0.924971 0.418324 0.175643
Si Si5 0.767211 0.460683 0.916438
Si Si6 0.243318 0.004200 0.664493
Si Si7 0.652001 0.214921 0.083655
O O1 0.701220 0.209915 0.500000
O O2 0.602107 0.222556 0.614805
O O3 0.722598 0.397481 0.603345
O O4 0.755067 0.150248 0.631053
O O5 0.946869 0.252670 0.813270
O O6 0.841018 0.074407 0.861828
O O7 0.920276 0.000000 0.750000
O O8 0.000000 0.000000 0.866493
O O9 0.442387 0.751356 0.901677
O O10 0.500000 0.000000 0.881460
O O11 0.537157 0.869592 0.000000
O O12 0.907724 0.500000 0.250000
O O13 0.848868 0.436460 0.125579
O O14 0.000000 0.500000 0.138531
O O15 0.702899 0.346768 0.891356
O O16 0.788861 0.449450 0.000000
O O17 0.319430 0.083199 0.630310
O O18 0.252858 0.000000 0.750000
O O19 0.665220 0.176669 0.000000
#
# Coordination Sequence:
#
# PCOD8203385 Si02
#       7
#     8   8   8   8   8   8   8
#     4  10  21  37  57  83 113 150 190 232 279 335
#     4  10  21  37  57  86 114 140 190 236 272 326
#     4   9  16  30  56  83 107 145 194 232 271 330
#     4  11  23  38  63  86 112 154 189 228 279 334
#     4  10  23  38  57  84 118 150 184 234 288 337
#     4  11  22  34  58  86 112 146 186 235 281 330
#     4  10  19  37  58  80 114 151 186 231 281 334
#
# _framework density 19.073656
#
# number of rings (size 3 to 8) (size 9 to 14) (size 15 to 20)
#    0.000    1.857    2.857    2.143    6.000    0.857 
#    0.000    4.286    0.000    2.143    0.000    3.000 
#    0.000    0.000    0.000    0.000    0.000    0.000 
#
# Total GULP energy -693926.402362 kJ/mol
# GULP energy per Si atom -12391.542899 kJ/mol
# Density = 1.903024 g / cm^3
# Si number density = 19.073656 Si / 1000 Ang^3
#
#
#
# Elastic Constant Matrix: (Units=GPa)
#
#
# Indices 1 2 3 4 5 6 
#
# 1 125.4051 76.9575 29.4032 0.0000 0.0000 0.0000
# 2 76.9575 104.0366 31.9931 0.0000 0.0000 0.0000
# 3 29.4032 31.9931 39.1228 0.0000 0.0000 0.0000
# 4 0.0000 0.0000 0.0000 21.8447 0.0000 0.0000
# 5 0.0000 0.0000 0.0000 0.0000 6.7407 0.0000
# 6 0.0000 0.0000 0.0000 0.0000 0.0000 132.5549
#
#
#
# Elastic Compliance Matrix: (Units=1/GPa)
#
#
# Indices 1 2 3 4 5 6 
#
# 1 0.014847 -0.010088 -0.002909 0.000000 0.000000 0.000000
# 2 -0.010088 0.019696 -0.008525 0.000000 0.000000 0.000000
# 3 -0.002909 -0.008525 0.034718 0.000000 0.000000 0.000000
# 4 0.000000 0.000000 0.000000 0.045778 0.000000 0.000000
# 5 0.000000 0.000000 0.000000 0.000000 0.148352 0.000000
# 6 0.000000 0.000000 0.000000 0.000000 0.000000 0.007544
#
#
# Mechanical properties :
#
#
# Convention : Reuss Voigt Hill
#
# Bulk Modulus (GPa) = 38.14237 60.58580 49.36408
# Shear Modulus (GPa) = 15.49350 40.90877 28.20114
#
# Velocity S-wave (km/s) = 2.85318 4.63620 3.84935
# Velocity P-wave (km/s) = 5.55833 7.77767 6.75970
#
# Compressibility (1/GPa) = 0.02621756
#
# Stress axis : x y z
#
# Youngs Moduli (GPa) = 67.35435 50.77251 28.80367
#
# Poissons Ratio (x) = 0.51219 0.08378
# Poissons Ratio (y) = 0.67947 0.24554
# Poissons Ratio (z) = 0.19592 0.43282
#
# Static dielectric constant tensor:
#      x y z
#    x 4.177930 0.000000 0.000000 
#    y 0.000000 3.688920 0.000000 
#    z 0.000000 0.000000 3.056710 
# 
# 
# High freq. dielectric constant tensor:
#      x y z
#    x 1.765200 0.000000 0.000000 
#    y 0.000000 1.750250 0.000000 
#    z 0.000000 0.000000 1.697320 
# 
# From -- ./inp_files/20878.got.cif
#   From: 2010.03.12/outbox.cif.g09.slc.cpg/sg49_11_cif.got.tgz:20878.got - 2010.04.14 03:58:27.
