data_PCOD8203182
_publ_section_title
;
Structure prediction by ZEFSAII (Michael W. Deem and Ramdas Pophale) SiO2 
 PCOD8203182
Probable space group: P C C M
;
_chemical_formula_sum "Si O2"
_cell_formula_units_Z 56
_cell_length_a 13.796507
_cell_length_b 12.062592
_cell_length_c 17.039426
_cell_angle_alpha 90.000000
_cell_angle_beta 90.000000
_cell_angle_gamma 90.000000
_cell_volume 2835.729134
_symmetry_space_group_name_H-M "P C C M"
_symmetry_group_IT_number 49
_symmetry_cell_setting 'orthorhombic'
loop_
_space_group_symop_operation_xyz
x,y,z
-x,-y,z
x,-y,1/2-z
-x,y,1/2-z
-x,-y,-z
x,y,-z
-x,y,1/2+z
x,-y,1/2+z
loop_
_atom_site_type_symbol
_atom_site_label
_atom_site_fract_x
_atom_site_fract_y
_atom_site_fract_z
Si Si1 0.939598 0.220569 0.591439
Si Si2 0.252292 0.626603 0.834962
Si Si3 0.366169 0.761418 0.590766
Si Si4 0.543777 0.378440 0.909586
Si Si5 0.768268 0.053445 0.408474
Si Si6 0.203862 0.378398 0.841390
Si Si7 0.151815 0.171769 0.408266
O O1 0.948187 0.251439 0.500000
O O2 0.866323 0.120661 0.606580
O O3 0.901992 0.329449 0.637871
O O4 0.043312 0.182895 0.626577
O O5 0.366154 0.623214 0.851272
O O6 0.199944 0.510150 0.851408
O O7 0.235841 0.660493 0.745192
O O8 0.207688 0.715445 0.893416
O O9 0.384673 0.780655 0.500000
O O10 0.467471 0.713558 0.624563
O O11 0.324502 0.877994 0.627990
O O12 0.282909 0.668807 0.598346
O O13 0.500000 0.500000 0.904577
O O14 0.573037 0.352234 0.000000
O O15 0.746676 0.041419 0.500000
O O16 0.787269 0.931726 0.370640
O O17 0.142549 0.147941 0.500000
#
# Coordination Sequence:
#
# PCOD8203182 Si02
#       7
#     8   8   8   8   8   8   8
#     4   9  18  34  58  80 102 140 190 230 267 324
#     4  11  23  35  49  76 115 146 178 227 280 335
#     4   9  17  33  57  81 105 138 183 233 274 320
#     4  10  19  33  56  83 108 139 185 231 269 321
#     4   8  15  31  56  82 107 135 176 227 276 323
#     4  10  21  36  51  75 107 145 184 224 282 329
#     4  10  20  34  54  81 110 142 179 227 278 328
#
# _framework density 19.748007000000001
#
# number of rings (size 3 to 8) (size 9 to 14) (size 15 to 20)
#    0.000    2.429    1.429    2.143    0.000    5.143 
#    0.000    6.429    0.000    6.857    0.000    4.000 
#    0.000    0.000    0.000    0.000    0.000    0.000 
#
# Total GULP energy -693987.332600 kJ/mol
# GULP energy per Si atom -12392.630939 kJ/mol
# Density = 1.970306 g / cm^3
# Si number density = 19.748007 Si / 1000 Ang^3
#
#
#
# Elastic Constant Matrix: (Units=GPa)
#
#
# Indices 1 2 3 4 5 6 
#
# 1 85.7629 58.6771 31.0079 0.0000 0.0000 0.0000
# 2 58.6771 128.1968 31.5224 0.0000 0.0000 0.0000
# 3 31.0079 31.5224 22.3623 0.0000 0.0000 0.0000
# 4 0.0000 0.0000 0.0000 14.1097 0.0000 0.0000
# 5 0.0000 0.0000 0.0000 0.0000 17.8850 0.0000
# 6 0.0000 0.0000 0.0000 0.0000 0.0000 30.7371
#
#
#
# Elastic Compliance Matrix: (Units=1/GPa)
#
#
# Indices 1 2 3 4 5 6 
#
# 1 0.024942 -0.004457 -0.028303 0.000000 0.000000 0.000000
# 2 -0.004457 0.012735 -0.011771 0.000000 0.000000 0.000000
# 3 -0.028303 -0.011771 0.100557 0.000000 0.000000 0.000000
# 4 0.000000 0.000000 0.000000 0.070873 0.000000 0.000000
# 5 0.000000 0.000000 0.000000 0.000000 0.055913 0.000000
# 6 0.000000 0.000000 0.000000 0.000000 0.000000 0.032534
#
#
# Mechanical properties :
#
#
# Convention : Reuss Voigt Hill
#
# Bulk Modulus (GPa) = 20.33699 53.19296 36.76497
# Shear Modulus (GPa) = 12.40673 20.22067 16.31370
#
# Velocity S-wave (km/s) = 2.50922 3.20337 2.87730
# Velocity P-wave (km/s) = 4.32614 6.37781 5.44940
#
# Compressibility (1/GPa) = 0.04917150
#
# Stress axis : x y z
#
# Youngs Moduli (GPa) = 40.09223 78.52365 9.94465
#
# Poissons Ratio (x) = 0.34998 0.28146
# Poissons Ratio (y) = 0.17869 0.11706
# Poissons Ratio (z) = 1.13473 0.92433
#
# Static dielectric constant tensor:
#      x y z
#    x 3.778820 0.000000 0.000000 
#    y 0.000000 3.955090 0.000000 
#    z 0.000000 0.000000 3.290270 
# 
# 
# High freq. dielectric constant tensor:
#      x y z
#    x 1.766260 0.000000 0.000000 
#    y 0.000000 1.771970 0.000000 
#    z 0.000000 0.000000 1.734440 
# 
# From -- ./inp_files/13593.got.cif
#   From: 2010.03.12/outbox.cif.g09.slc.cpg/sg49_7_cif.got.tgz:13593.got - 2010.04.14 03:58:27.
