data_PCOD8203124
_publ_section_title
;
Structure prediction by ZEFSAII (Michael W. Deem and Ramdas Pophale) SiO2 
 PCOD8203124
Probable space group: P C C M
;
_chemical_formula_sum "Si O2"
_cell_formula_units_Z 48
_cell_length_a 9.218036
_cell_length_b 31.283796
_cell_length_c 8.743740
_cell_angle_alpha 90.000000
_cell_angle_beta 90.000000
_cell_angle_gamma 90.000000
_cell_volume 2521.477402
_symmetry_space_group_name_H-M "P C C M"
_symmetry_group_IT_number 49
_symmetry_cell_setting 'orthorhombic'
loop_
_space_group_symop_operation_xyz
x,y,z
-x,-y,z
x,-y,1/2-z
-x,y,1/2-z
-x,-y,-z
x,y,-z
-x,y,1/2+z
x,-y,1/2+z
loop_
_atom_site_type_symbol
_atom_site_label
_atom_site_fract_x
_atom_site_fract_y
_atom_site_fract_z
Si Si1 0.845148 0.799414 0.822483
Si Si2 0.654793 0.117630 0.678842
Si Si3 0.655327 0.632509 0.677889
Si Si4 0.660087 0.458577 0.179905
Si Si5 0.659413 0.274633 0.180285
Si Si6 0.847766 0.953874 0.682037
O O1 0.750731 0.841020 0.790338
O O2 0.771650 0.758700 0.746706
O O3 0.000000 0.808070 0.750000
O O4 0.863622 0.789911 0.000000
O O5 0.500000 0.127892 0.750000
O O6 0.642640 0.106702 0.500000
O O7 0.720760 0.077618 0.768364
O O8 0.500000 0.632146 0.750000
O O9 0.627522 0.631707 0.500000
O O10 0.737026 0.587574 0.722564
O O11 0.727634 0.678138 0.722058
O O12 0.744675 0.500000 0.250000
O O13 0.500000 0.457672 0.250000
O O14 0.651135 0.465062 0.000000
O O15 0.500000 0.267933 0.250000
O O16 0.645530 0.267835 0.000000
O O17 0.859320 0.956524 0.500000
O O18 0.000000 0.937012 0.750000
O O19 0.809946 0.000000 0.750000
#
# Coordination Sequence:
#
# PCOD8203124 Si02
#       6
#     8   8   8   8   8   8
#     4  11  24  40  59  82 109 141 178 221 269 322
#     4  11  24  41  61  87 117 149 186 227 273 322
#     4   8  15  25  38  58  86 122 161 203 250 302
#     4   9  14  20  30  48  77 114 156 197 242 294
#     4  10  19  33  53  76 104 137 175 218 265 317
#     4  11  22  39  63  90 121 156 194 233 275 322
#
# _framework density 19.036456999999999
#
# number of rings (size 3 to 8) (size 9 to 14) (size 15 to 20)
#    0.000    2.000    0.000    5.500    0.000    7.000 
#    0.000    1.667    0.000    0.000    0.000    0.000 
#    0.000    0.667    0.000    7.667    0.000    4.500 
#
# Total GULP energy -594712.130058 kJ/mol
# GULP energy per Si atom -12389.836043 kJ/mol
# Density = 1.899313 g / cm^3
# Si number density = 19.036457 Si / 1000 Ang^3
#
#
#
# Elastic Constant Matrix: (Units=GPa)
#
#
# Indices 1 2 3 4 5 6 
#
# 1 84.7901 52.7424 51.3715 0.0000 0.0000 0.0000
# 2 52.7424 141.1222 75.5402 0.0000 0.0000 0.0000
# 3 51.3715 75.5402 120.6942 0.0000 0.0000 0.0000
# 4 0.0000 0.0000 0.0000 29.7879 0.0000 0.0000
# 5 0.0000 0.0000 0.0000 0.0000 25.7412 0.0000
# 6 0.0000 0.0000 0.0000 0.0000 0.0000 -5.8223
#
#
#
# Elastic Compliance Matrix: (Units=1/GPa)
#
#
# Indices 1 2 3 4 5 6 
#
# 1 0.017121 -0.003757 -0.004936 0.000000 0.000000 0.000000
# 2 -0.003757 0.011480 -0.005586 0.000000 0.000000 0.000000
# 3 -0.004936 -0.005586 0.013883 0.000000 0.000000 0.000000
# 4 0.000000 0.000000 0.000000 0.033571 0.000000 0.000000
# 5 0.000000 0.000000 0.000000 0.000000 0.038848 0.000000
# 6 0.000000 0.000000 0.000000 0.000000 0.000000 -0.171754
#
#
# Mechanical properties :
#
#
# Convention : Reuss Voigt Hill
#
# Bulk Modulus (GPa) = 71.80781 78.43496 75.12138
# Shear Modulus (GPa) = -211.41247 21.07152 -95.17048
#
# Velocity S-wave (km/s) = -10.54977 3.33063 -7.07830
# Velocity P-wave (km/s) = 10.51636 7.48884 5.22069
#
# Compressibility (1/GPa) = 0.01392606
#
# Stress axis : x y z
#
# Youngs Moduli (GPa) = 58.40704 87.10563 72.03139
#
# Poissons Ratio (x) = 0.32722 0.35556
# Poissons Ratio (y) = 0.21941 0.40240
# Poissons Ratio (z) = 0.28831 0.48661
#
# Static dielectric constant tensor:
#      x y z
#    x 3.061740 0.000000 0.000000 
#    y 0.000000 4.437320 0.000000 
#    z 0.000000 0.000000 3.638510 
# 
# 
# High freq. dielectric constant tensor:
#      x y z
#    x 1.686230 0.000000 0.000000 
#    y 0.000000 1.775580 0.000000 
#    z 0.000000 0.000000 1.757310 
# 
# From -- ./inp_files/2094.got.cif
#   From: 2010.03.12/outbox.cif.g09.slc.cpg/sg49_2_cif.got.tgz:2094.got - 2010.04.14 03:58:27.
