data_PCOD8203429
_publ_section_title
;
Structure prediction by ZEFSAII (Michael W. Deem and Ramdas Pophale) SiO2 
 PCOD8203429
Probable space group: P C C M
;
_chemical_formula_sum "Si O2"
_cell_formula_units_Z 64
_cell_length_a 14.693077
_cell_length_b 28.288367
_cell_length_c 8.877248
_cell_angle_alpha 90.000000
_cell_angle_beta 90.000000
_cell_angle_gamma 90.000000
_cell_volume 3689.767362
_symmetry_space_group_name_H-M "P C C M"
_symmetry_group_IT_number 49
_symmetry_cell_setting 'orthorhombic'
loop_
_space_group_symop_operation_xyz
x,y,z
-x,-y,z
x,-y,1/2-z
-x,y,1/2-z
-x,-y,-z
x,y,-z
-x,y,1/2+z
x,-y,1/2+z
loop_
_atom_site_type_symbol
_atom_site_label
_atom_site_fract_x
_atom_site_fract_y
_atom_site_fract_z
Si Si1 0.902089 0.044400 0.675116
Si Si2 0.271477 0.547011 0.677800
Si Si3 0.905657 0.583719 0.320992
Si Si4 0.593779 0.730487 0.677414
Si Si5 0.098099 0.850878 0.675170
Si Si6 0.091334 0.309220 0.324447
Si Si7 0.219786 0.774055 0.174520
Si Si8 0.594254 0.630822 0.821732
O O1 0.910415 0.034085 0.500000
O O2 0.861152 0.096455 0.706795
O O3 0.000000 0.045085 0.750000
O O4 0.846368 0.000000 0.750000
O O5 0.316589 0.500000 0.750000
O O6 0.263646 0.541102 0.500000
O O7 0.172448 0.551756 0.750779
O O8 0.331026 0.592258 0.722695
O O9 0.907848 0.577937 0.500000
O O10 0.887120 0.637812 0.269147
O O11 0.000000 0.565930 0.250000
O O12 0.500000 0.749525 0.750000
O O13 0.580265 0.722508 0.500000
O O14 0.672693 0.768990 0.709421
O O15 0.623023 0.680841 0.750772
O O16 0.081730 0.842612 0.500000
O O17 0.176631 0.816309 0.731632
O O18 0.000000 0.841546 0.750000
O O19 0.073298 0.309126 0.500000
O O20 0.174200 0.275532 0.277969
O O21 0.000000 0.288914 0.250000
O O22 0.202194 0.784946 0.000000
O O23 0.500000 0.613391 0.750000
O O24 0.583302 0.636520 0.000000
#
# Coordination Sequence:
#
# PCOD8203429 Si02
#       8
#     8   8   8   8   8   8   8   8
#     4   9  16  26  41  61  86 122 167 210 249 287
#     4  11  24  39  55  77 101 126 157 192 234 283
#     4  10  20  36  56  75  98 127 160 199 237 276
#     4  10  20  35  55  77 100 127 161 199 239 285
#     4  10  20  31  44  66  98 134 171 209 248 290
#     4   9  18  31  47  69  95 124 157 191 228 272
#     4  10  20  32  47  69  98 131 164 198 240 287
#     4  10  21  37  58  81 103 127 156 191 233 284
#
# _framework density 17.345267
#
# number of rings (size 3 to 8) (size 9 to 14) (size 15 to 20)
#    0.000    2.125    0.000    4.500    0.000    8.000 
#    0.000    2.500    0.000    0.000    0.000    0.000 
#    0.000    0.500    0.000    5.500    0.000    4.000 
#
# Total GULP energy -793455.811947 kJ/mol
# GULP energy per Si atom -12397.747062 kJ/mol
# Density = 1.730579 g / cm^3
# Si number density = 17.345267 Si / 1000 Ang^3
#
#
#
# Elastic Constant Matrix: (Units=GPa)
#
#
# Indices 1 2 3 4 5 6 
#
# 1 89.6944 48.2724 42.8235 0.0000 0.0000 0.0000
# 2 48.2724 90.4595 48.4729 0.0000 0.0000 0.0000
# 3 42.8235 48.4729 89.7386 0.0000 0.0000 0.0000
# 4 0.0000 0.0000 0.0000 31.2728 0.0000 0.0000
# 5 0.0000 0.0000 0.0000 0.0000 24.5807 0.0000
# 6 0.0000 0.0000 0.0000 0.0000 0.0000 31.4041
#
#
#
# Elastic Compliance Matrix: (Units=1/GPa)
#
#
# Indices 1 2 3 4 5 6 
#
# 1 0.016828 -0.006582 -0.004475 0.000000 0.000000 0.000000
# 2 -0.006582 0.018132 -0.006653 0.000000 0.000000 0.000000
# 3 -0.004475 -0.006653 0.016873 0.000000 0.000000 0.000000
# 4 0.000000 0.000000 0.000000 0.031977 0.000000 0.000000
# 5 0.000000 0.000000 0.000000 0.000000 0.040682 0.000000
# 6 0.000000 0.000000 0.000000 0.000000 0.000000 0.031843
#
#
# Mechanical properties :
#
#
# Convention : Reuss Voigt Hill
#
# Bulk Modulus (GPa) = 60.92997 61.00337 60.96667
# Shear Modulus (GPa) = 25.35162 26.13979 25.74570
#
# Velocity S-wave (km/s) = 3.82722 3.88626 3.85685
# Velocity P-wave (km/s) = 7.39825 7.44202 7.42017
#
# Compressibility (1/GPa) = 0.01641228
#
# Stress axis : x y z
#
# Youngs Moduli (GPa) = 59.42532 55.15034 59.26707
#
# Poissons Ratio (x) = 0.36300 0.26522
# Poissons Ratio (y) = 0.39114 0.39432
# Poissons Ratio (z) = 0.26593 0.36693
#
# Static dielectric constant tensor:
#      x y z
#    x 3.039790 0.000000 0.000000 
#    y 0.000000 3.875550 0.000000 
#    z 0.000000 0.000000 3.312090 
# 
# 
# High freq. dielectric constant tensor:
#      x y z
#    x 1.644760 0.000000 0.000000 
#    y 0.000000 1.664090 0.000000 
#    z 0.000000 0.000000 1.684250 
# 
# From -- ./inp_files/4528.got.cif
#   From: 2010.03.12/outbox.cif.g09.slc.cpg/sg49_3_cif.got.tgz:4528.got - 2010.04.14 03:58:27.
