data_PCOD8203859
_publ_section_title
;
Structure prediction by ZEFSAII (Michael W. Deem and Ramdas Pophale) SiO2 
 PCOD8203859
Probable space group: P C C M
;
_chemical_formula_sum "Si O2"
_cell_formula_units_Z 48
_cell_length_a 13.589659
_cell_length_b 10.342617
_cell_length_c 17.587458
_cell_angle_alpha 90.000000
_cell_angle_beta 90.000000
_cell_angle_gamma 90.000000
_cell_volume 2471.963621
_symmetry_space_group_name_H-M "P C C M"
_symmetry_group_IT_number 49
_symmetry_cell_setting 'orthorhombic'
loop_
_space_group_symop_operation_xyz
x,y,z
-x,-y,z
x,-y,1/2-z
-x,y,1/2-z
-x,-y,-z
x,y,-z
-x,y,1/2+z
x,-y,1/2+z
loop_
_atom_site_type_symbol
_atom_site_label
_atom_site_fract_x
_atom_site_fract_y
_atom_site_fract_z
Si Si1 0.045131 0.642231 0.583387
Si Si2 0.786053 0.547694 0.828570
Si Si3 0.834179 0.290762 0.910885
Si Si4 0.594500 0.912610 0.084490
Si Si5 0.279781 0.908677 0.813554
Si Si6 0.598946 0.284547 0.711770
O O1 0.085221 0.678773 0.500000
O O2 0.138487 0.657011 0.639837
O O3 0.000000 0.500000 0.583275
O O4 0.950671 0.727149 0.605096
O O5 0.833621 0.500000 0.750000
O O6 0.784232 0.428199 0.887791
O O7 0.678188 0.604696 0.809672
O O8 0.796098 0.180441 0.856336
O O9 0.809361 0.270143 0.000000
O O10 0.571093 0.784539 0.132890
O O11 0.500000 0.000000 0.078980
O O12 0.678198 0.997509 0.122674
O O13 0.628280 0.869704 0.000000
O O14 0.361548 0.820741 0.771955
O O15 0.228096 0.000000 0.750000
O O16 0.500000 0.345385 0.750000
#
# Coordination Sequence:
#
# PCOD8203859 Si02
#       6
#     8   8   8   8   8   8
#     4   8  17  34  58  84 114 150 189 236 289 346
#     4  11  21  35  56  89 116 158 200 239 293 358
#     4  10  20  38  61  90 124 156 193 245 303 361
#     4  10  20  35  60  84 106 150 206 253 290 349
#     4  10  20  36  60  87 116 155 198 244 300 353
#     4  11  22  38  56  82 122 157 194 249 305 348
#
# _framework density 19.417762
#
# number of rings (size 3 to 8) (size 9 to 14) (size 15 to 20)
#    0.000    2.000    3.333    2.000    0.000    4.667 
#    0.000    0.000    0.000    8.000    0.000   10.500 
#    0.000    0.000    0.000    0.000    0.000    0.000 
#
# Total GULP energy -594738.559479 kJ/mol
# GULP energy per Si atom -12390.386656 kJ/mol
# Density = 1.937357 g / cm^3
# Si number density = 19.417762 Si / 1000 Ang^3
#
#
#
# Elastic Constant Matrix: (Units=GPa)
#
#
# Indices 1 2 3 4 5 6 
#
# 1 114.6902 40.7064 74.9929 0.0000 0.0000 0.0000
# 2 40.7064 58.7207 48.7805 0.0000 0.0000 0.0000
# 3 74.9929 48.7805 162.2864 0.0000 0.0000 0.0000
# 4 0.0000 0.0000 0.0000 33.5726 0.0000 0.0000
# 5 0.0000 0.0000 0.0000 0.0000 34.9502 0.0000
# 6 0.0000 0.0000 0.0000 0.0000 0.0000 26.2420
#
#
#
# Elastic Compliance Matrix: (Units=1/GPa)
#
#
# Indices 1 2 3 4 5 6 
#
# 1 0.013784 -0.005683 -0.004661 0.000000 0.000000 0.000000
# 2 -0.005683 0.025040 -0.004901 0.000000 0.000000 0.000000
# 3 -0.004661 -0.004901 0.009789 0.000000 0.000000 0.000000
# 4 0.000000 0.000000 0.000000 0.029786 0.000000 0.000000
# 5 0.000000 0.000000 0.000000 0.000000 0.028612 0.000000
# 6 0.000000 0.000000 0.000000 0.000000 0.000000 0.038107
#
#
# Mechanical properties :
#
#
# Convention : Reuss Voigt Hill
#
# Bulk Modulus (GPa) = 55.17725 73.85076 64.51401
# Shear Modulus (GPa) = 27.52542 30.36747 28.94645
#
# Velocity S-wave (km/s) = 3.76911 3.95891 3.86517
# Velocity P-wave (km/s) = 6.88615 7.68196 7.29491
#
# Compressibility (1/GPa) = 0.01812341
#
# Stress axis : x y z
#
# Youngs Moduli (GPa) = 72.54659 39.93544 102.15515
#
# Poissons Ratio (x) = 0.22696 0.47619
# Poissons Ratio (y) = 0.41229 0.50061
# Poissons Ratio (z) = 0.33817 0.19570
#
# Static dielectric constant tensor:
#      x y z
#    x 3.314070 0.000000 0.000000 
#    y 0.000000 3.349310 0.000000 
#    z 0.000000 0.000000 4.018660 
# 
# 
# High freq. dielectric constant tensor:
#      x y z
#    x 1.742080 0.000000 0.000000 
#    y 0.000000 1.729490 0.000000 
#    z 0.000000 0.000000 1.775270 
# 
# From -- ./inp_files/17060.got.cif
#   From: 2010.03.12/outbox.cif.g09.slc.cpg/sg49_9_cif.got.tgz:17060.got - 2010.04.14 03:58:27.
