data_PCOD8203661
_publ_section_title
;
Structure prediction by ZEFSAII (Michael W. Deem and Ramdas Pophale) SiO2 
 PCOD8203661
Probable space group: P C C M
;
_chemical_formula_sum "Si O2"
_cell_formula_units_Z 64
_cell_length_a 15.204954
_cell_length_b 23.254424
_cell_length_c 9.022832
_cell_angle_alpha 90.000000
_cell_angle_beta 90.000000
_cell_angle_gamma 90.000000
_cell_volume 3190.315019
_symmetry_space_group_name_H-M "P C C M"
_symmetry_group_IT_number 49
_symmetry_cell_setting 'orthorhombic'
loop_
_space_group_symop_operation_xyz
x,y,z
-x,-y,z
x,-y,1/2-z
-x,y,1/2-z
-x,-y,-z
x,y,-z
-x,y,1/2+z
x,-y,1/2+z
loop_
_atom_site_type_symbol
_atom_site_label
_atom_site_fract_x
_atom_site_fract_y
_atom_site_fract_z
Si Si1 0.665066 0.681210 0.829302
Si Si2 0.227931 0.857108 0.331009
Si Si3 0.090993 0.937910 0.821104
Si Si4 0.091734 0.445360 0.328671
Si Si5 0.162193 0.324692 0.331229
Si Si6 0.411102 0.802039 0.671811
Si Si7 0.922360 0.231266 0.335766
Si Si8 0.594058 0.555515 0.824282
O O1 0.744682 0.697298 0.724033
O O2 0.596407 0.733086 0.800660
O O3 0.632714 0.617871 0.783879
O O4 0.695982 0.681782 0.000000
O O5 0.232215 0.881280 0.500000
O O6 0.178179 0.901983 0.223866
O O7 0.325393 0.838807 0.272687
O O8 0.170904 0.799480 0.328733
O O9 0.000000 0.912483 0.750000
O O10 0.105746 0.000000 0.750000
O O11 0.082717 0.940329 0.000000
O O12 0.137328 0.500000 0.250000
O O13 0.074041 0.458634 0.500000
O O14 0.157438 0.392781 0.305976
O O15 0.000000 0.431765 0.250000
O O16 0.149990 0.306760 0.500000
O O17 0.085913 0.293648 0.239377
O O18 0.500000 0.824416 0.750000
O O19 0.422030 0.814926 0.500000
O O20 0.956657 0.240098 0.500000
O O21 0.000000 0.196739 0.250000
O O22 0.644933 0.500000 0.750000
O O23 0.500000 0.555984 0.750000
O O24 0.588997 0.546534 0.000000
#
# Coordination Sequence:
#
# PCOD8203661 Si02
#       8
#     8   8   8   8   8   8   8   8
#     4  10  21  38  56  77 107 146 186 236 299 359
#     4  10  21  39  61  88 125 163 205 253 298 349
#     4  11  22  38  63  96 135 176 217 253 298 349
#     4  10  21  36  53  73  95 128 174 225 279 341
#     4  11  23  36  53  78 106 138 182 232 285 348
#     4  10  21  39  61  87 118 156 202 252 309 363
#     4  11  22  37  57  82 117 156 193 236 290 349
#     4  10  20  34  54  76 103 134 176 227 291 363
#
# _framework density 20.060714000000001
#
# number of rings (size 3 to 8) (size 9 to 14) (size 15 to 20)
#    0.000    1.625    1.250    4.875    0.000    7.500 
#    0.000    2.500    0.000    0.375    0.000    2.625 
#    0.000    0.000    0.000    0.000    0.000    0.000 
#
# Total GULP energy -793114.202219 kJ/mol
# GULP energy per Si atom -12392.409410 kJ/mol
# Density = 2.001505 g / cm^3
# Si number density = 20.060714 Si / 1000 Ang^3
#
#
#
# Elastic Constant Matrix: (Units=GPa)
#
#
# Indices 1 2 3 4 5 6 
#
# 1 121.0329 38.8307 53.4560 0.0000 0.0000 0.0000
# 2 38.8307 86.7647 48.6038 0.0000 0.0000 0.0000
# 3 53.4560 48.6038 128.0056 0.0000 0.0000 0.0000
# 4 0.0000 0.0000 0.0000 29.3065 0.0000 0.0000
# 5 0.0000 0.0000 0.0000 0.0000 27.5438 0.0000
# 6 0.0000 0.0000 0.0000 0.0000 0.0000 28.7880
#
#
#
# Elastic Compliance Matrix: (Units=1/GPa)
#
#
# Indices 1 2 3 4 5 6 
#
# 1 0.010675 -0.002896 -0.003358 0.000000 0.000000 0.000000
# 2 -0.002896 0.015425 -0.004647 0.000000 0.000000 0.000000
# 3 -0.003358 -0.004647 0.010979 0.000000 0.000000 0.000000
# 4 0.000000 0.000000 0.000000 0.034122 0.000000 0.000000
# 5 0.000000 0.000000 0.000000 0.000000 0.036306 0.000000
# 6 0.000000 0.000000 0.000000 0.000000 0.000000 0.034737
#
#
# Mechanical properties :
#
#
# Convention : Reuss Voigt Hill
#
# Bulk Modulus (GPa) = 65.46507 68.62050 67.04278
# Shear Modulus (GPa) = 29.56160 30.12184 29.84172
#
# Velocity S-wave (km/s) = 3.84292 3.87917 3.86109
# Velocity P-wave (km/s) = 7.23844 7.37188 7.30546
#
# Compressibility (1/GPa) = 0.01527532
#
# Stress axis : x y z
#
# Youngs Moduli (GPa) = 93.68096 64.83002 91.08180
#
# Poissons Ratio (x) = 0.18776 0.30586
# Poissons Ratio (y) = 0.27131 0.42329
# Poissons Ratio (z) = 0.31459 0.30129
#
# Static dielectric constant tensor:
#      x y z
#    x 3.621030 0.000000 0.000000 
#    y 0.000000 3.837970 0.000000 
#    z 0.000000 0.000000 3.626930 
# 
# 
# High freq. dielectric constant tensor:
#      x y z
#    x 1.772510 0.000000 0.000000 
#    y 0.000000 1.775960 0.000000 
#    z 0.000000 0.000000 1.788020 
# 
# From -- ./inp_files/4401.got.cif
#   From: 2010.03.12/outbox.cif.g09.slc.cpg/sg49_3_cif.got.tgz:4401.got - 2010.04.14 03:58:27.
