data_PCOD8203902
_publ_section_title
;
Structure prediction by ZEFSAII (Michael W. Deem and Ramdas Pophale) SiO2 
 PCOD8203902
Probable space group: P C C M
;
_chemical_formula_sum "Si O2"
_cell_formula_units_Z 56
_cell_length_a 13.895018
_cell_length_b 23.524628
_cell_length_c 9.146391
_cell_angle_alpha 90.000000
_cell_angle_beta 90.000000
_cell_angle_gamma 90.000000
_cell_volume 2989.727743
_symmetry_space_group_name_H-M "P C C M"
_symmetry_group_IT_number 49
_symmetry_cell_setting 'orthorhombic'
loop_
_space_group_symop_operation_xyz
x,y,z
-x,-y,z
x,-y,1/2-z
-x,y,1/2-z
-x,-y,-z
x,y,-z
-x,y,1/2+z
x,-y,1/2+z
loop_
_atom_site_type_symbol
_atom_site_label
_atom_site_fract_x
_atom_site_fract_y
_atom_site_fract_z
Si Si1 0.097372 0.056660 0.329943
Si Si2 0.403757 0.798788 0.670013
Si Si3 0.200447 0.372263 0.769494
Si Si4 0.216298 0.831899 0.830316
Si Si5 0.095098 0.738499 0.335173
Si Si6 0.905913 0.581942 0.500000
Si Si7 0.873877 0.549931 0.000000
Si Si8 0.403008 0.335021 0.170860
O O1 0.075566 0.044137 0.500000
O O2 0.177464 0.104628 0.313595
O O3 0.000000 0.077141 0.250000
O O4 0.136250 0.000000 0.250000
O O5 0.500000 0.819489 0.750000
O O6 0.408005 0.815572 0.500000
O O7 0.317424 0.831327 0.748109
O O8 0.389141 0.731887 0.690822
O O9 0.165881 0.315221 0.850078
O O10 0.135819 0.380541 0.628827
O O11 0.183589 0.429425 0.860020
O O12 0.315024 0.366182 0.745471
O O13 0.143076 0.789014 0.754380
O O14 0.228687 0.814421 0.000000
O O15 0.071402 0.759343 0.500000
O O16 0.000000 0.719489 0.250000
O O17 0.870300 0.517523 0.500000
O O18 0.021004 0.579475 0.500000
O O19 0.500000 0.355946 0.250000
O O20 0.405472 0.351950 0.000000
#
# Coordination Sequence:
#
# PCOD8203902 Si02
#       8
#     8   8   8   8   8   4   4   8
#     4  10  21  37  58  84 116 160 207 248 288 341
#     4  10  20  36  57  84 118 157 196 242 299 357
#     4  12  23  39  62  88 119 152 197 247 300 356
#     4  11  23  37  57  87 122 156 198 246 295 358
#     4  12  24  37  55  83 121 158 190 237 302 361
#     4  11  26  38  65  91 113 161 203 237 299 348
#     4  11  22  46  61  85 123 155 201 249 281 360
#     4  10  21  38  60  86 116 151 194 242 296 359
#
# _framework density 18.730803000000002
#
# number of rings (size 3 to 8) (size 9 to 14) (size 15 to 20)
#    0.000    1.143    2.857    4.286    3.000    5.143 
#    0.000    0.000    0.000    3.000    0.000    3.000 
#    0.000    0.000    0.000    0.000    0.000    0.000 
#
# Total GULP energy -694432.142206 kJ/mol
# GULP energy per Si atom -12400.573968 kJ/mol
# Density = 1.868817 g / cm^3
# Si number density = 18.730803 Si / 1000 Ang^3
#
#
#
# Elastic Constant Matrix: (Units=GPa)
#
#
# Indices 1 2 3 4 5 6 
#
# 1 134.8720 42.0494 48.7249 0.0000 0.0000 0.0000
# 2 42.0494 66.0061 34.2556 0.0000 0.0000 0.0000
# 3 48.7249 34.2556 134.6639 0.0000 0.0000 0.0000
# 4 0.0000 0.0000 0.0000 12.0820 0.0000 0.0000
# 5 0.0000 0.0000 0.0000 0.0000 35.1102 0.0000
# 6 0.0000 0.0000 0.0000 0.0000 0.0000 26.2931
#
#
#
# Elastic Compliance Matrix: (Units=1/GPa)
#
#
# Indices 1 2 3 4 5 6 
#
# 1 0.009814 -0.005080 -0.002259 0.000000 0.000000 0.000000
# 2 -0.005080 0.020084 -0.003271 0.000000 0.000000 0.000000
# 3 -0.002259 -0.003271 0.009075 0.000000 0.000000 0.000000
# 4 0.000000 0.000000 0.000000 0.082768 0.000000 0.000000
# 5 0.000000 0.000000 0.000000 0.000000 0.028482 0.000000
# 6 0.000000 0.000000 0.000000 0.000000 0.000000 0.038033
#
#
# Mechanical properties :
#
#
# Convention : Reuss Voigt Hill
#
# Bulk Modulus (GPa) = 56.32506 65.06688 60.69597
# Shear Modulus (GPa) = 23.21337 28.73119 25.97228
#
# Velocity S-wave (km/s) = 3.52421 3.92075 3.72776
# Velocity P-wave (km/s) = 6.83346 7.43705 7.14164
#
# Compressibility (1/GPa) = 0.01775409
#
# Stress axis : x y z
#
# Youngs Moduli (GPa) = 101.89249 49.79135 110.19007
#
# Poissons Ratio (x) = 0.25294 0.24890
# Poissons Ratio (y) = 0.51761 0.36041
# Poissons Ratio (z) = 0.23016 0.16286
#
# Static dielectric constant tensor:
#      x y z
#    x 3.605680 0.000000 0.000000 
#    y 0.000000 3.239870 0.000000 
#    z 0.000000 0.000000 3.552220 
# 
# 
# High freq. dielectric constant tensor:
#      x y z
#    x 1.728840 0.000000 0.000000 
#    y 0.000000 1.707580 0.000000 
#    z 0.000000 0.000000 1.745470 
# 
# From -- ./inp_files/4131.got.cif
#   From: 2010.03.12/outbox.cif.g09.slc.cpg/sg49_3_cif.got.tgz:4131.got - 2010.04.14 03:58:27.
