data_PCOD8203509
_publ_section_title
;
Structure prediction by ZEFSAII (Michael W. Deem and Ramdas Pophale) SiO2 
 PCOD8203509
Probable space group: P C C M
;
_chemical_formula_sum "Si O2"
_cell_formula_units_Z 64
_cell_length_a 8.996838
_cell_length_b 20.750461
_cell_length_c 18.076866
_cell_angle_alpha 90.000000
_cell_angle_beta 90.000000
_cell_angle_gamma 90.000000
_cell_volume 3374.743650
_symmetry_space_group_name_H-M "P C C M"
_symmetry_group_IT_number 49
_symmetry_cell_setting 'orthorhombic'
loop_
_space_group_symop_operation_xyz
x,y,z
-x,-y,z
x,-y,1/2-z
-x,y,1/2-z
-x,-y,-z
x,y,-z
-x,y,1/2+z
x,-y,1/2+z
loop_
_atom_site_type_symbol
_atom_site_label
_atom_site_fract_x
_atom_site_fract_y
_atom_site_fract_z
Si Si1 0.176777 0.374160 0.916671
Si Si2 0.823223 0.625840 0.583329
Si Si3 0.832660 0.000000 0.412129
Si Si4 0.325313 0.128517 0.914806
Si Si5 0.828541 0.245316 0.836880
Si Si6 0.177454 0.500000 0.166437
Si Si7 0.674688 0.871483 0.414806
Si Si8 0.828540 0.754684 0.163120
O O1 0.240167 0.436856 0.874884
O O2 0.231664 0.310278 0.874906
O O3 0.000000 0.376812 0.916743
O O4 0.239518 0.373399 0.000000
O O5 0.760482 0.626601 0.500000
O O6 0.768337 0.689723 0.625094
O O7 0.759834 0.563145 0.625116
O O8 0.830109 0.000001 0.500000
O O9 0.749574 0.063634 0.383181
O O10 0.749574 0.936366 0.383181
O O11 0.000000 0.000000 0.380919
O O12 0.500000 0.120423 0.906234
O O13 0.270289 0.187049 0.865383
O O14 0.279794 0.140966 0.000000
O O15 0.729712 0.187048 0.865383
O O16 0.807752 0.253473 0.750000
O O17 0.000000 0.232295 0.857977
O O18 0.237914 0.500000 0.250000
O O19 0.000000 0.500000 0.165792
O O20 0.720206 0.859034 0.500000
#
# Coordination Sequence:
#
# PCOD8203509 Si02
#       8
#     8   8   8   8   8   8   8   8
#     4   9  16  26  42  65  94 129 169 212 257 305
#     4   9  16  26  42  65  94 129 169 212 257 305
#     4   9  17  31  54  81 106 133 166 206 252 301
#     4  10  20  34  53  77 104 134 169 209 253 303
#     4  10  20  33  49  71 100 134 172 214 260 308
#     4   9  15  23  37  61  96 133 166 205 256 309
#     4  10  20  34  53  77 104 134 169 209 253 303
#     4  10  20  33  49  71 100 134 172 214 260 308
#
# _framework density 18.964403000000001
#
# number of rings (size 3 to 8) (size 9 to 14) (size 15 to 20)
#    0.000    2.500    0.000    3.000    0.000    9.000 
#    0.000    0.625    0.000    3.750    0.000    0.875 
#    0.000    7.000    0.000    0.000    0.000    0.000 
#
# Total GULP energy -793705.164793 kJ/mol
# GULP energy per Si atom -12401.643200 kJ/mol
# Density = 1.892124 g / cm^3
# Si number density = 18.964403 Si / 1000 Ang^3
#
#
#
# Elastic Constant Matrix: (Units=GPa)
#
#
# Indices 1 2 3 4 5 6 
#
# 1 53.1329 43.6303 28.8198 0.0000 0.0000 0.0000
# 2 43.6303 186.6873 71.7686 0.0000 0.0000 0.0000
# 3 28.8198 71.7686 111.3968 0.0000 0.0000 0.0000
# 4 0.0000 0.0000 0.0000 13.6201 0.0000 0.0000
# 5 0.0000 0.0000 0.0000 0.0000 16.8355 0.0000
# 6 0.0000 0.0000 0.0000 0.0000 0.0000 0.2033
#
#
#
# Elastic Compliance Matrix: (Units=1/GPa)
#
#
# Indices 1 2 3 4 5 6 
#
# 1 0.024269 -0.004331 -0.003489 0.000000 0.000000 0.000000
# 2 -0.004331 0.007893 -0.003965 0.000000 0.000000 0.000000
# 3 -0.003489 -0.003965 0.012434 0.000000 0.000000 0.000000
# 4 0.000000 0.000000 0.000000 0.073421 0.000000 0.000000
# 5 0.000000 0.000000 0.000000 0.000000 0.059398 0.000000
# 6 0.000000 0.000000 0.000000 0.000000 0.000000 4.919159
#
#
# Mechanical properties :
#
#
# Convention : Reuss Voigt Hill
#
# Bulk Modulus (GPa) = 47.55620 71.07272 59.31446
# Shear Modulus (GPa) = 0.97520 19.93168 10.45344
#
# Velocity S-wave (km/s) = 0.71787 3.24544 2.35034
# Velocity P-wave (km/s) = 5.08115 7.18346 6.22174
#
# Compressibility (1/GPa) = 0.02102775
#
# Stress axis : x y z
#
# Youngs Moduli (GPa) = 41.20448 126.69770 80.42651
#
# Poissons Ratio (x) = 0.54870 0.28058
# Poissons Ratio (y) = 0.17845 0.31886
# Poissons Ratio (z) = 0.14375 0.50231
#
# Static dielectric constant tensor:
#      x y z
#    x 3.053360 0.000000 0.000000 
#    y 0.000000 3.689000 0.000000 
#    z 0.000000 0.000000 3.441410 
# 
# 
# High freq. dielectric constant tensor:
#      x y z
#    x 1.691640 0.000000 0.000000 
#    y 0.000000 1.756640 0.000000 
#    z 0.000000 0.000000 1.730620 
# 
# From -- ./inp_files/16530.got.cif
#   From: 2010.03.12/outbox.cif.g09.slc.cpg/sg49_9_cif.got.tgz:16530.got - 2010.04.14 03:58:27.
