data_PCOD8203505
_publ_section_title
;
Structure prediction by ZEFSAII (Michael W. Deem and Ramdas Pophale) SiO2 
 PCOD8203505
Probable space group: P C C M
;
_chemical_formula_sum "Si O2"
_cell_formula_units_Z 64
_cell_length_a 24.362438
_cell_length_b 9.979408
_cell_length_c 14.931689
_cell_angle_alpha 90.000000
_cell_angle_beta 90.000000
_cell_angle_gamma 90.000000
_cell_volume 3630.232675
_symmetry_space_group_name_H-M "P C C M"
_symmetry_group_IT_number 49
_symmetry_cell_setting 'orthorhombic'
loop_
_space_group_symop_operation_xyz
x,y,z
-x,-y,z
x,-y,1/2-z
-x,y,1/2-z
-x,-y,-z
x,y,-z
-x,y,1/2+z
x,-y,1/2+z
loop_
_atom_site_type_symbol
_atom_site_label
_atom_site_fract_x
_atom_site_fract_y
_atom_site_fract_z
Si Si1 0.645390 0.345264 0.602889
Si Si2 0.439482 0.342383 0.250000
Si Si3 0.253484 0.843647 0.102185
Si Si4 0.063882 0.500000 0.099638
Si Si5 0.827602 0.153545 0.250000
Si Si6 0.936156 0.291427 0.750001
Si Si7 0.354610 0.345265 0.602889
Si Si8 0.253484 0.156352 0.102185
O O1 0.628393 0.327020 0.500000
O O2 0.593492 0.298542 0.661348
O O3 0.661946 0.499999 0.623350
O O4 0.695198 0.248180 0.629029
O O5 0.446929 0.500000 0.250000
O O6 0.500000 0.274375 0.250000
O O7 0.406508 0.298542 0.338653
O O8 0.202124 0.790259 0.160951
O O9 0.304801 0.751819 0.129029
O O10 0.268349 1.000000 0.119334
O O11 0.236149 0.819759 0.000000
O O12 0.078723 0.628484 0.159517
O O13 0.078723 0.371520 0.159520
O O14 0.000000 0.500000 0.082972
O O15 0.092418 0.499998 0.000000
O O16 0.893345 0.170600 0.250001
O O17 0.797876 0.209740 0.339049
O O18 0.815352 0.000000 0.250000
O O19 0.000000 0.244634 0.750000
O O20 0.371607 0.327021 0.500000
O O21 0.236149 0.180240 0.000000
#
# Coordination Sequence:
#
# PCOD8203505 Si02
#       8
#     8   8   8   8   8   8   8   8
#     4   9  17  30  48  70  94 120 156 201 239 275
#     4   9  17  28  44  69  98 127 155 187 234 286
#     4   9  18  33  51  69  93 127 163 197 239 292
#     4   8  15  31  52  69  91 124 157 191 230 275
#     4  10  20  33  49  70  96 127 159 195 240 287
#     4   9  18  32  49  73  98 123 161 197 234 289
#     4   9  17  30  48  70  94 120 156 201 239 275
#     4   9  18  33  51  69  93 127 163 197 239 292
#
# _framework density 17.629724
#
# number of rings (size 3 to 8) (size 9 to 14) (size 15 to 20)
#    0.000    3.000    0.000    1.500    0.000    1.750 
#    4.500    2.500    0.000    1.500    0.000   10.500 
#    0.000    0.000    0.000    0.000    0.000    0.000 
#
# Total GULP energy -792966.929887 kJ/mol
# GULP energy per Si atom -12390.108279 kJ/mol
# Density = 1.758960 g / cm^3
# Si number density = 17.629724 Si / 1000 Ang^3
#
#
#
# Elastic Constant Matrix: (Units=GPa)
#
#
# Indices 1 2 3 4 5 6 
#
# 1 140.5684 40.3085 65.7080 0.0000 0.0000 0.0000
# 2 40.3085 39.7289 26.9894 0.0000 0.0000 0.0000
# 3 65.7080 26.9894 124.3014 0.0000 0.0000 0.0000
# 4 0.0000 0.0000 0.0000 14.2528 0.0000 0.0000
# 5 0.0000 0.0000 0.0000 0.0000 27.3381 0.0000
# 6 0.0000 0.0000 0.0000 0.0000 0.0000 19.6961
#
#
#
# Elastic Compliance Matrix: (Units=1/GPa)
#
#
# Indices 1 2 3 4 5 6 
#
# 1 0.011654 -0.008960 -0.004215 0.000000 0.000000 0.000000
# 2 -0.008960 0.036415 -0.003170 0.000000 0.000000 0.000000
# 3 -0.004215 -0.003170 0.010961 0.000000 0.000000 0.000000
# 4 0.000000 0.000000 0.000000 0.070161 0.000000 0.000000
# 5 0.000000 0.000000 0.000000 0.000000 0.036579 0.000000
# 6 0.000000 0.000000 0.000000 0.000000 0.000000 0.050772
#
#
# Mechanical properties :
#
#
# Convention : Reuss Voigt Hill
#
# Bulk Modulus (GPa) = 37.96566 63.40119 50.68342
# Shear Modulus (GPa) = 19.37891 23.69692 21.53792
#
# Velocity S-wave (km/s) = 3.31904 3.67024 3.49905
# Velocity P-wave (km/s) = 6.02244 7.34858 6.71831
#
# Compressibility (1/GPa) = 0.02633959
#
# Stress axis : x y z
#
# Youngs Moduli (GPa) = 85.81081 27.46096 91.23014
#
# Poissons Ratio (x) = 0.24606 0.38451
# Poissons Ratio (y) = 0.76889 0.28922
# Poissons Ratio (z) = 0.36167 0.08706
#
# Static dielectric constant tensor:
#      x y z
#    x 3.156510 0.000000 0.000000 
#    y 0.000000 3.050130 0.000000 
#    z 0.000000 0.000000 4.414730 
# 
# 
# High freq. dielectric constant tensor:
#      x y z
#    x 1.666590 0.000000 0.000000 
#    y 0.000000 1.651680 0.000000 
#    z 0.000000 0.000000 1.701400 
# 
# From -- ./inp_files/14546.got.cif
#   From: 2010.03.12/outbox.cif.g09.slc.cpg/sg49_8_cif.got.tgz:14546.got - 2010.04.14 03:58:27.
