data_PCOD8203959
_publ_section_title
;
Structure prediction by ZEFSAII (Michael W. Deem and Ramdas Pophale) SiO2 
 PCOD8203959
Probable space group: P C C M
;
_chemical_formula_sum "Si O2"
_cell_formula_units_Z 64
_cell_length_a 9.009996
_cell_length_b 23.471542
_cell_length_c 14.088493
_cell_angle_alpha 90.000000
_cell_angle_beta 90.000000
_cell_angle_gamma 90.000000
_cell_volume 2979.413360
_symmetry_space_group_name_H-M "P C C M"
_symmetry_group_IT_number 49
_symmetry_cell_setting 'orthorhombic'
loop_
_space_group_symop_operation_xyz
x,y,z
-x,-y,z
x,-y,1/2-z
-x,y,1/2-z
-x,-y,-z
x,y,-z
-x,y,1/2+z
x,-y,1/2+z
loop_
_atom_site_type_symbol
_atom_site_label
_atom_site_fract_x
_atom_site_fract_y
_atom_site_fract_z
Si Si1 0.424708 0.128623 0.111408
Si Si2 0.279435 0.170642 0.710567
Si Si3 0.166112 0.493087 0.112529
Si Si4 0.690091 0.379381 0.608557
Si Si5 0.651833 0.600215 0.609120
Si Si6 0.672069 0.295887 0.235542
Si Si7 0.910480 0.084578 0.886924
Si Si8 0.785378 0.031273 0.609846
O O1 0.310691 0.164118 0.176804
O O2 0.589693 0.141879 0.146965
O O3 0.374166 0.062041 0.127051
O O4 0.408069 0.145219 0.000000
O O5 0.253383 0.238036 0.697802
O O6 0.131851 0.140708 0.672298
O O7 0.213781 0.431191 0.149465
O O8 0.271305 0.543541 0.152931
O O9 0.000000 0.500000 0.150075
O O10 0.178029 0.493747 0.000000
O O11 0.722627 0.365067 0.500000
O O12 0.523525 0.401760 0.625874
O O13 0.729496 0.321296 0.664275
O O14 0.695212 0.605390 0.500000
O O15 0.712827 0.656852 0.658088
O O16 0.500000 0.281666 0.250000
O O17 0.078020 0.070290 0.853721
O O18 0.798971 0.033298 0.849924
O O19 0.896524 0.095918 0.000000
O O20 0.817705 0.022827 0.500000
#
# Coordination Sequence:
#
# PCOD8203959 Si02
#       8
#     8   8   8   8   8   8   8   8
#     4  10  21  37  57  81 114 147 182 237 293 343
#     4  11  22  36  56  84 113 150 198 235 283 344
#     4   9  17  32  56  85 115 141 176 225 280 338
#     4   9  18  33  57  81 106 144 184 227 275 323
#     4   9  18  32  55  80 106 143 181 224 272 322
#     4  10  20  37  52  77 110 140 191 233 265 323
#     4   9  18  35  61  89 116 147 187 235 284 344
#     4   8  17  36  60  87 116 146 184 232 292 350
#
# _framework density 21.480737999999999
#
# number of rings (size 3 to 8) (size 9 to 14) (size 15 to 20)
#    0.000    2.625    1.250    1.500    0.000    5.000 
#    0.000    7.500    5.500    0.000    0.000    0.000 
#    0.000    0.000    0.000    0.000    0.000    0.000 
#
# Total GULP energy -792993.429275 kJ/mol
# GULP energy per Si atom -12390.522332 kJ/mol
# Density = 2.143185 g / cm^3
# Si number density = 21.480738 Si / 1000 Ang^3
#
#
#
# Elastic Constant Matrix: (Units=GPa)
#
#
# Indices 1 2 3 4 5 6 
#
# 1 51.9950 55.3797 25.6251 0.0000 0.0000 0.0000
# 2 55.3797 174.6865 42.1020 0.0000 0.0000 0.0000
# 3 25.6251 42.1020 85.5709 0.0000 0.0000 0.0000
# 4 0.0000 0.0000 0.0000 33.7679 0.0000 0.0000
# 5 0.0000 0.0000 0.0000 0.0000 15.2907 0.0000
# 6 0.0000 0.0000 0.0000 0.0000 0.0000 28.8856
#
#
#
# Elastic Compliance Matrix: (Units=1/GPa)
#
#
# Indices 1 2 3 4 5 6 
#
# 1 0.030826 -0.008563 -0.005018 0.000000 0.000000 0.000000
# 2 -0.008563 0.008873 -0.001802 0.000000 0.000000 0.000000
# 3 -0.005018 -0.001802 0.014075 0.000000 0.000000 0.000000
# 4 0.000000 0.000000 0.000000 0.029614 0.000000 0.000000
# 5 0.000000 0.000000 0.000000 0.000000 0.065399 0.000000
# 6 0.000000 0.000000 0.000000 0.000000 0.000000 0.034619
#
#
# Mechanical properties :
#
#
# Convention : Reuss Voigt Hill
#
# Bulk Modulus (GPa) = 43.46025 62.05177 52.75601
# Shear Modulus (GPa) = 22.53845 28.19855 25.36850
#
# Velocity S-wave (km/s) = 3.24271 3.62710 3.44028
# Velocity P-wave (km/s) = 5.85631 6.81843 6.35560
#
# Compressibility (1/GPa) = 0.02300953
#
# Stress axis : x y z
#
# Youngs Moduli (GPa) = 32.43971 112.69520 71.04652
#
# Poissons Ratio (x) = 0.96504 0.35651
# Poissons Ratio (y) = 0.27779 0.12799
# Poissons Ratio (z) = 0.16278 0.20302
#
# Static dielectric constant tensor:
#      x y z
#    x 3.641720 0.000000 0.000000 
#    y 0.000000 3.904990 0.000000 
#    z 0.000000 0.000000 3.963230 
# 
# 
# High freq. dielectric constant tensor:
#      x y z
#    x 1.813510 0.000000 0.000000 
#    y 0.000000 1.835490 0.000000 
#    z 0.000000 0.000000 1.851810 
# 
# From -- ./inp_files/12155.got.cif
#   From: 2010.03.12/outbox.cif.g09.slc.cpg/sg49_7_cif.got.tgz:12155.got - 2010.04.14 03:58:27.
