data_PCOD8203250
_publ_section_title
;
Structure prediction by ZEFSAII (Michael W. Deem and Ramdas Pophale) SiO2 
 PCOD8203250
Probable space group: P C C M
;
_chemical_formula_sum "Si O2"
_cell_formula_units_Z 64
_cell_length_a 22.594118
_cell_length_b 16.251529
_cell_length_c 8.705102
_cell_angle_alpha 90.000000
_cell_angle_beta 90.000000
_cell_angle_gamma 90.000000
_cell_volume 3196.417384
_symmetry_space_group_name_H-M "P C C M"
_symmetry_group_IT_number 49
_symmetry_cell_setting 'orthorhombic'
loop_
_space_group_symop_operation_xyz
x,y,z
-x,-y,z
x,-y,1/2-z
-x,y,1/2-z
-x,-y,-z
x,y,-z
-x,y,1/2+z
x,-y,1/2+z
loop_
_atom_site_type_symbol
_atom_site_label
_atom_site_fract_x
_atom_site_fract_y
_atom_site_fract_z
Si Si1 0.853765 0.587906 0.316796
Si Si2 0.903292 0.913823 0.818531
Si Si3 0.676910 0.793830 0.827004
Si Si4 0.560602 0.751967 0.320210
Si Si5 0.273759 0.386557 0.174954
Si Si6 0.937793 0.270024 0.316513
Si Si7 0.605545 0.421337 0.181285
Si Si8 0.770192 0.081966 0.318049
O O1 0.877811 0.500000 0.250000
O O2 0.860893 0.587440 0.500000
O O3 0.785205 0.596545 0.271317
O O4 0.888339 0.667447 0.249011
O O5 0.931583 0.826598 0.764164
O O6 0.836487 0.905601 0.756468
O O7 0.931112 0.000000 0.750000
O O8 0.908017 0.922527 0.000000
O O9 0.617083 0.805090 0.729610
O O10 0.708935 0.707640 0.822356
O O11 0.726690 0.850112 0.750443
O O12 0.660525 0.819637 0.000000
O O13 0.500000 0.786971 0.250000
O O14 0.553980 0.754541 0.500000
O O15 0.572511 0.659762 0.256776
O O16 0.327970 0.431832 0.255927
O O17 0.264624 0.417770 0.000000
O O18 0.935412 0.275809 0.500000
O O19 0.000000 0.301605 0.250000
O O20 0.570312 0.500000 0.250000
O O21 0.606563 0.421673 0.000000
O O22 0.770685 0.082971 0.500000
O O23 0.742691 0.000000 0.250000
#
# Coordination Sequence:
#
# PCOD8203250 Si02
#       8
#     8   8   8   8   8   8   8   8
#     4  12  25  41  61  85 113 149 192 240 291 343
#     4   9  19  36  60  89 123 156 188 226 274 333
#     4   9  18  33  54  77 106 142 178 217 267 320
#     4  10  21  35  51  71  97 131 176 221 264 313
#     4  10  19  34  56  81 109 141 177 222 274 329
#     4  11  24  43  63  86 116 152 195 241 285 334
#     4  10  20  33  49  73 103 135 171 214 263 319
#     4   9  17  31  52  81 112 142 172 208 257 315
#
# _framework density 20.022416
#
# number of rings (size 3 to 8) (size 9 to 14) (size 15 to 20)
#    0.000    2.000    0.000    3.750    0.000    6.250 
#    0.000    6.250    0.000    0.375    0.000    2.625 
#    0.000    0.000    0.000    0.000    0.000    0.000 
#
# Total GULP energy -793089.328669 kJ/mol
# GULP energy per Si atom -12392.020760 kJ/mol
# Density = 1.997684 g / cm^3
# Si number density = 20.022416 Si / 1000 Ang^3
#
#
#
# Elastic Constant Matrix: (Units=GPa)
#
#
# Indices 1 2 3 4 5 6 
#
# 1 78.6318 23.2936 26.3085 0.0000 0.0000 0.0000
# 2 23.2936 66.8823 23.3002 0.0000 0.0000 0.0000
# 3 26.3085 23.3002 77.4485 0.0000 0.0000 0.0000
# 4 0.0000 0.0000 0.0000 30.1045 0.0000 0.0000
# 5 0.0000 0.0000 0.0000 0.0000 28.7233 0.0000
# 6 0.0000 0.0000 0.0000 0.0000 0.0000 111.3820
#
#
#
# Elastic Compliance Matrix: (Units=1/GPa)
#
#
# Indices 1 2 3 4 5 6 
#
# 1 0.015210 -0.003907 -0.003991 0.000000 0.000000 0.000000
# 2 -0.003907 0.017706 -0.004000 0.000000 0.000000 0.000000
# 3 -0.003991 -0.004000 0.015471 0.000000 0.000000 0.000000
# 4 0.000000 0.000000 0.000000 0.033218 0.000000 0.000000
# 5 0.000000 0.000000 0.000000 0.000000 0.034815 0.000000
# 6 0.000000 0.000000 0.000000 0.000000 0.000000 0.008978
#
#
# Mechanical properties :
#
#
# Convention : Reuss Voigt Hill
#
# Bulk Modulus (GPa) = 40.66509 40.97415 40.81962
# Shear Modulus (GPa) = 31.76813 44.04597 37.90705
#
# Velocity S-wave (km/s) = 3.98757 4.69533 4.35585
# Velocity P-wave (km/s) = 6.44630 7.06423 6.76233
#
# Compressibility (1/GPa) = 0.02459112
#
# Stress axis : x y z
#
# Youngs Moduli (GPa) = 65.74487 56.47907 64.63739
#
# Poissons Ratio (x) = 0.22066 0.25799
# Poissons Ratio (y) = 0.25686 0.25852
# Poissons Ratio (z) = 0.26242 0.22589
#
# Static dielectric constant tensor:
#      x y z
#    x 3.685140 0.000000 0.000000 
#    y 0.000000 3.876830 0.000000 
#    z 0.000000 0.000000 3.609510 
# 
# 
# High freq. dielectric constant tensor:
#      x y z
#    x 1.777220 0.000000 0.000000 
#    y 0.000000 1.781370 0.000000 
#    z 0.000000 0.000000 1.779850 
# 
# From -- ./inp_files/6529.got.cif
#   From: 2010.03.12/outbox.cif.g09.slc.cpg/sg49_4_cif.got.tgz:6529.got - 2010.04.14 03:58:27.
