data_PCOD8203594
_publ_section_title
;
Structure prediction by ZEFSAII (Michael W. Deem and Ramdas Pophale) SiO2 
 PCOD8203594
Probable space group: P C C M
;
_chemical_formula_sum "Si O2"
_cell_formula_units_Z 58
_cell_length_a 35.532601
_cell_length_b 10.184754
_cell_length_c 8.860385
_cell_angle_alpha 90.000000
_cell_angle_beta 90.000000
_cell_angle_gamma 90.000000
_cell_volume 3206.491817
_symmetry_space_group_name_H-M "P C C M"
_symmetry_group_IT_number 49
_symmetry_cell_setting 'orthorhombic'
loop_
_space_group_symop_operation_xyz
x,y,z
-x,-y,z
x,-y,1/2-z
-x,y,1/2-z
-x,-y,-z
x,y,-z
-x,y,1/2+z
x,-y,1/2+z
loop_
_atom_site_type_symbol
_atom_site_label
_atom_site_fract_x
_atom_site_fract_y
_atom_site_fract_z
Si Si1 0.181230 0.135369 0.178443
Si Si2 0.607229 0.355934 0.178962
Si Si3 0.500000 0.000000 0.250000
Si Si4 0.236366 0.358968 0.175807
Si Si5 0.535718 0.749262 0.167026
Si Si6 0.319470 0.641167 0.676234
Si Si7 0.039835 0.362522 0.179919
Si Si8 0.095655 0.865923 0.322929
O O1 0.206549 0.254701 0.241642
O O2 0.138351 0.163227 0.228923
O O3 0.195876 0.000000 0.250000
O O4 0.185234 0.123339 0.000000
O O5 0.602966 0.500000 0.250000
O O6 0.572445 0.268107 0.231203
O O7 0.645785 0.285761 0.240023
O O8 0.608156 0.364859 0.000000
O O9 0.526862 0.905184 0.150193
O O10 0.230077 0.500000 0.250000
O O11 0.278141 0.296802 0.204280
O O12 0.229674 0.381717 0.000000
O O13 0.500000 0.679158 0.250000
O O14 0.541556 0.688792 0.000000
O O15 0.317323 0.500000 0.750000
O O16 0.328983 0.630772 0.500000
O O17 0.053441 0.500000 0.250000
O O18 0.069996 0.254346 0.230980
O O19 0.000000 0.320800 0.250000
O O20 0.036375 0.375261 0.000000
O O21 0.093157 0.884745 0.500000
O O22 0.080433 0.000000 0.250000
#
# Coordination Sequence:
#
# PCOD8203594 Si02
#       8
#     8   8   2   8   8   8   8   8
#     4   9  18  34  52  73 102 135 169 209 255 305
#     4  11  21  33  51  76 104 132 164 201 246 294
#     4   8  22  36  60  72  98 124 166 198 246 284
#     4   9  18  31  51  77 104 132 168 209 253 302
#     4  10  20  35  55  76  99 128 162 200 241 287
#     4   9  16  29  48  71  99 130 160 197 243 290
#     4  10  20  34  51  73 100 133 168 208 256 306
#     4   9  19  34  52  73  99 131 170 211 254 303
#
# _framework density 18.088304000000001
#
# number of rings (size 3 to 8) (size 9 to 14) (size 15 to 20)
#    0.414    2.069    0.000    3.931    0.000    3.310 
#    0.000    2.759    1.517    0.000    0.000    0.000 
#    0.000    0.000    0.000    0.000    0.000    0.000 
#
# Total GULP energy -718778.411700 kJ/mol
# GULP energy per Si atom -12392.731236 kJ/mol
# Density = 1.804713 g / cm^3
# Si number density = 18.088304 Si / 1000 Ang^3
#
#
#
# Elastic Constant Matrix: (Units=GPa)
#
#
# Indices 1 2 3 4 5 6 
#
# 1 137.0093 82.2076 50.1457 0.0000 0.0000 0.0000
# 2 82.2076 101.9268 38.8023 0.0000 0.0000 0.0000
# 3 50.1457 38.8023 97.1282 0.0000 0.0000 0.0000
# 4 0.0000 0.0000 0.0000 25.3003 0.0000 0.0000
# 5 0.0000 0.0000 0.0000 0.0000 29.3017 0.0000
# 6 0.0000 0.0000 0.0000 0.0000 0.0000 12.4905
#
#
#
# Elastic Compliance Matrix: (Units=1/GPa)
#
#
# Indices 1 2 3 4 5 6 
#
# 1 0.015062 -0.010836 -0.003448 0.000000 0.000000 0.000000
# 2 -0.010836 0.019366 -0.002142 0.000000 0.000000 0.000000
# 3 -0.003448 -0.002142 0.012931 0.000000 0.000000 0.000000
# 4 0.000000 0.000000 0.000000 0.039525 0.000000 0.000000
# 5 0.000000 0.000000 0.000000 0.000000 0.034128 0.000000
# 6 0.000000 0.000000 0.000000 0.000000 0.000000 0.080061
#
#
# Mechanical properties :
#
#
# Convention : Reuss Voigt Hill
#
# Bulk Modulus (GPa) = 68.92559 75.37504 72.15031
# Shear Modulus (GPa) = 20.94149 24.41242 22.67696
#
# Velocity S-wave (km/s) = 3.40624 3.67771 3.54458
# Velocity P-wave (km/s) = 7.32515 7.73273 7.53170
#
# Compressibility (1/GPa) = 0.01450840
#
# Stress axis : x y z
#
# Youngs Moduli (GPa) = 66.39143 51.63708 77.33112
#
# Poissons Ratio (x) = 0.55953 0.26660
# Poissons Ratio (y) = 0.71940 0.16566
# Poissons Ratio (z) = 0.22889 0.11062
#
# Static dielectric constant tensor:
#      x y z
#    x 3.934300 0.000000 0.000000 
#    y 0.000000 3.125280 0.000000 
#    z 0.000000 0.000000 3.369110 
# 
# 
# High freq. dielectric constant tensor:
#      x y z
#    x 1.711610 0.000000 0.000000 
#    y 0.000000 1.669750 0.000000 
#    z 0.000000 0.000000 1.706600 
# 
# From -- ./inp_files/6974.got.cif
#   From: 2010.03.12/outbox.cif.g09.slc.cpg/sg49_4_cif.got.tgz:6974.got - 2010.04.14 03:58:27.
