data_PCOD8203485
_publ_section_title
;
Structure prediction by ZEFSAII (Michael W. Deem and Ramdas Pophale) SiO2 
 PCOD8203485
Probable space group: P C C M
;
_chemical_formula_sum "Si O2"
_cell_formula_units_Z 30
_cell_length_a 17.967577
_cell_length_b 8.143178
_cell_length_c 9.067744
_cell_angle_alpha 90.000000
_cell_angle_beta 90.000000
_cell_angle_gamma 90.000000
_cell_volume 1326.730440
_symmetry_space_group_name_H-M "P C C M"
_symmetry_group_IT_number 49
_symmetry_cell_setting 'orthorhombic'
loop_
_space_group_symop_operation_xyz
x,y,z
-x,-y,z
x,-y,1/2-z
-x,y,1/2-z
-x,-y,-z
x,y,-z
-x,y,1/2+z
x,-y,1/2+z
loop_
_atom_site_type_symbol
_atom_site_label
_atom_site_fract_x
_atom_site_fract_y
_atom_site_fract_z
Si Si1 0.716134 0.500000 0.250000
Si Si2 0.537922 0.769439 0.000000
Si Si3 0.870430 0.223110 0.000000
Si Si4 0.500000 0.000000 0.250000
Si Si5 0.614610 0.578885 0.500000
Si Si6 0.961223 0.779369 0.000000
Si Si7 0.185844 0.426699 0.000000
Si Si8 0.904513 0.000000 0.750000
O O1 0.663767 0.611709 0.354324
O O2 0.768271 0.380464 0.352002
O O3 0.550403 0.882267 0.854855
O O4 0.592517 0.614675 0.000000
O O5 0.453396 0.702902 0.000000
O O6 0.955675 0.293793 0.000000
O O7 0.853527 0.113865 0.145194
O O8 0.815746 0.375390 0.000000
O O9 0.956243 0.888942 0.145634
O O10 0.896697 0.643997 0.000000
#
# Coordination Sequence:
#
# PCOD8203485 Si02
#       8
#     4   4   4   2   4   4   4   4
#     4  10  22  37  57  82 114 150 190 232 264 320
#     4  10  20  36  64  94 116 146 182 230 272 318
#     4  11  20  36  57  82 106 139 185 238 287 338
#     4  10  20  32  56 100 134 136 160 238 302 304
#     4  10  20  39  65  84 108 154 202 216 252 332
#     4  11  20  36  57  82 106 139 185 238 287 338
#     4  11  23  37  57  81 111 146 188 236 285 319
#     4  10  21  34  56  81 109 138 176 233 298 347
#
# _framework density 22.611979000000002
#
# number of rings (size 3 to 8) (size 9 to 14) (size 15 to 20)
#    0.000    1.600    0.000    6.800    0.000    2.133 
#    0.000    4.000    0.000  112.000    0.000    0.000 
#    0.000    0.000    0.000    0.000    0.000    0.000 
#
# Total GULP energy -371803.460302 kJ/mol
# GULP energy per Si atom -12393.448677 kJ/mol
# Density = 2.256051 g / cm^3
# Si number density = 22.611979 Si / 1000 Ang^3
#
#
#
# Elastic Constant Matrix: (Units=GPa)
#
#
# Indices 1 2 3 4 5 6 
#
# 1 86.0388 35.9960 37.4947 0.0000 0.0000 0.0000
# 2 35.9960 99.0447 45.6568 0.0000 0.0000 0.0000
# 3 37.4947 45.6568 184.3217 0.0000 0.0000 0.0000
# 4 0.0000 0.0000 0.0000 29.4196 0.0000 0.0000
# 5 0.0000 0.0000 0.0000 0.0000 57.0123 0.0000
# 6 0.0000 0.0000 0.0000 0.0000 0.0000 15.4848
#
#
#
# Elastic Compliance Matrix: (Units=1/GPa)
#
#
# Indices 1 2 3 4 5 6 
#
# 1 0.014229 -0.004331 -0.001821 0.000000 0.000000 0.000000
# 2 -0.004331 0.012716 -0.002269 0.000000 0.000000 0.000000
# 3 -0.001821 -0.002269 0.006358 0.000000 0.000000 0.000000
# 4 0.000000 0.000000 0.000000 0.033991 0.000000 0.000000
# 5 0.000000 0.000000 0.000000 0.000000 0.017540 0.000000
# 6 0.000000 0.000000 0.000000 0.000000 0.000000 0.064579
#
#
# Mechanical properties :
#
#
# Convention : Reuss Voigt Hill
#
# Bulk Modulus (GPa) = 60.75545 67.52223 64.13884
# Shear Modulus (GPa) = 29.11324 37.06720 33.09022
#
# Velocity S-wave (km/s) = 3.59209 4.05319 3.82958
# Velocity P-wave (km/s) = 6.64313 7.19934 6.92682
#
# Compressibility (1/GPa) = 0.01645943
#
# Stress axis : x y z
#
# Youngs Moduli (GPa) = 70.28103 78.63802 157.28706
#
# Poissons Ratio (x) = 0.34062 0.28649
# Poissons Ratio (y) = 0.30442 0.35685
# Poissons Ratio (z) = 0.12801 0.17841
#
# Static dielectric constant tensor:
#      x y z
#    x 3.738810 0.000000 0.000000 
#    y 0.000000 3.871120 0.000000 
#    z 0.000000 0.000000 4.596810 
# 
# 
# High freq. dielectric constant tensor:
#      x y z
#    x 1.867020 0.000000 0.000000 
#    y 0.000000 1.861950 0.000000 
#    z 0.000000 0.000000 1.927190 
# 
# From -- ./inp_files/1507.got.cif
#   From: 2010.03.12/outbox.cif.g09.slc.cpg/sg49_1_cif.got.tgz:1507.got - 2010.04.14 03:58:27.
