data_PCOD8203448
_publ_section_title
;
Structure prediction by ZEFSAII (Michael W. Deem and Ramdas Pophale) SiO2 
 PCOD8203448
Probable space group: P C C M
;
_chemical_formula_sum "Si O2"
_cell_formula_units_Z 56
_cell_length_a 15.342927
_cell_length_b 24.509871
_cell_length_c 8.853312
_cell_angle_alpha 90.000000
_cell_angle_beta 90.000000
_cell_angle_gamma 90.000000
_cell_volume 3329.315968
_symmetry_space_group_name_H-M "P C C M"
_symmetry_group_IT_number 49
_symmetry_cell_setting 'orthorhombic'
loop_
_space_group_symop_operation_xyz
x,y,z
-x,-y,z
x,-y,1/2-z
-x,y,1/2-z
-x,-y,-z
x,y,-z
-x,y,1/2+z
x,-y,1/2+z
loop_
_atom_site_type_symbol
_atom_site_label
_atom_site_fract_x
_atom_site_fract_y
_atom_site_fract_z
Si Si1 0.413759 0.742873 0.330347
Si Si2 0.094011 0.328279 0.176120
Si Si3 0.907971 0.942493 0.179790
Si Si4 0.586748 0.872771 0.829308
Si Si5 0.905924 0.448518 0.324551
Si Si6 0.762970 0.872003 0.673595
Si Si7 0.238299 0.742961 0.172771
O O1 0.500000 0.719320 0.250000
O O2 0.410558 0.719947 0.500000
O O3 0.416694 0.807833 0.330245
O O4 0.328749 0.721705 0.242926
O O5 0.135581 0.388758 0.205765
O O6 0.157941 0.283398 0.241574
O O7 0.000000 0.321337 0.250000
O O8 0.081905 0.317567 0.000000
O O9 0.837829 0.897251 0.223138
O O10 0.000000 0.924313 0.250000
O O11 0.878239 0.000000 0.250000
O O12 0.916323 0.947418 0.000000
O O13 0.500000 0.896345 0.750000
O O14 0.670002 0.893137 0.734726
O O15 0.592422 0.895376 0.000000
O O16 0.853174 0.500000 0.250000
O O17 0.914837 0.460413 0.500000
O O18 0.000000 0.446861 0.250000
O O19 0.773127 0.890453 0.500000
O O20 0.770428 0.807457 0.690596
O O21 0.236377 0.724545 0.000000
#
# Coordination Sequence:
#
# PCOD8203448 Si02
#       7
#     8   8   8   8   8   8   8
#     4   9  16  27  44  65  91 121 155 193 232 274
#     4  10  20  32  45  63  91 126 161 195 234 278
#     4  11  22  38  58  77  96 120 153 195 239 279
#     4   9  16  27  45  70  97 126 156 188 227 272
#     4   9  16  26  42  62  83 112 151 194 234 273
#     4  10  20  34  51  73  98 125 158 194 232 278
#     4  10  20  32  47  68  96 128 160 193 232 278
#
# _framework density 16.820271000000002
#
# number of rings (size 3 to 8) (size 9 to 14) (size 15 to 20)
#    0.000    2.286    0.000    4.714    0.000    7.429 
#    0.000    0.000    0.000    0.429    0.000    3.000 
#    0.000    0.571    0.000    6.000    0.000    3.571 
#
# Total GULP energy -694244.762553 kJ/mol
# GULP energy per Si atom -12397.227903 kJ/mol
# Density = 1.678199 g / cm^3
# Si number density = 16.820271 Si / 1000 Ang^3
#
#
#
# Elastic Constant Matrix: (Units=GPa)
#
#
# Indices 1 2 3 4 5 6 
#
# 1 112.9767 36.0550 60.3426 0.0000 0.0000 0.0000
# 2 36.0550 32.0300 35.1096 0.0000 0.0000 0.0000
# 3 60.3426 35.1096 147.3337 0.0000 0.0000 0.0000
# 4 0.0000 0.0000 0.0000 23.7515 0.0000 0.0000
# 5 0.0000 0.0000 0.0000 0.0000 33.0403 0.0000
# 6 0.0000 0.0000 0.0000 0.0000 0.0000 0.1632
#
#
#
# Elastic Compliance Matrix: (Units=1/GPa)
#
#
# Indices 1 2 3 4 5 6 
#
# 1 0.014618 -0.013390 -0.002796 0.000000 0.000000 0.000000
# 2 -0.013390 0.054525 -0.007509 0.000000 0.000000 0.000000
# 3 -0.002796 -0.007509 0.009722 0.000000 0.000000 0.000000
# 4 0.000000 0.000000 0.000000 0.042103 0.000000 0.000000
# 5 0.000000 0.000000 0.000000 0.000000 0.030266 0.000000
# 6 0.000000 0.000000 0.000000 0.000000 0.000000 6.128665
#
#
# Mechanical properties :
#
#
# Convention : Reuss Voigt Hill
#
# Bulk Modulus (GPa) = 31.77232 61.70610 46.73921
# Shear Modulus (GPa) = 0.78892 22.11321 11.45106
#
# Velocity S-wave (km/s) = 0.68560 3.62978 2.61202
# Velocity P-wave (km/s) = 4.42233 7.37104 6.07821
#
# Compressibility (1/GPa) = 0.03147393
#
# Stress axis : x y z
#
# Youngs Moduli (GPa) = 68.40813 18.34031 102.85985
#
# Poissons Ratio (x) = 0.24558 0.28762
# Poissons Ratio (y) = 0.91599 0.77239
# Poissons Ratio (z) = 0.19128 0.13772
#
# Static dielectric constant tensor:
#      x y z
#    x 3.097910 0.000000 0.000000 
#    y 0.000000 3.227910 0.000000 
#    z 0.000000 0.000000 3.413480 
# 
# 
# High freq. dielectric constant tensor:
#      x y z
#    x 1.635220 0.000000 0.000000 
#    y 0.000000 1.612620 0.000000 
#    z 0.000000 0.000000 1.673800 
# 
# From -- ./inp_files/4098.got.cif
#   From: 2010.03.12/outbox.cif.g09.slc.cpg/sg49_3_cif.got.tgz:4098.got - 2010.04.14 03:58:27.
