data_PCOD8203744
_publ_section_title
;
Structure prediction by ZEFSAII (Michael W. Deem and Ramdas Pophale) SiO2 
 PCOD8203744
Probable space group: P C C M
;
_chemical_formula_sum "Si O2"
_cell_formula_units_Z 48
_cell_length_a 9.454864
_cell_length_b 30.171785
_cell_length_c 8.659434
_cell_angle_alpha 90.000000
_cell_angle_beta 90.000000
_cell_angle_gamma 90.000000
_cell_volume 2470.277809
_symmetry_space_group_name_H-M "P C C M"
_symmetry_group_IT_number 49
_symmetry_cell_setting 'orthorhombic'
loop_
_space_group_symop_operation_xyz
x,y,z
-x,-y,z
x,-y,1/2-z
-x,y,1/2-z
-x,-y,-z
x,y,-z
-x,y,1/2+z
x,-y,1/2+z
loop_
_atom_site_type_symbol
_atom_site_label
_atom_site_fract_x
_atom_site_fract_y
_atom_site_fract_z
Si Si1 0.845453 0.455047 0.316876
Si Si2 0.345639 0.121048 0.318057
Si Si3 0.148099 0.951562 0.683495
Si Si4 0.153651 0.795150 0.818989
Si Si5 0.646605 0.622582 0.181808
Si Si6 0.650017 0.722741 0.182577
O O1 0.774319 0.500000 0.250000
O O2 0.849619 0.458208 0.500000
O O3 0.763152 0.411721 0.257678
O O4 0.000000 0.449956 0.250000
O O5 0.500000 0.129383 0.250000
O O6 0.354391 0.112491 0.500000
O O7 0.277602 0.078730 0.235733
O O8 0.251747 0.163454 0.276646
O O9 0.138227 0.953458 0.500000
O O10 0.000000 0.932591 0.750000
O O11 0.177459 0.000000 0.750000
O O12 0.221209 0.751404 0.746104
O O13 0.000000 0.803950 0.750000
O O14 0.139602 0.788066 0.000000
O O15 0.500000 0.605918 0.250000
O O16 0.681677 0.672461 0.237474
O O17 0.634989 0.621396 0.000000
O O18 0.500000 0.739312 0.250000
O O19 0.642428 0.727360 0.000000
#
# Coordination Sequence:
#
# PCOD8203744 Si02
#       6
#     8   8   8   8   8   8
#     4  10  20  35  53  76 105 139 180 223 272 325
#     4  11  24  41  61  87 118 153 193 236 285 337
#     4  11  22  39  63  90 121 156 195 238 286 338
#     4  11  24  40  60  86 116 150 189 234 282 334
#     4   9  20  36  55  80 109 142 180 223 271 326
#     4  10  20  37  59  83 113 147 185 228 277 333
#
# _framework density 19.431013
#
# number of rings (size 3 to 8) (size 9 to 14) (size 15 to 20)
#    0.000    1.667    0.000    5.500    0.000    8.667 
#    0.000    5.000    0.000    0.000    0.000    0.000 
#    0.000    0.000    0.000    0.000    0.000    0.000 
#
# Total GULP energy -595371.034096 kJ/mol
# GULP energy per Si atom -12403.563210 kJ/mol
# Density = 1.938679 g / cm^3
# Si number density = 19.431013 Si / 1000 Ang^3
#
#
#
# Elastic Constant Matrix: (Units=GPa)
#
#
# Indices 1 2 3 4 5 6 
#
# 1 140.6936 78.2590 60.8437 0.0000 0.0000 0.0000
# 2 78.2590 114.7418 55.8466 0.0000 0.0000 0.0000
# 3 60.8437 55.8466 103.2523 0.0000 0.0000 0.0000
# 4 0.0000 0.0000 0.0000 27.8623 0.0000 0.0000
# 5 0.0000 0.0000 0.0000 0.0000 36.0037 0.0000
# 6 0.0000 0.0000 0.0000 0.0000 0.0000 41.3736
#
#
#
# Elastic Compliance Matrix: (Units=1/GPa)
#
#
# Indices 1 2 3 4 5 6 
#
# 1 0.012421 -0.006663 -0.003715 0.000000 0.000000 0.000000
# 2 -0.006663 0.015404 -0.004405 0.000000 0.000000 0.000000
# 3 -0.003715 -0.004405 0.014257 0.000000 0.000000 0.000000
# 4 0.000000 0.000000 0.000000 0.035891 0.000000 0.000000
# 5 0.000000 0.000000 0.000000 0.000000 0.027775 0.000000
# 6 0.000000 0.000000 0.000000 0.000000 0.000000 0.024170
#
#
# Mechanical properties :
#
#
# Convention : Reuss Voigt Hill
#
# Bulk Modulus (GPa) = 79.90806 83.17624 81.54215
# Shear Modulus (GPa) = 30.55200 31.96381 31.25790
#
# Velocity S-wave (km/s) = 3.96957 4.06025 4.01516
# Velocity P-wave (km/s) = 7.88817 8.05479 7.97191
#
# Compressibility (1/GPa) = 0.01251438
#
# Stress axis : x y z
#
# Youngs Moduli (GPa) = 80.51152 64.91882 70.14150
#
# Poissons Ratio (x) = 0.43256 0.26059
# Poissons Ratio (y) = 0.53646 0.30898
# Poissons Ratio (z) = 0.29911 0.28598
#
# Static dielectric constant tensor:
#      x y z
#    x 3.577720 0.000000 0.000000 
#    y 0.000000 3.877300 0.000000 
#    z 0.000000 0.000000 3.794000 
# 
# 
# High freq. dielectric constant tensor:
#      x y z
#    x 1.757260 0.000000 0.000000 
#    y 0.000000 1.769100 0.000000 
#    z 0.000000 0.000000 1.769670 
# 
# From -- ./inp_files/2076.got.cif
#   From: 2010.03.12/outbox.cif.g09.slc.cpg/sg49_2_cif.got.tgz:2076.got - 2010.04.14 03:58:27.
