data_PCOD8203104
_publ_section_title
;
Structure prediction by ZEFSAII (Michael W. Deem and Ramdas Pophale) SiO2 
 PCOD8203104
Probable space group: P C C M
;
_chemical_formula_sum "Si O2"
_cell_formula_units_Z 64
_cell_length_a 14.966596
_cell_length_b 24.776476
_cell_length_c 8.797574
_cell_angle_alpha 90.000000
_cell_angle_beta 90.000000
_cell_angle_gamma 90.000000
_cell_volume 3262.312050
_symmetry_space_group_name_H-M "P C C M"
_symmetry_group_IT_number 49
_symmetry_cell_setting 'orthorhombic'
loop_
_space_group_symop_operation_xyz
x,y,z
-x,-y,z
x,-y,1/2-z
-x,y,1/2-z
-x,-y,-z
x,y,-z
-x,y,1/2+z
x,-y,1/2+z
loop_
_atom_site_type_symbol
_atom_site_label
_atom_site_fract_x
_atom_site_fract_y
_atom_site_fract_z
Si Si1 0.270609 0.054004 0.819461
Si Si2 0.279577 0.642172 0.823303
Si Si3 0.333382 0.168087 0.829487
Si Si4 0.089847 0.313905 0.679658
Si Si5 0.407353 0.558256 0.680260
Si Si6 0.910449 0.090300 0.179620
Si Si7 0.411865 0.735145 0.825116
Si Si8 0.131467 0.200091 0.173396
O O1 0.328648 0.106241 0.769927
O O2 0.171698 0.058573 0.752706
O O3 0.315761 0.000000 0.750000
O O4 0.264066 0.050939 0.000000
O O5 0.174721 0.647875 0.782605
O O6 0.323505 0.595748 0.721782
O O7 0.326505 0.698925 0.782499
O O8 0.293337 0.627686 0.000000
O O9 0.398876 0.202937 0.725675
O O10 0.237569 0.196080 0.822375
O O11 0.371275 0.169186 0.000000
O O12 0.080824 0.306008 0.500000
O O13 0.100545 0.256344 0.758307
O O14 0.000000 0.341014 0.750000
O O15 0.387487 0.500000 0.750000
O O16 0.500000 0.581585 0.750000
O O17 0.417274 0.554073 0.500000
O O18 0.909718 0.153340 0.223232
O O19 0.000000 0.064206 0.250000
O O20 0.907856 0.083135 0.000000
O O21 0.500000 0.709783 0.750000
O O22 0.431340 0.735143 0.000000
O O23 0.096835 0.194147 0.000000
#
# Coordination Sequence:
#
# PCOD8203104 Si02
#       8
#     8   8   8   8   8   8   8   8
#     4  10  21  37  55  77 100 132 176 224 278 339
#     4  10  22  39  58  86 123 160 201 247 290 344
#     4   9  19  35  55  78 108 141 179 225 275 336
#     4  11  22  36  54  80 115 156 202 247 292 343
#     4  11  22  38  63  92 125 163 203 246 295 350
#     4  11  21  33  49  70  99 134 175 226 281 338
#     4  11  22  36  57  86 119 153 188 227 284 345
#     4  10  19  33  52  75 105 143 187 233 281 337
#
# _framework density 19.617988
#
# number of rings (size 3 to 8) (size 9 to 14) (size 15 to 20)
#    0.000    1.625    1.250    5.625    0.000    5.750 
#    0.000    1.250    0.000    0.750    0.000    5.250 
#    0.000    0.000    0.000    0.000    0.000    0.000 
#
# Total GULP energy -793634.052282 kJ/mol
# GULP energy per Si atom -12400.532067 kJ/mol
# Density = 1.957334 g / cm^3
# Si number density = 19.617988 Si / 1000 Ang^3
#
#
#
# Elastic Constant Matrix: (Units=GPa)
#
#
# Indices 1 2 3 4 5 6 
#
# 1 93.7470 39.5809 44.8528 0.0000 0.0000 0.0000
# 2 39.5809 90.0954 46.6092 0.0000 0.0000 0.0000
# 3 44.8528 46.6092 115.2801 0.0000 0.0000 0.0000
# 4 0.0000 0.0000 0.0000 31.2311 0.0000 0.0000
# 5 0.0000 0.0000 0.0000 0.0000 31.2078 0.0000
# 6 0.0000 0.0000 0.0000 0.0000 0.0000 13.2182
#
#
#
# Elastic Compliance Matrix: (Units=1/GPa)
#
#
# Indices 1 2 3 4 5 6 
#
# 1 0.014318 -0.004310 -0.003828 0.000000 0.000000 0.000000
# 2 -0.004310 0.015332 -0.004522 0.000000 0.000000 0.000000
# 3 -0.003828 -0.004522 0.011992 0.000000 0.000000 0.000000
# 4 0.000000 0.000000 0.000000 0.032019 0.000000 0.000000
# 5 0.000000 0.000000 0.000000 0.000000 0.032043 0.000000
# 6 0.000000 0.000000 0.000000 0.000000 0.000000 0.075653
#
#
# Mechanical properties :
#
#
# Convention : Reuss Voigt Hill
#
# Bulk Modulus (GPa) = 61.26622 62.35649 61.81136
# Shear Modulus (GPa) = 23.57155 26.33674 24.95415
#
# Velocity S-wave (km/s) = 3.47007 3.66796 3.57038
# Velocity P-wave (km/s) = 6.88132 7.05641 6.96942
#
# Compressibility (1/GPa) = 0.01632221
#
# Stress axis : x y z
#
# Youngs Moduli (GPa) = 69.84047 65.22229 83.38580
#
# Poissons Ratio (x) = 0.28109 0.31924
# Poissons Ratio (y) = 0.30100 0.37708
# Poissons Ratio (z) = 0.26738 0.29495
#
# Static dielectric constant tensor:
#      x y z
#    x 3.616200 0.000000 0.000000 
#    y 0.000000 3.496150 0.000000 
#    z 0.000000 0.000000 3.620730 
# 
# 
# High freq. dielectric constant tensor:
#      x y z
#    x 1.754180 0.000000 0.000000 
#    y 0.000000 1.747940 0.000000 
#    z 0.000000 0.000000 1.774100 
# 
# From -- ./inp_files/4422.got.cif
#   From: 2010.03.12/outbox.cif.g09.slc.cpg/sg49_3_cif.got.tgz:4422.got - 2010.04.14 03:58:27.
