data_PCOD8203012
_publ_section_title
;
Structure prediction by ZEFSAII (Michael W. Deem and Ramdas Pophale) SiO2 
 PCOD8203012
Probable space group: P C C M
;
_chemical_formula_sum "Si O2"
_cell_formula_units_Z 64
_cell_length_a 24.840758
_cell_length_b 14.930617
_cell_length_c 8.652329
_cell_angle_alpha 90.000000
_cell_angle_beta 90.000000
_cell_angle_gamma 90.000000
_cell_volume 3209.043646
_symmetry_space_group_name_H-M "P C C M"
_symmetry_group_IT_number 49
_symmetry_cell_setting 'orthorhombic'
loop_
_space_group_symop_operation_xyz
x,y,z
-x,-y,z
x,-y,1/2-z
-x,y,1/2-z
-x,-y,-z
x,y,-z
-x,y,1/2+z
x,-y,1/2+z
loop_
_atom_site_type_symbol
_atom_site_label
_atom_site_fract_x
_atom_site_fract_y
_atom_site_fract_z
Si Si1 0.053744 0.774937 0.179010
Si Si2 0.727398 0.092430 0.823270
Si Si3 0.087058 0.409775 0.178256
Si Si4 0.316703 0.406427 0.681737
Si Si5 0.206608 0.637699 0.675786
Si Si6 0.441437 0.905421 0.816477
Si Si7 0.169407 0.812571 0.175701
Si Si8 0.353670 0.776326 0.317362
O O1 0.061008 0.673702 0.235457
O O2 0.107263 0.832951 0.223027
O O3 0.000000 0.819325 0.250000
O O4 0.043689 0.773146 0.000000
O O5 0.792578 0.100044 0.812966
O O6 0.701299 0.174201 0.730402
O O7 0.708189 0.000000 0.750000
O O8 0.707263 0.096045 0.000000
O O9 0.062091 0.500000 0.250000
O O10 0.151357 0.415232 0.202982
O O11 0.071550 0.401774 0.000000
O O12 0.338808 0.500000 0.750000
O O13 0.327151 0.402459 0.500000
O O14 0.252678 0.400298 0.712727
O O15 0.349520 0.326284 0.762776
O O16 0.227479 0.629161 0.500000
O O17 0.195060 0.741134 0.709688
O O18 0.500000 0.884393 0.750000
O O19 0.403233 0.824508 0.766286
O O20 0.419483 0.000000 0.750000
O O21 0.444071 0.912196 0.000000
O O22 0.169969 0.774217 0.000000
O O23 0.361897 0.780032 0.500000
#
# Coordination Sequence:
#
# PCOD8203012 Si02
#       8
#     8   8   8   8   8   8   8   8
#     4  10  20  35  53  73  95 129 173 225 280 343
#     4  11  22  37  58  88 121 157 192 235 292 358
#     4  10  20  32  47  70  98 131 172 222 276 338
#     4  12  24  38  56  82 117 160 206 252 299 351
#     4  10  19  32  52  77 106 143 187 232 283 341
#     4  11  22  40  65  96 131 170 212 257 304 359
#     4   9  19  35  55  76 107 144 182 226 283 345
#     4  12  24  40  61  90 126 165 206 253 301 353
#
# _framework density 19.943636999999999
#
# number of rings (size 3 to 8) (size 9 to 14) (size 15 to 20)
#    0.000    1.375    1.250    6.000    0.000    3.750 
#    0.000    1.250    0.000    0.750    0.000    5.250 
#    0.000    0.000    0.000    0.000    0.000    0.000 
#
# Total GULP energy -793581.494413 kJ/mol
# GULP energy per Si atom -12399.710850 kJ/mol
# Density = 1.989824 g / cm^3
# Si number density = 19.943637 Si / 1000 Ang^3
#
#
#
# Elastic Constant Matrix: (Units=GPa)
#
#
# Indices 1 2 3 4 5 6 
#
# 1 102.7317 38.7917 38.8790 0.0000 0.0000 0.0000
# 2 38.7917 92.8983 39.7897 0.0000 0.0000 0.0000
# 3 38.8790 39.7897 127.9541 0.0000 0.0000 0.0000
# 4 0.0000 0.0000 0.0000 26.3127 0.0000 0.0000
# 5 0.0000 0.0000 0.0000 0.0000 31.4563 0.0000
# 6 0.0000 0.0000 0.0000 0.0000 0.0000 14.9576
#
#
#
# Elastic Compliance Matrix: (Units=1/GPa)
#
#
# Indices 1 2 3 4 5 6 
#
# 1 0.012186 -0.004041 -0.002446 0.000000 0.000000 0.000000
# 2 -0.004041 0.013758 -0.003051 0.000000 0.000000 0.000000
# 3 -0.002446 -0.003051 0.009507 0.000000 0.000000 0.000000
# 4 0.000000 0.000000 0.000000 0.038005 0.000000 0.000000
# 5 0.000000 0.000000 0.000000 0.000000 0.031790 0.000000
# 6 0.000000 0.000000 0.000000 0.000000 0.000000 0.066856
#
#
# Mechanical properties :
#
#
# Convention : Reuss Voigt Hill
#
# Bulk Modulus (GPa) = 61.06369 62.05611 61.55990
# Shear Modulus (GPa) = 25.42779 28.28687 26.85733
#
# Velocity S-wave (km/s) = 3.57456 3.77017 3.67367
# Velocity P-wave (km/s) = 6.90806 7.08065 6.99488
#
# Compressibility (1/GPa) = 0.01637635
#
# Stress axis : x y z
#
# Youngs Moduli (GPa) = 82.06423 72.68302 105.18332
#
# Poissons Ratio (x) = 0.29369 0.25729
# Poissons Ratio (y) = 0.33159 0.32088
# Poissons Ratio (z) = 0.20074 0.22173
#
# Static dielectric constant tensor:
#      x y z
#    x 3.696650 0.000000 0.000000 
#    y 0.000000 3.489940 0.000000 
#    z 0.000000 0.000000 3.729970 
# 
# 
# High freq. dielectric constant tensor:
#      x y z
#    x 1.770280 0.000000 0.000000 
#    y 0.000000 1.754130 0.000000 
#    z 0.000000 0.000000 1.793990 
# 
# From -- ./inp_files/6522.got.cif
#   From: 2010.03.12/outbox.cif.g09.slc.cpg/sg49_4_cif.got.tgz:6522.got - 2010.04.14 03:58:27.
