data_PCOD8203356
_publ_section_title
;
Structure prediction by ZEFSAII (Michael W. Deem and Ramdas Pophale) SiO2 
 PCOD8203356
Probable space group: P C C M
;
_chemical_formula_sum "Si O2"
_cell_formula_units_Z 48
_cell_length_a 8.662903
_cell_length_b 15.256448
_cell_length_c 16.659693
_cell_angle_alpha 90.000000
_cell_angle_beta 90.000000
_cell_angle_gamma 90.000000
_cell_volume 2201.830477
_symmetry_space_group_name_H-M "P C C M"
_symmetry_group_IT_number 49
_symmetry_cell_setting 'orthorhombic'
loop_
_space_group_symop_operation_xyz
x,y,z
-x,-y,z
x,-y,1/2-z
-x,y,1/2-z
-x,-y,-z
x,y,-z
-x,y,1/2+z
x,-y,1/2+z
loop_
_atom_site_type_symbol
_atom_site_label
_atom_site_fract_x
_atom_site_fract_y
_atom_site_fract_z
Si Si1 0.670464 0.991019 0.154196
Si Si2 0.821956 0.819057 0.834369
Si Si3 0.616449 0.352753 0.672462
Si Si4 0.819482 0.500788 0.405392
Si Si5 0.844709 0.158088 0.845777
Si Si6 0.323970 0.682524 0.909983
O O1 0.723834 0.895269 0.122797
O O2 0.500000 0.000000 0.117809
O O3 0.663413 0.000000 0.250000
O O4 0.781833 0.066801 0.116775
O O5 0.734049 0.727852 0.824092
O O6 0.859948 0.858169 0.748043
O O7 0.987634 0.811195 0.880630
O O8 0.500000 0.362636 0.750000
O O9 0.721498 0.437323 0.653207
O O10 0.506112 0.336007 0.596704
O O11 0.788564 0.479889 0.500000
O O12 0.767400 0.597363 0.380459
O O13 0.000000 0.500000 0.385032
O O14 0.720795 0.234979 0.856616
O O15 0.278742 0.705593 0.000000
#
# Coordination Sequence:
#
# PCOD8203356 Si02
#       6
#     8   8   8   8   8   8
#     4   9  17  29  55  85 120 155 193 244 302 365
#     4  10  20  34  57  88 122 155 196 252 309 359
#     4  12  23  39  61  91 124 159 203 263 313 365
#     4  10  23  44  66  88 119 166 215 257 314 388
#     4  10  19  36  57  88 120 156 202 247 302 365
#     4  11  23  40  62  86 120 163 202 250 310 377
#
# _framework density 21.800042999999999
#
# number of rings (size 3 to 8) (size 9 to 14) (size 15 to 20)
#    0.000    1.667    1.667    3.500    2.333    4.667 
#    0.000    1.667    0.000    7.500    0.000    0.000 
#    0.000    0.000    0.000    0.000    0.000    0.000 
#
# Total GULP energy -594765.392400 kJ/mol
# GULP energy per Si atom -12390.945675 kJ/mol
# Density = 2.175043 g / cm^3
# Si number density = 21.800043 Si / 1000 Ang^3
#
#
#
# Elastic Constant Matrix: (Units=GPa)
#
#
# Indices 1 2 3 4 5 6 
#
# 1 133.0833 30.9523 27.2956 0.0000 0.0000 0.0000
# 2 30.9523 110.7104 36.3500 0.0000 0.0000 0.0000
# 3 27.2956 36.3500 29.6822 0.0000 0.0000 0.0000
# 4 0.0000 0.0000 0.0000 5.7709 0.0000 0.0000
# 5 0.0000 0.0000 0.0000 0.0000 18.7045 0.0000
# 6 0.0000 0.0000 0.0000 0.0000 0.0000 45.6105
#
#
#
# Elastic Compliance Matrix: (Units=1/GPa)
#
#
# Indices 1 2 3 4 5 6 
#
# 1 0.009269 0.000347 -0.008948 0.000000 0.000000 0.000000
# 2 0.000347 0.015120 -0.018835 0.000000 0.000000 0.000000
# 3 -0.008948 -0.018835 0.064985 0.000000 0.000000 0.000000
# 4 0.000000 0.000000 0.000000 0.173282 0.000000 0.000000
# 5 0.000000 0.000000 0.000000 0.000000 0.053463 0.000000
# 6 0.000000 0.000000 0.000000 0.000000 0.000000 0.021925
#
#
# Mechanical properties :
#
#
# Convention : Reuss Voigt Hill
#
# Bulk Modulus (GPa) = 28.98498 51.40796 40.19647
# Shear Modulus (GPa) = 12.36350 25.94240 19.15295
#
# Velocity S-wave (km/s) = 2.38404 3.45340 2.96729
# Velocity P-wave (km/s) = 4.57197 6.28761 5.49713
#
# Compressibility (1/GPa) = 0.03450063
#
# Stress axis : x y z
#
# Youngs Moduli (GPa) = 107.88995 66.13798 15.38820
#
# Poissons Ratio (x) = -0.02292 0.13769
# Poissons Ratio (y) = -0.03739 0.28984
# Poissons Ratio (z) = 0.96538 1.24572
#
# Static dielectric constant tensor:
#      x y z
#    x 4.364990 0.000000 0.000000 
#    y 0.000000 3.911740 0.000000 
#    z 0.000000 0.000000 3.472860 
# 
# 
# High freq. dielectric constant tensor:
#      x y z
#    x 1.878830 0.000000 0.000000 
#    y 0.000000 1.868080 0.000000 
#    z 0.000000 0.000000 1.806540 
# 
# From -- ./inp_files/16326.got.cif
#   From: 2010.03.12/outbox.cif.g09.slc.cpg/sg49_9_cif.got.tgz:16326.got - 2010.04.14 03:58:27.
