data_PCOD8203613
_publ_section_title
;
Structure prediction by ZEFSAII (Michael W. Deem and Ramdas Pophale) SiO2 
 PCOD8203613
Probable space group: P C C M
;
_chemical_formula_sum "Si O2"
_cell_formula_units_Z 56
_cell_length_a 14.366355
_cell_length_b 12.196564
_cell_length_c 17.272295
_cell_angle_alpha 90.000000
_cell_angle_beta 90.000000
_cell_angle_gamma 90.000000
_cell_volume 3026.454435
_symmetry_space_group_name_H-M "P C C M"
_symmetry_group_IT_number 49
_symmetry_cell_setting 'orthorhombic'
loop_
_space_group_symop_operation_xyz
x,y,z
-x,-y,z
x,-y,1/2-z
-x,y,1/2-z
-x,-y,-z
x,y,-z
-x,y,1/2+z
x,-y,1/2+z
loop_
_atom_site_type_symbol
_atom_site_label
_atom_site_fract_x
_atom_site_fract_y
_atom_site_fract_z
Si Si1 0.252555 0.336274 0.158692
Si Si2 0.191794 0.124603 0.908852
Si Si3 1.000000 0.871409 0.664185
Si Si4 0.191794 0.124603 0.591148
Si Si5 0.892164 0.500000 0.591899
Si Si6 0.607333 0.500000 0.908634
Si Si7 0.252555 0.663726 0.841308
O O1 0.260842 0.208831 0.133603
O O2 0.159774 0.392082 0.123759
O O3 0.345506 0.392335 0.126789
O O4 0.248845 0.347873 0.250000
O O5 0.089105 0.164195 0.884832
O O6 0.212809 0.000000 0.881262
O O7 0.203076 0.134556 0.000000
O O8 0.000000 0.816255 0.750000
O O9 0.910895 0.835805 0.615168
O O10 0.000000 0.000000 0.675107
O O11 0.203077 0.134556 0.500000
O O12 0.260842 0.208831 0.633603
O O13 0.884953 0.500000 0.500000
O O14 0.840226 0.607918 0.623759
O O15 0.000000 0.500000 0.619249
O O16 0.500000 0.500000 0.884811
O O17 0.654495 0.392335 0.873211
O O18 0.622123 0.500001 0.000000
#
# Coordination Sequence:
#
# PCOD8203613 Si02
#       7
#     8   8   8   8   8   8   8
#     4  11  22  35  55  82 112 142 178 226 274 327
#     4  10  20  34  52  74 106 148 190 228 266 316
#     4   9  17  29  45  68  99 138 185 229 266 305
#     4  10  20  34  52  74 106 148 190 228 266 316
#     4  10  21  36  53  73 104 146 187 227 268 318
#     4  10  21  40  65  87 108 136 175 223 272 330
#     4  11  22  35  55  82 112 142 178 226 274 327
#
# _framework density 18.503499999999999
#
# number of rings (size 3 to 8) (size 9 to 14) (size 15 to 20)
#    0.000    1.857    0.000    6.429    2.000    5.714 
#    0.000    0.000    0.000    0.857    0.000    6.000 
#    0.000    0.000    0.000    0.000    0.000    0.000 
#
# Total GULP energy -694360.237834 kJ/mol
# GULP energy per Si atom -12399.289961 kJ/mol
# Density = 1.846139 g / cm^3
# Si number density = 18.503500 Si / 1000 Ang^3
#
#
#
# Elastic Constant Matrix: (Units=GPa)
#
#
# Indices 1 2 3 4 5 6 
#
# 1 119.9425 61.7369 52.3296 0.0000 0.0000 0.0000
# 2 61.7369 133.8628 48.6946 0.0000 0.0000 0.0000
# 3 52.3296 48.6946 115.4784 0.0000 0.0000 0.0000
# 4 0.0000 0.0000 0.0000 28.6748 0.0000 0.0000
# 5 0.0000 0.0000 0.0000 0.0000 -3.1007 0.0000
# 6 0.0000 0.0000 0.0000 0.0000 0.0000 6.5980
#
#
#
# Elastic Compliance Matrix: (Units=1/GPa)
#
#
# Indices 1 2 3 4 5 6 
#
# 1 0.012144 -0.004251 -0.003711 0.000000 0.000000 0.000000
# 2 -0.004251 0.010312 -0.002422 0.000000 0.000000 0.000000
# 3 -0.003711 -0.002422 0.011362 0.000000 0.000000 0.000000
# 4 0.000000 0.000000 0.000000 0.034874 0.000000 0.000000
# 5 0.000000 0.000000 0.000000 0.000000 -0.322507 0.000000
# 6 0.000000 0.000000 0.000000 0.000000 0.000000 0.151562
#
#
# Mechanical properties :
#
#
# Convention : Reuss Voigt Hill
#
# Bulk Modulus (GPa) = 76.62055 77.20064 76.91059
# Shear Modulus (GPa) = -64.82140 20.20259 -22.30940
#
# Velocity S-wave (km/s) = -5.92520 3.30786 -3.47607
# Velocity P-wave (km/s) = 2.30480 7.51013 5.05420
#
# Compressibility (1/GPa) = 0.01305133
#
# Stress axis : x y z
#
# Youngs Moduli (GPa) = 82.34242 96.97506 88.00958
#
# Poissons Ratio (x) = 0.41225 0.32658
# Poissons Ratio (y) = 0.35005 0.21315
# Poissons Ratio (z) = 0.30555 0.23486
#
# Static dielectric constant tensor:
#      x y z
#    x 3.252740 0.000000 0.000000 
#    y 0.000000 3.552530 0.000000 
#    z 0.000000 0.000000 3.502430 
# 
# 
# High freq. dielectric constant tensor:
#      x y z
#    x 1.680250 0.000000 0.000000 
#    y 0.000000 1.722530 0.000000 
#    z 0.000000 0.000000 1.736400 
# 
# From -- ./inp_files/12854.got.cif
#   From: 2010.03.12/outbox.cif.g09.slc.cpg/sg49_7_cif.got.tgz:12854.got - 2010.04.14 03:58:27.
