data_PCOD8203499
_publ_section_title
;
Structure prediction by ZEFSAII (Michael W. Deem and Ramdas Pophale) SiO2 
 PCOD8203499
Probable space group: P C C M
;
_chemical_formula_sum "Si O2"
_cell_formula_units_Z 64
_cell_length_a 24.518356
_cell_length_b 15.042785
_cell_length_c 8.792856
_cell_angle_alpha 90.000000
_cell_angle_beta 90.000000
_cell_angle_gamma 90.000000
_cell_volume 3243.019468
_symmetry_space_group_name_H-M "P C C M"
_symmetry_group_IT_number 49
_symmetry_cell_setting 'orthorhombic'
loop_
_space_group_symop_operation_xyz
x,y,z
-x,-y,z
x,-y,1/2-z
-x,y,1/2-z
-x,-y,-z
x,y,-z
-x,y,1/2+z
x,-y,1/2+z
loop_
_atom_site_type_symbol
_atom_site_label
_atom_site_fract_x
_atom_site_fract_y
_atom_site_fract_z
Si Si1 0.856364 0.720623 0.677260
Si Si2 0.058894 0.407711 0.819523
Si Si3 0.663316 0.671707 0.178707
Si Si4 0.761489 0.586960 0.323364
Si Si5 0.184597 0.089711 0.677945
Si Si6 0.706034 0.136553 0.671340
Si Si7 0.555780 0.272843 0.179945
Si Si8 0.585393 0.088372 0.674450
O O1 0.872398 0.714445 0.500000
O O2 0.903085 0.675196 0.777055
O O3 0.799347 0.671598 0.708668
O O4 0.848777 0.822757 0.731847
O O5 0.082270 0.500000 0.750000
O O6 0.000000 0.387772 0.750000
O O7 0.054905 0.417448 0.000000
O O8 0.702982 0.595989 0.241725
O O9 0.692230 0.763839 0.222078
O O10 0.604917 0.665455 0.260470
O O11 0.653740 0.662247 0.000000
O O12 0.789923 0.500000 0.250000
O O13 0.752046 0.571494 0.500000
O O14 0.179726 0.080410 0.500000
O O15 0.248399 0.096603 0.718517
O O16 0.159079 0.000000 0.750000
O O17 0.729398 0.134205 0.500000
O O18 0.650812 0.080231 0.684033
O O19 0.500000 0.311409 0.250000
O O20 0.563087 0.171610 0.232991
O O21 0.553512 0.276867 0.000000
O O22 0.566265 0.097951 0.500000
O O23 0.560245 0.000000 0.750000
#
# Coordination Sequence:
#
# PCOD8203499 Si02
#       8
#     8   8   8   8   8   8   8   8
#     4  10  22  39  58  86 124 162 203 248 294 346
#     4  11  22  38  63  92 125 163 203 247 296 352
#     4  10  20  36  57  81 110 144 184 231 282 343
#     4  11  22  37  58  88 122 157 192 232 289 350
#     4  11  22  35  53  79 114 156 201 248 292 344
#     4   9  18  32  51  74 104 142 186 232 280 336
#     4  11  22  37  56  76 100 135 179 229 283 345
#     4  10  20  33  48  72 101 135 177 228 284 343
#
# _framework density 19.734694999999999
#
# number of rings (size 3 to 8) (size 9 to 14) (size 15 to 20)
#    0.000    1.625    1.250    5.625    0.000    6.750 
#    0.000    1.250    0.000    0.750    0.000    5.250 
#    0.000    0.000    0.000    0.000    0.000    0.000 
#
# Total GULP energy -793726.127556 kJ/mol
# GULP energy per Si atom -12401.970743 kJ/mol
# Density = 1.968978 g / cm^3
# Si number density = 19.734695 Si / 1000 Ang^3
#
#
#
# Elastic Constant Matrix: (Units=GPa)
#
#
# Indices 1 2 3 4 5 6 
#
# 1 87.3387 39.6056 51.2091 0.0000 0.0000 0.0000
# 2 39.6056 104.7378 49.4787 0.0000 0.0000 0.0000
# 3 51.2091 49.4787 132.4384 0.0000 0.0000 0.0000
# 4 0.0000 0.0000 0.0000 31.8389 0.0000 0.0000
# 5 0.0000 0.0000 0.0000 0.0000 31.3752 0.0000
# 6 0.0000 0.0000 0.0000 0.0000 0.0000 6.2047
#
#
#
# Elastic Compliance Matrix: (Units=1/GPa)
#
#
# Indices 1 2 3 4 5 6 
#
# 1 0.015955 -0.003787 -0.004754 0.000000 0.000000 0.000000
# 2 -0.003787 0.012493 -0.003203 0.000000 0.000000 0.000000
# 3 -0.004754 -0.003203 0.010586 0.000000 0.000000 0.000000
# 4 0.000000 0.000000 0.000000 0.031408 0.000000 0.000000
# 5 0.000000 0.000000 0.000000 0.000000 0.031872 0.000000
# 6 0.000000 0.000000 0.000000 0.000000 0.000000 0.161169
#
#
# Mechanical properties :
#
#
# Convention : Reuss Voigt Hill
#
# Bulk Modulus (GPa) = 64.33188 67.23353 65.78270
# Shear Modulus (GPa) = 17.11434 26.16518 21.63976
#
# Velocity S-wave (km/s) = 2.94806 3.64517 3.31499
# Velocity P-wave (km/s) = 6.65261 7.20132 6.93239
#
# Compressibility (1/GPa) = 0.01554439
#
# Stress axis : x y z
#
# Youngs Moduli (GPa) = 62.67799 80.04605 94.46837
#
# Poissons Ratio (x) = 0.30315 0.44912
# Poissons Ratio (y) = 0.23737 0.30258
# Poissons Ratio (z) = 0.29798 0.25638
#
# Static dielectric constant tensor:
#      x y z
#    x 3.469120 0.000000 0.000000 
#    y 0.000000 3.737390 0.000000 
#    z 0.000000 0.000000 3.599350 
# 
# 
# High freq. dielectric constant tensor:
#      x y z
#    x 1.751130 0.000000 0.000000 
#    y 0.000000 1.759560 0.000000 
#    z 0.000000 0.000000 1.778980 
# 
# From -- ./inp_files/6493.got.cif
#   From: 2010.03.12/outbox.cif.g09.slc.cpg/sg49_4_cif.got.tgz:6493.got - 2010.04.14 03:58:27.
