data_PCOD8203733
_publ_section_title
;
Structure prediction by ZEFSAII (Michael W. Deem and Ramdas Pophale) SiO2 
 PCOD8203733
Probable space group: P C C M
;
_chemical_formula_sum "Si O2"
_cell_formula_units_Z 40
_cell_length_a 9.843490
_cell_length_b 25.750965
_cell_length_c 8.562815
_cell_angle_alpha 90.000000
_cell_angle_beta 90.000000
_cell_angle_gamma 90.000000
_cell_volume 2170.496921
_symmetry_space_group_name_H-M "P C C M"
_symmetry_group_IT_number 49
_symmetry_cell_setting 'orthorhombic'
loop_
_space_group_symop_operation_xyz
x,y,z
-x,-y,z
x,-y,1/2-z
-x,y,1/2-z
-x,-y,-z
x,y,-z
-x,y,1/2+z
x,-y,1/2+z
loop_
_atom_site_type_symbol
_atom_site_label
_atom_site_fract_x
_atom_site_fract_y
_atom_site_fract_z
Si Si1 0.347822 0.139452 0.315905
Si Si2 0.350994 0.357681 0.817330
Si Si3 0.350891 0.756139 0.316925
Si Si4 0.852306 0.555159 0.814275
Si Si5 0.143922 0.056488 0.815397
O O1 0.500000 0.136818 0.250000
O O2 0.347906 0.131565 0.500000
O O3 0.279349 0.195338 0.270877
O O4 0.262395 0.094572 0.236045
O O5 0.500000 0.365843 0.750000
O O6 0.285697 0.300471 0.781032
O O7 0.249675 0.400940 0.749353
O O8 0.366725 0.364823 0.000000
O O9 0.500000 0.751737 0.250000
O O10 0.353834 0.768708 0.500000
O O11 0.800733 0.500000 0.750000
O O12 0.000000 0.568939 0.750000
O O13 0.857736 0.553356 0.000000
O O14 0.000000 0.076656 0.750000
O O15 0.179497 0.000000 0.750000
O O16 0.134888 0.053657 0.000000
#
# Coordination Sequence:
#
# PCOD8203733 Si02
#       5
#     8   8   8   8   8
#     4  11  21  35  55  82 110 141 178 219 262 310
#     4   9  19  33  52  76 103 132 169 211 256 305
#     4   9  16  30  50  74 103 136 169 210 258 308
#     4  10  20  35  52  73  99 133 170 209 254 306
#     4  11  22  39  59  81 108 142 178 217 263 315
#
# _framework density 18.428958999999999
#
# number of rings (size 3 to 8) (size 9 to 14) (size 15 to 20)
#    0.000    2.000    0.000    7.200    0.000    3.200 
#    0.000    5.000    0.000    2.400    0.000    0.000 
#    0.000    0.000    0.000    0.000    0.000    0.000 
#
# Total GULP energy -495810.893372 kJ/mol
# GULP energy per Si atom -12395.272334 kJ/mol
# Density = 1.838701 g / cm^3
# Si number density = 18.428959 Si / 1000 Ang^3
#
#
#
# Elastic Constant Matrix: (Units=GPa)
#
#
# Indices 1 2 3 4 5 6 
#
# 1 77.9156 77.4256 33.7386 0.0000 0.0000 0.0000
# 2 77.4256 152.2630 53.0603 0.0000 0.0000 0.0000
# 3 33.7386 53.0603 118.1076 0.0000 0.0000 0.0000
# 4 0.0000 0.0000 0.0000 32.3832 0.0000 0.0000
# 5 0.0000 0.0000 0.0000 0.0000 21.7097 0.0000
# 6 0.0000 0.0000 0.0000 0.0000 0.0000 6.2749
#
#
#
# Elastic Compliance Matrix: (Units=1/GPa)
#
#
# Indices 1 2 3 4 5 6 
#
# 1 0.026256 -0.012731 -0.001781 0.000000 0.000000 0.000000
# 2 -0.012731 0.013959 -0.002635 0.000000 0.000000 0.000000
# 3 -0.001781 -0.002635 0.010159 0.000000 0.000000 0.000000
# 4 0.000000 0.000000 0.000000 0.030880 0.000000 0.000000
# 5 0.000000 0.000000 0.000000 0.000000 0.046062 0.000000
# 6 0.000000 0.000000 0.000000 0.000000 0.000000 0.159364
#
#
# Mechanical properties :
#
#
# Convention : Reuss Voigt Hill
#
# Bulk Modulus (GPa) = 62.18104 75.19280 68.68692
# Shear Modulus (GPa) = 15.32170 24.34434 19.83302
#
# Velocity S-wave (km/s) = 2.88652 3.63848 3.28409
# Velocity P-wave (km/s) = 6.70250 7.65123 7.19253
#
# Compressibility (1/GPa) = 0.01608207
#
# Stress axis : x y z
#
# Youngs Moduli (GPa) = 38.08636 71.63761 98.43261
#
# Poissons Ratio (x) = 0.91199 0.17532
# Poissons Ratio (y) = 0.48486 0.25933
# Poissons Ratio (z) = 0.06784 0.18874
#
# Static dielectric constant tensor:
#      x y z
#    x 3.227420 0.000000 0.000000 
#    y 0.000000 4.225560 0.000000 
#    z 0.000000 0.000000 3.576310 
# 
# 
# High freq. dielectric constant tensor:
#      x y z
#    x 1.683580 0.000000 0.000000 
#    y 0.000000 1.736030 0.000000 
#    z 0.000000 0.000000 1.730920 
# 
# From -- ./inp_files/1916.got.cif
#   From: 2010.03.12/outbox.cif.g09.slc.cpg/sg49_1_cif.got.tgz:1916.got - 2010.04.14 03:58:27.
