data_PCOD8203973
_publ_section_title
;
Structure prediction by ZEFSAII (Michael W. Deem and Ramdas Pophale) SiO2 
 PCOD8203973
Probable space group: P C C M
;
_chemical_formula_sum "Si O2"
_cell_formula_units_Z 40
_cell_length_a 13.737292
_cell_length_b 9.759774
_cell_length_c 15.531015
_cell_angle_alpha 90.000000
_cell_angle_beta 90.000000
_cell_angle_gamma 90.000000
_cell_volume 2082.287682
_symmetry_space_group_name_H-M "P C C M"
_symmetry_group_IT_number 49
_symmetry_cell_setting 'orthorhombic'
loop_
_space_group_symop_operation_xyz
x,y,z
-x,-y,z
x,-y,1/2-z
-x,y,1/2-z
-x,-y,-z
x,y,-z
-x,y,1/2+z
x,-y,1/2+z
loop_
_atom_site_type_symbol
_atom_site_label
_atom_site_fract_x
_atom_site_fract_y
_atom_site_fract_z
Si Si1 0.379726 0.338116 0.500000
Si Si2 0.878419 0.114630 0.403907
Si Si3 0.069311 0.162180 0.334056
Si Si4 0.249662 0.646947 0.844307
Si Si5 0.731263 0.665550 0.846234
Si Si6 0.403928 0.337894 0.000000
O O1 0.319436 0.287608 0.583311
O O2 0.399620 0.499039 0.500000
O O3 0.487778 0.273101 0.500000
O O4 0.836621 0.092033 0.500000
O O5 0.820970 0.232053 0.353666
O O6 0.991177 0.163400 0.412048
O O7 0.868383 0.977967 0.345158
O O8 0.141996 0.289208 0.341250
O O9 0.000000 0.163409 0.250000
O O10 0.232656 0.487831 0.867523
O O11 0.304732 0.668767 0.753005
O O12 0.647732 0.714115 0.912402
#
# Coordination Sequence:
#
# PCOD8203973 Si02
#       6
#     4   8   8   8   8   4
#     4   9  20  36  60  85 116 150 191 241 294 353
#     4  11  22  36  55  83 112 159 197 235 280 343
#     4  11  22  37  54  81 117 156 201 227 278 346
#     4  10  22  36  56  87 118 151 189 241 291 340
#     4  10  20  37  58  85 118 149 191 239 293 342
#     4   9  18  38  60  85 114 150 191 241 296 351
#
# _framework density 19.209643
#
# number of rings (size 3 to 8) (size 9 to 14) (size 15 to 20)
#    0.000    1.800    3.000    2.400    2.800    1.600 
#    0.000    5.000    0.000    2.400    0.000    2.800 
#    0.000    0.000    0.000    0.000    0.000    0.000 
#
# Total GULP energy -495696.051861 kJ/mol
# GULP energy per Si atom -12392.401297 kJ/mol
# Density = 1.916592 g / cm^3
# Si number density = 19.209643 Si / 1000 Ang^3
#
#
#
# Elastic Constant Matrix: (Units=GPa)
#
#
# Indices 1 2 3 4 5 6 
#
# 1 102.8789 50.1407 52.3875 0.0000 0.0000 0.0000
# 2 50.1407 70.5723 38.2615 0.0000 0.0000 0.0000
# 3 52.3875 38.2615 135.6790 0.0000 0.0000 0.0000
# 4 0.0000 0.0000 0.0000 22.1153 0.0000 0.0000
# 5 0.0000 0.0000 0.0000 0.0000 27.1370 0.0000
# 6 0.0000 0.0000 0.0000 0.0000 0.0000 11.1603
#
#
#
# Elastic Compliance Matrix: (Units=1/GPa)
#
#
# Indices 1 2 3 4 5 6 
#
# 1 0.016200 -0.009584 -0.003552 0.000000 0.000000 0.000000
# 2 -0.009584 0.022397 -0.002615 0.000000 0.000000 0.000000
# 3 -0.003552 -0.002615 0.009480 0.000000 0.000000 0.000000
# 4 0.000000 0.000000 0.000000 0.045218 0.000000 0.000000
# 5 0.000000 0.000000 0.000000 0.000000 0.036850 0.000000
# 6 0.000000 0.000000 0.000000 0.000000 0.000000 0.089603
#
#
# Mechanical properties :
#
#
# Convention : Reuss Voigt Hill
#
# Bulk Modulus (GPa) = 60.33890 65.63440 62.98665
# Shear Modulus (GPa) = 19.47222 23.30521 21.38872
#
# Velocity S-wave (km/s) = 3.18727 3.48689 3.34044
# Velocity P-wave (km/s) = 6.70998 7.10301 6.90929
#
# Compressibility (1/GPa) = 0.01657306
#
# Stress axis : x y z
#
# Youngs Moduli (GPa) = 61.72793 44.64839 105.49036
#
# Poissons Ratio (x) = 0.42791 0.37474
# Poissons Ratio (y) = 0.59160 0.27591
# Poissons Ratio (z) = 0.21928 0.11678
#
# Static dielectric constant tensor:
#      x y z
#    x 3.518340 0.000000 0.000000 
#    y 0.000000 3.292470 0.000000 
#    z 0.000000 0.000000 3.852510 
# 
# 
# High freq. dielectric constant tensor:
#      x y z
#    x 1.723970 0.000000 0.000000 
#    y 0.000000 1.720050 0.000000 
#    z 0.000000 0.000000 1.770410 
# 
# From -- ./inp_files/13371.got.cif
#   From: 2010.03.12/outbox.cif.g09.slc.cpg/sg49_7_cif.got.tgz:13371.got - 2010.04.14 03:58:27.
