data_PCOD8203446
_publ_section_title
;
Structure prediction by ZEFSAII (Michael W. Deem and Ramdas Pophale) SiO2 
 PCOD8203446
Probable space group: P C C M
;
_chemical_formula_sum "Si O2"
_cell_formula_units_Z 58
_cell_length_a 14.693170
_cell_length_b 23.663906
_cell_length_c 8.983048
_cell_angle_alpha 90.000000
_cell_angle_beta 90.000000
_cell_angle_gamma 90.000000
_cell_volume 3123.385970
_symmetry_space_group_name_H-M "P C C M"
_symmetry_group_IT_number 49
_symmetry_cell_setting 'orthorhombic'
loop_
_space_group_symop_operation_xyz
x,y,z
-x,-y,z
x,-y,1/2-z
-x,y,1/2-z
-x,-y,-z
x,y,-z
-x,y,1/2+z
x,-y,1/2+z
loop_
_atom_site_type_symbol
_atom_site_label
_atom_site_fract_x
_atom_site_fract_y
_atom_site_fract_z
Si Si1 0.500000 0.500000 0.750000
Si Si2 0.088592 0.273551 0.175741
Si Si3 0.283846 0.318829 0.824355
Si Si4 0.414004 0.391596 0.334561
Si Si5 0.783891 0.058674 0.324099
Si Si6 0.412587 0.894833 0.674687
Si Si7 0.149916 0.835032 0.166647
Si Si8 0.350896 0.788038 0.833709
O O1 0.567429 0.540633 0.654934
O O2 0.178068 0.309760 0.219007
O O3 0.092081 0.210192 0.240619
O O4 0.000000 0.303320 0.250000
O O5 0.076636 0.270049 0.000000
O O6 0.320961 0.377799 0.756113
O O7 0.348308 0.271013 0.753382
O O8 0.296216 0.318211 0.000000
O O9 0.500000 0.362664 0.250000
O O10 0.405179 0.366717 0.500000
O O11 0.799334 0.056609 0.500000
O O12 0.678607 0.071192 0.284313
O O13 0.850563 0.105816 0.255014
O O14 0.812041 0.000000 0.250000
O O15 0.500000 0.925740 0.750000
O O16 0.427141 0.891314 0.500000
O O17 0.411261 0.831543 0.740349
O O18 0.251055 0.812826 0.154837
O O19 0.109189 0.842837 0.000000
O O20 0.391187 0.779694 0.000000
#
# Coordination Sequence:
#
# PCOD8203446 Si02
#       8
#     2   8   8   8   8   8   8   8
#     4   8  22  36  58  80 112 148 194 236 276 308
#     4  10  20  34  54  81 112 145 178 217 263 320
#     4  10  20  33  51  78 111 143 180 223 269 316
#     4  10  20  34  54  78 109 146 187 230 271 313
#     4  10  20  33  49  68  90 119 159 208 259 314
#     4  10  20  32  45  62  87 120 159 204 257 314
#     4   9  17  31  51  72  95 125 160 201 250 308
#     4   9  17  30  47  66  91 123 161 202 250 308
#
# _framework density 18.569592
#
# number of rings (size 3 to 8) (size 9 to 14) (size 15 to 20)
#    0.414    1.931    0.000    3.103    0.000    7.448 
#    0.000    4.138    0.000    0.414    0.000    3.379 
#    0.000    3.310    0.000    0.000    0.000    0.000 
#
# Total GULP energy -718873.672899 kJ/mol
# GULP energy per Si atom -12394.373671 kJ/mol
# Density = 1.852733 g / cm^3
# Si number density = 18.569592 Si / 1000 Ang^3
#
#
#
# Elastic Constant Matrix: (Units=GPa)
#
#
# Indices 1 2 3 4 5 6 
#
# 1 78.0295 31.9451 43.5229 0.0000 0.0000 0.0000
# 2 31.9451 82.3804 34.4379 0.0000 0.0000 0.0000
# 3 43.5229 34.4379 121.9302 0.0000 0.0000 0.0000
# 4 0.0000 0.0000 0.0000 25.1895 0.0000 0.0000
# 5 0.0000 0.0000 0.0000 0.0000 28.6156 0.0000
# 6 0.0000 0.0000 0.0000 0.0000 0.0000 18.8212
#
#
#
# Elastic Compliance Matrix: (Units=1/GPa)
#
#
# Indices 1 2 3 4 5 6 
#
# 1 0.017489 -0.004731 -0.004907 0.000000 0.000000 0.000000
# 2 -0.004731 0.015044 -0.002560 0.000000 0.000000 0.000000
# 3 -0.004907 -0.002560 0.010676 0.000000 0.000000 0.000000
# 4 0.000000 0.000000 0.000000 0.039699 0.000000 0.000000
# 5 0.000000 0.000000 0.000000 0.000000 0.034946 0.000000
# 6 0.000000 0.000000 0.000000 0.000000 0.000000 0.053132
#
#
# Mechanical properties :
#
#
# Convention : Reuss Voigt Hill
#
# Bulk Modulus (GPa) = 53.15338 55.79464 54.47401
# Shear Modulus (GPa) = 24.79523 26.02088 25.40806
#
# Velocity S-wave (km/s) = 3.65808 3.74741 3.70301
# Velocity P-wave (km/s) = 6.82115 6.98824 6.90520
#
# Compressibility (1/GPa) = 0.01881348
#
# Stress axis : x y z
#
# Youngs Moduli (GPa) = 57.17815 66.47371 93.66855
#
# Poissons Ratio (x) = 0.31447 0.45960
# Poissons Ratio (y) = 0.27049 0.23982
# Poissons Ratio (z) = 0.28055 0.17019
#
# Static dielectric constant tensor:
#      x y z
#    x 3.338310 0.000000 0.000000 
#    y 0.000000 3.171140 0.000000 
#    z 0.000000 0.000000 3.531600 
# 
# 
# High freq. dielectric constant tensor:
#      x y z
#    x 1.703930 0.000000 0.000000 
#    y 0.000000 1.686690 0.000000 
#    z 0.000000 0.000000 1.738690 
# 
# From -- ./inp_files/4254.got.cif
#   From: 2010.03.12/outbox.cif.g09.slc.cpg/sg49_3_cif.got.tgz:4254.got - 2010.04.14 03:58:27.
