data_PCOD8203119
_publ_section_title
;
Structure prediction by ZEFSAII (Michael W. Deem and Ramdas Pophale) SiO2 
 PCOD8203119
Probable space group: P C C M
;
_chemical_formula_sum "Si O2"
_cell_formula_units_Z 64
_cell_length_a 9.372143
_cell_length_b 19.135131
_cell_length_c 18.618825
_cell_angle_alpha 90.000000
_cell_angle_beta 90.000000
_cell_angle_gamma 90.000000
_cell_volume 3339.047646
_symmetry_space_group_name_H-M "P C C M"
_symmetry_group_IT_number 49
_symmetry_cell_setting 'orthorhombic'
loop_
_space_group_symop_operation_xyz
x,y,z
-x,-y,z
x,-y,1/2-z
-x,y,1/2-z
-x,-y,-z
x,y,-z
-x,y,1/2+z
x,-y,1/2+z
loop_
_atom_site_type_symbol
_atom_site_label
_atom_site_fract_x
_atom_site_fract_y
_atom_site_fract_z
Si Si1 0.287068 0.579018 0.672704
Si Si2 0.590966 0.200192 0.414891
Si Si3 0.083883 0.800003 0.585024
Si Si4 0.978175 0.329539 0.329427
Si Si5 0.910574 0.065588 0.085439
Si Si6 0.585721 0.067792 0.085624
Si Si7 0.756886 0.422483 0.163929
Si Si8 0.479641 0.649283 0.915568
O O1 0.176409 0.639580 0.653635
O O2 0.317314 0.581922 0.757855
O O3 0.234354 0.503900 0.643844
O O4 0.428497 0.593796 0.628376
O O5 0.596391 0.194990 0.500000
O O6 0.753377 0.195874 0.385208
O O7 0.496400 0.136201 0.384226
O O8 0.514881 0.271876 0.390468
O O9 0.084164 0.794737 0.500000
O O10 0.999311 0.732939 0.614705
O O11 0.994962 0.866400 0.612251
O O12 0.000000 0.297600 0.250000
O O13 0.083066 0.394866 0.336516
O O14 0.748201 0.065717 0.115461
O O15 0.905343 0.062565 0.000000
O O16 0.000000 0.000000 0.115729
O O17 0.500000 0.000000 0.113357
O O18 0.588488 0.069287 0.000000
O O19 0.679853 0.372684 0.105780
O O20 0.505587 0.640517 0.000000
#
# Coordination Sequence:
#
# PCOD8203119 Si02
#       8
#     8   8   8   8   8   8   8   8
#     4  10  20  40  58  76 103 141 184 225 274 325
#     4   9  18  31  47  70 104 145 176 210 260 314
#     4  10  19  33  53  75 108 145 178 218 268 319
#     4  10  21  37  57  80 106 138 182 228 275 325
#     4   9  17  28  47  77 108 139 177 219 260 308
#     4   9  16  27  45  70 104 141 177 215 257 307
#     4  10  22  36  58  80 103 137 183 233 272 320
#     4  11  22  35  53  80 114 144 177 220 274 329
#
# _framework density 19.167141000000001
#
# number of rings (size 3 to 8) (size 9 to 14) (size 15 to 20)
#    0.000    2.250    1.250    1.875    1.750    7.000 
#    0.000    0.000    0.000    2.625    0.000    0.000 
#    0.000    2.000    0.000    0.000    0.000    0.000 
#
# Total GULP energy -793468.344971 kJ/mol
# GULP energy per Si atom -12397.942890 kJ/mol
# Density = 1.912352 g / cm^3
# Si number density = 19.167141 Si / 1000 Ang^3
#
#
#
# Elastic Constant Matrix: (Units=GPa)
#
#
# Indices 1 2 3 4 5 6 
#
# 1 83.8578 39.4233 16.0132 0.0000 0.0000 0.0000
# 2 39.4233 148.3470 26.9063 0.0000 0.0000 0.0000
# 3 16.0132 26.9063 26.1210 0.0000 0.0000 0.0000
# 4 0.0000 0.0000 0.0000 16.3206 0.0000 0.0000
# 5 0.0000 0.0000 0.0000 0.0000 20.0777 0.0000
# 6 0.0000 0.0000 0.0000 0.0000 0.0000 22.4938
#
#
#
# Elastic Compliance Matrix: (Units=1/GPa)
#
#
# Indices 1 2 3 4 5 6 
#
# 1 0.014351 -0.002728 -0.005988 0.000000 0.000000 0.000000
# 2 -0.002728 0.008808 -0.007401 0.000000 0.000000 0.000000
# 3 -0.005988 -0.007401 0.049577 0.000000 0.000000 0.000000
# 4 0.000000 0.000000 0.000000 0.061272 0.000000 0.000000
# 5 0.000000 0.000000 0.000000 0.000000 0.049806 0.000000
# 6 0.000000 0.000000 0.000000 0.000000 0.000000 0.044457
#
#
# Mechanical properties :
#
#
# Convention : Reuss Voigt Hill
#
# Bulk Modulus (GPa) = 24.68913 47.00126 35.84520
# Shear Modulus (GPa) = 18.24780 23.51062 20.87921
#
# Velocity S-wave (km/s) = 3.08886 3.50610 3.30407
# Velocity P-wave (km/s) = 5.06264 6.40042 5.77043
#
# Compressibility (1/GPa) = 0.04050365
#
# Stress axis : x y z
#
# Youngs Moduli (GPa) = 69.68301 113.53136 20.17047
#
# Poissons Ratio (x) = 0.30968 0.12078
# Poissons Ratio (y) = 0.19007 0.14928
# Poissons Ratio (z) = 0.41725 0.84022
#
# Static dielectric constant tensor:
#      x y z
#    x 3.627880 0.000000 0.000000 
#    y 0.000000 3.617100 0.000000 
#    z 0.000000 0.000000 3.054020 
# 
# 
# High freq. dielectric constant tensor:
#      x y z
#    x 1.756320 0.000000 0.000000 
#    y 0.000000 1.760030 0.000000 
#    z 0.000000 0.000000 1.690010 
# 
# From -- ./inp_files/20025.got.cif
#   From: 2010.03.12/outbox.cif.g09.slc.cpg/sg49_11_cif.got.tgz:20025.got - 2010.04.14 03:58:27.
