data_PCOD8203439
_publ_section_title
;
Structure prediction by ZEFSAII (Michael W. Deem and Ramdas Pophale) SiO2 
 PCOD8203439
Probable space group: P C C M
;
_chemical_formula_sum "Si O2"
_cell_formula_units_Z 64
_cell_length_a 16.741536
_cell_length_b 11.479101
_cell_length_c 16.859694
_cell_angle_alpha 90.000000
_cell_angle_beta 90.000000
_cell_angle_gamma 90.000000
_cell_volume 3240.058609
_symmetry_space_group_name_H-M "P C C M"
_symmetry_group_IT_number 49
_symmetry_cell_setting 'orthorhombic'
loop_
_space_group_symop_operation_xyz
x,y,z
-x,-y,z
x,-y,1/2-z
-x,y,1/2-z
-x,-y,-z
x,y,-z
-x,y,1/2+z
x,-y,1/2+z
loop_
_atom_site_type_symbol
_atom_site_label
_atom_site_fract_x
_atom_site_fract_y
_atom_site_fract_z
Si Si1 0.130636 0.249831 0.909009
Si Si2 0.017061 0.864415 0.160067
Si Si3 0.603158 0.876688 0.795077
Si Si4 0.093303 0.507553 0.342268
Si Si5 0.310649 0.827890 0.145640
Si Si6 0.262529 0.067964 0.094397
Si Si7 0.841832 0.273179 0.092045
Si Si8 0.480801 0.135963 0.585762
O O1 0.137441 0.374174 0.867349
O O2 0.192942 0.154584 0.874297
O O3 0.041107 0.203960 0.898688
O O4 0.150668 0.269332 0.000000
O O5 0.106518 0.824754 0.138715
O O6 0.000000 0.825316 0.250000
O O7 0.000000 0.000000 0.147631
O O8 0.655568 0.800696 0.734028
O O9 0.651841 0.885265 0.877401
O O10 0.522002 0.816684 0.831439
O O11 0.586578 0.000000 0.750000
O O12 0.109996 0.500000 0.250000
O O13 0.130552 0.402951 0.391358
O O14 0.000000 0.500000 0.362144
O O15 0.250748 0.726154 0.120112
O O16 0.386538 0.838861 0.087766
O O17 0.254504 0.943419 0.138411
O O18 0.260265 0.052539 0.000000
O O19 0.848173 0.242505 0.000000
O O20 0.510566 0.186755 0.500000
O O21 0.500000 0.000000 0.588612
#
# Coordination Sequence:
#
# PCOD8203439 Si02
#       8
#     8   8   8   8   8   8   8   8
#     4  11  23  39  61  85 112 150 203 252 296 348
#     4  11  24  39  58  84 122 158 200 236 296 362
#     4  10  20  31  53  80 120 162 203 234 285 353
#     4  11  24  43  66  85 111 150 204 260 305 353
#     4  11  23  35  55  88 129 160 195 244 301 365
#     4  10  20  34  53  82 121 156 194 241 297 354
#     4  12  25  41  63  88 119 159 201 250 312 360
#     4  11  19  32  53  80 122 164 203 241 289 359
#
# _framework density 19.752728000000001
#
# number of rings (size 3 to 8) (size 9 to 14) (size 15 to 20)
#    0.000    1.125    3.750    4.125    3.500    2.500 
#    0.000    0.000    0.000    0.000    0.000    0.875 
#    0.000    4.000    0.000    0.000    0.000    0.000 
#
# Total GULP energy -793104.680395 kJ/mol
# GULP energy per Si atom -12392.260631 kJ/mol
# Density = 1.970777 g / cm^3
# Si number density = 19.752728 Si / 1000 Ang^3
#
#
#
# Elastic Constant Matrix: (Units=GPa)
#
#
# Indices 1 2 3 4 5 6 
#
# 1 114.5304 30.5976 55.5612 0.0000 0.0000 0.0000
# 2 30.5976 60.3282 37.5444 0.0000 0.0000 0.0000
# 3 55.5612 37.5444 125.5722 0.0000 0.0000 0.0000
# 4 0.0000 0.0000 0.0000 23.4891 0.0000 0.0000
# 5 0.0000 0.0000 0.0000 0.0000 -243.8916 0.0000
# 6 0.0000 0.0000 0.0000 0.0000 0.0000 19.4355
#
#
#
# Elastic Compliance Matrix: (Units=1/GPa)
#
#
# Indices 1 2 3 4 5 6 
#
# 1 0.011633 -0.003313 -0.004157 0.000000 0.000000 0.000000
# 2 -0.003313 0.021309 -0.004905 0.000000 0.000000 0.000000
# 3 -0.004157 -0.004905 0.011269 0.000000 0.000000 0.000000
# 4 0.000000 0.000000 0.000000 0.042573 0.000000 0.000000
# 5 0.000000 0.000000 0.000000 0.000000 -0.004100 0.000000
# 6 0.000000 0.000000 0.000000 0.000000 0.000000 0.051452
#
#
# Mechanical properties :
#
#
# Convention : Reuss Voigt Hill
#
# Bulk Modulus (GPa) = 51.38389 60.87079 56.12734
# Shear Modulus (GPa) = 30.23471 -28.41154 0.91158
#
# Velocity S-wave (km/s) = 3.91661 -3.79669 0.68007
# Velocity P-wave (km/s) = 6.82079 3.41519 5.39382
#
# Compressibility (1/GPa) = 0.01946135
#
# Stress axis : x y z
#
# Youngs Moduli (GPa) = 85.96317 46.92839 88.73739
#
# Poissons Ratio (x) = 0.15549 0.36884
# Poissons Ratio (y) = 0.28482 0.43527
# Poissons Ratio (z) = 0.35731 0.23019
#
# Static dielectric constant tensor:
#      x y z
#    x 3.917690 0.000000 0.000000 
#    y 0.000000 3.311500 0.000000 
#    z 0.000000 0.000000 3.905570 
# 
# 
# High freq. dielectric constant tensor:
#      x y z
#    x 1.780580 0.000000 0.000000 
#    y 0.000000 1.711760 0.000000 
#    z 0.000000 0.000000 1.792620 
# 
# From -- ./inp_files/17934.got.cif
#   From: 2010.03.12/outbox.cif.g09.slc.cpg/sg49_9_cif.got.tgz:17934.got - 2010.04.14 03:58:27.
