data_PCOD8203078
_publ_section_title
;
Structure prediction by ZEFSAII (Michael W. Deem and Ramdas Pophale) SiO2 
 PCOD8203078
Probable space group: P C C M
;
_chemical_formula_sum "Si O2"
_cell_formula_units_Z 58
_cell_length_a 19.043335
_cell_length_b 18.938904
_cell_length_c 9.050456
_cell_angle_alpha 90.000000
_cell_angle_beta 90.000000
_cell_angle_gamma 90.000000
_cell_volume 3264.136496
_symmetry_space_group_name_H-M "P C C M"
_symmetry_group_IT_number 49
_symmetry_cell_setting 'orthorhombic'
loop_
_space_group_symop_operation_xyz
x,y,z
-x,-y,z
x,-y,1/2-z
-x,y,1/2-z
-x,-y,-z
x,y,-z
-x,y,1/2+z
x,-y,1/2+z
loop_
_atom_site_type_symbol
_atom_site_label
_atom_site_fract_x
_atom_site_fract_y
_atom_site_fract_z
Si Si1 0.783475 0.809108 0.167846
Si Si2 0.262470 0.571041 0.324366
Si Si3 0.067436 0.238989 0.829699
Si Si4 0.311376 0.703683 0.829609
Si Si5 0.325471 0.074296 0.172291
Si Si6 0.426378 0.181751 0.327334
Si Si7 0.000000 0.500000 0.250000
Si Si8 0.110439 0.389129 0.835295
O O1 0.867010 0.813839 0.194820
O O2 0.753895 0.751380 0.279707
O O3 0.748125 0.884871 0.196139
O O4 0.767676 0.783680 0.000000
O O5 0.291070 0.500000 0.250000
O O6 0.266131 0.563917 0.500000
O O7 0.313419 0.633467 0.269365
O O8 0.182894 0.583908 0.261949
O O9 0.083558 0.316860 0.758680
O O10 0.000000 0.205534 0.750000
O O11 0.047822 0.246957 0.000000
O O12 0.383034 0.746435 0.803495
O O13 0.301000 0.683354 0.000000
O O14 0.388689 0.116141 0.248867
O O15 0.316308 0.000000 0.250000
O O16 0.343295 0.064491 0.000000
O O17 0.500000 0.194584 0.250000
O O18 0.435485 0.163984 0.500000
O O19 0.949241 0.550514 0.155762
O O20 0.131693 0.367202 0.000000
#
# Coordination Sequence:
#
# PCOD8203078 Si02
#       8
#     8   8   8   8   8   8   2   8
#     4   9  18  34  54  74 102 140 180 221 266 320
#     4  11  21  35  51  72 100 135 179 227 275 323
#     4  10  19  33  48  69  96 130 175 222 272 320
#     4  10  20  34  54  80 106 137 178 223 265 315
#     4  10  20  35  57  84 114 147 179 215 261 310
#     4  10  21  37  58  86 118 147 180 213 252 309
#     4  12  18  32  40  62 100 136 174 208 274 328
#     4  10  20  30  43  62  92 131 170 213 262 320
#
# _framework density 17.768865000000002
#
# number of rings (size 3 to 8) (size 9 to 14) (size 15 to 20)
#    0.000    1.931    2.759    1.862    0.000    3.034 
#    0.000    1.379    0.000    0.828    0.000    5.793 
#    0.000    0.000    0.000    0.000    0.000    0.000 
#
# Total GULP energy -719102.863648 kJ/mol
# GULP energy per Si atom -12398.325235 kJ/mol
# Density = 1.772842 g / cm^3
# Si number density = 17.768865 Si / 1000 Ang^3
#
#
#
# Elastic Constant Matrix: (Units=GPa)
#
#
# Indices 1 2 3 4 5 6 
#
# 1 109.3550 53.6184 52.8153 0.0000 0.0000 0.0000
# 2 53.6184 106.4670 56.2810 0.0000 0.0000 0.0000
# 3 52.8153 56.2810 103.8253 0.0000 0.0000 0.0000
# 4 0.0000 0.0000 0.0000 28.9010 0.0000 0.0000
# 5 0.0000 0.0000 0.0000 0.0000 27.4498 0.0000
# 6 0.0000 0.0000 0.0000 0.0000 0.0000 13.4863
#
#
#
# Elastic Compliance Matrix: (Units=1/GPa)
#
#
# Indices 1 2 3 4 5 6 
#
# 1 0.013465 -0.004430 -0.004448 0.000000 0.000000 0.000000
# 2 -0.004430 0.014622 -0.005673 0.000000 0.000000 0.000000
# 3 -0.004448 -0.005673 0.014970 0.000000 0.000000 0.000000
# 4 0.000000 0.000000 0.000000 0.034601 0.000000 0.000000
# 5 0.000000 0.000000 0.000000 0.000000 0.036430 0.000000
# 6 0.000000 0.000000 0.000000 0.000000 0.000000 0.074149
#
#
# Mechanical properties :
#
#
# Convention : Reuss Voigt Hill
#
# Bulk Modulus (GPa) = 71.65992 71.67520 71.66756
# Shear Modulus (GPa) = 22.52349 24.42960 23.47654
#
# Velocity S-wave (km/s) = 3.56417 3.71193 3.63880
# Velocity P-wave (km/s) = 7.57326 7.66787 7.62071
#
# Compressibility (1/GPa) = 0.01395480
#
# Stress axis : x y z
#
# Youngs Moduli (GPa) = 74.26753 68.38867 66.80208
#
# Poissons Ratio (x) = 0.30294 0.29716
# Poissons Ratio (y) = 0.32898 0.37897
# Poissons Ratio (z) = 0.33036 0.38797
#
# Static dielectric constant tensor:
#      x y z
#    x 3.251790 0.000000 0.000000 
#    y 0.000000 3.213480 0.000000 
#    z 0.000000 0.000000 3.269230 
# 
# 
# High freq. dielectric constant tensor:
#      x y z
#    x 1.675860 0.000000 0.000000 
#    y 0.000000 1.674100 0.000000 
#    z 0.000000 0.000000 1.687800 
# 
# From -- ./inp_files/5081.got.cif
#   From: 2010.03.12/outbox.cif.g09.slc.cpg/sg49_3_cif.got.tgz:5081.got - 2010.04.14 03:58:27.
