data_PCOD8203909
_publ_section_title
;
Structure prediction by ZEFSAII (Michael W. Deem and Ramdas Pophale) SiO2 
 PCOD8203909
Probable space group: P C C M
;
_chemical_formula_sum "Si O2"
_cell_formula_units_Z 48
_cell_length_a 18.546607
_cell_length_b 9.050948
_cell_length_c 15.510241
_cell_angle_alpha 90.000000
_cell_angle_beta 90.000000
_cell_angle_gamma 90.000000
_cell_volume 2603.616920
_symmetry_space_group_name_H-M "P C C M"
_symmetry_group_IT_number 49
_symmetry_cell_setting 'orthorhombic'
loop_
_space_group_symop_operation_xyz
x,y,z
-x,-y,z
x,-y,1/2-z
-x,y,1/2-z
-x,-y,-z
x,y,-z
-x,y,1/2+z
x,-y,1/2+z
loop_
_atom_site_type_symbol
_atom_site_label
_atom_site_fract_x
_atom_site_fract_y
_atom_site_fract_z
Si Si1 0.915534 0.670620 0.743180
Si Si2 0.333635 0.178705 0.401752
Si Si3 0.831745 0.812647 0.405112
Si Si4 0.181482 0.104711 0.167287
Si Si5 0.584533 0.670930 0.247973
Si Si6 0.667339 0.165634 0.599276
O O1 0.894597 0.500000 0.750000
O O2 0.887875 0.722431 0.650951
O O3 0.877506 0.768801 0.816507
O O4 0.000000 0.697641 0.750000
O O5 0.347986 0.232856 0.500000
O O6 0.250954 0.211044 0.374935
O O7 0.384134 0.261370 0.335236
O O8 0.352096 0.006241 0.394864
O O9 0.843317 0.750858 0.500000
O O10 0.847755 0.989550 0.404201
O O11 0.251990 0.190180 0.134556
O O12 0.197662 0.000000 0.250000
O O13 0.605188 0.500000 0.250000
O O14 0.500000 0.698488 0.250000
O O15 0.614060 0.742386 0.159998
O O16 0.661025 0.221206 0.500000
#
# Coordination Sequence:
#
# PCOD8203909 Si02
#       6
#     8   8   8   8   8   8
#     4  10  21  36  51  73 109 147 177 210 257 312
#     4   9  19  37  61  83 105 134 175 224 270 312
#     4   9  18  35  57  81 104 130 171 223 266 307
#     4   9  17  32  57  81 104 136 174 216 264 314
#     4  11  24  38  52  76 112 148 178 213 260 314
#     4  10  20  36  58  84 107 133 174 224 269 315
#
# _framework density 18.435891999999999
#
# number of rings (size 3 to 8) (size 9 to 14) (size 15 to 20)
#    0.000    2.333    0.000    5.000    0.000    8.333 
#    0.000   10.833    0.000    0.000    0.000    0.000 
#    0.000    0.000    0.000    0.000    0.000    0.000 
#
# Total GULP energy -595029.072776 kJ/mol
# GULP energy per Si atom -12396.439016 kJ/mol
# Density = 1.839393 g / cm^3
# Si number density = 18.435892 Si / 1000 Ang^3
#
#
#
# Elastic Constant Matrix: (Units=GPa)
#
#
# Indices 1 2 3 4 5 6 
#
# 1 96.8961 71.1410 64.7590 0.0000 0.0000 0.0000
# 2 71.1410 95.9649 51.3648 0.0000 0.0000 0.0000
# 3 64.7590 51.3648 113.8197 0.0000 0.0000 0.0000
# 4 0.0000 0.0000 0.0000 15.1723 0.0000 0.0000
# 5 0.0000 0.0000 0.0000 0.0000 15.3474 0.0000
# 6 0.0000 0.0000 0.0000 0.0000 0.0000 35.3069
#
#
#
# Elastic Compliance Matrix: (Units=1/GPa)
#
#
# Indices 1 2 3 4 5 6 
#
# 1 0.027846 -0.016037 -0.008606 0.000000 0.000000 0.000000
# 2 -0.016037 0.022975 -0.001244 0.000000 0.000000 0.000000
# 3 -0.008606 -0.001244 0.014244 0.000000 0.000000 0.000000
# 4 0.000000 0.000000 0.000000 0.065910 0.000000 0.000000
# 5 0.000000 0.000000 0.000000 0.000000 0.065158 0.000000
# 6 0.000000 0.000000 0.000000 0.000000 0.000000 0.028323
#
#
# Mechanical properties :
#
#
# Convention : Reuss Voigt Hill
#
# Bulk Modulus (GPa) = 75.23860 75.69002 75.46431
# Shear Modulus (GPa) = 17.81520 21.12638 19.47079
#
# Velocity S-wave (km/s) = 3.11196 3.38884 3.25335
# Velocity P-wave (km/s) = 7.33566 7.51380 7.42527
#
# Compressibility (1/GPa) = 0.01329105
#
# Stress axis : x y z
#
# Youngs Moduli (GPa) = 35.91130 43.52649 70.20558
#
# Poissons Ratio (x) = 0.69802 0.60422
# Poissons Ratio (y) = 0.57589 0.08732
# Poissons Ratio (z) = 0.30907 0.05414
#
# Static dielectric constant tensor:
#      x y z
#    x 3.279190 0.000000 0.000000 
#    y 0.000000 3.388650 0.000000 
#    z 0.000000 0.000000 4.089970 
# 
# 
# High freq. dielectric constant tensor:
#      x y z
#    x 1.707320 0.000000 0.000000 
#    y 0.000000 1.707920 0.000000 
#    z 0.000000 0.000000 1.725860 
# 
# From -- ./inp_files/11831.got.cif
#   From: 2010.03.12/outbox.cif.g09.slc.cpg/sg49_6_cif.got.tgz:11831.got - 2010.04.14 03:58:27.
