data_PCOD8203743
_publ_section_title
;
Structure prediction by ZEFSAII (Michael W. Deem and Ramdas Pophale) SiO2 
 PCOD8203743
Probable space group: P C C M
;
_chemical_formula_sum "Si O2"
_cell_formula_units_Z 40
_cell_length_a 25.063608
_cell_length_b 9.665609
_cell_length_c 8.753912
_cell_angle_alpha 90.000000
_cell_angle_beta 90.000000
_cell_angle_gamma 90.000000
_cell_volume 2120.679258
_symmetry_space_group_name_H-M "P C C M"
_symmetry_group_IT_number 49
_symmetry_cell_setting 'orthorhombic'
loop_
_space_group_symop_operation_xyz
x,y,z
-x,-y,z
x,-y,1/2-z
-x,y,1/2-z
-x,-y,-z
x,y,-z
-x,y,1/2+z
x,-y,1/2+z
loop_
_atom_site_type_symbol
_atom_site_label
_atom_site_fract_x
_atom_site_fract_y
_atom_site_fract_z
Si Si1 0.644129 0.858271 0.179143
Si Si2 0.445559 0.649677 0.318567
Si Si3 0.848859 0.348992 0.179898
Si Si4 0.765461 0.145774 0.319220
Si Si5 0.943657 0.145082 0.820321
O O1 0.604815 0.738842 0.236614
O O2 0.704499 0.825635 0.231138
O O3 0.623272 0.000000 0.250000
O O4 0.641339 0.874873 0.000000
O O5 0.435762 0.500000 0.250000
O O6 0.500000 0.714344 0.250000
O O7 0.450456 0.641613 0.500000
O O8 0.854843 0.500000 0.250000
O O9 0.798290 0.272812 0.251894
O O10 0.901772 0.263642 0.221972
O O11 0.840299 0.360702 0.000000
O O12 0.772809 0.139298 0.500000
O O13 0.785561 0.000000 0.250000
O O14 0.000000 0.190707 0.750000
O O15 0.923835 0.000000 0.750000
O O16 0.950048 0.125173 0.000000
#
# Coordination Sequence:
#
# PCOD8203743 Si02
#       5
#     8   8   8   8   8
#     4   9  20  36  55  80 108 138 176 220 267 316
#     4  10  20  35  53  76 105 139 178 218 263 317
#     4  11  24  39  56  82 113 147 183 225 274 323
#     4  10  20  37  59  82 109 143 182 224 269 323
#     4  10  21  37  59  84 110 142 182 223 268 319
#
# _framework density 18.861879999999999
#
# number of rings (size 3 to 8) (size 9 to 14) (size 15 to 20)
#    0.000    2.000    0.000    4.200    0.000    8.800 
#    0.000    6.000    0.000    0.000    0.000    0.000 
#    0.000    0.000    0.000    0.000    0.000    0.000 
#
# Total GULP energy -496110.095373 kJ/mol
# GULP energy per Si atom -12402.752384 kJ/mol
# Density = 1.881895 g / cm^3
# Si number density = 18.861880 Si / 1000 Ang^3
#
#
#
# Elastic Constant Matrix: (Units=GPa)
#
#
# Indices 1 2 3 4 5 6 
#
# 1 125.8306 93.6527 56.6316 0.0000 0.0000 0.0000
# 2 93.6527 147.4324 59.1116 0.0000 0.0000 0.0000
# 3 56.6316 59.1116 84.4930 0.0000 0.0000 0.0000
# 4 0.0000 0.0000 0.0000 35.1658 0.0000 0.0000
# 5 0.0000 0.0000 0.0000 0.0000 27.4165 0.0000
# 6 0.0000 0.0000 0.0000 0.0000 0.0000 37.3649
#
#
#
# Elastic Compliance Matrix: (Units=1/GPa)
#
#
# Indices 1 2 3 4 5 6 
#
# 1 0.016570 -0.008440 -0.005201 0.000000 0.000000 0.000000
# 2 -0.008440 0.013726 -0.003946 0.000000 0.000000 0.000000
# 3 -0.005201 -0.003946 0.018082 0.000000 0.000000 0.000000
# 4 0.000000 0.000000 0.000000 0.028437 0.000000 0.000000
# 5 0.000000 0.000000 0.000000 0.000000 0.036474 0.000000
# 6 0.000000 0.000000 0.000000 0.000000 0.000000 0.026763
#
#
# Mechanical properties :
#
#
# Convention : Reuss Voigt Hill
#
# Bulk Modulus (GPa) = 75.73727 86.28309 81.01018
# Shear Modulus (GPa) = 27.83529 29.88012 28.85771
#
# Velocity S-wave (km/s) = 3.84571 3.98446 3.91570
# Velocity P-wave (km/s) = 7.74339 8.18608 7.96781
#
# Compressibility (1/GPa) = 0.01320354
#
# Stress axis : x y z
#
# Youngs Moduli (GPa) = 60.35021 72.85297 55.30380
#
# Poissons Ratio (x) = 0.61490 0.28765
# Poissons Ratio (y) = 0.50937 0.21822
# Poissons Ratio (z) = 0.31389 0.28747
#
# Static dielectric constant tensor:
#      x y z
#    x 3.785150 0.000000 0.000000 
#    y 0.000000 3.419310 0.000000 
#    z 0.000000 0.000000 3.586450 
# 
# 
# High freq. dielectric constant tensor:
#      x y z
#    x 1.744040 0.000000 0.000000 
#    y 0.000000 1.730580 0.000000 
#    z 0.000000 0.000000 1.745340 
# 
# From -- ./inp_files/1691.got.cif
#   From: 2010.03.12/outbox.cif.g09.slc.cpg/sg49_1_cif.got.tgz:1691.got - 2010.04.14 03:58:27.
