data_PCOD8203156
_publ_section_title
;
Structure prediction by ZEFSAII (Michael W. Deem and Ramdas Pophale) SiO2 
 PCOD8203156
Probable space group: P C C M
;
_chemical_formula_sum "Si O2"
_cell_formula_units_Z 56
_cell_length_a 15.393508
_cell_length_b 20.265566
_cell_length_c 8.759792
_cell_angle_alpha 90.000000
_cell_angle_beta 90.000000
_cell_angle_gamma 90.000000
_cell_volume 2732.688527
_symmetry_space_group_name_H-M "P C C M"
_symmetry_group_IT_number 49
_symmetry_cell_setting 'orthorhombic'
loop_
_space_group_symop_operation_xyz
x,y,z
-x,-y,z
x,-y,1/2-z
-x,y,1/2-z
-x,-y,-z
x,y,-z
-x,y,1/2+z
x,-y,1/2+z
loop_
_atom_site_type_symbol
_atom_site_label
_atom_site_fract_x
_atom_site_fract_y
_atom_site_fract_z
Si Si1 0.590418 0.674926 0.320737
Si Si2 0.733234 0.934225 0.181058
Si Si3 0.323722 0.792963 0.673459
Si Si4 0.873789 0.761569 0.175714
Si Si5 0.912386 0.103509 0.179913
Si Si6 0.729755 0.431175 0.180166
Si Si7 0.913643 0.376405 0.818632
O O1 0.500000 0.651194 0.250000
O O2 0.582543 0.670806 0.500000
O O3 0.610305 0.750567 0.274870
O O4 0.665983 0.626347 0.259216
O O5 0.679702 0.869014 0.232181
O O6 0.830758 0.932245 0.244029
O O7 0.687708 0.000000 0.250000
O O8 0.737558 0.937450 0.000000
O O9 0.357127 0.790705 0.500000
O O10 0.229798 0.760104 0.688638
O O11 0.912150 0.819243 0.279565
O O12 0.911789 0.694867 0.241810
O O13 0.902488 0.772073 0.000000
O O14 0.000000 0.071710 0.250000
O O15 0.909170 0.092797 0.000000
O O16 0.698530 0.500000 0.250000
O O17 0.828396 0.416594 0.232789
O O18 0.723791 0.435932 0.000000
O O19 0.000000 0.412073 0.750000
O O20 0.918994 0.370063 0.000000
#
# Coordination Sequence:
#
# PCOD8203156 Si02
#       7
#     8   8   8   8   8   8   8
#     4  11  23  41  66  97 126 156 198 245 301 365
#     4  10  21  37  56  83 115 153 201 243 298 362
#     4   9  19  36  60  88 119 154 195 243 295 355
#     4  10  19  33  54  81 112 151 197 248 304 358
#     4  11  21  33  49  72 107 150 197 253 307 357
#     4  10  24  43  63  88 123 163 204 250 302 363
#     4  11  22  37  56  84 118 158 208 254 302 357
#
# _framework density 20.492637999999999
#
# number of rings (size 3 to 8) (size 9 to 14) (size 15 to 20)
#    0.000    1.714    1.429    4.286    0.000    6.000 
#    0.000    4.286    0.000    0.429    0.000    3.000 
#    0.000    0.000    0.000    0.000    0.000    0.000 
#
# Total GULP energy -694469.501478 kJ/mol
# GULP energy per Si atom -12401.241098 kJ/mol
# Density = 2.044600 g / cm^3
# Si number density = 20.492638 Si / 1000 Ang^3
#
#
#
# Elastic Constant Matrix: (Units=GPa)
#
#
# Indices 1 2 3 4 5 6 
#
# 1 103.3988 47.4240 38.1473 0.0000 0.0000 0.0000
# 2 47.4240 122.9269 36.1297 0.0000 0.0000 0.0000
# 3 38.1473 36.1297 82.7778 0.0000 0.0000 0.0000
# 4 0.0000 0.0000 0.0000 34.0912 0.0000 0.0000
# 5 0.0000 0.0000 0.0000 0.0000 30.9163 0.0000
# 6 0.0000 0.0000 0.0000 0.0000 0.0000 5.8557
#
#
#
# Elastic Compliance Matrix: (Units=1/GPa)
#
#
# Indices 1 2 3 4 5 6 
#
# 1 0.012990 -0.003731 -0.004358 0.000000 0.000000 0.000000
# 2 -0.003731 0.010403 -0.002822 0.000000 0.000000 0.000000
# 3 -0.004358 -0.002822 0.015320 0.000000 0.000000 0.000000
# 4 0.000000 0.000000 0.000000 0.029333 0.000000 0.000000
# 5 0.000000 0.000000 0.000000 0.000000 0.032345 0.000000
# 6 0.000000 0.000000 0.000000 0.000000 0.000000 0.170774
#
#
# Mechanical properties :
#
#
# Convention : Reuss Voigt Hill
#
# Bulk Modulus (GPa) = 59.19418 61.38951 60.29184
# Shear Modulus (GPa) = 16.74381 26.66613 21.70497
#
# Velocity S-wave (km/s) = 2.86153 3.61120 3.25800
# Velocity P-wave (km/s) = 6.31396 6.88546 6.60590
#
# Compressibility (1/GPa) = 0.01689355
#
# Stress axis : x y z
#
# Youngs Moduli (GPa) = 76.98113 96.12218 65.27231
#
# Poissons Ratio (x) = 0.35859 0.28446
# Poissons Ratio (y) = 0.28718 0.18417
# Poissons Ratio (z) = 0.33549 0.27121
#
# Static dielectric constant tensor:
#      x y z
#    x 3.719460 0.000000 0.000000 
#    y 0.000000 3.806940 0.000000 
#    z 0.000000 0.000000 3.644820 
# 
# 
# High freq. dielectric constant tensor:
#      x y z
#    x 1.785070 0.000000 0.000000 
#    y 0.000000 1.801730 0.000000 
#    z 0.000000 0.000000 1.802840 
# 
# From -- ./inp_files/4000.got.cif
#   From: 2010.03.12/outbox.cif.g09.slc.cpg/sg49_2_cif.got.tgz:4000.got - 2010.04.14 03:58:27.
