data_PCOD8203055
_publ_section_title
;
Structure prediction by ZEFSAII (Michael W. Deem and Ramdas Pophale) SiO2 
 PCOD8203055
Probable space group: P C C M
;
_chemical_formula_sum "Si O2"
_cell_formula_units_Z 56
_cell_length_a 31.810896
_cell_length_b 5.148053
_cell_length_c 16.976183
_cell_angle_alpha 90.000000
_cell_angle_beta 90.000000
_cell_angle_gamma 90.000000
_cell_volume 2780.090665
_symmetry_space_group_name_H-M "P C C M"
_symmetry_group_IT_number 49
_symmetry_cell_setting 'orthorhombic'
loop_
_space_group_symop_operation_xyz
x,y,z
-x,-y,z
x,-y,1/2-z
-x,y,1/2-z
-x,-y,-z
x,y,-z
-x,y,1/2+z
x,-y,1/2+z
loop_
_atom_site_type_symbol
_atom_site_label
_atom_site_fract_x
_atom_site_fract_y
_atom_site_fract_z
Si Si1 0.957521 0.608979 0.911265
Si Si2 0.737621 0.257914 0.801105
Si Si3 0.607693 0.290962 0.407311
Si Si4 0.095006 0.905510 0.911222
Si Si5 0.830701 0.251795 0.199578
Si Si6 0.660217 0.215772 0.909115
Si Si7 0.481339 0.749764 0.660889
O O1 0.926458 0.371001 0.910106
O O2 0.000000 0.500000 0.867978
O O3 0.934682 0.864745 0.872623
O O4 0.970255 0.693630 0.000000
O O5 0.721894 0.500000 0.750000
O O6 0.784605 0.322402 0.834972
O O7 0.706277 0.227584 0.873078
O O8 0.736638 0.000000 0.750000
O O9 0.594319 0.294887 0.500000
O O10 0.629426 0.556768 0.379389
O O11 0.568723 0.250735 0.348008
O O12 0.639695 0.059530 0.389477
O O13 0.137968 0.851033 0.866771
O O14 0.105880 0.995437 0.000000
O O15 0.848282 0.500000 0.250000
O O16 0.823051 0.000000 0.250000
O O17 0.668132 0.258341 0.000000
O O18 0.500000 0.500000 0.616154
O O19 0.500000 0.749818 0.750000
O O20 0.500000 0.000000 0.616455
#
# Coordination Sequence:
#
# PCOD8203055 Si02
#       7
#     8   8   8   8   8   8   8
#     4   9  17  30  50  78 112 143 180 238 290 329
#     4  10  21  39  57  86 113 147 189 227 278 340
#     4  10  21  38  59  82 111 147 183 222 277 335
#     4  10  19  32  54  83 107 141 196 235 274 337
#     4  10  21  37  57  77 115 152 184 230 286 345
#     4  10  21  39  60  86 116 146 183 230 282 336
#     4  10  21  38  53  78 112 141 182 227 267 319
#
# _framework density 20.143228000000001
#
# number of rings (size 3 to 8) (size 9 to 14) (size 15 to 20)
#    0.000    2.143    0.000    3.000    0.000    2.857 
#   15.429    0.000    0.000   16.714    0.000    0.000 
#    0.000    0.000    0.000    0.000    0.000    0.000 
#
# Total GULP energy -693840.462592 kJ/mol
# GULP energy per Si atom -12390.008261 kJ/mol
# Density = 2.009738 g / cm^3
# Si number density = 20.143228 Si / 1000 Ang^3
#
#
#
# Elastic Constant Matrix: (Units=GPa)
#
#
# Indices 1 2 3 4 5 6 
#
# 1 123.9063 17.5224 49.7171 0.0000 0.0000 0.0000
# 2 17.5224 131.2185 13.4327 0.0000 0.0000 0.0000
# 3 49.7171 13.4327 42.4161 0.0000 0.0000 0.0000
# 4 0.0000 0.0000 0.0000 15.7519 0.0000 0.0000
# 5 0.0000 0.0000 0.0000 0.0000 26.8987 0.0000
# 6 0.0000 0.0000 0.0000 0.0000 0.0000 35.6361
#
#
#
# Elastic Compliance Matrix: (Units=1/GPa)
#
#
# Indices 1 2 3 4 5 6 
#
# 1 0.015242 -0.000213 -0.017798 0.000000 0.000000 0.000000
# 2 -0.000213 0.007879 -0.002245 0.000000 0.000000 0.000000
# 3 -0.017798 -0.002245 0.045149 0.000000 0.000000 0.000000
# 4 0.000000 0.000000 0.000000 0.063485 0.000000 0.000000
# 5 0.000000 0.000000 0.000000 0.000000 0.037176 0.000000
# 6 0.000000 0.000000 0.000000 0.000000 0.000000 0.028061
#
#
# Mechanical properties :
#
#
# Convention : Reuss Voigt Hill
#
# Bulk Modulus (GPa) = 36.02739 50.98723 43.50731
# Shear Modulus (GPa) = 20.26269 30.11525 25.18897
#
# Velocity S-wave (km/s) = 3.17508 3.87079 3.54007
# Velocity P-wave (km/s) = 5.60053 6.73384 6.19317
#
# Compressibility (1/GPa) = 0.02775666
#
# Stress axis : x y z
#
# Youngs Moduli (GPa) = 65.60671 126.91640 22.14894
#
# Poissons Ratio (x) = 0.02708 0.39422
# Poissons Ratio (y) = 0.01400 0.04973
# Poissons Ratio (z) = 1.16769 0.28494
#
# Static dielectric constant tensor:
#      x y z
#    x 3.877460 0.000000 0.000000 
#    y 0.000000 -16.031150 0.000000 
#    z 0.000000 0.000000 3.279960 
# 
# 
# High freq. dielectric constant tensor:
#      x y z
#    x 1.794790 0.000000 0.000000 
#    y 0.000000 1.819800 0.000000 
#    z 0.000000 0.000000 1.739910 
# 
# From -- ./inp_files/14616.got.cif
#   From: 2010.03.12/outbox.cif.g09.slc.cpg/sg49_8_cif.got.tgz:14616.got - 2010.04.14 03:58:27.
