data_PCOD8203367
_publ_section_title
;
Structure prediction by ZEFSAII (Michael W. Deem and Ramdas Pophale) SiO2 
 PCOD8203367
Probable space group: P C C M
;
_chemical_formula_sum "Si O2"
_cell_formula_units_Z 64
_cell_length_a 12.519400
_cell_length_b 14.633476
_cell_length_c 17.559967
_cell_angle_alpha 90.000000
_cell_angle_beta 90.000000
_cell_angle_gamma 90.000000
_cell_volume 3217.027035
_symmetry_space_group_name_H-M "P C C M"
_symmetry_group_IT_number 49
_symmetry_cell_setting 'orthorhombic'
loop_
_space_group_symop_operation_xyz
x,y,z
-x,-y,z
x,-y,1/2-z
-x,y,1/2-z
-x,-y,-z
x,y,-z
-x,y,1/2+z
x,-y,1/2+z
loop_
_atom_site_type_symbol
_atom_site_label
_atom_site_fract_x
_atom_site_fract_y
_atom_site_fract_z
Si Si1 0.816096 0.778970 0.090121
Si Si2 0.685330 0.494233 0.160286
Si Si3 0.375559 0.696525 0.911900
Si Si4 0.975116 0.278470 0.838366
Si Si5 0.889540 0.550342 0.414346
Si Si6 0.116033 0.973759 0.411544
Si Si7 0.194544 0.835954 0.088055
Si Si8 0.387915 0.328717 0.088512
O O1 0.835194 0.880790 0.125022
O O2 0.705738 0.736085 0.122319
O O3 0.914397 0.715214 0.115354
O O4 0.809229 0.781151 0.000000
O O5 0.692467 0.500000 0.250000
O O6 0.650351 0.392971 0.136664
O O7 0.800752 0.515209 0.122745
O O8 0.606320 0.573246 0.130698
O O9 0.302618 0.783140 0.886711
O O10 0.499408 0.722699 0.897885
O O11 0.355624 0.672629 0.000000
O O12 0.896927 0.360315 0.862386
O O13 0.908065 0.189233 0.860843
O O14 0.000000 0.281171 0.750000
O O15 0.856027 0.578246 0.500000
O O16 0.000000 0.500000 0.413998
O O17 0.097267 0.953003 0.500000
O O18 0.203608 0.054576 0.399637
O O19 0.000000 0.000000 0.375838
O O20 0.167812 0.814127 0.000000
O O21 0.368009 0.349005 0.000000
#
# Coordination Sequence:
#
# PCOD8203367 Si02
#       8
#     8   8   8   8   8   8   8   8
#     4  10  20  37  59  83 116 154 194 237 292 352
#     4  12  25  37  58  85 115 149 195 248 294 341
#     4  10  21  39  61  83 112 153 200 244 287 348
#     4  12  24  34  55  84 119 151 189 239 292 342
#     4  11  24  39  57  80 114 159 196 232 289 353
#     4   9  16  30  57  88 113 148 194 239 284 345
#     4  10  19  36  60  84 113 151 197 239 290 350
#     4  10  22  39  59  83 113 153 199 243 290 348
#
# _framework density 19.894143
#
# number of rings (size 3 to 8) (size 9 to 14) (size 15 to 20)
#    0.000    1.500    2.500    3.375    3.500    4.000 
#    0.000    1.875    0.000    3.750    0.000    0.000 
#    0.000    4.000    0.000    0.000    0.000    0.000 
#
# Total GULP energy -793489.533089 kJ/mol
# GULP energy per Si atom -12398.273955 kJ/mol
# Density = 1.984886 g / cm^3
# Si number density = 19.894143 Si / 1000 Ang^3
#
#
#
# Elastic Constant Matrix: (Units=GPa)
#
#
# Indices 1 2 3 4 5 6 
#
# 1 123.4824 36.5563 20.4252 0.0000 0.0000 0.0000
# 2 36.5563 93.3525 17.9385 0.0000 0.0000 0.0000
# 3 20.4252 17.9385 67.5236 0.0000 0.0000 0.0000
# 4 0.0000 0.0000 0.0000 -68.8886 0.0000 0.0000
# 5 0.0000 0.0000 0.0000 0.0000 14.6860 0.0000
# 6 0.0000 0.0000 0.0000 0.0000 0.0000 27.1975
#
#
#
# Elastic Compliance Matrix: (Units=1/GPa)
#
#
# Indices 1 2 3 4 5 6 
#
# 1 0.009402 -0.003304 -0.001966 0.000000 0.000000 0.000000
# 2 -0.003304 0.012449 -0.002308 0.000000 0.000000 0.000000
# 3 -0.001966 -0.002308 0.016018 0.000000 0.000000 0.000000
# 4 0.000000 0.000000 0.000000 -0.014516 0.000000 0.000000
# 5 0.000000 0.000000 0.000000 0.000000 0.068092 0.000000
# 6 0.000000 0.000000 0.000000 0.000000 0.000000 0.036768
#
#
# Mechanical properties :
#
#
# Convention : Reuss Voigt Hill
#
# Bulk Modulus (GPa) = 44.02848 48.24427 46.13637
# Shear Modulus (GPa) = 33.12590 8.56154 20.84372
#
# Velocity S-wave (km/s) = 4.08500 2.07675 3.24038
# Velocity P-wave (km/s) = 6.66551 5.48212 6.10257
#
# Compressibility (1/GPa) = 0.02271257
#
# Stress axis : x y z
#
# Youngs Moduli (GPa) = 106.36463 80.32559 62.43163
#
# Poissons Ratio (x) = 0.26538 0.12275
# Poissons Ratio (y) = 0.35141 0.14409
# Poissons Ratio (z) = 0.20913 0.18539
#
# Static dielectric constant tensor:
#      x y z
#    x 4.028490 0.000000 0.000000 
#    y 0.000000 4.004090 0.000000 
#    z 0.000000 0.000000 3.341380 
# 
# 
# High freq. dielectric constant tensor:
#      x y z
#    x 1.778570 0.000000 0.000000 
#    y 0.000000 1.773360 0.000000 
#    z 0.000000 0.000000 1.746450 
# 
# From -- ./inp_files/17270.got.cif
#   From: 2010.03.12/outbox.cif.g09.slc.cpg/sg49_9_cif.got.tgz:17270.got - 2010.04.14 03:58:27.
