data_PCOD8203957
_publ_section_title
;
Structure prediction by ZEFSAII (Michael W. Deem and Ramdas Pophale) SiO2 
 PCOD8203957
Probable space group: P C C M
;
_chemical_formula_sum "Si O2"
_cell_formula_units_Z 48
_cell_length_a 8.632842
_cell_length_b 17.557031
_cell_length_c 14.955677
_cell_angle_alpha 90.000000
_cell_angle_beta 90.000000
_cell_angle_gamma 90.000000
_cell_volume 2266.788212
_symmetry_space_group_name_H-M "P C C M"
_symmetry_group_IT_number 49
_symmetry_cell_setting 'orthorhombic'
loop_
_space_group_symop_operation_xyz
x,y,z
-x,-y,z
x,-y,1/2-z
-x,y,1/2-z
-x,-y,-z
x,y,-z
-x,y,1/2+z
x,-y,1/2+z
loop_
_atom_site_type_symbol
_atom_site_label
_atom_site_fract_x
_atom_site_fract_y
_atom_site_fract_z
Si Si1 0.089644 0.198617 0.163743
Si Si2 0.699573 0.672248 0.097728
Si Si3 0.658287 0.701464 0.395320
Si Si4 0.890877 0.065324 0.100784
Si Si5 0.822127 0.589724 0.259472
Si Si6 0.669285 0.144338 0.787215
O O1 0.168867 0.263009 0.103857
O O2 0.225345 0.144302 0.199411
O O3 0.000000 0.234261 0.250000
O O4 0.976599 0.147102 0.104324
O O5 0.526631 0.702230 0.111417
O O6 0.724319 0.611118 0.173136
O O7 0.716034 0.634251 0.000000
O O8 0.710820 0.703110 0.500000
O O9 0.742932 0.628786 0.347385
O O10 0.702253 0.777798 0.342505
O O11 0.726788 0.073051 0.152542
O O12 0.850805 0.042688 0.000000
O O13 0.000000 0.000000 0.143893
O O14 0.808978 0.500000 0.250000
O O15 0.000000 0.616122 0.250000
O O16 0.500000 0.131083 0.750000
#
# Coordination Sequence:
#
# PCOD8203957 Si02
#       6
#     8   8   8   8   8   8
#     4  10  20  36  63  91 127 168 209 260 311 373
#     4  11  22  38  63  94 127 165 212 262 318 379
#     4  11  23  40  66  97 128 165 215 268 325 385
#     4  10  23  42  62  93 134 172 215 264 323 388
#     4  11  25  44  63  89 128 170 213 264 323 384
#     4  11  20  38  66  94 127 166 217 268 319 380
#
# _framework density 21.175336999999999
#
# number of rings (size 3 to 8) (size 9 to 14) (size 15 to 20)
#    0.000    1.333    3.333    2.000    2.333    5.667 
#    0.000    5.000    0.000    2.000    0.000    0.000 
#    0.000    0.000    0.000    0.000    0.000    0.000 
#
# Total GULP energy -594726.264318 kJ/mol
# GULP energy per Si atom -12390.130507 kJ/mol
# Density = 2.112714 g / cm^3
# Si number density = 21.175337 Si / 1000 Ang^3
#
#
#
# Elastic Constant Matrix: (Units=GPa)
#
#
# Indices 1 2 3 4 5 6 
#
# 1 118.9477 31.9247 41.3791 0.0000 0.0000 0.0000
# 2 31.9247 80.2574 26.0257 0.0000 0.0000 0.0000
# 3 41.3791 26.0257 115.2063 0.0000 0.0000 0.0000
# 4 0.0000 0.0000 0.0000 18.1102 0.0000 0.0000
# 5 0.0000 0.0000 0.0000 0.0000 32.1404 0.0000
# 6 0.0000 0.0000 0.0000 0.0000 0.0000 31.6102
#
#
#
# Elastic Compliance Matrix: (Units=1/GPa)
#
#
# Indices 1 2 3 4 5 6 
#
# 1 0.010285 -0.003122 -0.002989 0.000000 0.000000 0.000000
# 2 -0.003122 0.014392 -0.002130 0.000000 0.000000 0.000000
# 3 -0.002989 -0.002130 0.010235 0.000000 0.000000 0.000000
# 4 0.000000 0.000000 0.000000 0.055218 0.000000 0.000000
# 5 0.000000 0.000000 0.000000 0.000000 0.031114 0.000000
# 6 0.000000 0.000000 0.000000 0.000000 0.000000 0.031635
#
#
# Mechanical properties :
#
#
# Convention : Reuss Voigt Hill
#
# Bulk Modulus (GPa) = 54.25759 57.00780 55.63269
# Shear Modulus (GPa) = 28.48955 30.71095 29.60025
#
# Velocity S-wave (km/s) = 3.67196 3.81243 3.74286
# Velocity P-wave (km/s) = 6.60730 6.80880 6.70881
#
# Compressibility (1/GPa) = 0.01843060
#
# Stress axis : x y z
#
# Youngs Moduli (GPa) = 97.23238 69.48099 97.70641
#
# Poissons Ratio (x) = 0.21691 0.29202
# Poissons Ratio (y) = 0.30354 0.20812
# Poissons Ratio (z) = 0.29060 0.14800
#
# Static dielectric constant tensor:
#      x y z
#    x 4.172460 0.000000 0.000000 
#    y 0.000000 3.623970 0.000000 
#    z 0.000000 0.000000 3.967200 
# 
# 
# High freq. dielectric constant tensor:
#      x y z
#    x 1.847140 0.000000 0.000000 
#    y 0.000000 1.810330 0.000000 
#    z 0.000000 0.000000 1.834310 
# 
# From -- ./inp_files/11816.got.cif
#   From: 2010.03.12/outbox.cif.g09.slc.cpg/sg49_6_cif.got.tgz:11816.got - 2010.04.14 03:58:27.
