data_PCOD8203241
_publ_section_title
;
Structure prediction by ZEFSAII (Michael W. Deem and Ramdas Pophale) SiO2 
 PCOD8203241
Probable space group: P C C M
;
_chemical_formula_sum "Si O2"
_cell_formula_units_Z 64
_cell_length_a 11.706899
_cell_length_b 17.719632
_cell_length_c 15.513498
_cell_angle_alpha 90.000000
_cell_angle_beta 90.000000
_cell_angle_gamma 90.000000
_cell_volume 3218.150155
_symmetry_space_group_name_H-M "P C C M"
_symmetry_group_IT_number 49
_symmetry_cell_setting 'orthorhombic'
loop_
_space_group_symop_operation_xyz
x,y,z
-x,-y,z
x,-y,1/2-z
-x,y,1/2-z
-x,-y,-z
x,y,-z
-x,y,1/2+z
x,-y,1/2+z
loop_
_atom_site_type_symbol
_atom_site_label
_atom_site_fract_x
_atom_site_fract_y
_atom_site_fract_z
Si Si1 0.631573 0.911140 0.745650
Si Si2 0.342741 0.794460 0.900611
Si Si3 0.836914 0.676847 0.349446
Si Si4 0.438429 0.293873 0.904822
Si Si5 0.931282 0.274772 0.403659
Si Si6 0.752627 0.378591 0.668212
Si Si7 0.129238 0.487909 0.597392
Si Si8 0.744158 0.162994 0.595079
O O1 0.500000 0.887331 0.750000
O O2 0.677677 0.868615 0.659520
O O3 0.704128 0.891131 0.829762
O O4 0.646095 0.000000 0.750000
O O5 0.232811 0.741388 0.898699
O O6 0.448545 0.744070 0.863683
O O7 0.365765 0.820594 0.000000
O O8 0.781409 0.660582 0.257941
O O9 0.837723 0.599777 0.403130
O O10 0.965375 0.708762 0.337983
O O11 0.382617 0.363479 0.850983
O O12 0.340932 0.232248 0.909145
O O13 0.470493 0.323932 0.000000
O O14 0.982612 0.273754 0.500000
O O15 0.836899 0.340799 0.401448
O O16 0.870668 0.194588 0.382651
O O17 0.782490 0.467610 0.660744
O O18 0.140658 0.518052 0.500000
O O19 0.000000 0.500000 0.631995
O O20 0.744378 0.123076 0.500000
#
# Coordination Sequence:
#
# PCOD8203241 Si02
#       8
#     8   8   8   8   8   8   8   8
#     4  11  23  38  61  93 126 153 190 248 305 365
#     4  11  23  40  62  88 125 165 200 247 307 371
#     4  12  24  35  57  89 122 154 204 257 311 361
#     4   9  18  35  58  82 109 153 203 238 287 362
#     4  10  19  34  55  82 111 149 198 245 291 353
#     4  11  21  33  56  82 112 156 201 253 306 357
#     4  11  22  37  55  78 118 160 201 258 314 360
#     4   9  18  35  60  84 115 154 198 241 287 356
#
# _framework density 19.887201999999998
#
# number of rings (size 3 to 8) (size 9 to 14) (size 15 to 20)
#    0.000    1.500    2.500    5.250    0.000    1.000 
#    0.000    1.875    0.000    5.250    0.000    2.625 
#    0.000    0.000    0.000    0.000    0.000    0.000 
#
# Total GULP energy -793118.824492 kJ/mol
# GULP energy per Si atom -12392.481633 kJ/mol
# Density = 1.984194 g / cm^3
# Si number density = 19.887202 Si / 1000 Ang^3
#
#
#
# Elastic Constant Matrix: (Units=GPa)
#
#
# Indices 1 2 3 4 5 6 
#
# 1 78.1794 41.3127 25.4517 0.0000 0.0000 0.0000
# 2 41.3127 91.7120 39.1162 0.0000 0.0000 0.0000
# 3 25.4517 39.1162 97.1179 0.0000 0.0000 0.0000
# 4 0.0000 0.0000 0.0000 17.4282 0.0000 0.0000
# 5 0.0000 0.0000 0.0000 0.0000 -14.5296 0.0000
# 6 0.0000 0.0000 0.0000 0.0000 0.0000 27.0994
#
#
#
# Elastic Compliance Matrix: (Units=1/GPa)
#
#
# Indices 1 2 3 4 5 6 
#
# 1 0.017005 -0.006954 -0.001656 0.000000 0.000000 0.000000
# 2 -0.006954 0.016009 -0.004626 0.000000 0.000000 0.000000
# 3 -0.001656 -0.004626 0.012594 0.000000 0.000000 0.000000
# 4 0.000000 0.000000 0.000000 0.057378 0.000000 0.000000
# 5 0.000000 0.000000 0.000000 0.000000 -0.068825 0.000000
# 6 0.000000 0.000000 0.000000 0.000000 0.000000 0.036901
#
#
# Mechanical properties :
#
#
# Convention : Reuss Voigt Hill
#
# Bulk Modulus (GPa) = 52.25379 53.19673 52.72526
# Shear Modulus (GPa) = 48.11801 16.74150 32.42975
#
# Velocity S-wave (km/s) = 4.92422 2.90457 4.04255
# Velocity P-wave (km/s) = 7.65916 6.16895 6.95409
#
# Compressibility (1/GPa) = 0.01913737
#
# Stress axis : x y z
#
# Youngs Moduli (GPa) = 58.80712 62.46492 79.40486
#
# Poissons Ratio (x) = 0.43437 0.13147
# Poissons Ratio (y) = 0.40893 0.36729
# Poissons Ratio (z) = 0.09736 0.28893
#
# Static dielectric constant tensor:
#      x y z
#    x 3.721730 0.000000 0.000000 
#    y 0.000000 3.504790 0.000000 
#    z 0.000000 0.000000 4.274220 
# 
# 
# High freq. dielectric constant tensor:
#      x y z
#    x 1.764200 0.000000 0.000000 
#    y 0.000000 1.743090 0.000000 
#    z 0.000000 0.000000 1.784500 
# 
# From -- ./inp_files/13092.got.cif
#   From: 2010.03.12/outbox.cif.g09.slc.cpg/sg49_7_cif.got.tgz:13092.got - 2010.04.14 03:58:27.
