data_PCOD8203561
_publ_section_title
;
Structure prediction by ZEFSAII (Michael W. Deem and Ramdas Pophale) SiO2 
 PCOD8203561
Probable space group: P C C M
;
_chemical_formula_sum "Si O2"
_cell_formula_units_Z 40
_cell_length_a 9.338852
_cell_length_b 26.113634
_cell_length_c 8.692867
_cell_angle_alpha 90.000000
_cell_angle_beta 90.000000
_cell_angle_gamma 90.000000
_cell_volume 2119.941325
_symmetry_space_group_name_H-M "P C C M"
_symmetry_group_IT_number 49
_symmetry_cell_setting 'orthorhombic'
loop_
_space_group_symop_operation_xyz
x,y,z
-x,-y,z
x,-y,1/2-z
-x,y,1/2-z
-x,-y,-z
x,y,-z
-x,y,1/2+z
x,-y,1/2+z
loop_
_atom_site_type_symbol
_atom_site_label
_atom_site_fract_x
_atom_site_fract_y
_atom_site_fract_z
Si Si1 0.344371 0.141369 0.317725
Si Si2 0.157028 0.339752 0.819552
Si Si3 0.843256 0.761623 0.319585
Si Si4 0.842686 0.549560 0.820277
Si Si5 0.150233 0.055695 0.816859
O O1 0.500000 0.150023 0.250000
O O2 0.349199 0.132898 0.500000
O O3 0.253455 0.190877 0.270193
O O4 0.277395 0.092079 0.236547
O O5 0.234142 0.290534 0.743178
O O6 0.232551 0.395129 0.783858
O O7 0.000000 0.341413 0.750000
O O8 0.146981 0.330434 0.000000
O O9 0.858807 0.757164 0.500000
O O10 0.000000 0.769648 0.250000
O O11 0.758327 0.500000 0.750000
O O12 0.000000 0.550767 0.750000
O O13 0.855547 0.541227 0.000000
O O14 0.000000 0.076674 0.750000
O O15 0.183711 0.000000 0.750000
O O16 0.140942 0.053267 0.000000
#
# Coordination Sequence:
#
# PCOD8203561 Si02
#       5
#     8   8   8   8   8
#     4  11  24  40  57  81 110 142 179 219 265 315
#     4   9  16  25  39  60  87 120 161 204 249 299
#     4  10  20  33  52  75 100 132 172 214 258 307
#     4   9  15  21  31  50  78 115 154 194 241 296
#     4  11  22  39  63  89 116 146 180 218 258 305
#
# _framework density 18.868445000000001
#
# number of rings (size 3 to 8) (size 9 to 14) (size 15 to 20)
#    0.000    2.000    0.000    7.200    0.000    7.600 
#    0.000    2.000    0.000    0.000    0.000    0.000 
#    0.000    0.800    0.000    8.800    0.000    9.800 
#
# Total GULP energy -495679.024088 kJ/mol
# GULP energy per Si atom -12391.975602 kJ/mol
# Density = 1.882550 g / cm^3
# Si number density = 18.868445 Si / 1000 Ang^3
#
#
#
# Elastic Constant Matrix: (Units=GPa)
#
#
# Indices 1 2 3 4 5 6 
#
# 1 69.0926 59.4256 37.7600 0.0000 0.0000 0.0000
# 2 59.4256 159.8891 69.8881 0.0000 0.0000 0.0000
# 3 37.7600 69.8881 123.0563 0.0000 0.0000 0.0000
# 4 0.0000 0.0000 0.0000 37.0929 0.0000 0.0000
# 5 0.0000 0.0000 0.0000 0.0000 20.8033 0.0000
# 6 0.0000 0.0000 0.0000 0.0000 0.0000 1.3397
#
#
#
# Elastic Compliance Matrix: (Units=1/GPa)
#
#
# Indices 1 2 3 4 5 6 
#
# 1 0.021976 -0.006944 -0.002800 0.000000 0.000000 0.000000
# 2 -0.006944 0.010514 -0.003840 0.000000 0.000000 0.000000
# 3 -0.002800 -0.003840 0.011167 0.000000 0.000000 0.000000
# 4 0.000000 0.000000 0.000000 0.026959 0.000000 0.000000
# 5 0.000000 0.000000 0.000000 0.000000 0.048069 0.000000
# 6 0.000000 0.000000 0.000000 0.000000 0.000000 0.746433
#
#
# Mechanical properties :
#
#
# Convention : Reuss Voigt Hill
#
# Bulk Modulus (GPa) = 60.64941 76.24281 68.44611
# Shear Modulus (GPa) = 5.56928 24.17812 14.87370
#
# Velocity S-wave (km/s) = 1.71990 3.58356 2.81069
# Velocity P-wave (km/s) = 6.01308 7.59064 6.84744
#
# Compressibility (1/GPa) = 0.01648821
#
# Stress axis : x y z
#
# Youngs Moduli (GPa) = 45.50474 95.11261 89.55336
#
# Poissons Ratio (x) = 0.66046 0.25071
# Poissons Ratio (y) = 0.31598 0.34392
# Poissons Ratio (z) = 0.12739 0.36527
#
# Static dielectric constant tensor:
#      x y z
#    x 2.973130 0.000000 0.000000 
#    y 0.000000 4.578980 0.000000 
#    z 0.000000 0.000000 3.648860 
# 
# 
# High freq. dielectric constant tensor:
#      x y z
#    x 1.663370 0.000000 0.000000 
#    y 0.000000 1.768940 0.000000 
#    z 0.000000 0.000000 1.754100 
# 
# From -- ./inp_files/1926.got.cif
#   From: 2010.03.12/outbox.cif.g09.slc.cpg/sg49_1_cif.got.tgz:1926.got - 2010.04.14 03:58:27.
