data_PCOD8203412
_publ_section_title
;
Structure prediction by ZEFSAII (Michael W. Deem and Ramdas Pophale) SiO2 
 PCOD8203412
Probable space group: P C C M
;
_chemical_formula_sum "Si O2"
_cell_formula_units_Z 58
_cell_length_a 11.556480
_cell_length_b 17.058564
_cell_length_c 14.157684
_cell_angle_alpha 90.000000
_cell_angle_beta 90.000000
_cell_angle_gamma 90.000000
_cell_volume 2791.002695
_symmetry_space_group_name_H-M "P C C M"
_symmetry_group_IT_number 49
_symmetry_cell_setting 'orthorhombic'
loop_
_space_group_symop_operation_xyz
x,y,z
-x,-y,z
x,-y,1/2-z
-x,y,1/2-z
-x,-y,-z
x,y,-z
-x,y,1/2+z
x,-y,1/2+z
loop_
_atom_site_type_symbol
_atom_site_label
_atom_site_fract_x
_atom_site_fract_y
_atom_site_fract_z
Si Si1 0.781448 0.687082 0.392170
Si Si2 0.970715 0.289445 0.394140
Si Si3 0.003421 0.887438 0.892770
Si Si4 0.364984 0.227750 0.241553
Si Si5 0.668901 0.528615 0.605270
Si Si6 0.734531 0.646925 0.111410
Si Si7 0.193217 0.915015 0.257629
Si Si8 0.500000 0.500000 0.750000
O O1 0.780810 0.719193 0.500000
O O2 0.906353 0.698341 0.341641
O O3 0.681461 0.734216 0.338642
O O4 0.767737 0.593219 0.390351
O O5 0.984789 0.322835 0.500000
O O6 0.945349 0.197869 0.393162
O O7 0.862355 0.333895 0.347045
O O8 0.125840 0.887777 0.837542
O O9 0.902783 0.935099 0.839204
O O10 0.023057 0.917949 0.000000
O O11 0.500000 0.204517 0.250000
O O12 0.354867 0.293209 0.159476
O O13 0.290313 0.149716 0.217034
O O14 0.615951 0.523935 0.500000
O O15 0.711340 0.443077 0.638917
O O16 0.572130 0.556474 0.680044
O O17 0.727481 0.661261 0.000000
O O18 0.255972 0.000000 0.250000
#
# Coordination Sequence:
#
# PCOD8203412 Si02
#       8
#     8   8   8   8   8   8   8   2
#     4  10  22  40  61  90 120 155 202 250 301 353
#     4   9  17  34  64  89 117 153 188 241 300 357
#     4  10  19  38  65  96 124 151 189 242 307 363
#     4  12  26  41  61  84 115 167 204 244 295 349
#     4  10  23  38  57  86 120 159 205 254 292 339
#     4  10  22  40  61  90 120 155 202 250 301 353
#     4  11  24  40  62  94 123 151 197 246 295 365
#     4  12  22  40  52  76 116 160 208 248 298 338
#
# _framework density 20.781063
#
# number of rings (size 3 to 8) (size 9 to 14) (size 15 to 20)
#    0.000    1.655    2.759    1.862    3.862    3.034 
#    0.000    2.759    0.000    2.483    0.000    3.862 
#    0.000    0.000    0.000    0.000    0.000    0.000 
#
# Total GULP energy -718769.861501 kJ/mol
# GULP energy per Si atom -12392.583819 kJ/mol
# Density = 2.073376 g / cm^3
# Si number density = 20.781063 Si / 1000 Ang^3
#
#
#
# Elastic Constant Matrix: (Units=GPa)
#
#
# Indices 1 2 3 4 5 6 
#
# 1 116.7285 28.4193 22.1856 0.0000 0.0000 0.0000
# 2 28.4193 103.7146 8.2841 0.0000 0.0000 0.0000
# 3 22.1856 8.2841 86.1819 0.0000 0.0000 0.0000
# 4 0.0000 0.0000 0.0000 13.8328 0.0000 0.0000
# 5 0.0000 0.0000 0.0000 0.0000 28.9505 0.0000
# 6 0.0000 0.0000 0.0000 0.0000 0.0000 17.7938
#
#
#
# Elastic Compliance Matrix: (Units=1/GPa)
#
#
# Indices 1 2 3 4 5 6 
#
# 1 0.009587 -0.002449 -0.002233 0.000000 0.000000 0.000000
# 2 -0.002449 0.010342 -0.000364 0.000000 0.000000 0.000000
# 3 -0.002233 -0.000364 0.012213 0.000000 0.000000 0.000000
# 4 0.000000 0.000000 0.000000 0.072292 0.000000 0.000000
# 5 0.000000 0.000000 0.000000 0.000000 0.034542 0.000000
# 6 0.000000 0.000000 0.000000 0.000000 0.000000 0.056199
#
#
# Mechanical properties :
#
#
# Convention : Reuss Voigt Hill
#
# Bulk Modulus (GPa) = 45.34722 47.15589 46.25155
# Shear Modulus (GPa) = 23.51649 28.63114 26.07381
#
# Velocity S-wave (km/s) = 3.36762 3.71583 3.54600
# Velocity P-wave (km/s) = 6.08194 6.41490 6.25063
#
# Compressibility (1/GPa) = 0.02205207
#
# Stress axis : x y z
#
# Youngs Moduli (GPa) = 104.30332 96.69412 81.87944
#
# Poissons Ratio (x) = 0.23678 0.18281
# Poissons Ratio (y) = 0.25541 0.02978
# Poissons Ratio (z) = 0.23288 0.03517
#
# Static dielectric constant tensor:
#      x y z
#    x 3.756940 0.000000 0.000000 
#    y 0.000000 3.690610 0.000000 
#    z 0.000000 0.000000 3.936360 
# 
# 
# High freq. dielectric constant tensor:
#      x y z
#    x 1.795590 0.000000 0.000000 
#    y 0.000000 1.810940 0.000000 
#    z 0.000000 0.000000 1.822000 
# 
# From -- ./inp_files/13008.got.cif
#   From: 2010.03.12/outbox.cif.g09.slc.cpg/sg49_7_cif.got.tgz:13008.got - 2010.04.14 03:58:27.
