data_PCOD8203947
_publ_section_title
;
Structure prediction by ZEFSAII (Michael W. Deem and Ramdas Pophale) SiO2 
 PCOD8203947
Probable space group: P C C M
;
_chemical_formula_sum "Si O2"
_cell_formula_units_Z 34
_cell_length_a 9.360873
_cell_length_b 20.694240
_cell_length_c 8.854435
_cell_angle_alpha 90.000000
_cell_angle_beta 90.000000
_cell_angle_gamma 90.000000
_cell_volume 1715.247081
_symmetry_space_group_name_H-M "P C C M"
_symmetry_group_IT_number 49
_symmetry_cell_setting 'orthorhombic'
loop_
_space_group_symop_operation_xyz
x,y,z
-x,-y,z
x,-y,1/2-z
-x,y,1/2-z
-x,-y,-z
x,y,-z
-x,y,1/2+z
x,-y,1/2+z
loop_
_atom_site_type_symbol
_atom_site_label
_atom_site_fract_x
_atom_site_fract_y
_atom_site_fract_z
Si Si1 0.500000 0.500000 0.750000
Si Si2 0.851238 0.703883 0.173453
Si Si3 0.365073 0.375813 0.666213
Si Si4 0.652157 0.826401 0.176612
Si Si5 0.148104 0.929935 0.818875
O O1 0.394810 0.453251 0.653657
O O2 0.780242 0.639489 0.244326
O O3 0.746597 0.763226 0.201850
O O4 0.000000 0.720455 0.250000
O O5 0.879881 0.689469 0.000000
O O6 0.500000 0.342099 0.750000
O O7 0.352877 0.345841 0.500000
O O8 0.500000 0.812737 0.250000
O O9 0.722479 0.885189 0.267200
O O10 0.638457 0.843909 0.000000
O O11 0.000000 0.902281 0.750000
O O12 0.178030 0.000000 0.750000
O O13 0.137782 0.933051 0.000000
#
# Coordination Sequence:
#
# PCOD8203947 Si02
#       5
#     2   8   8   8   8
#     4   8  22  36  64  92 122 160 198 240 294 348
#     4  11  24  40  61  88 122 159 200 248 302 356
#     4  10  20  36  61  89 120 155 197 240 290 350
#     4  11  24  41  61  89 121 158 202 251 302 359
#     4  11  22  39  63  90 122 161 203 250 302 362
#
# _framework density 19.822217999999999
#
# number of rings (size 3 to 8) (size 9 to 14) (size 15 to 20)
#    0.706    0.706    0.000    6.706    0.000    8.000 
#    0.000    2.941    0.000    2.824    0.000    0.000 
#    0.000    0.000    0.000    0.000    0.000    0.000 
#
# Total GULP energy -421519.564906 kJ/mol
# GULP energy per Si atom -12397.634262 kJ/mol
# Density = 1.977710 g / cm^3
# Si number density = 19.822218 Si / 1000 Ang^3
#
#
#
# Elastic Constant Matrix: (Units=GPa)
#
#
# Indices 1 2 3 4 5 6 
#
# 1 140.0535 48.8009 82.1622 0.0000 0.0000 0.0000
# 2 48.8009 76.4957 51.8747 0.0000 0.0000 0.0000
# 3 82.1622 51.8747 197.6940 0.0000 0.0000 0.0000
# 4 0.0000 0.0000 0.0000 -3.4199 0.0000 0.0000
# 5 0.0000 0.0000 0.0000 0.0000 37.8057 0.0000
# 6 0.0000 0.0000 0.0000 0.0000 0.0000 32.7492
#
#
#
# Elastic Compliance Matrix: (Units=1/GPa)
#
#
# Indices 1 2 3 4 5 6 
#
# 1 0.010626 -0.004603 -0.003208 0.000000 0.000000 0.000000
# 2 -0.004603 0.017897 -0.002783 0.000000 0.000000 0.000000
# 3 -0.003208 -0.002783 0.007122 0.000000 0.000000 0.000000
# 4 0.000000 0.000000 0.000000 -0.292409 0.000000 0.000000
# 5 0.000000 0.000000 0.000000 0.000000 0.026451 0.000000
# 6 0.000000 0.000000 0.000000 0.000000 0.000000 0.030535
#
#
# Mechanical properties :
#
#
# Convention : Reuss Voigt Hill
#
# Bulk Modulus (GPa) = 69.17762 86.65764 77.91763
# Shear Modulus (GPa) = -28.77359 28.85403 0.04022
#
# Velocity S-wave (km/s) = -3.81410 3.81943 0.14260
# Velocity P-wave (km/s) = 3.94694 7.95380 6.27859
#
# Compressibility (1/GPa) = 0.01445554
#
# Stress axis : x y z
#
# Youngs Moduli (GPa) = 94.10538 55.87667 140.41066
#
# Poissons Ratio (x) = 0.25722 0.45050
# Poissons Ratio (y) = 0.43321 0.39074
# Poissons Ratio (z) = 0.30193 0.15550
#
# Static dielectric constant tensor:
#      x y z
#    x 3.614870 0.000000 0.000000 
#    y 0.000000 3.468640 0.000000 
#    z 0.000000 0.000000 3.721240 
# 
# 
# High freq. dielectric constant tensor:
#      x y z
#    x 1.771820 0.000000 0.000000 
#    y 0.000000 1.765280 0.000000 
#    z 0.000000 0.000000 1.790580 
# 
# From -- ./inp_files/1533.got.cif
#   From: 2010.03.12/outbox.cif.g09.slc.cpg/sg49_1_cif.got.tgz:1533.got - 2010.04.14 03:58:27.
