data_PCOD8203602
_publ_section_title
;
Structure prediction by ZEFSAII (Michael W. Deem and Ramdas Pophale) SiO2 
 PCOD8203602
Probable space group: P C C M
;
_chemical_formula_sum "Si O2"
_cell_formula_units_Z 44
_cell_length_a 15.473300
_cell_length_b 4.988574
_cell_length_c 29.072763
_cell_angle_alpha 90.000000
_cell_angle_beta 90.000000
_cell_angle_gamma 90.000000
_cell_volume 2244.117914
_symmetry_space_group_name_H-M "P C C M"
_symmetry_group_IT_number 49
_symmetry_cell_setting 'orthorhombic'
loop_
_space_group_symop_operation_xyz
x,y,z
-x,-y,z
x,-y,1/2-z
-x,y,1/2-z
-x,-y,-z
x,y,-z
-x,y,1/2+z
x,-y,1/2+z
loop_
_atom_site_type_symbol
_atom_site_label
_atom_site_fract_x
_atom_site_fract_y
_atom_site_fract_z
Si Si1 0.328528 0.600013 0.085832
Si Si2 0.404896 0.596215 0.817440
Si Si3 0.561440 0.745476 0.500000
Si Si4 0.700161 0.897999 0.796846
Si Si5 0.058675 0.255212 0.948716
Si Si6 0.774889 0.898556 0.894579
O O1 0.395294 0.583295 0.127695
O O2 0.377892 0.729957 0.043781
O O3 0.292612 0.299101 0.079358
O O4 0.246042 0.794160 0.093319
O O5 0.500000 0.500000 0.803117
O O6 0.339003 0.397892 0.791277
O O7 0.381378 0.900649 0.804191
O O8 0.500000 0.500000 0.500000
O O9 0.500000 0.000000 0.500000
O O10 0.767873 0.883872 0.839000
O O11 0.747880 0.000000 0.750000
O O12 0.130954 0.189575 0.910943
O O13 0.000000 0.500000 0.930691
O O14 0.097354 0.321434 0.000000
O O15 0.000000 0.000000 0.953554
#
# Coordination Sequence:
#
# PCOD8203602 Si02
#       6
#     8   8   4   8   8   8
#     4  10  22  35  53  77 105 150 190 229 275 331
#     4  10  20  34  51  74 107 142 184 238 286 326
#     4  12  24  36  52  76 108 150 200 242 278 320
#     4  10  21  35  53  79 105 141 188 228 279 332
#     4  10  21  36  58  88 115 142 174 220 277 336
#     4  10  21  38  57  80 111 145 181 224 280 338
#
# _framework density 19.606812999999999
#
# number of rings (size 3 to 8) (size 9 to 14) (size 15 to 20)
#    0.000    1.818    0.000    3.818    2.545    5.091 
#    0.000    0.000    0.000    0.545    0.000    1.273 
#    0.000    0.000    0.000    0.000    0.000    0.000 
#
# Total GULP energy -545339.659815 kJ/mol
# GULP energy per Si atom -12394.083178 kJ/mol
# Density = 1.956219 g / cm^3
# Si number density = 19.606813 Si / 1000 Ang^3
#
#
#
# Elastic Constant Matrix: (Units=GPa)
#
#
# Indices 1 2 3 4 5 6 
#
# 1 82.3611 18.8428 53.2185 0.0000 0.0000 0.0000
# 2 18.8428 98.1114 25.6287 0.0000 0.0000 0.0000
# 3 53.2185 25.6287 120.8175 0.0000 0.0000 0.0000
# 4 0.0000 0.0000 0.0000 26.0651 0.0000 0.0000
# 5 0.0000 0.0000 0.0000 0.0000 4.3100 0.0000
# 6 0.0000 0.0000 0.0000 0.0000 0.0000 32.3143
#
#
#
# Elastic Compliance Matrix: (Units=1/GPa)
#
#
# Indices 1 2 3 4 5 6 
#
# 1 0.017152 -0.001398 -0.007259 0.000000 0.000000 0.000000
# 2 -0.001398 0.010904 -0.001697 0.000000 0.000000 0.000000
# 3 -0.007259 -0.001697 0.011834 0.000000 0.000000 0.000000
# 4 0.000000 0.000000 0.000000 0.038365 0.000000 0.000000
# 5 0.000000 0.000000 0.000000 0.000000 0.232021 0.000000
# 6 0.000000 0.000000 0.000000 0.000000 0.000000 0.030946
#
#
# Mechanical properties :
#
#
# Convention : Reuss Voigt Hill
#
# Bulk Modulus (GPa) = 52.13051 55.18558 53.65805
# Shear Modulus (GPa) = 13.57498 26.11119 19.84308
#
# Velocity S-wave (km/s) = 2.63413 3.65326 3.18473
# Velocity P-wave (km/s) = 5.99143 6.78250 6.39920
#
# Compressibility (1/GPa) = 0.01918262
#
# Stress axis : x y z
#
# Youngs Moduli (GPa) = 58.30339 91.70641 84.50022
#
# Poissons Ratio (x) = 0.12820 0.61335
# Poissons Ratio (y) = 0.08151 0.14342
# Poissons Ratio (z) = 0.42320 0.15566
#
# Static dielectric constant tensor:
#      x y z
#    x 3.126150 0.000000 0.000000 
#    y 0.000000 3.860780 0.000000 
#    z 0.000000 0.000000 4.208750 
# 
# 
# High freq. dielectric constant tensor:
#      x y z
#    x 1.719960 0.000000 0.000000 
#    y 0.000000 1.792140 0.000000 
#    z 0.000000 0.000000 1.768950 
# 
# From -- ./inp_files/26727.got.cif
#   From: 2010.03.12/outbox.cif.g09.slc.cpg/sg49_14_cif.got.tgz:26727.got - 2010.04.14 03:58:27.
