data_PCOD8203705
_publ_section_title
;
Structure prediction by ZEFSAII (Michael W. Deem and Ramdas Pophale) SiO2 
 PCOD8203705
Probable space group: P C C M
;
_chemical_formula_sum "Si O2"
_cell_formula_units_Z 48
_cell_length_a 20.477572
_cell_length_b 14.374707
_cell_length_c 8.641666
_cell_angle_alpha 90.000000
_cell_angle_beta 90.000000
_cell_angle_gamma 90.000000
_cell_volume 2543.753005
_symmetry_space_group_name_H-M "P C C M"
_symmetry_group_IT_number 49
_symmetry_cell_setting 'orthorhombic'
loop_
_space_group_symop_operation_xyz
x,y,z
-x,-y,z
x,-y,1/2-z
-x,y,1/2-z
-x,-y,-z
x,y,-z
-x,y,1/2+z
x,-y,1/2+z
loop_
_atom_site_type_symbol
_atom_site_label
_atom_site_fract_x
_atom_site_fract_y
_atom_site_fract_z
Si Si1 0.683012 0.716918 0.182620
Si Si2 0.932525 0.283075 0.316966
Si Si3 0.117572 0.902574 0.818665
Si Si4 0.429700 0.401760 0.317197
Si Si5 0.808819 0.602063 0.817003
Si Si6 0.730941 0.902197 0.317938
O O1 0.620188 0.678045 0.269731
O O2 0.746494 0.660474 0.240021
O O3 0.689703 0.823739 0.231225
O O4 0.673118 0.708470 0.000000
O O5 0.934719 0.284389 0.500000
O O6 0.924057 0.177933 0.260229
O O7 0.873808 0.347372 0.253493
O O8 0.000000 0.323919 0.250000
O O9 0.193260 0.887119 0.777261
O O10 0.092770 0.000000 0.750000
O O11 0.104729 0.901523 0.000000
O O12 0.404814 0.500000 0.250000
O O13 0.500000 0.375044 0.250000
O O14 0.434626 0.410186 0.500000
O O15 0.804122 0.500000 0.750000
O O16 0.810442 0.596217 0.000000
O O17 0.717876 0.898517 0.500000
O O18 0.706501 0.000000 0.250000
#
# Coordination Sequence:
#
# PCOD8203705 Si02
#       6
#     8   8   8   8   8   8
#     4  11  21  37  60  88 119 154 192 238 286 337
#     4  11  23  40  57  79 108 145 187 235 288 345
#     4  10  20  35  57  83 111 145 182 230 284 342
#     4  11  22  38  59  88 123 161 199 239 286 340
#     4  10  23  39  58  81 110 144 186 235 285 337
#     4  10  20  34  56  86 117 151 189 234 285 340
#
# _framework density 18.869757
#
# number of rings (size 3 to 8) (size 9 to 14) (size 15 to 20)
#    0.000    1.500    1.667    4.500    0.000    6.000 
#    0.000    3.333    0.000    0.500    0.000    3.500 
#    0.000    0.000    0.000    0.000    0.000    0.000 
#
# Total GULP energy -595491.822060 kJ/mol
# GULP energy per Si atom -12406.079626 kJ/mol
# Density = 1.882681 g / cm^3
# Si number density = 18.869757 Si / 1000 Ang^3
#
#
#
# Elastic Constant Matrix: (Units=GPa)
#
#
# Indices 1 2 3 4 5 6 
#
# 1 101.9091 57.7325 40.3978 0.0000 0.0000 0.0000
# 2 57.7325 126.2973 33.9474 0.0000 0.0000 0.0000
# 3 40.3978 33.9474 92.1020 0.0000 0.0000 0.0000
# 4 0.0000 0.0000 0.0000 36.9980 0.0000 0.0000
# 5 0.0000 0.0000 0.0000 0.0000 36.4814 0.0000
# 6 0.0000 0.0000 0.0000 0.0000 0.0000 26.3768
#
#
#
# Elastic Compliance Matrix: (Units=1/GPa)
#
#
# Indices 1 2 3 4 5 6 
#
# 1 0.014693 -0.005532 -0.004406 0.000000 0.000000 0.000000
# 2 -0.005532 0.010872 -0.001581 0.000000 0.000000 0.000000
# 3 -0.004406 -0.001581 0.013372 0.000000 0.000000 0.000000
# 4 0.000000 0.000000 0.000000 0.027029 0.000000 0.000000
# 5 0.000000 0.000000 0.000000 0.000000 0.027411 0.000000
# 6 0.000000 0.000000 0.000000 0.000000 0.000000 0.037912
#
#
# Mechanical properties :
#
#
# Convention : Reuss Voigt Hill
#
# Bulk Modulus (GPa) = 62.89161 64.94042 63.91602
# Shear Modulus (GPa) = 31.32320 32.51994 31.92157
#
# Velocity S-wave (km/s) = 4.07869 4.15588 4.11746
# Velocity P-wave (km/s) = 7.45538 7.58408 7.52000
#
# Compressibility (1/GPa) = 0.01590037
#
# Stress axis : x y z
#
# Youngs Moduli (GPa) = 68.05864 91.98314 74.78049
#
# Poissons Ratio (x) = 0.50888 0.32945
# Poissons Ratio (y) = 0.37652 0.11819
# Poissons Ratio (z) = 0.29984 0.14538
#
# Static dielectric constant tensor:
#      x y z
#    x 3.479090 0.000000 0.000000 
#    y 0.000000 3.568680 0.000000 
#    z 0.000000 0.000000 3.485990 
# 
# 
# High freq. dielectric constant tensor:
#      x y z
#    x 1.722900 0.000000 0.000000 
#    y 0.000000 1.736710 0.000000 
#    z 0.000000 0.000000 1.744780 
# 
# From -- ./inp_files/2915.got.cif
#   From: 2010.03.12/outbox.cif.g09.slc.cpg/sg49_2_cif.got.tgz:2915.got - 2010.04.14 03:58:27.
