data_PCOD8203215
_publ_section_title
;
Structure prediction by ZEFSAII (Michael W. Deem and Ramdas Pophale) SiO2 
 PCOD8203215
Probable space group: P C C M
;
_chemical_formula_sum "Si O2"
_cell_formula_units_Z 64
_cell_length_a 19.293611
_cell_length_b 19.381302
_cell_length_c 9.178511
_cell_angle_alpha 90.000000
_cell_angle_beta 90.000000
_cell_angle_gamma 90.000000
_cell_volume 3432.169278
_symmetry_space_group_name_H-M "P C C M"
_symmetry_group_IT_number 49
_symmetry_cell_setting 'orthorhombic'
loop_
_space_group_symop_operation_xyz
x,y,z
-x,-y,z
x,-y,1/2-z
-x,y,1/2-z
-x,-y,-z
x,y,-z
-x,y,1/2+z
x,-y,1/2+z
loop_
_atom_site_type_symbol
_atom_site_label
_atom_site_fract_x
_atom_site_fract_y
_atom_site_fract_z
Si Si1 0.290970 0.793680 0.831555
Si Si2 0.431523 0.282491 0.672120
Si Si3 0.250925 0.562126 0.160941
Si Si4 0.202834 0.311698 0.173198
Si Si5 0.589822 0.437581 0.841998
Si Si6 0.216404 0.932012 0.831490
Si Si7 0.068432 0.877705 0.832772
Si Si8 0.932268 0.285010 0.831143
O O1 0.367970 0.768767 0.786526
O O2 0.235188 0.760075 0.724389
O O3 0.277156 0.875068 0.809458
O O4 0.275597 0.772311 0.000000
O O5 0.500000 0.252532 0.750000
O O6 0.442179 0.281927 0.500000
O O7 0.419146 0.361176 0.729489
O O8 0.213811 0.500000 0.250000
O O9 0.251071 0.629140 0.261769
O O10 0.330388 0.544039 0.136081
O O11 0.216275 0.572301 0.000000
O O12 0.128633 0.323259 0.246181
O O13 0.197864 0.315144 0.000000
O O14 0.555227 0.500000 0.750000
O O15 0.553298 0.436921 0.000000
O O16 0.140236 0.909601 0.770926
O O17 0.242390 0.000000 0.750000
O O18 0.208085 0.949282 0.000000
O O19 0.075833 0.796388 0.811860
O O20 0.000000 0.906030 0.750000
O O21 0.057662 0.897501 0.000000
O O22 0.000000 0.312202 0.750000
O O23 0.933287 0.306682 0.000000
#
# Coordination Sequence:
#
# PCOD8203215 Si02
#       8
#     8   8   8   8   8   8   8   8
#     4  10  20  40  60  77 108 147 183 224 280 333
#     4  10  21  37  57  80 108 145 183 225 278 330
#     4  10  19  34  53  77 110 146 185 229 279 329
#     4  12  22  32  54  85 110 143 188 234 279 325
#     4   9  18  32  51  75 108 148 182 217 263 317
#     4  10  21  37  57  80 108 145 183 225 278 330
#     4   9  18  32  51  75 108 148 182 217 263 317
#     4  10  19  34  53  77 110 146 185 229 279 329
#
# _framework density 18.647099999999998
#
# number of rings (size 3 to 8) (size 9 to 14) (size 15 to 20)
#    0.000    2.000    2.500    1.875    0.000    3.500 
#    0.000    2.500    0.000    0.750    0.000    5.250 
#    0.000    0.000    0.000    0.000    0.000    0.000 
#
# Total GULP energy -793276.388637 kJ/mol
# GULP energy per Si atom -12394.943572 kJ/mol
# Density = 1.860466 g / cm^3
# Si number density = 18.647100 Si / 1000 Ang^3
#
#
#
# Elastic Constant Matrix: (Units=GPa)
#
#
# Indices 1 2 3 4 5 6 
#
# 1 99.7947 35.0598 42.6764 0.0000 0.0000 0.0000
# 2 35.0598 80.3712 37.5815 0.0000 0.0000 0.0000
# 3 42.6764 37.5815 107.5556 0.0000 0.0000 0.0000
# 4 0.0000 0.0000 0.0000 28.9812 0.0000 0.0000
# 5 0.0000 0.0000 0.0000 0.0000 27.5302 0.0000
# 6 0.0000 0.0000 0.0000 0.0000 0.0000 -5.3348
#
#
#
# Elastic Compliance Matrix: (Units=1/GPa)
#
#
# Indices 1 2 3 4 5 6 
#
# 1 0.013017 -0.003900 -0.003802 0.000000 0.000000 0.000000
# 2 -0.003900 0.016041 -0.004057 0.000000 0.000000 0.000000
# 3 -0.003802 -0.004057 0.012224 0.000000 0.000000 0.000000
# 4 0.000000 0.000000 0.000000 0.034505 0.000000 0.000000
# 5 0.000000 0.000000 0.000000 0.000000 0.036324 0.000000
# 6 0.000000 0.000000 0.000000 0.000000 0.000000 -0.187447
#
#
# Mechanical properties :
#
#
# Convention : Reuss Voigt Hill
#
# Bulk Modulus (GPa) = 56.29990 57.59523 56.94756
# Shear Modulus (GPa) = -108.93992 21.72890 -43.60551
#
# Velocity S-wave (km/s) = -7.65171 3.41731 -4.84101
# Velocity P-wave (km/s) = 6.91427 6.82090 0.80077
#
# Compressibility (1/GPa) = 0.01776202
#
# Stress axis : x y z
#
# Youngs Moduli (GPa) = 76.82413 62.34064 81.80791
#
# Poissons Ratio (x) = 0.24315 0.31103
# Poissons Ratio (y) = 0.29965 0.33192
# Poissons Ratio (z) = 0.29208 0.25293
#
# Static dielectric constant tensor:
#      x y z
#    x 3.389740 0.000000 0.000000 
#    y 0.000000 3.248140 0.000000 
#    z 0.000000 0.000000 3.580400 
# 
# 
# High freq. dielectric constant tensor:
#      x y z
#    x 1.713290 0.000000 0.000000 
#    y 0.000000 1.701340 0.000000 
#    z 0.000000 0.000000 1.725120 
# 
# From -- ./inp_files/5306.got.cif
#   From: 2010.03.12/outbox.cif.g09.slc.cpg/sg49_3_cif.got.tgz:5306.got - 2010.04.14 03:58:27.
