data_PCOD8203084
_publ_section_title
;
Structure prediction by ZEFSAII (Michael W. Deem and Ramdas Pophale) SiO2 
 PCOD8203084
Probable space group: P C C M
;
_chemical_formula_sum "Si O2"
_cell_formula_units_Z 56
_cell_length_a 20.700625
_cell_length_b 15.008390
_cell_length_c 8.685586
_cell_angle_alpha 90.000000
_cell_angle_beta 90.000000
_cell_angle_gamma 90.000000
_cell_volume 2698.464378
_symmetry_space_group_name_H-M "P C C M"
_symmetry_group_IT_number 49
_symmetry_cell_setting 'orthorhombic'
loop_
_space_group_symop_operation_xyz
x,y,z
-x,-y,z
x,-y,1/2-z
-x,y,1/2-z
-x,-y,-z
x,y,-z
-x,y,1/2+z
x,-y,1/2+z
loop_
_atom_site_type_symbol
_atom_site_label
_atom_site_fract_x
_atom_site_fract_y
_atom_site_fract_z
Si Si1 0.185538 0.219305 0.681391
Si Si2 0.192648 0.592233 0.319042
Si Si3 0.707071 0.906732 0.184342
Si Si4 0.562559 0.883476 0.166635
Si Si5 0.668898 0.586207 0.320092
Si Si6 0.933439 0.095638 0.819172
Si Si7 0.561750 0.322768 0.330999
O O1 0.197632 0.225592 0.500000
O O2 0.165960 0.317207 0.743462
O O3 0.250119 0.176487 0.755528
O O4 0.124581 0.159913 0.726858
O O5 0.162073 0.500000 0.250000
O O6 0.179236 0.593353 0.500000
O O7 0.268102 0.594091 0.283593
O O8 0.632781 0.898653 0.247016
O O9 0.735642 0.000000 0.250000
O O10 0.709906 0.904773 0.000000
O O11 0.500000 0.926738 0.250000
O O12 0.548615 0.780227 0.146941
O O13 0.566270 0.929661 0.000000
O O14 0.631651 0.500000 0.250000
O O15 0.686296 0.580803 0.500000
O O16 0.622841 0.668768 0.283032
O O17 0.000000 0.134317 0.750000
O O18 0.917020 0.000000 0.750000
O O19 0.941663 0.086189 0.000000
O O20 0.500000 0.368495 0.250000
O O21 0.573597 0.366184 0.500000
#
# Coordination Sequence:
#
# PCOD8203084 Si02
#       7
#     8   8   8   8   8   8   8
#     4  11  23  39  61  91 123 159 200 246 297 353
#     4  11  22  38  60  86 116 152 192 239 290 346
#     4  11  23  38  56  83 116 153 195 244 299 357
#     4   9  20  36  54  73  98 135 182 232 286 344
#     4  11  21  34  51  72  99 133 173 223 282 346
#     4  10  21  37  61  92 129 168 208 247 290 346
#     4  10  19  33  50  70  94 125 169 223 283 348
#
# _framework density 20.752541999999998
#
# number of rings (size 3 to 8) (size 9 to 14) (size 15 to 20)
#    0.000    1.571    0.000    6.857    0.000    6.857 
#    0.000    2.857    0.000    0.429    0.000    3.000 
#    0.000    0.000    0.000    0.000    0.000    0.000 
#
# Total GULP energy -694038.245441 kJ/mol
# GULP energy per Si atom -12393.540097 kJ/mol
# Density = 2.070531 g / cm^3
# Si number density = 20.752542 Si / 1000 Ang^3
#
#
#
# Elastic Constant Matrix: (Units=GPa)
#
#
# Indices 1 2 3 4 5 6 
#
# 1 106.8931 50.5843 45.6660 0.0000 0.0000 0.0000
# 2 50.5843 100.4876 43.7800 0.0000 0.0000 0.0000
# 3 45.6660 43.7800 113.7064 0.0000 0.0000 0.0000
# 4 0.0000 0.0000 0.0000 31.8489 0.0000 0.0000
# 5 0.0000 0.0000 0.0000 0.0000 24.4647 0.0000
# 6 0.0000 0.0000 0.0000 0.0000 0.0000 23.5782
#
#
#
# Elastic Compliance Matrix: (Units=1/GPa)
#
#
# Indices 1 2 3 4 5 6 
#
# 1 0.013240 -0.005225 -0.003306 0.000000 0.000000 0.000000
# 2 -0.005225 0.014019 -0.003299 0.000000 0.000000 0.000000
# 3 -0.003306 -0.003299 0.011393 0.000000 0.000000 0.000000
# 4 0.000000 0.000000 0.000000 0.031398 0.000000 0.000000
# 5 0.000000 0.000000 0.000000 0.000000 0.040875 0.000000
# 6 0.000000 0.000000 0.000000 0.000000 0.000000 0.042412
#
#
# Mechanical properties :
#
#
# Convention : Reuss Voigt Hill
#
# Bulk Modulus (GPa) = 66.70240 66.79419 66.74829
# Shear Modulus (GPa) = 27.47355 28.04882 27.76119
#
# Velocity S-wave (km/s) = 3.64244 3.68038 3.66146
# Velocity P-wave (km/s) = 7.06409 7.09339 7.07876
#
# Compressibility (1/GPa) = 0.01499196
#
# Stress axis : x y z
#
# Youngs Moduli (GPa) = 75.53027 71.33217 87.77668
#
# Poissons Ratio (x) = 0.37268 0.29016
# Poissons Ratio (y) = 0.39461 0.28961
# Poissons Ratio (z) = 0.24968 0.23535
#
# Static dielectric constant tensor:
#      x y z
#    x 3.621330 0.000000 0.000000 
#    y 0.000000 4.311740 0.000000 
#    z 0.000000 0.000000 3.983600 
# 
# 
# High freq. dielectric constant tensor:
#      x y z
#    x 1.787340 0.000000 0.000000 
#    y 0.000000 1.817440 0.000000 
#    z 0.000000 0.000000 1.823860 
# 
# From -- ./inp_files/5809.got.cif
#   From: 2010.03.12/outbox.cif.g09.slc.cpg/sg49_3_cif.got.tgz:5809.got - 2010.04.14 03:58:27.
