data_PCOD8203362
_publ_section_title
;
Structure prediction by ZEFSAII (Michael W. Deem and Ramdas Pophale) SiO2 
 PCOD8203362
Probable space group: P C C M
;
_chemical_formula_sum "Si O2"
_cell_formula_units_Z 64
_cell_length_a 8.793210
_cell_length_b 19.512381
_cell_length_c 19.479796
_cell_angle_alpha 90.000000
_cell_angle_beta 90.000000
_cell_angle_gamma 90.000000
_cell_volume 3342.274512
_symmetry_space_group_name_H-M "P C C M"
_symmetry_group_IT_number 49
_symmetry_cell_setting 'orthorhombic'
loop_
_space_group_symop_operation_xyz
x,y,z
-x,-y,z
x,-y,1/2-z
-x,y,1/2-z
-x,-y,-z
x,y,-z
-x,y,1/2+z
x,-y,1/2+z
loop_
_atom_site_type_symbol
_atom_site_label
_atom_site_fract_x
_atom_site_fract_y
_atom_site_fract_z
Si Si1 0.176642 0.981447 0.173048
Si Si2 0.042276 0.576830 0.328061
Si Si3 0.688409 0.666867 0.819426
Si Si4 0.636558 0.712759 0.323222
Si Si5 0.330573 0.089717 0.080283
Si Si6 0.110766 0.312562 0.578069
Si Si7 0.174543 0.771896 0.577210
Si Si8 0.585758 0.128522 0.818608
O O1 0.243007 0.903142 0.170012
O O2 0.217992 0.000000 0.250000
O O3 0.273291 0.021630 0.116899
O O4 0.000000 0.000000 0.158030
O O5 0.222062 0.596113 0.337294
O O6 0.000000 0.500000 0.349466
O O7 0.000000 0.591317 0.250000
O O8 0.948236 0.623901 0.378726
O O9 0.736972 0.689153 0.742194
O O10 0.506762 0.660418 0.826010
O O11 0.729150 0.727094 0.871208
O O12 0.724648 0.707898 0.394506
O O13 0.590277 0.790366 0.310433
O O14 0.202508 0.148218 0.092546
O O15 0.489739 0.111468 0.113388
O O16 0.356377 0.075014 0.000000
O O17 0.125553 0.336606 0.500000
O O18 0.003479 0.245834 0.585948
O O19 0.229011 0.753989 0.500000
O O20 0.500000 0.099642 0.750000
#
# Coordination Sequence:
#
# PCOD8203362 Si02
#       8
#     8   8   8   8   8   8   8   8
#     4  11  26  42  59  86 118 157 205 258 318 380
#     4  10  20  38  64  90 122 164 208 249 296 361
#     4  10  19  36  58  90 122 151 205 248 304 361
#     4  11  21  35  59  92 122 158 201 257 312 361
#     4  11  23  41  63  88 119 162 209 256 318 377
#     4  10  22  38  60  92 128 164 200 251 309 362
#     4   9  19  36  58  86 118 154 199 251 305 365
#     4  12  22  40  63  88 119 159 207 260 316 385
#
# _framework density 19.148637000000001
#
# number of rings (size 3 to 8) (size 9 to 14) (size 15 to 20)
#    0.000    1.500    5.000    0.375    1.750    2.500 
#    0.000    0.625    0.000    0.750    0.000    0.000 
#    0.000    0.000    0.000    0.000    0.000    0.000 
#
# Total GULP energy -793091.173930 kJ/mol
# GULP energy per Si atom -12392.049593 kJ/mol
# Density = 1.910505 g / cm^3
# Si number density = 19.148637 Si / 1000 Ang^3
#
#
#
# Elastic Constant Matrix: (Units=GPa)
#
#
# Indices 1 2 3 4 5 6 
#
# 1 96.4136 43.4773 26.6715 0.0000 0.0000 0.0000
# 2 43.4773 89.2284 24.6995 0.0000 0.0000 0.0000
# 3 26.6715 24.6995 102.9768 0.0000 0.0000 0.0000
# 4 0.0000 0.0000 0.0000 25.8019 0.0000 0.0000
# 5 0.0000 0.0000 0.0000 0.0000 46.8281 0.0000
# 6 0.0000 0.0000 0.0000 0.0000 0.0000 26.6867
#
#
#
# Elastic Compliance Matrix: (Units=1/GPa)
#
#
# Indices 1 2 3 4 5 6 
#
# 1 0.013699 -0.006097 -0.002085 0.000000 0.000000 0.000000
# 2 -0.006097 0.014718 -0.001951 0.000000 0.000000 0.000000
# 3 -0.002085 -0.001951 0.010719 0.000000 0.000000 0.000000
# 4 0.000000 0.000000 0.000000 0.038757 0.000000 0.000000
# 5 0.000000 0.000000 0.000000 0.000000 0.021355 0.000000
# 6 0.000000 0.000000 0.000000 0.000000 0.000000 0.037472
#
#
# Mechanical properties :
#
#
# Convention : Reuss Voigt Hill
#
# Bulk Modulus (GPa) = 52.99975 53.14616 53.07295
# Shear Modulus (GPa) = 30.62294 32.78137 31.70216
#
# Velocity S-wave (km/s) = 4.00337 4.14205 4.07330
# Velocity P-wave (km/s) = 7.00767 7.11971 7.06391
#
# Compressibility (1/GPa) = 0.01886801
#
# Stress axis : x y z
#
# Youngs Moduli (GPa) = 73.00057 67.94278 93.29204
#
# Poissons Ratio (x) = 0.41428 0.19456
# Poissons Ratio (y) = 0.44512 0.18201
# Poissons Ratio (z) = 0.15224 0.13255
#
# Static dielectric constant tensor:
#      x y z
#    x 3.581870 0.000000 0.000000 
#    y 0.000000 3.384850 0.000000 
#    z 0.000000 0.000000 3.709530 
# 
# 
# High freq. dielectric constant tensor:
#      x y z
#    x 1.741140 0.000000 0.000000 
#    y 0.000000 1.725820 0.000000 
#    z 0.000000 0.000000 1.757120 
# 
# From -- ./inp_files/19994.got.cif
#   From: 2010.03.12/outbox.cif.g09.slc.cpg/sg49_10_cif.got.tgz:19994.got - 2010.04.14 03:58:27.
