data_PCOD8203346
_publ_section_title
;
Structure prediction by ZEFSAII (Michael W. Deem and Ramdas Pophale) SiO2 
 PCOD8203346
Probable space group: P C C M
;
_chemical_formula_sum "Si O2"
_cell_formula_units_Z 64
_cell_length_a 9.172131
_cell_length_b 15.209642
_cell_length_c 23.275084
_cell_angle_alpha 90.000000
_cell_angle_beta 90.000000
_cell_angle_gamma 90.000000
_cell_volume 3246.986611
_symmetry_space_group_name_H-M "P C C M"
_symmetry_group_IT_number 49
_symmetry_cell_setting 'orthorhombic'
loop_
_space_group_symop_operation_xyz
x,y,z
-x,-y,z
x,-y,1/2-z
-x,y,1/2-z
-x,-y,-z
x,y,-z
-x,y,1/2+z
x,-y,1/2+z
loop_
_atom_site_type_symbol
_atom_site_label
_atom_site_fract_x
_atom_site_fract_y
_atom_site_fract_z
Si Si1 0.180101 0.331558 0.127591
Si Si2 0.172450 0.493648 0.435144
Si Si3 0.843204 0.984690 0.935523
Si Si4 0.167095 0.265097 0.751256
Si Si5 0.839232 0.315602 0.124401
Si Si6 0.672734 0.144751 0.101112
Si Si7 0.666034 0.905287 0.268105
Si Si8 0.658448 0.175718 0.432154
O O1 0.229871 0.425635 0.103126
O O2 0.202509 0.331599 0.196542
O O3 0.286717 0.263032 0.098062
O O4 0.012235 0.308434 0.113615
O O5 0.236909 0.497074 0.500000
O O6 0.223009 0.404434 0.403846
O O7 0.000000 0.500000 0.437987
O O8 0.747010 0.072481 0.939018
O O9 0.751973 0.905718 0.906322
O O10 0.877090 0.953640 0.000000
O O11 0.000000 0.000000 0.903798
O O12 0.206000 0.314317 0.691749
O O13 0.253342 0.175022 0.763096
O O14 0.000000 0.236750 0.750000
O O15 0.762644 0.234389 0.092936
O O16 0.684634 0.105578 0.164443
O O17 0.508376 0.159687 0.082881
O O18 0.500000 0.900162 0.250000
O O19 0.732993 0.000000 0.250000
O O20 0.676386 0.185890 0.500000
#
# Coordination Sequence:
#
# PCOD8203346 Si02
#       8
#     8   8   8   8   8   8   8   8
#     4  10  19  35  60  81 114 149 188 240 282 342
#     4   9  18  33  56  85 113 147 191 235 283 340
#     4  10  22  38  56  80 109 144 186 229 277 337
#     4   9  19  35  54  82 113 144 188 236 284 333
#     4   9  20  37  55  84 114 149 190 233 287 338
#     4  11  22  37  56  80 112 148 188 234 281 343
#     4  10  22  35  52  78 106 149 191 228 279 339
#     4  11  23  36  56  83 113 149 190 236 287 340
#
# _framework density 19.710584999999998
#
# number of rings (size 3 to 8) (size 9 to 14) (size 15 to 20)
#    0.000    2.125    0.000    2.625    5.250    3.250 
#    0.000    3.125    0.000    1.500    0.000    2.625 
#    0.000    0.000    0.000    0.000    0.000    0.000 
#
# Total GULP energy -793574.086966 kJ/mol
# GULP energy per Si atom -12399.595109 kJ/mol
# Density = 1.966572 g / cm^3
# Si number density = 19.710585 Si / 1000 Ang^3
#
#
#
# Elastic Constant Matrix: (Units=GPa)
#
#
# Indices 1 2 3 4 5 6 
#
# 1 71.0349 35.0410 14.2795 0.0000 0.0000 0.0000
# 2 35.0410 144.9841 48.9291 0.0000 0.0000 0.0000
# 3 14.2795 48.9291 80.0251 0.0000 0.0000 0.0000
# 4 0.0000 0.0000 0.0000 35.2361 0.0000 0.0000
# 5 0.0000 0.0000 0.0000 0.0000 21.5116 0.0000
# 6 0.0000 0.0000 0.0000 0.0000 0.0000 17.0497
#
#
#
# Elastic Compliance Matrix: (Units=1/GPa)
#
#
# Indices 1 2 3 4 5 6 
#
# 1 0.016007 -0.003660 -0.000618 0.000000 0.000000 0.000000
# 2 -0.003660 0.009527 -0.005172 0.000000 0.000000 0.000000
# 3 -0.000618 -0.005172 0.015769 0.000000 0.000000 0.000000
# 4 0.000000 0.000000 0.000000 0.028380 0.000000 0.000000
# 5 0.000000 0.000000 0.000000 0.000000 0.046487 0.000000
# 6 0.000000 0.000000 0.000000 0.000000 0.000000 0.058652
#
#
# Mechanical properties :
#
#
# Convention : Reuss Voigt Hill
#
# Bulk Modulus (GPa) = 44.63848 54.72703 49.68276
# Shear Modulus (GPa) = 24.85199 27.94578 26.39888
#
# Velocity S-wave (km/s) = 3.55469 3.76946 3.66365
# Velocity P-wave (km/s) = 6.28839 6.83891 6.56942
#
# Compressibility (1/GPa) = 0.02240220
#
# Stress axis : x y z
#
# Youngs Moduli (GPa) = 62.47106 104.96025 63.41626
#
# Poissons Ratio (x) = 0.38416 0.03922
# Poissons Ratio (y) = 0.22865 0.32800
# Poissons Ratio (z) = 0.03864 0.54287
#
# Static dielectric constant tensor:
#      x y z
#    x 3.460460 0.000000 0.000000 
#    y 0.000000 3.686640 0.000000 
#    z 0.000000 0.000000 3.722310 
# 
# 
# High freq. dielectric constant tensor:
#      x y z
#    x 1.753910 0.000000 0.000000 
#    y 0.000000 1.769990 0.000000 
#    z 0.000000 0.000000 1.773230 
# 
# From -- ./inp_files/22573.got.cif
#   From: 2010.03.12/outbox.cif.g09.slc.cpg/sg49_12_cif.got.tgz:22573.got - 2010.04.14 03:58:27.
