data_PCOD8203855
_publ_section_title
;
Structure prediction by ZEFSAII (Michael W. Deem and Ramdas Pophale) SiO2 
 PCOD8203855
Probable space group: P C C M
;
_chemical_formula_sum "Si O2"
_cell_formula_units_Z 56
_cell_length_a 20.007871
_cell_length_b 15.083887
_cell_length_c 9.043214
_cell_angle_alpha 90.000000
_cell_angle_beta 90.000000
_cell_angle_gamma 90.000000
_cell_volume 2729.210020
_symmetry_space_group_name_H-M "P C C M"
_symmetry_group_IT_number 49
_symmetry_cell_setting 'orthorhombic'
loop_
_space_group_symop_operation_xyz
x,y,z
-x,-y,z
x,-y,1/2-z
-x,y,1/2-z
-x,-y,-z
x,y,-z
-x,y,1/2+z
x,-y,1/2+z
loop_
_atom_site_type_symbol
_atom_site_label
_atom_site_fract_x
_atom_site_fract_y
_atom_site_fract_z
Si Si1 0.112909 0.413915 0.329188
Si Si2 0.932178 0.779054 0.675826
Si Si3 0.400202 0.584342 0.834761
Si Si4 0.743163 0.645967 0.332529
Si Si5 0.697365 0.815544 0.169665
Si Si6 0.566870 0.780494 0.675921
Si Si7 0.169092 0.908707 0.327570
O O1 0.081683 0.500000 0.250000
O O2 0.103306 0.431452 0.500000
O O3 0.075366 0.324300 0.281339
O O4 0.190946 0.406776 0.285420
O O5 0.933482 0.793870 0.500000
O O6 0.869949 0.830593 0.744989
O O7 0.000000 0.815122 0.750000
O O8 0.430742 0.500000 0.750000
O O9 0.319822 0.580134 0.826391
O O10 0.425300 0.678342 0.769714
O O11 0.426765 0.575845 0.000000
O O12 0.751028 0.684471 0.500000
O O13 0.733198 0.725834 0.219836
O O14 0.631015 0.835555 0.266369
O O15 0.751243 0.893866 0.190169
O O16 0.675272 0.805667 0.000000
O O17 0.500000 0.820007 0.750000
O O18 0.563797 0.788858 0.500000
O O19 0.148664 0.910941 0.500000
O O20 0.148950 0.000000 0.250000
#
# Coordination Sequence:
#
# PCOD8203855 Si02
#       7
#     8   8   8   8   8   8   8
#     4  10  21  35  56  84 118 162 208 256 306 358
#     4  11  24  43  65  90 126 167 207 255 308 363
#     4   9  18  29  44  68 102 143 189 242 295 350
#     4   9  17  32  51  76 110 150 196 244 301 355
#     4  10  20  35  59  89 118 151 193 242 295 355
#     4  10  21  36  54  78 111 153 199 244 297 359
#     4  11  24  42  68 100 128 158 199 246 303 370
#
# _framework density 20.518757000000001
#
# number of rings (size 3 to 8) (size 9 to 14) (size 15 to 20)
#    0.000    2.000    1.429    3.000    0.000    7.143 
#    0.000    4.286    0.000    0.429    0.000    3.000 
#    0.000    0.000    0.000    0.000    0.000    0.000 
#
# Total GULP energy -694376.498974 kJ/mol
# GULP energy per Si atom -12399.580339 kJ/mol
# Density = 2.047206 g / cm^3
# Si number density = 20.518757 Si / 1000 Ang^3
#
#
#
# Elastic Constant Matrix: (Units=GPa)
#
#
# Indices 1 2 3 4 5 6 
#
# 1 100.0503 19.5721 48.3894 0.0000 0.0000 0.0000
# 2 19.5721 68.5742 42.6865 0.0000 0.0000 0.0000
# 3 48.3894 42.6865 109.7087 0.0000 0.0000 0.0000
# 4 0.0000 0.0000 0.0000 28.1441 0.0000 0.0000
# 5 0.0000 0.0000 0.0000 0.0000 29.9879 0.0000
# 6 0.0000 0.0000 0.0000 0.0000 0.0000 7.2851
#
#
#
# Elastic Compliance Matrix: (Units=1/GPa)
#
#
# Indices 1 2 3 4 5 6 
#
# 1 0.012707 -0.000182 -0.005534 0.000000 0.000000 0.000000
# 2 -0.000182 0.019246 -0.007408 0.000000 0.000000 0.000000
# 3 -0.005534 -0.007408 0.014438 0.000000 0.000000 0.000000
# 4 0.000000 0.000000 0.000000 0.035531 0.000000 0.000000
# 5 0.000000 0.000000 0.000000 0.000000 0.033347 0.000000
# 6 0.000000 0.000000 0.000000 0.000000 0.000000 0.137266
#
#
# Mechanical properties :
#
#
# Convention : Reuss Voigt Hill
#
# Bulk Modulus (GPa) = 49.64418 55.51437 52.57927
# Shear Modulus (GPa) = 17.51324 24.26242 20.88783
#
# Velocity S-wave (km/s) = 2.92468 3.44241 3.19405
# Velocity P-wave (km/s) = 5.97094 6.55091 6.26763
#
# Compressibility (1/GPa) = 0.02014335
#
# Stress axis : x y z
#
# Youngs Moduli (GPa) = 78.69643 51.95834 69.25994
#
# Poissons Ratio (x) = 0.00946 0.38328
# Poissons Ratio (y) = 0.01432 0.51309
# Poissons Ratio (z) = 0.43550 0.38492
#
# Static dielectric constant tensor:
#      x y z
#    x 3.776620 0.000000 0.000000 
#    y 0.000000 3.385520 0.000000 
#    z 0.000000 0.000000 3.675780 
# 
# 
# High freq. dielectric constant tensor:
#      x y z
#    x 1.808310 0.000000 0.000000 
#    y 0.000000 1.770570 0.000000 
#    z 0.000000 0.000000 1.805300 
# 
# From -- ./inp_files/5774.got.cif
#   From: 2010.03.12/outbox.cif.g09.slc.cpg/sg49_3_cif.got.tgz:5774.got - 2010.04.14 03:58:27.
