data_PCOD8203186
_publ_section_title
;
Structure prediction by ZEFSAII (Michael W. Deem and Ramdas Pophale) SiO2 
 PCOD8203186
Probable space group: P C C M
;
_chemical_formula_sum "Si O2"
_cell_formula_units_Z 64
_cell_length_a 20.697199
_cell_length_b 19.580990
_cell_length_c 8.680023
_cell_angle_alpha 90.000000
_cell_angle_beta 90.000000
_cell_angle_gamma 90.000000
_cell_volume 3517.767214
_symmetry_space_group_name_H-M "P C C M"
_symmetry_group_IT_number 49
_symmetry_cell_setting 'orthorhombic'
loop_
_space_group_symop_operation_xyz
x,y,z
-x,-y,z
x,-y,1/2-z
-x,y,1/2-z
-x,-y,-z
x,y,-z
-x,y,1/2+z
x,-y,1/2+z
loop_
_atom_site_type_symbol
_atom_site_label
_atom_site_fract_x
_atom_site_fract_y
_atom_site_fract_z
Si Si1 0.817870 0.712209 0.178314
Si Si2 0.881932 0.929358 0.182068
Si Si3 0.933367 0.207664 0.818745
Si Si4 0.310486 0.213156 0.182901
Si Si5 0.375950 0.572237 0.182791
Si Si6 0.762707 0.430759 0.678745
Si Si7 0.266096 0.930578 0.318908
Si Si8 0.433185 0.704293 0.683302
O O1 0.877476 0.739199 0.276091
O O2 0.752099 0.745900 0.243067
O O3 0.813733 0.630413 0.199251
O O4 0.828344 0.732636 0.000000
O O5 0.922026 0.867142 0.249936
O O6 0.807697 0.920450 0.235118
O O7 0.909854 0.000000 0.250000
O O8 0.889285 0.929742 0.000000
O O9 0.000000 0.236765 0.750000
O O10 0.938735 0.201773 0.000000
O O11 0.306859 0.134623 0.240339
O O12 0.375829 0.247074 0.246826
O O13 0.310302 0.217001 0.000000
O O14 0.398995 0.500000 0.250000
O O15 0.303008 0.588555 0.234261
O O16 0.423538 0.628533 0.251885
O O17 0.380804 0.571913 0.000000
O O18 0.793053 0.500000 0.750000
O O19 0.745555 0.442380 0.500000
O O20 0.269729 0.936762 0.500000
O O21 0.296014 0.000000 0.250000
O O22 0.500000 0.734001 0.750000
O O23 0.434933 0.702715 0.500000
#
# Coordination Sequence:
#
# PCOD8203186 Si02
#       8
#     8   8   8   8   8   8   8   8
#     4  10  19  37  60  82 109 148 185 226 278 330
#     4  10  19  34  55  80 113 148 186 226 272 330
#     4  12  25  39  56  81 112 149 189 232 278 331
#     4   9  17  34  58  79 107 146 182 219 276 331
#     4  11  21  34  53  79 111 148 187 226 269 324
#     4  10  19  33  56  84 115 147 182 226 279 328
#     4   9  17  31  53  80 108 140 175 221 271 322
#     4  11  22  38  56  79 110 147 187 228 279 333
#
# _framework density 18.193359000000001
#
# number of rings (size 3 to 8) (size 9 to 14) (size 15 to 20)
#    0.000    1.750    2.500    4.125    0.000    2.000 
#    0.000    3.750    0.000    0.750    0.000    5.250 
#    0.000    0.000    0.000    0.000    0.000    0.000 
#
# Total GULP energy -793715.555297 kJ/mol
# GULP energy per Si atom -12401.805552 kJ/mol
# Density = 1.815195 g / cm^3
# Si number density = 18.193359 Si / 1000 Ang^3
#
#
#
# Elastic Constant Matrix: (Units=GPa)
#
#
# Indices 1 2 3 4 5 6 
#
# 1 110.9933 58.7164 37.0500 0.0000 0.0000 0.0000
# 2 58.7164 115.9233 34.3296 0.0000 0.0000 0.0000
# 3 37.0500 34.3296 88.5977 0.0000 0.0000 0.0000
# 4 0.0000 0.0000 0.0000 29.7954 0.0000 0.0000
# 5 0.0000 0.0000 0.0000 0.0000 21.9633 0.0000
# 6 0.0000 0.0000 0.0000 0.0000 0.0000 24.1671
#
#
#
# Elastic Compliance Matrix: (Units=1/GPa)
#
#
# Indices 1 2 3 4 5 6 
#
# 1 0.013102 -0.005664 -0.003285 0.000000 0.000000 0.000000
# 2 -0.005664 0.012193 -0.002356 0.000000 0.000000 0.000000
# 3 -0.003285 -0.002356 0.013573 0.000000 0.000000 0.000000
# 4 0.000000 0.000000 0.000000 0.033562 0.000000 0.000000
# 5 0.000000 0.000000 0.000000 0.000000 0.045531 0.000000
# 6 0.000000 0.000000 0.000000 0.000000 0.000000 0.041379
#
#
# Mechanical properties :
#
#
# Convention : Reuss Voigt Hill
#
# Bulk Modulus (GPa) = 61.50089 63.96738 62.73413
# Shear Modulus (GPa) = 26.68546 27.54636 27.11591
#
# Velocity S-wave (km/s) = 3.83400 3.89535 3.86480
# Velocity P-wave (km/s) = 7.31278 7.44767 7.38053
#
# Compressibility (1/GPa) = 0.01625993
#
# Stress axis : x y z
#
# Youngs Moduli (GPa) = 76.32382 82.01557 73.67348
#
# Poissons Ratio (x) = 0.46451 0.24198
# Poissons Ratio (y) = 0.43227 0.17357
# Poissons Ratio (z) = 0.25069 0.19323
#
# Static dielectric constant tensor:
#      x y z
#    x 3.263960 0.000000 0.000000 
#    y 0.000000 3.586960 0.000000 
#    z 0.000000 0.000000 3.290390 
# 
# 
# High freq. dielectric constant tensor:
#      x y z
#    x 1.679870 0.000000 0.000000 
#    y 0.000000 1.710650 0.000000 
#    z 0.000000 0.000000 1.702890 
# 
# From -- ./inp_files/5255.got.cif
#   From: 2010.03.12/outbox.cif.g09.slc.cpg/sg49_3_cif.got.tgz:5255.got - 2010.04.14 03:58:27.
