data_PCOD8203371
_publ_section_title
;
Structure prediction by ZEFSAII (Michael W. Deem and Ramdas Pophale) SiO2 
 PCOD8203371
Probable space group: P C C M
;
_chemical_formula_sum "Si O2"
_cell_formula_units_Z 64
_cell_length_a 23.798416
_cell_length_b 15.406118
_cell_length_c 8.557356
_cell_angle_alpha 90.000000
_cell_angle_beta 90.000000
_cell_angle_gamma 90.000000
_cell_volume 3137.479316
_symmetry_space_group_name_H-M "P C C M"
_symmetry_group_IT_number 49
_symmetry_cell_setting 'orthorhombic'
loop_
_space_group_symop_operation_xyz
x,y,z
-x,-y,z
x,-y,1/2-z
-x,y,1/2-z
-x,-y,-z
x,y,-z
-x,y,1/2+z
x,-y,1/2+z
loop_
_atom_site_type_symbol
_atom_site_label
_atom_site_fract_x
_atom_site_fract_y
_atom_site_fract_z
Si Si1 0.132139 0.244850 0.182752
Si Si2 0.254013 0.253649 0.315815
Si Si3 0.061326 0.590472 0.684369
Si Si4 0.442559 0.842581 0.816856
Si Si5 0.674307 0.590338 0.184592
Si Si6 0.674122 0.090245 0.815308
Si Si7 0.060007 0.093640 0.316271
Si Si8 0.558725 0.641941 0.684900
O O1 0.196896 0.258678 0.220335
O O2 0.100983 0.331662 0.240215
O O3 0.108022 0.162062 0.273433
O O4 0.123138 0.229225 0.000000
O O5 0.241927 0.253518 0.500000
O O6 0.293445 0.333786 0.273871
O O7 0.284679 0.166125 0.259798
O O8 0.085850 0.500000 0.750000
O O9 0.057991 0.583397 0.500000
O O10 0.000000 0.609592 0.750000
O O11 0.500000 0.883402 0.750000
O O12 0.388583 0.892797 0.747415
O O13 0.436763 0.742597 0.768127
O O14 0.444567 0.852573 0.000000
O O15 0.699053 0.500000 0.250000
O O16 0.608458 0.592974 0.226135
O O17 0.683935 0.597567 0.000000
O O18 0.697792 0.000000 0.750000
O O19 0.672035 0.087522 0.000000
O O20 0.054544 0.085705 0.500000
O O21 0.000000 0.125021 0.250000
O O22 0.077393 0.000000 0.250000
O O23 0.500000 0.604045 0.750000
O O24 0.563815 0.626898 0.500000
#
# Coordination Sequence:
#
# PCOD8203371 Si02
#       8
#     8   8   8   8   8   8   8   8
#     4  11  24  41  62  92 125 163 211 257 303 367
#     4  11  24  45  65  86 121 162 206 260 311 359
#     4  10  21  37  61  91 127 162 199 245 294 352
#     4   9  18  34  56  84 118 152 189 238 295 358
#     4  12  25  42  65  91 119 158 203 252 311 372
#     4  10  22  40  61  86 117 155 198 247 301 360
#     4  11  22  39  64  95 130 169 207 255 311 368
#     4  10  19  36  60  89 123 156 195 245 303 368
#
# _framework density 20.398541000000002
#
# number of rings (size 3 to 8) (size 9 to 14) (size 15 to 20)
#    0.000    1.500    1.250    4.875    0.000    6.500 
#    0.000    5.000    0.000    0.000    0.000    0.000 
#    0.000    0.000    0.000    0.000    0.000    0.000 
#
# Total GULP energy -793876.038403 kJ/mol
# GULP energy per Si atom -12404.313100 kJ/mol
# Density = 2.035211 g / cm^3
# Si number density = 20.398541 Si / 1000 Ang^3
#
#
#
# Elastic Constant Matrix: (Units=GPa)
#
#
# Indices 1 2 3 4 5 6 
#
# 1 108.1313 58.2100 17.6788 0.0000 0.0000 0.0000
# 2 58.2100 134.5143 32.3948 0.0000 0.0000 0.0000
# 3 17.6788 32.3948 73.1766 0.0000 0.0000 0.0000
# 4 0.0000 0.0000 0.0000 25.3072 0.0000 0.0000
# 5 0.0000 0.0000 0.0000 0.0000 34.6829 0.0000
# 6 0.0000 0.0000 0.0000 0.0000 0.0000 3.0707
#
#
#
# Elastic Compliance Matrix: (Units=1/GPa)
#
#
# Indices 1 2 3 4 5 6 
#
# 1 0.012087 -0.005067 -0.000677 0.000000 0.000000 0.000000
# 2 -0.005067 0.010446 -0.003400 0.000000 0.000000 0.000000
# 3 -0.000677 -0.003400 0.015334 0.000000 0.000000 0.000000
# 4 0.000000 0.000000 0.000000 0.039514 0.000000 0.000000
# 5 0.000000 0.000000 0.000000 0.000000 0.028833 0.000000
# 6 0.000000 0.000000 0.000000 0.000000 0.000000 0.325656
#
#
# Mechanical properties :
#
#
# Convention : Reuss Voigt Hill
#
# Bulk Modulus (GPa) = 51.07688 59.15438 55.11563
# Shear Modulus (GPa) = 10.94847 26.44807 18.69827
#
# Velocity S-wave (km/s) = 2.31925 3.60469 3.03090
# Velocity P-wave (km/s) = 5.68029 6.81083 6.27109
#
# Compressibility (1/GPa) = 0.01957833
#
# Stress axis : x y z
#
# Youngs Moduli (GPa) = 82.73640 95.73166 65.21347
#
# Poissons Ratio (x) = 0.48511 0.04413
# Poissons Ratio (y) = 0.41926 0.22173
# Poissons Ratio (z) = 0.05599 0.32550
#
# Static dielectric constant tensor:
#      x y z
#    x 3.827770 0.000000 0.000000 
#    y 0.000000 4.044010 0.000000 
#    z 0.000000 0.000000 3.641080 
# 
# 
# High freq. dielectric constant tensor:
#      x y z
#    x 1.795850 0.000000 0.000000 
#    y 0.000000 1.805570 0.000000 
#    z 0.000000 0.000000 1.801500 
# 
# From -- ./inp_files/6478.got.cif
#   From: 2010.03.12/outbox.cif.g09.slc.cpg/sg49_4_cif.got.tgz:6478.got - 2010.04.14 03:58:27.
