data_PCOD8203398
_publ_section_title
;
Structure prediction by ZEFSAII (Michael W. Deem and Ramdas Pophale) SiO2 
 PCOD8203398
Probable space group: P C C M
;
_chemical_formula_sum "Si O2"
_cell_formula_units_Z 64
_cell_length_a 15.375173
_cell_length_b 23.488608
_cell_length_c 8.628542
_cell_angle_alpha 90.000000
_cell_angle_beta 90.000000
_cell_angle_gamma 90.000000
_cell_volume 3116.123837
_symmetry_space_group_name_H-M "P C C M"
_symmetry_group_IT_number 49
_symmetry_cell_setting 'orthorhombic'
loop_
_space_group_symop_operation_xyz
x,y,z
-x,-y,z
x,-y,1/2-z
-x,y,1/2-z
-x,-y,-z
x,y,-z
-x,y,1/2+z
x,-y,1/2+z
loop_
_atom_site_type_symbol
_atom_site_label
_atom_site_fract_x
_atom_site_fract_y
_atom_site_fract_z
Si Si1 0.911646 0.141014 0.317711
Si Si2 0.654793 0.242191 0.817289
Si Si3 0.591949 0.878751 0.684101
Si Si4 0.907363 0.379552 0.816330
Si Si5 0.150569 0.254722 0.316309
Si Si6 0.590559 0.363009 0.183198
Si Si7 0.257820 0.439033 0.816492
Si Si8 0.755957 0.060748 0.315970
O O1 0.917111 0.139246 0.500000
O O2 0.906673 0.205806 0.260440
O O3 0.828706 0.105424 0.258184
O O4 0.000000 0.113589 0.250000
O O5 0.611854 0.184738 0.750067
O O6 0.751652 0.249696 0.749886
O O7 0.597156 0.296501 0.770056
O O8 0.662143 0.237303 0.000000
O O9 0.500000 0.899359 0.750000
O O10 0.590204 0.880146 0.500000
O O11 0.663724 0.922249 0.744766
O O12 0.887709 0.315143 0.763122
O O13 0.836266 0.421710 0.746253
O O14 0.000000 0.398726 0.750000
O O15 0.905717 0.385603 0.000000
O O16 0.147481 0.247884 0.500000
O O17 0.500000 0.387019 0.250000
O O18 0.670582 0.394534 0.260843
O O19 0.595017 0.372476 0.000000
O O20 0.284363 0.500000 0.750000
O O21 0.256040 0.441224 0.000000
O O22 0.748979 0.058727 0.500000
O O23 0.784054 0.000000 0.250000
#
# Coordination Sequence:
#
# PCOD8203398 Si02
#       8
#     8   8   8   8   8   8   8   8
#     4  11  24  40  62  93 126 161 204 253 306 368
#     4   9  18  35  62  93 127 166 201 244 304 365
#     4  11  22  39  64  93 127 164 203 249 304 363
#     4  11  23  41  65  95 130 166 207 256 307 370
#     4  10  19  37  64  93 127 166 204 247 305 366
#     4  11  22  41  65  96 131 166 208 254 308 369
#     4  12  26  45  67  92 122 164 212 262 315 368
#     4  11  25  44  64  89 119 158 208 258 308 363
#
# _framework density 20.538335
#
# number of rings (size 3 to 8) (size 9 to 14) (size 15 to 20)
#    0.000    1.250    2.500    3.750    0.000    4.500 
#    0.000    6.875    0.000    0.000    0.000    0.000 
#    0.000    0.000    0.000    0.000    0.000    0.000 
#
# Total GULP energy -793947.502211 kJ/mol
# GULP energy per Si atom -12405.429722 kJ/mol
# Density = 2.049159 g / cm^3
# Si number density = 20.538335 Si / 1000 Ang^3
#
#
#
# Elastic Constant Matrix: (Units=GPa)
#
#
# Indices 1 2 3 4 5 6 
#
# 1 125.0505 5.2164 29.3914 0.0000 0.0000 0.0000
# 2 5.2164 71.1916 25.3472 0.0000 0.0000 0.0000
# 3 29.3914 25.3472 85.7739 0.0000 0.0000 0.0000
# 4 0.0000 0.0000 0.0000 30.0717 0.0000 0.0000
# 5 0.0000 0.0000 0.0000 0.0000 33.7175 0.0000
# 6 0.0000 0.0000 0.0000 0.0000 0.0000 11.8175
#
#
#
# Elastic Compliance Matrix: (Units=1/GPa)
#
#
# Indices 1 2 3 4 5 6 
#
# 1 0.008712 0.000474 -0.003125 0.000000 0.000000 0.000000
# 2 0.000474 0.015724 -0.004809 0.000000 0.000000 0.000000
# 3 -0.003125 -0.004809 0.014151 0.000000 0.000000 0.000000
# 4 0.000000 0.000000 0.000000 0.033254 0.000000 0.000000
# 5 0.000000 0.000000 0.000000 0.000000 0.029658 0.000000
# 6 0.000000 0.000000 0.000000 0.000000 0.000000 0.084620
#
#
# Mechanical properties :
#
#
# Convention : Reuss Voigt Hill
#
# Bulk Modulus (GPa) = 42.25452 44.65844 43.45648
# Shear Modulus (GPa) = 23.93177 29.92541 26.92859
#
# Velocity S-wave (km/s) = 3.41724 3.82128 3.62489
# Velocity P-wave (km/s) = 6.01566 6.42345 6.22290
#
# Compressibility (1/GPa) = 0.02366611
#
# Stress axis : x y z
#
# Youngs Moduli (GPa) = 114.79028 63.59647 70.66799
#
# Poissons Ratio (x) = -0.03017 0.22086
# Poissons Ratio (y) = -0.05446 0.33986
# Poissons Ratio (z) = 0.35876 0.30585
#
# Static dielectric constant tensor:
#      x y z
#    x 3.882780 0.000000 0.000000 
#    y 0.000000 3.800200 0.000000 
#    z 0.000000 0.000000 3.588540 
# 
# 
# High freq. dielectric constant tensor:
#      x y z
#    x 1.819320 0.000000 0.000000 
#    y 0.000000 1.801840 0.000000 
#    z 0.000000 0.000000 1.798660 
# 
# From -- ./inp_files/4425.got.cif
#   From: 2010.03.12/outbox.cif.g09.slc.cpg/sg49_3_cif.got.tgz:4425.got - 2010.04.14 03:58:27.
