data_PCOD8203031
_publ_section_title
;
Structure prediction by ZEFSAII (Michael W. Deem and Ramdas Pophale) SiO2 
 PCOD8203031
Probable space group: P C C M
;
_chemical_formula_sum "Si O2"
_cell_formula_units_Z 64
_cell_length_a 15.254612
_cell_length_b 24.692381
_cell_length_c 8.703168
_cell_angle_alpha 90.000000
_cell_angle_beta 90.000000
_cell_angle_gamma 90.000000
_cell_volume 3278.245715
_symmetry_space_group_name_H-M "P C C M"
_symmetry_group_IT_number 49
_symmetry_cell_setting 'orthorhombic'
loop_
_space_group_symop_operation_xyz
x,y,z
-x,-y,z
x,-y,1/2-z
-x,y,1/2-z
-x,-y,-z
x,y,-z
-x,y,1/2+z
x,-y,1/2+z
loop_
_atom_site_type_symbol
_atom_site_label
_atom_site_fract_x
_atom_site_fract_y
_atom_site_fract_z
Si Si1 0.769670 0.943255 0.181852
Si Si2 0.219771 0.356591 0.820193
Si Si3 0.822774 0.755388 0.675855
Si Si4 0.586642 0.673053 0.819126
Si Si5 0.090392 0.854786 0.317797
Si Si6 0.091393 0.558680 0.818271
Si Si7 0.412267 0.102027 0.819716
Si Si8 0.626454 0.786283 0.675247
O O1 0.835265 0.896485 0.237484
O O2 0.672868 0.928944 0.246188
O O3 0.801611 0.000000 0.250000
O O4 0.769662 0.947215 0.000000
O O5 0.178021 0.299321 0.774283
O O6 0.323562 0.358705 0.777885
O O7 0.172312 0.403227 0.725085
O O8 0.204671 0.366029 0.000000
O O9 0.846423 0.741141 0.500000
O O10 0.894404 0.795401 0.746813
O O11 0.730839 0.785911 0.688401
O O12 0.500000 0.642629 0.750000
O O13 0.586858 0.731492 0.741092
O O14 0.577824 0.679575 0.000000
O O15 0.086641 0.850001 0.500000
O O16 0.000000 0.877550 0.250000
O O17 0.111600 0.500000 0.750000
O O18 0.000000 0.581725 0.750000
O O19 0.082462 0.554615 0.000000
O O20 0.500000 0.075030 0.750000
O O21 0.409875 0.164981 0.776122
O O22 0.415573 0.096406 0.000000
O O23 0.595666 0.793660 0.500000
#
# Coordination Sequence:
#
# PCOD8203031 Si02
#       8
#     8   8   8   8   8   8   8   8
#     4  10  24  43  63  82 109 143 182 231 284 339
#     4  10  21  37  58  87 122 161 200 244 293 344
#     4  10  20  35  57  86 117 152 190 232 283 340
#     4  10  20  33  52  79 117 159 198 241 287 338
#     4  11  23  41  62  87 114 146 184 229 283 343
#     4  11  22  39  63  90 121 157 200 249 297 350
#     4  11  22  37  56  82 111 144 183 226 278 336
#     4  10  19  32  53  80 111 148 188 230 277 333
#
# _framework density 19.522635999999999
#
# number of rings (size 3 to 8) (size 9 to 14) (size 15 to 20)
#    0.000    1.625    1.250    4.125    0.000    5.500 
#    0.000    5.000    0.000    0.375    0.000    2.625 
#    0.000    0.000    0.000    0.000    0.000    0.000 
#
# Total GULP energy -793770.918071 kJ/mol
# GULP energy per Si atom -12402.670595 kJ/mol
# Density = 1.947820 g / cm^3
# Si number density = 19.522636 Si / 1000 Ang^3
#
#
#
# Elastic Constant Matrix: (Units=GPa)
#
#
# Indices 1 2 3 4 5 6 
#
# 1 130.7908 50.4124 46.7883 0.0000 0.0000 0.0000
# 2 50.4124 75.5869 27.7125 0.0000 0.0000 0.0000
# 3 46.7883 27.7125 89.4084 0.0000 0.0000 0.0000
# 4 0.0000 0.0000 0.0000 31.1100 0.0000 0.0000
# 5 0.0000 0.0000 0.0000 0.0000 33.7369 0.0000
# 6 0.0000 0.0000 0.0000 0.0000 0.0000 15.7936
#
#
#
# Elastic Compliance Matrix: (Units=1/GPa)
#
#
# Indices 1 2 3 4 5 6 
#
# 1 0.011487 -0.006157 -0.004103 0.000000 0.000000 0.000000
# 2 -0.006157 0.018226 -0.002427 0.000000 0.000000 0.000000
# 3 -0.004103 -0.002427 0.014084 0.000000 0.000000 0.000000
# 4 0.000000 0.000000 0.000000 0.032144 0.000000 0.000000
# 5 0.000000 0.000000 0.000000 0.000000 0.029641 0.000000
# 6 0.000000 0.000000 0.000000 0.000000 0.000000 0.063317
#
#
# Mechanical properties :
#
#
# Convention : Reuss Voigt Hill
#
# Bulk Modulus (GPa) = 54.28021 60.62363 57.45192
# Shear Modulus (GPa) = 24.94848 27.51963 26.23405
#
# Velocity S-wave (km/s) = 3.57869 3.75857 3.66973
# Velocity P-wave (km/s) = 6.70374 7.06797 6.88826
#
# Compressibility (1/GPa) = 0.01842292
#
# Stress axis : x y z
#
# Youngs Moduli (GPa) = 87.05835 54.86687 71.00263
#
# Poissons Ratio (x) = 0.33780 0.29130
# Poissons Ratio (y) = 0.53599 0.17235
# Poissons Ratio (z) = 0.35718 0.13318
#
# Static dielectric constant tensor:
#      x y z
#    x 3.845330 0.000000 0.000000 
#    y 0.000000 3.307220 0.000000 
#    z 0.000000 0.000000 3.586900 
# 
# 
# High freq. dielectric constant tensor:
#      x y z
#    x 1.773680 0.000000 0.000000 
#    y 0.000000 1.733810 0.000000 
#    z 0.000000 0.000000 1.771590 
# 
# From -- ./inp_files/4335.got.cif
#   From: 2010.03.12/outbox.cif.g09.slc.cpg/sg49_3_cif.got.tgz:4335.got - 2010.04.14 03:58:27.
