data_PCOD8203978
_publ_section_title
;
Structure prediction by ZEFSAII (Michael W. Deem and Ramdas Pophale) SiO2 
 PCOD8203978
Probable space group: P C C M
;
_chemical_formula_sum "Si O2"
_cell_formula_units_Z 64
_cell_length_a 18.176251
_cell_length_b 20.575018
_cell_length_c 9.107669
_cell_angle_alpha 90.000000
_cell_angle_beta 90.000000
_cell_angle_gamma 90.000000
_cell_volume 3406.055920
_symmetry_space_group_name_H-M "P C C M"
_symmetry_group_IT_number 49
_symmetry_cell_setting 'orthorhombic'
loop_
_space_group_symop_operation_xyz
x,y,z
-x,-y,z
x,-y,1/2-z
-x,y,1/2-z
-x,-y,-z
x,y,-z
-x,y,1/2+z
x,-y,1/2+z
loop_
_atom_site_type_symbol
_atom_site_label
_atom_site_fract_x
_atom_site_fract_y
_atom_site_fract_z
Si Si1 0.680504 0.933845 0.826415
Si Si2 0.351508 0.700645 0.827291
Si Si3 0.576003 0.833183 0.325411
Si Si4 0.812717 0.439980 0.838934
Si Si5 0.851169 0.064084 0.669810
Si Si6 0.076698 0.197552 0.174519
Si Si7 0.362335 0.560710 0.837580
Si Si8 0.813850 0.295435 0.825194
O O1 0.639683 0.875072 0.747673
O O2 0.766113 0.922707 0.793067
O O3 0.652876 0.000000 0.750000
O O4 0.663169 0.935882 0.000000
O O5 0.407697 0.757951 0.787197
O O6 0.380824 0.631282 0.762818
O O7 0.269708 0.718576 0.772087
O O8 0.344360 0.689316 0.000000
O O9 0.500000 0.853408 0.250000
O O10 0.573082 0.845387 0.500000
O O11 0.847478 0.500000 0.750000
O O12 0.725155 0.445110 0.842860
O O13 0.835569 0.369062 0.778335
O O14 0.845936 0.447525 0.000000
O O15 0.862126 0.050708 0.500000
O O16 0.898228 0.125551 0.722781
O O17 0.881022 0.000000 0.750000
O O18 0.135916 0.247987 0.232620
O O19 0.000000 0.213934 0.250000
O O20 0.070051 0.203825 0.000000
O O21 0.397034 0.500000 0.750000
O O22 0.396225 0.556389 0.000000
O O23 0.823385 0.284355 0.000000
#
# Coordination Sequence:
#
# PCOD8203978 Si02
#       8
#     8   8   8   8   8   8   8   8
#     4  10  20  37  59  83 107 132 164 206 251 300
#     4   8  16  31  52  74 100 134 171 208 254 307
#     4  11  22  36  53  75 103 138 174 211 254 301
#     4   8  14  24  42  69 100 128 159 200 250 301
#     4   9  20  37  58  82 107 133 166 206 250 297
#     4  11  23  37  52  75 105 138 172 209 250 296
#     4   8  13  24  42  68  98 127 160 203 250 299
#     4   9  17  32  53  76 100 132 171 211 253 303
#
# _framework density 18.790061000000001
#
# number of rings (size 3 to 8) (size 9 to 14) (size 15 to 20)
#    0.000    2.750    0.000    3.375    0.000    2.500 
#    0.000    6.250    0.000    0.750    0.000    5.250 
#    0.000    0.000    0.000    0.000    0.000    0.000 
#
# Total GULP energy -793298.020448 kJ/mol
# GULP energy per Si atom -12395.281569 kJ/mol
# Density = 1.874729 g / cm^3
# Si number density = 18.790061 Si / 1000 Ang^3
#
#
#
# Elastic Constant Matrix: (Units=GPa)
#
#
# Indices 1 2 3 4 5 6 
#
# 1 25.8706 1.0234 13.5745 0.0000 0.0000 0.0000
# 2 1.0234 82.2936 34.4148 0.0000 0.0000 0.0000
# 3 13.5745 34.4148 68.4398 0.0000 0.0000 0.0000
# 4 0.0000 0.0000 0.0000 34.8630 0.0000 0.0000
# 5 0.0000 0.0000 0.0000 0.0000 17.7886 0.0000
# 6 0.0000 0.0000 0.0000 0.0000 0.0000 0.2862
#
#
#
# Elastic Compliance Matrix: (Units=1/GPa)
#
#
# Indices 1 2 3 4 5 6 
#
# 1 0.044130 0.003940 -0.010734 0.000000 0.000000 0.000000
# 2 0.003940 0.015739 -0.008696 0.000000 0.000000 0.000000
# 3 -0.010734 -0.008696 0.021113 0.000000 0.000000 0.000000
# 4 0.000000 0.000000 0.000000 0.028684 0.000000 0.000000
# 5 0.000000 0.000000 0.000000 0.000000 0.056216 0.000000
# 6 0.000000 0.000000 0.000000 0.000000 0.000000 3.494369
#
#
# Mechanical properties :
#
#
# Convention : Reuss Voigt Hill
#
# Bulk Modulus (GPa) = 19.99888 30.51437 25.25663
# Shear Modulus (GPa) = 1.34847 19.09366 10.22106
#
# Velocity S-wave (km/s) = 0.84806 3.19118 2.33483
# Velocity P-wave (km/s) = 3.40960 5.46380 4.55403
#
# Compressibility (1/GPa) = 0.05000280
#
# Stress axis : x y z
#
# Youngs Moduli (GPa) = 22.66015 63.53557 47.36377
#
# Poissons Ratio (x) = -0.25034 0.50841
# Poissons Ratio (y) = -0.08929 0.41187
# Poissons Ratio (z) = 0.24324 0.55250
#
# Static dielectric constant tensor:
#      x y z
#    x 3.102500 0.000000 0.000000 
#    y 0.000000 3.812510 0.000000 
#    z 0.000000 0.000000 3.428830 
# 
# 
# High freq. dielectric constant tensor:
#      x y z
#    x 1.695690 0.000000 0.000000 
#    y 0.000000 1.748830 0.000000 
#    z 0.000000 0.000000 1.718300 
# 
# From -- ./inp_files/5243.got.cif
#   From: 2010.03.12/outbox.cif.g09.slc.cpg/sg49_3_cif.got.tgz:5243.got - 2010.04.14 03:58:27.
