data_PCOD8203518
_publ_section_title
;
Structure prediction by ZEFSAII (Michael W. Deem and Ramdas Pophale) SiO2 
 PCOD8203518
Probable space group: P C C M
;
_chemical_formula_sum "Si O2"
_cell_formula_units_Z 56
_cell_length_a 16.920306
_cell_length_b 9.689928
_cell_length_c 17.946476
_cell_angle_alpha 90.000000
_cell_angle_beta 90.000000
_cell_angle_gamma 90.000000
_cell_volume 2942.442234
_symmetry_space_group_name_H-M "P C C M"
_symmetry_group_IT_number 49
_symmetry_cell_setting 'orthorhombic'
loop_
_space_group_symop_operation_xyz
x,y,z
-x,-y,z
x,-y,1/2-z
-x,y,1/2-z
-x,-y,-z
x,y,-z
-x,y,1/2+z
x,-y,1/2+z
loop_
_atom_site_type_symbol
_atom_site_label
_atom_site_fract_x
_atom_site_fract_y
_atom_site_fract_z
Si Si1 0.743552 0.073408 0.089029
Si Si2 0.666965 0.622371 0.084055
Si Si3 0.916507 0.445594 0.410662
Si Si4 0.177818 0.194142 0.083676
Si Si5 0.228608 0.378123 0.411325
Si Si6 0.512270 0.343201 0.336645
Si Si7 0.432811 0.898813 0.911983
O O1 0.767127 0.223352 0.121389
O O2 0.652857 0.044691 0.112874
O O3 0.802322 0.954397 0.122656
O O4 0.749329 0.071495 0.000000
O O5 0.741983 0.720619 0.083874
O O6 0.695911 0.471135 0.113271
O O7 0.601977 0.690321 0.138235
O O8 0.632426 0.613092 0.000000
O O9 0.916922 0.440678 0.500000
O O10 0.891877 0.290885 0.380545
O O11 0.852182 0.554779 0.381267
O O12 0.000000 0.500000 0.378967
O O13 0.150808 0.161136 0.000000
O O14 0.227728 0.374713 0.500000
O O15 0.500000 0.500000 0.360723
O O16 0.500000 0.316978 0.250000
O O17 0.447826 0.252685 0.379570
O O18 0.500000 0.000000 0.879575
O O19 0.438448 0.887220 0.000000
#
# Coordination Sequence:
#
# PCOD8203518 Si02
#       7
#     8   8   8   8   8   8   8
#     4   9  15  24  38  58  81 102 138 192 232 260
#     4   9  16  29  47  62  79 112 159 199 231 276
#     4   8  13  22  35  53  81 115 146 173 209 264
#     4   8  14  24  40  60  80 106 143 186 225 263
#     4   8  14  23  38  59  80 108 147 188 226 263
#     4  11  23  34  44  64  94 124 154 195 247 293
#     4  10  20  33  50  69  87 115 159 206 246 284
#
# _framework density 19.031811000000001
#
# number of rings (size 3 to 8) (size 9 to 14) (size 15 to 20)
#    0.000    3.000    0.000    3.857    0.000    4.857 
#    0.000    0.714    0.000    4.286    0.000    0.000 
#    0.000    0.000    0.000   92.571    0.000  117.143 
#
# Total GULP energy -693754.040879 kJ/mol
# GULP energy per Si atom -12388.465016 kJ/mol
# Density = 1.898849 g / cm^3
# Si number density = 19.031811 Si / 1000 Ang^3
#
#
#
# Elastic Constant Matrix: (Units=GPa)
#
#
# Indices 1 2 3 4 5 6 
#
# 1 101.6599 45.2197 22.9037 0.0000 0.0000 0.0000
# 2 45.2197 136.5255 13.3932 0.0000 0.0000 0.0000
# 3 22.9037 13.3932 20.9607 0.0000 0.0000 0.0000
# 4 0.0000 0.0000 0.0000 10.4916 0.0000 0.0000
# 5 0.0000 0.0000 0.0000 0.0000 3.8951 0.0000
# 6 0.0000 0.0000 0.0000 0.0000 0.0000 35.1391
#
#
#
# Elastic Compliance Matrix: (Units=1/GPa)
#
#
# Indices 1 2 3 4 5 6 
#
# 1 0.014425 -0.003448 -0.013559 0.000000 0.000000 0.000000
# 2 -0.003448 0.008638 -0.001752 0.000000 0.000000 0.000000
# 3 -0.013559 -0.001752 0.063644 0.000000 0.000000 0.000000
# 4 0.000000 0.000000 0.000000 0.095315 0.000000 0.000000
# 5 0.000000 0.000000 0.000000 0.000000 0.256734 0.000000
# 6 0.000000 0.000000 0.000000 0.000000 0.000000 0.028458
#
#
# Mechanical properties :
#
#
# Convention : Reuss Voigt Hill
#
# Bulk Modulus (GPa) = 20.32977 46.90883 33.61930
# Shear Modulus (GPa) = 9.59453 21.74712 15.67082
#
# Velocity S-wave (km/s) = 2.24772 3.38401 2.87261
# Velocity P-wave (km/s) = 4.17631 6.32217 5.35777
#
# Compressibility (1/GPa) = 0.04918894
#
# Stress axis : x y z
#
# Youngs Moduli (GPa) = 69.32310 115.76093 15.71233
#
# Poissons Ratio (x) = 0.39911 0.21305
# Poissons Ratio (y) = 0.23901 0.02753
# Poissons Ratio (z) = 0.93998 0.20286
#
# Static dielectric constant tensor:
#      x y z
#    x 3.619460 0.000000 0.000000 
#    y 0.000000 4.026560 0.000000 
#    z 0.000000 0.000000 2.756300 
# 
# 
# High freq. dielectric constant tensor:
#      x y z
#    x 1.729980 0.000000 0.000000 
#    y 0.000000 1.756860 0.000000 
#    z 0.000000 0.000000 1.657610 
# 
# From -- ./inp_files/21006.got.cif
#   From: 2010.03.12/outbox.cif.g09.slc.cpg/sg49_11_cif.got.tgz:21006.got - 2010.04.14 03:58:27.
