data_PCOD8203608
_publ_section_title
;
Structure prediction by ZEFSAII (Michael W. Deem and Ramdas Pophale) SiO2 
 PCOD8203608
Probable space group: P C C M
;
_chemical_formula_sum "Si O2"
_cell_formula_units_Z 48
_cell_length_a 9.615278
_cell_length_b 30.641959
_cell_length_c 8.871720
_cell_angle_alpha 90.000000
_cell_angle_beta 90.000000
_cell_angle_gamma 90.000000
_cell_volume 2613.883329
_symmetry_space_group_name_H-M "P C C M"
_symmetry_group_IT_number 49
_symmetry_cell_setting 'orthorhombic'
loop_
_space_group_symop_operation_xyz
x,y,z
-x,-y,z
x,-y,1/2-z
-x,y,1/2-z
-x,-y,-z
x,y,-z
-x,y,1/2+z
x,-y,1/2+z
loop_
_atom_site_type_symbol
_atom_site_label
_atom_site_fract_x
_atom_site_fract_y
_atom_site_fract_z
Si Si1 0.648992 0.459256 0.826304
Si Si2 0.651468 0.362251 0.176268
Si Si3 0.643036 0.783483 0.176784
Si Si4 0.358001 0.118352 0.822911
Si Si5 0.151336 0.708167 0.678518
Si Si6 0.850546 0.956010 0.179202
O O1 0.734243 0.500000 0.750000
O O2 0.500000 0.457545 0.750000
O O3 0.714093 0.411250 0.801979
O O4 0.632834 0.470345 0.000000
O O5 0.500000 0.356248 0.250000
O O6 0.762940 0.332139 0.257102
O O7 0.638030 0.350544 0.000000
O O8 0.500000 0.766483 0.250000
O O9 0.678979 0.832583 0.231875
O O10 0.769842 0.752614 0.225563
O O11 0.619004 0.781760 0.000000
O O12 0.500000 0.101872 0.750000
O O13 0.238652 0.085556 0.769973
O O14 0.377637 0.116973 0.000000
O O15 0.138202 0.703176 0.500000
O O16 0.000000 0.709571 0.750000
O O17 0.000000 0.948089 0.250000
O O18 0.784092 0.000000 0.250000
O O19 0.860800 0.960944 0.000000
#
# Coordination Sequence:
#
# PCOD8203608 Si02
#       6
#     8   8   8   8   8   8
#     4   9  16  26  44  71 102 133 166 208 253 298
#     4  10  20  34  53  78 107 139 175 213 257 307
#     4   9  19  36  56  78 103 132 168 209 254 305
#     4   9  19  35  54  77 104 133 167 208 254 304
#     4  11  23  37  54  76 104 137 173 215 260 308
#     4  10  20  34  52  74 102 136 173 211 251 298
#
# _framework density 18.363482000000001
#
# number of rings (size 3 to 8) (size 9 to 14) (size 15 to 20)
#    0.000    2.333    0.000    3.500    0.000    7.000 
#    0.000    1.667    0.000    0.500    0.000    3.500 
#    0.000    0.000    0.000    0.000    0.000    0.000 
#
# Total GULP energy -595002.800474 kJ/mol
# GULP energy per Si atom -12395.891677 kJ/mol
# Density = 1.832169 g / cm^3
# Si number density = 18.363482 Si / 1000 Ang^3
#
#
#
# Elastic Constant Matrix: (Units=GPa)
#
#
# Indices 1 2 3 4 5 6 
#
# 1 114.7805 84.3807 52.2562 0.0000 0.0000 0.0000
# 2 84.3807 146.3525 64.3700 0.0000 0.0000 0.0000
# 3 52.2562 64.3700 89.5947 0.0000 0.0000 0.0000
# 4 0.0000 0.0000 0.0000 29.3700 0.0000 0.0000
# 5 0.0000 0.0000 0.0000 0.0000 29.6651 0.0000
# 6 0.0000 0.0000 0.0000 0.0000 0.0000 23.8556
#
#
#
# Elastic Compliance Matrix: (Units=1/GPa)
#
#
# Indices 1 2 3 4 5 6 
#
# 1 0.016029 -0.007499 -0.003961 0.000000 0.000000 0.000000
# 2 -0.007499 0.013498 -0.005324 0.000000 0.000000 0.000000
# 3 -0.003961 -0.005324 0.017296 0.000000 0.000000 0.000000
# 4 0.000000 0.000000 0.000000 0.034048 0.000000 0.000000
# 5 0.000000 0.000000 0.000000 0.000000 0.033710 0.000000
# 6 0.000000 0.000000 0.000000 0.000000 0.000000 0.041919
#
#
# Mechanical properties :
#
#
# Convention : Reuss Voigt Hill
#
# Bulk Modulus (GPa) = 75.44131 83.63792 79.53962
# Shear Modulus (GPa) = 25.70869 26.55953 26.13411
#
# Velocity S-wave (km/s) = 3.74570 3.80718 3.77657
# Velocity P-wave (km/s) = 7.73812 8.06045 7.90093
#
# Compressibility (1/GPa) = 0.01325534
#
# Stress axis : x y z
#
# Youngs Moduli (GPa) = 62.38826 74.08362 57.81531
#
# Poissons Ratio (x) = 0.55558 0.22899
# Poissons Ratio (y) = 0.46788 0.30780
# Poissons Ratio (z) = 0.24710 0.39441
#
# Static dielectric constant tensor:
#      x y z
#    x 3.704740 0.000000 0.000000 
#    y 0.000000 4.283320 0.000000 
#    z 0.000000 0.000000 3.485540 
# 
# 
# High freq. dielectric constant tensor:
#      x y z
#    x 1.680200 0.000000 0.000000 
#    y 0.000000 1.734090 0.000000 
#    z 0.000000 0.000000 1.723070 
# 
# From -- ./inp_files/2096.got.cif
#   From: 2010.03.12/outbox.cif.g09.slc.cpg/sg49_2_cif.got.tgz:2096.got - 2010.04.14 03:58:27.
