data_PCOD8203544
_publ_section_title
;
Structure prediction by ZEFSAII (Michael W. Deem and Ramdas Pophale) SiO2 
 PCOD8203544
Probable space group: P C C M
;
_chemical_formula_sum "Si O2"
_cell_formula_units_Z 56
_cell_length_a 20.794428
_cell_length_b 15.216973
_cell_length_c 8.821920
_cell_angle_alpha 90.000000
_cell_angle_beta 90.000000
_cell_angle_gamma 90.000000
_cell_volume 2791.504702
_symmetry_space_group_name_H-M "P C C M"
_symmetry_group_IT_number 49
_symmetry_cell_setting 'orthorhombic'
loop_
_space_group_symop_operation_xyz
x,y,z
-x,-y,z
x,-y,1/2-z
-x,y,1/2-z
-x,-y,-z
x,y,-z
-x,y,1/2+z
x,-y,1/2+z
loop_
_atom_site_type_symbol
_atom_site_label
_atom_site_fract_x
_atom_site_fract_y
_atom_site_fract_z
Si Si1 0.193923 0.313256 0.168821
Si Si2 0.936659 0.113826 0.830271
Si Si3 0.673580 0.715745 0.680552
Si Si4 0.568600 0.592426 0.819072
Si Si5 0.065437 0.676707 0.170550
Si Si6 0.314971 0.085375 0.325079
Si Si7 0.187051 0.107558 0.166642
O O1 0.257953 0.325958 0.270418
O O2 0.130490 0.357242 0.244840
O O3 0.181372 0.211130 0.153355
O O4 0.204150 0.353898 0.000000
O O5 0.934681 0.218721 0.831591
O O6 0.879580 0.071973 0.731806
O O7 0.000000 0.078287 0.750000
O O8 0.932788 0.077151 0.000000
O O9 0.667003 0.705624 0.500000
O O10 0.618385 0.666181 0.770234
O O11 0.663673 0.817807 0.732250
O O12 0.591838 0.500000 0.750000
O O13 0.500000 0.618832 0.750000
O O14 0.563946 0.585656 0.000000
O O15 0.000000 0.641566 0.250000
O O16 0.066734 0.639268 0.000000
O O17 0.328738 0.077524 0.500000
O O18 0.239714 0.077402 0.288025
O O19 0.350645 0.000000 0.250000
O O20 0.202400 0.068113 0.000000
#
# Coordination Sequence:
#
# PCOD8203544 Si02
#       7
#     8   8   8   8   8   8   8
#     4   9  16  26  41  64  94 131 175 224 277 332
#     4   9  15  22  33  50  73 104 148 202 264 327
#     4  10  20  35  55  82 115 151 190 234 282 332
#     4  11  22  39  64  94 127 160 191 224 265 321
#     4   9  15  22  33  52  82 122 167 219 275 332
#     4  10  20  33  51  74 103 139 182 230 277 324
#     4   9  16  26  40  58  83 116 160 213 269 325
#
# _framework density 20.060865
#
# number of rings (size 3 to 8) (size 9 to 14) (size 15 to 20)
#    0.000    2.429    0.000    4.286    0.000    8.571 
#    0.000    0.000    0.000    0.857    0.000    6.000 
#    0.000    0.571    0.000    5.714    0.000    8.857 
#
# Total GULP energy -694030.336107 kJ/mol
# GULP energy per Si atom -12393.398859 kJ/mol
# Density = 2.001521 g / cm^3
# Si number density = 20.060865 Si / 1000 Ang^3
#
#
#
# Elastic Constant Matrix: (Units=GPa)
#
#
# Indices 1 2 3 4 5 6 
#
# 1 103.2563 53.7829 50.7346 0.0000 0.0000 0.0000
# 2 53.7829 57.8447 32.0566 0.0000 0.0000 0.0000
# 3 50.7346 32.0566 136.5176 0.0000 0.0000 0.0000
# 4 0.0000 0.0000 0.0000 21.0648 0.0000 0.0000
# 5 0.0000 0.0000 0.0000 0.0000 32.5096 0.0000
# 6 0.0000 0.0000 0.0000 0.0000 0.0000 -37.3204
#
#
#
# Elastic Compliance Matrix: (Units=1/GPa)
#
#
# Indices 1 2 3 4 5 6 
#
# 1 0.020177 -0.016790 -0.003556 0.000000 0.000000 0.000000
# 2 -0.016790 0.033845 -0.001708 0.000000 0.000000 0.000000
# 3 -0.003556 -0.001708 0.009048 0.000000 0.000000 0.000000
# 4 0.000000 0.000000 0.000000 0.047473 0.000000 0.000000
# 5 0.000000 0.000000 0.000000 0.000000 0.030760 0.000000
# 6 0.000000 0.000000 0.000000 0.000000 0.000000 -0.026795
#
#
# Mechanical properties :
#
#
# Convention : Reuss Voigt Hill
#
# Bulk Modulus (GPa) = 52.73498 63.41855 58.07676
# Shear Modulus (GPa) = 30.31507 13.98709 22.15108
#
# Velocity S-wave (km/s) = 3.89157 2.64338 3.32655
# Velocity P-wave (km/s) = 6.82181 6.40299 6.61571
#
# Compressibility (1/GPa) = 0.01896275
#
# Stress axis : x y z
#
# Youngs Moduli (GPa) = 49.56139 29.54677 110.52658
#
# Poissons Ratio (x) = 0.49608 0.39303
# Poissons Ratio (y) = 0.83211 0.18875
# Poissons Ratio (z) = 0.17624 0.05046
#
# Static dielectric constant tensor:
#      x y z
#    x 3.507220 0.000000 0.000000 
#    y 0.000000 3.433490 0.000000 
#    z 0.000000 0.000000 3.901090 
# 
# 
# High freq. dielectric constant tensor:
#      x y z
#    x 1.759420 0.000000 0.000000 
#    y 0.000000 1.753620 0.000000 
#    z 0.000000 0.000000 1.800530 
# 
# From -- ./inp_files/5787.got.cif
#   From: 2010.03.12/outbox.cif.g09.slc.cpg/sg49_3_cif.got.tgz:5787.got - 2010.04.14 03:58:27.
