data_PCOD8203656
_publ_section_title
;
Structure prediction by ZEFSAII (Michael W. Deem and Ramdas Pophale) SiO2 
 PCOD8203656
Probable space group: P C C M
;
_chemical_formula_sum "Si O2"
_cell_formula_units_Z 64
_cell_length_a 24.631978
_cell_length_b 15.221254
_cell_length_c 8.650543
_cell_angle_alpha 90.000000
_cell_angle_beta 90.000000
_cell_angle_gamma 90.000000
_cell_volume 3243.344572
_symmetry_space_group_name_H-M "P C C M"
_symmetry_group_IT_number 49
_symmetry_cell_setting 'orthorhombic'
loop_
_space_group_symop_operation_xyz
x,y,z
-x,-y,z
x,-y,1/2-z
-x,y,1/2-z
-x,-y,-z
x,y,-z
-x,y,1/2+z
x,-y,1/2+z
loop_
_atom_site_type_symbol
_atom_site_label
_atom_site_fract_x
_atom_site_fract_y
_atom_site_fract_z
Si Si1 0.441842 0.592101 0.681216
Si Si2 0.057524 0.274607 0.681703
Si Si3 0.326569 0.912061 0.181216
Si Si4 0.356984 0.279869 0.320893
Si Si5 0.897892 0.913570 0.681153
Si Si6 0.785333 0.132217 0.680406
Si Si7 0.141538 0.409658 0.817045
Si Si8 0.765451 0.685613 0.320408
O O1 0.420407 0.500000 0.750000
O O2 0.500000 0.617607 0.750000
O O3 0.447751 0.580712 0.500000
O O4 0.400430 0.669885 0.718100
O O5 0.059679 0.294061 0.500000
O O6 0.066697 0.172124 0.719642
O O7 0.103628 0.329756 0.766493
O O8 0.000000 0.303885 0.750000
O O9 0.355002 0.821578 0.237852
O O10 0.263779 0.912664 0.228114
O O11 0.355080 0.000000 0.250000
O O12 0.331002 0.916516 0.000000
O O13 0.374011 0.284766 0.500000
O O14 0.298787 0.326334 0.295116
O O15 0.887840 0.922302 0.500000
O O16 0.840679 0.912455 0.768661
O O17 0.928421 0.000000 0.750000
O O18 0.775238 0.118850 0.500000
O O19 0.788684 0.234496 0.720912
O O20 0.117015 0.500000 0.750000
O O21 0.201725 0.398469 0.742245
O O22 0.145676 0.414297 0.000000
O O23 0.778310 0.703506 0.500000
#
# Coordination Sequence:
#
# PCOD8203656 Si02
#       8
#     8   8   8   8   8   8   8   8
#     4  11  22  38  62  88 119 156 200 250 300 354
#     4  11  25  45  67  88 116 150 191 244 296 352
#     4  10  20  34  53  80 119 161 201 247 294 346
#     4   9  20  37  58  86 122 161 200 245 295 349
#     4  11  23  38  59  85 117 152 191 238 290 348
#     4  11  20  32  54  82 115 154 196 238 287 346
#     4  12  25  42  66  92 120 154 194 239 293 355
#     4  10  20  37  59  86 122 158 194 238 292 349
#
# _framework density 19.732717000000001
#
# number of rings (size 3 to 8) (size 9 to 14) (size 15 to 20)
#    0.000    1.375    1.250    6.375    0.000    5.500 
#    0.000    2.500    0.000    0.375    0.000    2.625 
#    0.000    0.000    0.000    0.000    0.000    0.000 
#
# Total GULP energy -793744.068576 kJ/mol
# GULP energy per Si atom -12402.251072 kJ/mol
# Density = 1.968780 g / cm^3
# Si number density = 19.732717 Si / 1000 Ang^3
#
#
#
# Elastic Constant Matrix: (Units=GPa)
#
#
# Indices 1 2 3 4 5 6 
#
# 1 80.7730 46.4022 43.0095 0.0000 0.0000 0.0000
# 2 46.4022 105.4709 44.4260 0.0000 0.0000 0.0000
# 3 43.0095 44.4260 105.0611 0.0000 0.0000 0.0000
# 4 0.0000 0.0000 0.0000 36.5066 0.0000 0.0000
# 5 0.0000 0.0000 0.0000 0.0000 25.9320 0.0000
# 6 0.0000 0.0000 0.0000 0.0000 0.0000 30.2620
#
#
#
# Elastic Compliance Matrix: (Units=1/GPa)
#
#
# Indices 1 2 3 4 5 6 
#
# 1 0.018525 -0.006030 -0.005034 0.000000 0.000000 0.000000
# 2 -0.006030 0.013499 -0.003240 0.000000 0.000000 0.000000
# 3 -0.005034 -0.003240 0.012949 0.000000 0.000000 0.000000
# 4 0.000000 0.000000 0.000000 0.027392 0.000000 0.000000
# 5 0.000000 0.000000 0.000000 0.000000 0.038562 0.000000
# 6 0.000000 0.000000 0.000000 0.000000 0.000000 0.033045
#
#
# Mechanical properties :
#
#
# Convention : Reuss Voigt Hill
#
# Bulk Modulus (GPa) = 61.10245 62.10893 61.60569
# Shear Modulus (GPa) = 28.08467 29.03796 28.56131
#
# Velocity S-wave (km/s) = 3.77670 3.84026 3.80861
# Velocity P-wave (km/s) = 7.07462 7.15590 7.11537
#
# Compressibility (1/GPa) = 0.01636596
#
# Stress axis : x y z
#
# Youngs Moduli (GPa) = 53.98215 74.08170 77.22656
#
# Poissons Ratio (x) = 0.44668 0.38875
# Poissons Ratio (y) = 0.32549 0.25019
# Poissons Ratio (z) = 0.27174 0.24000
#
# Static dielectric constant tensor:
#      x y z
#    x 3.374310 0.000000 0.000000 
#    y 0.000000 3.923790 0.000000 
#    z 0.000000 0.000000 3.628990 
# 
# 
# High freq. dielectric constant tensor:
#      x y z
#    x 1.743500 0.000000 0.000000 
#    y 0.000000 1.779820 0.000000 
#    z 0.000000 0.000000 1.781510 
# 
# From -- ./inp_files/6566.got.cif
#   From: 2010.03.12/outbox.cif.g09.slc.cpg/sg49_4_cif.got.tgz:6566.got - 2010.04.14 03:58:27.
