data_PCOD8203353
_publ_section_title
;
Structure prediction by ZEFSAII (Michael W. Deem and Ramdas Pophale) SiO2 
 PCOD8203353
Probable space group: P C C M
;
_chemical_formula_sum "Si O2"
_cell_formula_units_Z 40
_cell_length_a 7.575834
_cell_length_b 11.061750
_cell_length_c 22.770459
_cell_angle_alpha 90.000000
_cell_angle_beta 90.000000
_cell_angle_gamma 90.000000
_cell_volume 1908.209590
_symmetry_space_group_name_H-M "P C C M"
_symmetry_group_IT_number 49
_symmetry_cell_setting 'orthorhombic'
loop_
_space_group_symop_operation_xyz
x,y,z
-x,-y,z
x,-y,1/2-z
-x,y,1/2-z
-x,-y,-z
x,y,-z
-x,y,1/2+z
x,-y,1/2+z
loop_
_atom_site_type_symbol
_atom_site_label
_atom_site_fract_x
_atom_site_fract_y
_atom_site_fract_z
Si Si1 0.137845 0.748235 0.000000
Si Si2 0.500000 0.500000 0.897470
Si Si3 0.772414 0.875918 0.122309
Si Si4 0.762074 0.787186 0.000000
Si Si5 0.507190 0.274148 0.817274
Si Si6 0.177763 0.159191 0.378904
Si Si7 0.243394 0.502260 0.500000
O O1 0.243583 0.788498 0.058150
O O2 0.088999 0.601224 0.000000
O O3 0.964453 0.832121 0.000000
O O4 0.450869 0.387468 0.856689
O O5 0.340724 0.535878 0.940156
O O6 0.639686 0.829757 0.172332
O O7 0.967693 0.816635 0.130609
O O8 0.781395 0.018651 0.126111
O O9 0.679199 0.838121 0.060011
O O10 0.780800 0.643794 0.000000
O O11 0.500000 0.314117 0.750000
O O12 0.706189 0.228328 0.830367
#
# Coordination Sequence:
#
# PCOD8203353 Si02
#       7
#     4   4   8   4   8   8   4
#     4  10  19  35  61  93 126 155 192 249 315 370
#     4  11  23  40  60  90 123 153 200 256 310 357
#     4  10  22  40  63  93 126 158 198 250 306 364
#     4  10  19  35  61  93 126 155 192 249 315 370
#     4  12  25  43  63  85 120 168 210 248 296 351
#     4  10  22  40  63  93 126 158 198 250 306 364
#     4  11  19  36  64  88 119 157 196 251 313 360
#
# _framework density 20.962057000000001
#
# number of rings (size 3 to 8) (size 9 to 14) (size 15 to 20)
#    0.000    1.400    4.000    1.800    0.000    5.600 
#    0.000    5.000    0.000    2.400    0.000    0.000 
#    0.000    0.000    0.000    0.000    0.000    0.000 
#
# Total GULP energy -495688.999923 kJ/mol
# GULP energy per Si atom -12392.224998 kJ/mol
# Density = 2.091435 g / cm^3
# Si number density = 20.962057 Si / 1000 Ang^3
#
#
#
# Elastic Constant Matrix: (Units=GPa)
#
#
# Indices 1 2 3 4 5 6 
#
# 1 46.5051 0.5861 17.6808 0.0000 0.0000 0.0000
# 2 0.5861 77.5888 21.3388 0.0000 0.0000 0.0000
# 3 17.6808 21.3388 128.8313 0.0000 0.0000 0.0000
# 4 0.0000 0.0000 0.0000 24.7248 0.0000 0.0000
# 5 0.0000 0.0000 0.0000 0.0000 20.2247 0.0000
# 6 0.0000 0.0000 0.0000 0.0000 0.0000 27.4025
#
#
#
# Elastic Compliance Matrix: (Units=1/GPa)
#
#
# Indices 1 2 3 4 5 6 
#
# 1 0.022725 0.000719 -0.003238 0.000000 0.000000 0.000000
# 2 0.000719 0.013526 -0.002339 0.000000 0.000000 0.000000
# 3 -0.003238 -0.002339 0.008594 0.000000 0.000000 0.000000
# 4 0.000000 0.000000 0.000000 0.040445 0.000000 0.000000
# 5 0.000000 0.000000 0.000000 0.000000 0.049445 0.000000
# 6 0.000000 0.000000 0.000000 0.000000 0.000000 0.036493
#
#
# Mechanical properties :
#
#
# Convention : Reuss Voigt Hill
#
# Bulk Modulus (GPa) = 28.46649 36.90406 32.68527
# Shear Modulus (GPa) = 25.95330 28.69170 27.32250
#
# Velocity S-wave (km/s) = 3.52249 3.70367 3.61422
# Velocity P-wave (km/s) = 5.49121 5.99441 5.74832
#
# Compressibility (1/GPa) = 0.03512902
#
# Stress axis : x y z
#
# Youngs Moduli (GPa) = 44.00449 73.92993 116.36197
#
# Poissons Ratio (x) = -0.05314 0.37676
# Poissons Ratio (y) = -0.03163 0.27218
# Poissons Ratio (z) = 0.14248 0.17293
#
# Static dielectric constant tensor:
#      x y z
#    x 3.804620 0.000000 0.000000 
#    y 0.000000 3.707710 0.000000 
#    z 0.000000 0.000000 3.708510 
# 
# 
# High freq. dielectric constant tensor:
#      x y z
#    x 1.813630 0.000000 0.000000 
#    y 0.000000 1.831300 0.000000 
#    z 0.000000 0.000000 1.807240 
# 
# From -- ./inp_files/19692.got.cif
#   From: 2010.03.12/outbox.cif.g09.slc.cpg/sg49_10_cif.got.tgz:19692.got - 2010.04.14 03:58:27.
