data_PCOD8203312
_publ_section_title
;
Structure prediction by ZEFSAII (Michael W. Deem and Ramdas Pophale) SiO2 
 PCOD8203312
Probable space group: P C C M
;
_chemical_formula_sum "Si O2"
_cell_formula_units_Z 64
_cell_length_a 24.711702
_cell_length_b 14.891449
_cell_length_c 8.764323
_cell_angle_alpha 90.000000
_cell_angle_beta 90.000000
_cell_angle_gamma 90.000000
_cell_volume 3225.209952
_symmetry_space_group_name_H-M "P C C M"
_symmetry_group_IT_number 49
_symmetry_cell_setting 'orthorhombic'
loop_
_space_group_symop_operation_xyz
x,y,z
-x,-y,z
x,-y,1/2-z
-x,y,1/2-z
-x,-y,-z
x,y,-z
-x,y,1/2+z
x,-y,1/2+z
loop_
_atom_site_type_symbol
_atom_site_label
_atom_site_fract_x
_atom_site_fract_y
_atom_site_fract_z
Si Si1 0.856200 0.774224 0.179757
Si Si2 0.662640 0.164430 0.825858
Si Si3 0.444400 0.218451 0.180929
Si Si4 0.763807 0.088729 0.322032
Si Si5 0.058850 0.906442 0.817993
Si Si6 0.589654 0.412200 0.322814
Si Si7 0.181857 0.593891 0.181083
Si Si8 0.303972 0.633170 0.173352
O O1 0.800279 0.825195 0.217431
O O2 0.904124 0.823860 0.267708
O O3 0.852746 0.673262 0.242821
O O4 0.868372 0.773176 0.000000
O O5 0.605202 0.158434 0.739852
O O6 0.704096 0.096138 0.748962
O O7 0.690181 0.260829 0.809750
O O8 0.652836 0.136919 0.000000
O O9 0.500000 0.180103 0.250000
O O10 0.436667 0.320774 0.242418
O O11 0.446045 0.214341 0.000000
O O12 0.758093 0.074680 0.500000
O O13 0.791425 0.000000 0.250000
O O14 0.000000 0.887794 0.750000
O O15 0.081990 0.000000 0.750000
O O16 0.056301 0.913349 0.000000
O O17 0.561216 0.500000 0.250000
O O18 0.580575 0.417242 0.500000
O O19 0.653441 0.414896 0.284108
O O20 0.160586 0.500000 0.250000
O O21 0.244514 0.605151 0.227446
O O22 0.173712 0.596416 0.000000
O O23 0.315701 0.602685 0.000000
#
# Coordination Sequence:
#
# PCOD8203312 Si02
#       8
#     8   8   8   8   8   8   8   8
#     4  11  23  39  60  89 125 165 206 252 301 351
#     4  10  19  35  57  80 109 143 181 229 283 343
#     4  10  21  36  53  74  98 133 179 227 281 342
#     4  11  23  37  58  88 122 157 192 233 287 352
#     4  11  22  39  64  94 129 167 209 254 301 358
#     4  10  20  31  46  68  97 131 173 225 280 340
#     4  11  22  36  54  81 116 159 206 253 300 352
#     4   9  18  32  51  74 103 142 186 231 282 339
#
# _framework density 19.843669999999999
#
# number of rings (size 3 to 8) (size 9 to 14) (size 15 to 20)
#    0.000    1.625    1.250    4.500    0.000    6.750 
#    0.000    1.250    0.000    0.750    0.000    5.250 
#    0.000    0.000    0.000    0.000    0.000    0.000 
#
# Total GULP energy -793780.865154 kJ/mol
# GULP energy per Si atom -12402.826018 kJ/mol
# Density = 1.979851 g / cm^3
# Si number density = 19.843670 Si / 1000 Ang^3
#
#
#
# Elastic Constant Matrix: (Units=GPa)
#
#
# Indices 1 2 3 4 5 6 
#
# 1 90.2058 39.8214 47.5468 0.0000 0.0000 0.0000
# 2 39.8214 98.2722 44.1664 0.0000 0.0000 0.0000
# 3 47.5468 44.1664 116.2206 0.0000 0.0000 0.0000
# 4 0.0000 0.0000 0.0000 33.4854 0.0000 0.0000
# 5 0.0000 0.0000 0.0000 0.0000 30.6149 0.0000
# 6 0.0000 0.0000 0.0000 0.0000 0.0000 14.7495
#
#
#
# Elastic Compliance Matrix: (Units=1/GPa)
#
#
# Indices 1 2 3 4 5 6 
#
# 1 0.015397 -0.004110 -0.004737 0.000000 0.000000 0.000000
# 2 -0.004110 0.013369 -0.003399 0.000000 0.000000 0.000000
# 3 -0.004737 -0.003399 0.011834 0.000000 0.000000 0.000000
# 4 0.000000 0.000000 0.000000 0.029864 0.000000 0.000000
# 5 0.000000 0.000000 0.000000 0.000000 0.032664 0.000000
# 6 0.000000 0.000000 0.000000 0.000000 0.000000 0.067799
#
#
# Mechanical properties :
#
#
# Convention : Reuss Voigt Hill
#
# Bulk Modulus (GPa) = 62.08288 63.08532 62.58410
# Shear Modulus (GPa) = 24.90189 27.31425 26.10807
#
# Velocity S-wave (km/s) = 3.54630 3.71411 3.63118
# Velocity P-wave (km/s) = 6.93702 7.08893 7.01339
#
# Compressibility (1/GPa) = 0.01610750
#
# Stress axis : x y z
#
# Youngs Moduli (GPa) = 64.94737 74.80043 84.50223
#
# Poissons Ratio (x) = 0.30744 0.40030
# Poissons Ratio (y) = 0.26694 0.28722
# Poissons Ratio (z) = 0.30766 0.25425
#
# Static dielectric constant tensor:
#      x y z
#    x 3.467850 0.000000 0.000000 
#    y 0.000000 3.594280 0.000000 
#    z 0.000000 0.000000 3.606670 
# 
# 
# High freq. dielectric constant tensor:
#      x y z
#    x 1.755590 0.000000 0.000000 
#    y 0.000000 1.766430 0.000000 
#    z 0.000000 0.000000 1.784790 
# 
# From -- ./inp_files/4297.got.cif
#   From: 2010.03.12/outbox.cif.g09.slc.cpg/sg49_3_cif.got.tgz:4297.got - 2010.04.14 03:58:27.
