data_PCOD8203997
_publ_section_title
;
Structure prediction by ZEFSAII (Michael W. Deem and Ramdas Pophale) SiO2 
 PCOD8203997
Probable space group: P C C M
;
_chemical_formula_sum "Si O2"
_cell_formula_units_Z 64
_cell_length_a 11.646562
_cell_length_b 14.952299
_cell_length_c 17.546114
_cell_angle_alpha 90.000000
_cell_angle_beta 90.000000
_cell_angle_gamma 90.000000
_cell_volume 3055.530778
_symmetry_space_group_name_H-M "P C C M"
_symmetry_group_IT_number 49
_symmetry_cell_setting 'orthorhombic'
loop_
_space_group_symop_operation_xyz
x,y,z
-x,-y,z
x,-y,1/2-z
-x,y,1/2-z
-x,-y,-z
x,y,-z
-x,y,1/2+z
x,-y,1/2+z
loop_
_atom_site_type_symbol
_atom_site_label
_atom_site_fract_x
_atom_site_fract_y
_atom_site_fract_z
Si Si1 0.818269 0.333322 0.911006
Si Si2 0.870611 0.995385 0.910121
Si Si3 0.754780 0.810192 0.089030
Si Si4 0.079285 0.647268 0.411230
Si Si5 0.557988 0.593495 0.910572
Si Si6 0.229432 0.514660 0.661506
Si Si7 0.512264 0.774724 0.160091
Si Si8 0.295517 0.848096 0.909283
O O1 0.753841 0.418389 0.876299
O O2 0.761606 0.243364 0.879959
O O3 0.950831 0.327414 0.888062
O O4 0.799981 0.341237 0.000000
O O5 0.784687 0.071716 0.877565
O O6 0.818413 0.900608 0.887717
O O7 0.879479 0.009383 0.000000
O O8 0.000000 0.000000 0.875488
O O9 0.840856 0.730649 0.109906
O O10 0.639863 0.804737 0.138238
O O11 0.721652 0.808505 0.000000
O O12 0.088983 0.621660 0.500000
O O13 0.108334 0.559345 0.361187
O O14 0.500000 0.500000 0.890686
O O15 0.681794 0.588118 0.871174
O O16 0.486900 0.676552 0.876142
O O17 0.573483 0.609596 0.000000
O O18 0.244144 0.500000 0.750000
O O19 0.500000 0.768606 0.250000
O O20 0.423000 0.848387 0.127133
O O21 0.307240 0.853921 0.000000
#
# Coordination Sequence:
#
# PCOD8203997 Si02
#       8
#     8   8   8   8   8   8   8   8
#     4  10  21  37  59  86 120 163 208 256 311 372
#     4   9  18  36  67 103 128 153 202 261 309 363
#     4  10  20  38  65  93 124 161 206 257 313 370
#     4  10  20  37  60  86 120 162 208 257 310 376
#     4  11  24  41  63  86 116 161 212 261 310 369
#     4  12  25  36  56  86 122 160 206 257 312 368
#     4  12  26  40  61  87 124 165 209 259 308 369
#     4  10  21  39  63  92 125 159 204 257 312 369
#
# _framework density 20.945623999999999
#
# number of rings (size 3 to 8) (size 9 to 14) (size 15 to 20)
#    0.000    1.500    1.250    4.125    3.500    7.500 
#    0.000    3.125    0.000    3.000    0.000    0.000 
#    0.000    0.000    0.000    0.000    0.000    0.000 
#
# Total GULP energy -793704.067706 kJ/mol
# GULP energy per Si atom -12401.626058 kJ/mol
# Density = 2.089795 g / cm^3
# Si number density = 20.945624 Si / 1000 Ang^3
#
#
#
# Elastic Constant Matrix: (Units=GPa)
#
#
# Indices 1 2 3 4 5 6 
#
# 1 89.2862 23.6070 22.5568 0.0000 0.0000 0.0000
# 2 23.6070 108.8912 15.0252 0.0000 0.0000 0.0000
# 3 22.5568 15.0252 49.9022 0.0000 0.0000 0.0000
# 4 0.0000 0.0000 0.0000 11.4729 0.0000 0.0000
# 5 0.0000 0.0000 0.0000 0.0000 2.5237 0.0000
# 6 0.0000 0.0000 0.0000 0.0000 0.0000 41.0048
#
#
#
# Elastic Compliance Matrix: (Units=1/GPa)
#
#
# Indices 1 2 3 4 5 6 
#
# 1 0.013092 -0.002109 -0.005283 0.000000 0.000000 0.000000
# 2 -0.002109 0.009921 -0.002034 0.000000 0.000000 0.000000
# 3 -0.005283 -0.002034 0.023040 0.000000 0.000000 0.000000
# 4 0.000000 0.000000 0.000000 0.087162 0.000000 0.000000
# 5 0.000000 0.000000 0.000000 0.000000 0.396244 0.000000
# 6 0.000000 0.000000 0.000000 0.000000 0.000000 0.024387
#
#
# Mechanical properties :
#
#
# Convention : Reuss Voigt Hill
#
# Bulk Modulus (GPa) = 36.76312 41.16195 38.96254
# Shear Modulus (GPa) = 8.59452 23.45964 16.02708
#
# Velocity S-wave (km/s) = 2.02785 3.35031 2.76918
# Velocity P-wave (km/s) = 4.80340 5.88732 5.37277
#
# Compressibility (1/GPa) = 0.02720117
#
# Stress axis : x y z
#
# Youngs Moduli (GPa) = 76.38076 100.79211 43.40365
#
# Poissons Ratio (x) = 0.21261 0.22930
# Poissons Ratio (y) = 0.16112 0.08827
# Poissons Ratio (z) = 0.40351 0.20499
#
# Static dielectric constant tensor:
#      x y z
#    x 4.061960 0.000000 0.000000 
#    y 0.000000 3.883450 0.000000 
#    z 0.000000 0.000000 3.414030 
# 
# 
# High freq. dielectric constant tensor:
#      x y z
#    x 1.837980 0.000000 0.000000 
#    y 0.000000 1.827430 0.000000 
#    z 0.000000 0.000000 1.785920 
# 
# From -- ./inp_files/17347.got.cif
#   From: 2010.03.12/outbox.cif.g09.slc.cpg/sg49_9_cif.got.tgz:17347.got - 2010.04.14 03:58:27.
