data_PCOD8203293
_publ_section_title
;
Structure prediction by ZEFSAII (Michael W. Deem and Ramdas Pophale) SiO2 
 PCOD8203293
Probable space group: P C C M
;
_chemical_formula_sum "Si O2"
_cell_formula_units_Z 40
_cell_length_a 10.218479
_cell_length_b 8.731891
_cell_length_c 25.523605
_cell_angle_alpha 90.000000
_cell_angle_beta 90.000000
_cell_angle_gamma 90.000000
_cell_volume 2277.385638
_symmetry_space_group_name_H-M "P C C M"
_symmetry_group_IT_number 49
_symmetry_cell_setting 'orthorhombic'
loop_
_space_group_symop_operation_xyz
x,y,z
-x,-y,z
x,-y,1/2-z
-x,y,1/2-z
-x,-y,-z
x,y,-z
-x,y,1/2+z
x,-y,1/2+z
loop_
_atom_site_type_symbol
_atom_site_label
_atom_site_fract_x
_atom_site_fract_y
_atom_site_fract_z
Si Si1 0.528523 0.325317 0.439159
Si Si2 0.226667 0.171445 0.109666
Si Si3 0.730612 0.145548 0.941258
Si Si4 0.027092 0.322494 0.408329
Si Si5 0.968984 0.177909 0.691935
O O1 0.500000 0.500000 0.425744
O O2 0.566756 0.303616 0.500000
O O3 0.645404 0.269531 0.402168
O O4 0.401467 0.228940 0.423870
O O5 0.182750 0.194155 0.171162
O O6 0.104252 0.230780 0.074105
O O7 0.247354 0.992960 0.098387
O O8 0.848891 0.267787 0.941664
O O9 0.715293 0.080282 0.000000
O O10 0.000000 0.500000 0.417493
O O11 0.057978 0.281071 0.347145
O O12 0.000000 0.239436 0.750000
O O13 0.000000 0.000000 0.687001
#
# Coordination Sequence:
#
# PCOD8203293 Si02
#       5
#     8   8   8   8   8
#     4  10  21  35  53  79 115 155 186 222 274 332
#     4  10  19  35  53  81 104 146 188 231 272 330
#     4  11  21  34  52  79 113 152 189 224 268 327
#     4  10  20  34  53  82 109 144 183 230 285 324
#     4   9  18  36  58  82 107 132 182 234 287 331
#
# _framework density 17.564
#
# number of rings (size 3 to 8) (size 9 to 14) (size 15 to 20)
#    1.200    0.800    2.000    3.000    0.000    4.800 
#    0.000    0.000    0.000    1.200    0.000    1.400 
#    0.000    0.000    0.000    0.000    0.000    0.000 
#
# Total GULP energy -495579.902328 kJ/mol
# GULP energy per Si atom -12389.497558 kJ/mol
# Density = 1.752402 g / cm^3
# Si number density = 17.564000 Si / 1000 Ang^3
#
#
#
# Elastic Constant Matrix: (Units=GPa)
#
#
# Indices 1 2 3 4 5 6 
#
# 1 139.5680 42.1422 47.4675 0.0000 0.0000 0.0000
# 2 42.1422 94.5652 32.3828 0.0000 0.0000 0.0000
# 3 47.4675 32.3828 74.2878 0.0000 0.0000 0.0000
# 4 0.0000 0.0000 0.0000 15.0710 0.0000 0.0000
# 5 0.0000 0.0000 0.0000 0.0000 27.3107 0.0000
# 6 0.0000 0.0000 0.0000 0.0000 0.0000 33.3451
#
#
#
# Elastic Compliance Matrix: (Units=1/GPa)
#
#
# Indices 1 2 3 4 5 6 
#
# 1 0.009660 -0.002576 -0.005050 0.000000 0.000000 0.000000
# 2 -0.002576 0.013117 -0.004072 0.000000 0.000000 0.000000
# 3 -0.005050 -0.004072 0.018463 0.000000 0.000000 0.000000
# 4 0.000000 0.000000 0.000000 0.066352 0.000000 0.000000
# 5 0.000000 0.000000 0.000000 0.000000 0.036616 0.000000
# 6 0.000000 0.000000 0.000000 0.000000 0.000000 0.029989
#
#
# Mechanical properties :
#
#
# Convention : Reuss Voigt Hill
#
# Bulk Modulus (GPa) = 56.03818 61.37844 58.70831
# Shear Modulus (GPa) = 24.56510 27.57392 26.06951
#
# Velocity S-wave (km/s) = 3.74385 3.96651 3.85679
# Velocity P-wave (km/s) = 7.11779 7.48325 7.30281
#
# Compressibility (1/GPa) = 0.01784498
#
# Stress axis : x y z
#
# Youngs Moduli (GPa) = 103.51832 76.23702 54.16294
#
# Poissons Ratio (x) = 0.19637 0.27351
# Poissons Ratio (y) = 0.26664 0.22055
# Poissons Ratio (z) = 0.52274 0.31044
#
# Static dielectric constant tensor:
#      x y z
#    x 3.271370 0.000000 0.000000 
#    y 0.000000 3.206930 0.000000 
#    z 0.000000 0.000000 3.128180 
# 
# 
# High freq. dielectric constant tensor:
#      x y z
#    x 1.676030 0.000000 0.000000 
#    y 0.000000 1.689750 0.000000 
#    z 0.000000 0.000000 1.644580 
# 
# From -- ./inp_files/24349.got.cif
#   From: 2010.03.12/outbox.cif.g09.slc.cpg/sg49_13_cif.got.tgz:24349.got - 2010.04.14 03:58:27.
