data_PCOD8203668
_publ_section_title
;
Structure prediction by ZEFSAII (Michael W. Deem and Ramdas Pophale) SiO2 
 PCOD8203668
Probable space group: P C C M
;
_chemical_formula_sum "Si O2"
_cell_formula_units_Z 40
_cell_length_a 12.953823
_cell_length_b 16.659405
_cell_length_c 9.832877
_cell_angle_alpha 90.000000
_cell_angle_beta 90.000000
_cell_angle_gamma 90.000000
_cell_volume 2121.964195
_symmetry_space_group_name_H-M "P C C M"
_symmetry_group_IT_number 49
_symmetry_cell_setting 'orthorhombic'
loop_
_space_group_symop_operation_xyz
x,y,z
-x,-y,z
x,-y,1/2-z
-x,y,1/2-z
-x,-y,-z
x,y,-z
-x,y,1/2+z
x,-y,1/2+z
loop_
_atom_site_type_symbol
_atom_site_label
_atom_site_fract_x
_atom_site_fract_y
_atom_site_fract_z
Si Si1 0.192699 0.071690 0.654576
Si Si2 0.593354 0.849637 0.654919
Si Si3 0.630003 0.572547 0.500000
Si Si4 0.388750 0.390235 0.000000
Si Si5 0.689542 0.314577 0.227439
Si Si6 0.097234 0.759549 0.840774
O O1 0.193004 0.040597 0.500000
O O2 0.307050 0.099262 0.698519
O O3 0.114033 0.145198 0.670877
O O4 0.154215 0.000000 0.750000
O O5 0.500000 0.877325 0.750000
O O6 0.561657 0.867118 0.500000
O O7 0.617055 0.755448 0.668712
O O8 0.510396 0.595999 0.500000
O O9 0.658903 0.478936 0.500000
O O10 0.681755 0.607386 0.365652
O O11 0.350407 0.337569 0.125070
O O12 0.807733 0.286945 0.227297
O O13 0.000000 0.734222 0.750000
O O14 0.083847 0.735463 0.000000
#
# Coordination Sequence:
#
# PCOD8203668 Si02
#       6
#     8   8   4   4   8   8
#     4   9  20  38  55  81 116 148 184 236 290 339
#     4  10  20  34  54  78 112 156 196 232 281 337
#     4  11  20  40  57  87 126 157 185 233 285 335
#     4  11  24  32  61  93 118 157 195 223 281 357
#     4  11  21  38  57  85 121 152 193 243 285 334
#     4  10  22  41  64  85 112 150 196 244 293 339
#
# _framework density 18.850459000000001
#
# number of rings (size 3 to 8) (size 9 to 14) (size 15 to 20)
#    0.000    1.800    2.000    3.600    2.800    4.000 
#    3.600    4.000    0.000    3.600    0.000    0.000 
#    0.000    0.000    0.000    0.000    0.000    0.000 
#
# Total GULP energy -496066.219650 kJ/mol
# GULP energy per Si atom -12401.655491 kJ/mol
# Density = 1.880755 g / cm^3
# Si number density = 18.850459 Si / 1000 Ang^3
#
#
#
# Elastic Constant Matrix: (Units=GPa)
#
#
# Indices 1 2 3 4 5 6 
#
# 1 78.2029 2.2541 28.2197 0.0000 0.0000 0.0000
# 2 2.2541 61.5725 16.5513 0.0000 0.0000 0.0000
# 3 28.2197 16.5513 93.0883 0.0000 0.0000 0.0000
# 4 0.0000 0.0000 0.0000 -20.0751 0.0000 0.0000
# 5 0.0000 0.0000 0.0000 0.0000 31.3516 0.0000
# 6 0.0000 0.0000 0.0000 0.0000 0.0000 16.4062
#
#
#
# Elastic Compliance Matrix: (Units=1/GPa)
#
#
# Indices 1 2 3 4 5 6 
#
# 1 0.014385 0.000678 -0.004481 0.000000 0.000000 0.000000
# 2 0.000678 0.017088 -0.003244 0.000000 0.000000 0.000000
# 3 -0.004481 -0.003244 0.012678 0.000000 0.000000 0.000000
# 4 0.000000 0.000000 0.000000 -0.049813 0.000000 0.000000
# 5 0.000000 0.000000 0.000000 0.000000 0.031896 0.000000
# 6 0.000000 0.000000 0.000000 0.000000 0.000000 0.060952
#
#
# Mechanical properties :
#
#
# Convention : Reuss Voigt Hill
#
# Bulk Modulus (GPa) = 33.27075 36.32378 34.79726
# Shear Modulus (GPa) = 44.92376 17.92578 31.42477
#
# Velocity S-wave (km/s) = 4.88706 3.08709 4.08739
# Velocity P-wave (km/s) = 7.03794 5.65845 6.38556
#
# Compressibility (1/GPa) = 0.03005643
#
# Stress axis : x y z
#
# Youngs Moduli (GPa) = 69.51783 58.51998 78.87827
#
# Poissons Ratio (x) = -0.03968 0.35348
# Poissons Ratio (y) = -0.04713 0.25587
# Poissons Ratio (z) = 0.31153 0.18983
#
# Static dielectric constant tensor:
#      x y z
#    x 3.329190 0.000000 0.000000 
#    y 0.000000 3.413170 0.000000 
#    z 0.000000 0.000000 3.416080 
# 
# 
# High freq. dielectric constant tensor:
#      x y z
#    x 1.722070 0.000000 0.000000 
#    y 0.000000 1.725920 0.000000 
#    z 0.000000 0.000000 1.741880 
# 
# From -- ./inp_files/3475.got.cif
#   From: 2010.03.12/outbox.cif.g09.slc.cpg/sg49_2_cif.got.tgz:3475.got - 2010.04.14 03:58:27.
