data_PCOD8203590
_publ_section_title
;
Structure prediction by ZEFSAII (Michael W. Deem and Ramdas Pophale) SiO2 
 PCOD8203590
Probable space group: P C C M
;
_chemical_formula_sum "Si O2"
_cell_formula_units_Z 42
_cell_length_a 5.282256
_cell_length_b 17.777058
_cell_length_c 24.728761
_cell_angle_alpha 90.000000
_cell_angle_beta 90.000000
_cell_angle_gamma 90.000000
_cell_volume 2322.104134
_symmetry_space_group_name_H-M "P C C M"
_symmetry_group_IT_number 49
_symmetry_cell_setting 'orthorhombic'
loop_
_space_group_symop_operation_xyz
x,y,z
-x,-y,z
x,-y,1/2-z
-x,y,1/2-z
-x,-y,-z
x,y,-z
-x,y,1/2+z
x,-y,1/2+z
loop_
_atom_site_type_symbol
_atom_site_label
_atom_site_fract_x
_atom_site_fract_y
_atom_site_fract_z
Si Si1 0.041172 0.132642 0.813183
Si Si2 0.500000 0.500000 0.250000
Si Si3 0.105719 0.419541 0.192736
Si Si4 0.471109 0.770890 0.936519
Si Si5 0.029794 0.721074 0.620053
Si Si6 0.541066 0.916807 0.630636
O O1 0.034232 0.219073 0.831581
O O2 0.316182 0.098755 0.826707
O O3 0.000000 0.128578 0.750000
O O4 0.815206 0.086217 0.841128
O O5 0.389307 0.440007 0.207679
O O6 0.068242 0.360993 0.144912
O O7 0.000000 0.500000 0.174215
O O8 0.000000 0.389604 0.250000
O O9 0.740212 0.734692 0.921288
O O10 0.467790 0.857843 0.918370
O O11 0.240152 0.724771 0.909881
O O12 0.434569 0.767937 0.000000
O O13 0.500000 0.000000 0.606230
#
# Coordination Sequence:
#
# PCOD8203590 Si02
#       6
#     8   2   8   8   8   8
#     4  10  20  34  50  79 111 144 176 209 260 327
#     4   8  18  32  52  86 118 144 180 208 262 320
#     4   9  19  33  54  86 117 147 177 211 260 320
#     4  10  22  39  58  78 102 138 186 234 279 314
#     4  10  21  36  58  80 108 143 181 224 266 320
#     4  10  21  35  53  78 105 138 180 222 270 323
#
# _framework density 18.087046000000001
#
# number of rings (size 3 to 8) (size 9 to 14) (size 15 to 20)
#    0.000    2.476    0.000    2.286    5.333    2.667 
#    3.429    0.000    0.000   10.286    0.000    0.000 
#    0.000    0.000    0.000    0.000    0.000    0.000 
#
# Total GULP energy -520322.041011 kJ/mol
# GULP energy per Si atom -12388.620024 kJ/mol
# Density = 1.804588 g / cm^3
# Si number density = 18.087046 Si / 1000 Ang^3
#
#
#
# Elastic Constant Matrix: (Units=GPa)
#
#
# Indices 1 2 3 4 5 6 
#
# 1 109.1313 29.3127 16.0517 0.0000 0.0000 0.0000
# 2 29.3127 113.1996 51.3903 0.0000 0.0000 0.0000
# 3 16.0517 51.3903 82.0986 0.0000 0.0000 0.0000
# 4 0.0000 0.0000 0.0000 14.0294 0.0000 0.0000
# 5 0.0000 0.0000 0.0000 0.0000 38.3793 0.0000
# 6 0.0000 0.0000 0.0000 0.0000 0.0000 45.9580
#
#
#
# Elastic Compliance Matrix: (Units=1/GPa)
#
#
# Indices 1 2 3 4 5 6 
#
# 1 0.009861 -0.002344 -0.000460 0.000000 0.000000 0.000000
# 2 -0.002344 0.012898 -0.007615 0.000000 0.000000 0.000000
# 3 -0.000460 -0.007615 0.017037 0.000000 0.000000 0.000000
# 4 0.000000 0.000000 0.000000 0.071279 0.000000 0.000000
# 5 0.000000 0.000000 0.000000 0.000000 0.026056 0.000000
# 6 0.000000 0.000000 0.000000 0.000000 0.000000 0.021759
#
#
# Mechanical properties :
#
#
# Convention : Reuss Voigt Hill
#
# Bulk Modulus (GPa) = 52.75397 55.32656 54.04026
# Shear Modulus (GPa) = 26.87459 33.51832 30.19646
#
# Velocity S-wave (km/s) = 3.85885 4.30951 4.09039
# Velocity P-wave (km/s) = 7.00602 7.44433 7.22850
#
# Compressibility (1/GPa) = 0.01895592
#
# Stress axis : x y z
#
# Youngs Moduli (GPa) = 101.41273 77.52980 58.69426
#
# Poissons Ratio (x) = 0.18176 0.02703
# Poissons Ratio (y) = 0.23775 0.44698
# Poissons Ratio (z) = 0.04670 0.59042
#
# Static dielectric constant tensor:
#      x y z
#    x 3.714420 0.000000 0.000000 
#    y 0.000000 3.133270 0.000000 
#    z 0.000000 0.000000 2.871400 
# 
# 
# High freq. dielectric constant tensor:
#      x y z
#    x 1.725150 0.000000 0.000000 
#    y 0.000000 1.697260 0.000000 
#    z 0.000000 0.000000 1.676950 
# 
# From -- ./inp_files/21796.got.cif
#   From: 2010.03.12/outbox.cif.g09.slc.cpg/sg49_11_cif.got.tgz:21796.got - 2010.04.14 03:58:27.
