data_PCOD8203202
_publ_section_title
;
Structure prediction by ZEFSAII (Michael W. Deem and Ramdas Pophale) SiO2 
 PCOD8203202
Probable space group: P C C M
;
_chemical_formula_sum "Si O2"
_cell_formula_units_Z 56
_cell_length_a 18.427556
_cell_length_b 19.032112
_cell_length_c 8.779823
_cell_angle_alpha 90.000000
_cell_angle_beta 90.000000
_cell_angle_gamma 90.000000
_cell_volume 3079.218342
_symmetry_space_group_name_H-M "P C C M"
_symmetry_group_IT_number 49
_symmetry_cell_setting 'orthorhombic'
loop_
_space_group_symop_operation_xyz
x,y,z
-x,-y,z
x,-y,1/2-z
-x,y,1/2-z
-x,-y,-z
x,y,-z
-x,y,1/2+z
x,-y,1/2+z
loop_
_atom_site_type_symbol
_atom_site_label
_atom_site_fract_x
_atom_site_fract_y
_atom_site_fract_z
Si Si1 0.217556 0.576190 0.819025
Si Si2 0.803538 0.070645 0.679023
Si Si3 0.424269 0.211837 0.681002
Si Si4 0.074620 0.342838 0.677755
Si Si5 0.150061 0.219469 0.824941
Si Si6 0.701759 0.700375 0.823049
Si Si7 0.637531 0.927588 0.181177
O O1 0.227727 0.500000 0.750000
O O2 0.138883 0.605624 0.768210
O O3 0.279933 0.624614 0.747379
O O4 0.225497 0.574927 0.000000
O O5 0.805135 0.062651 0.500000
O O6 0.850733 0.138289 0.729839
O O7 0.720928 0.081014 0.734202
O O8 0.837824 0.000000 0.750000
O O9 0.500000 0.238187 0.750000
O O10 0.427945 0.207634 0.500000
O O11 0.365146 0.268674 0.730771
O O12 0.407954 0.135398 0.748468
O O13 0.064538 0.344721 0.500000
O O14 0.092372 0.263029 0.726843
O O15 0.000000 0.369913 0.750000
O O16 0.231164 0.247288 0.800441
O O17 0.126660 0.226752 0.000000
O O18 0.681373 0.692457 0.000000
O O19 0.606225 0.000000 0.250000
O O20 0.629192 0.926695 0.000000
#
# Coordination Sequence:
#
# PCOD8203202 Si02
#       7
#     8   8   8   8   8   8   8
#     4  10  21  37  58  87 115 145 181 215 258 312
#     4   9  17  29  47  73 102 134 173 220 271 320
#     4  12  24  37  54  77 106 144 185 229 276 327
#     4  10  21  35  53  80 112 145 181 216 258 313
#     4   9  17  32  53  75 103 139 177 219 267 316
#     4  10  19  36  58  80 108 140 177 224 269 317
#     4  10  19  34  51  74 105 140 181 225 278 331
#
# _framework density 18.186433999999998
#
# number of rings (size 3 to 8) (size 9 to 14) (size 15 to 20)
#    0.000    2.000    1.429    3.000    0.000    4.000 
#    0.000    2.857    0.000    0.857    0.000    6.000 
#    0.000    0.000    0.000    0.000    0.000    0.000 
#
# Total GULP energy -694519.761366 kJ/mol
# GULP energy per Si atom -12402.138596 kJ/mol
# Density = 1.814504 g / cm^3
# Si number density = 18.186434 Si / 1000 Ang^3
#
#
#
# Elastic Constant Matrix: (Units=GPa)
#
#
# Indices 1 2 3 4 5 6 
#
# 1 68.3434 40.3161 34.5793 0.0000 0.0000 0.0000
# 2 40.3161 136.6723 43.7508 0.0000 0.0000 0.0000
# 3 34.5793 43.7508 89.4851 0.0000 0.0000 0.0000
# 4 0.0000 0.0000 0.0000 34.7914 0.0000 0.0000
# 5 0.0000 0.0000 0.0000 0.0000 28.2170 0.0000
# 6 0.0000 0.0000 0.0000 0.0000 0.0000 18.2326
#
#
#
# Elastic Compliance Matrix: (Units=1/GPa)
#
#
# Indices 1 2 3 4 5 6 
#
# 1 0.019909 -0.004043 -0.005717 0.000000 0.000000 0.000000
# 2 -0.004043 0.009495 -0.003080 0.000000 0.000000 0.000000
# 3 -0.005717 -0.003080 0.014890 0.000000 0.000000 0.000000
# 4 0.000000 0.000000 0.000000 0.028743 0.000000 0.000000
# 5 0.000000 0.000000 0.000000 0.000000 0.035440 0.000000
# 6 0.000000 0.000000 0.000000 0.000000 0.000000 0.054847
#
#
# Mechanical properties :
#
#
# Convention : Reuss Voigt Hill
#
# Bulk Modulus (GPa) = 53.71994 59.08815 56.40405
# Shear Modulus (GPa) = 25.61358 27.97184 26.79271
#
# Velocity S-wave (km/s) = 3.75692 3.92607 3.84243
# Velocity P-wave (km/s) = 6.95858 7.28785 7.12512
#
# Compressibility (1/GPa) = 0.01861506
#
# Stress axis : x y z
#
# Youngs Moduli (GPa) = 50.22745 105.31445 67.15859
#
# Poissons Ratio (x) = 0.42578 0.38394
# Poissons Ratio (y) = 0.20307 0.20686
# Poissons Ratio (z) = 0.28714 0.32439
#
# Static dielectric constant tensor:
#      x y z
#    x 3.244020 0.000000 0.000000 
#    y 0.000000 3.446190 0.000000 
#    z 0.000000 0.000000 3.398100 
# 
# 
# High freq. dielectric constant tensor:
#      x y z
#    x 1.679660 0.000000 0.000000 
#    y 0.000000 1.705000 0.000000 
#    z 0.000000 0.000000 1.714370 
# 
# From -- ./inp_files/4022.got.cif
#   From: 2010.03.12/outbox.cif.g09.slc.cpg/sg49_3_cif.got.tgz:4022.got - 2010.04.14 03:58:27.
