data_PCOD8203123
_publ_section_title
;
Structure prediction by ZEFSAII (Michael W. Deem and Ramdas Pophale) SiO2 
 PCOD8203123
Probable space group: P C C M
;
_chemical_formula_sum "Si O2"
_cell_formula_units_Z 64
_cell_length_a 20.639218
_cell_length_b 17.579315
_cell_length_c 8.558542
_cell_angle_alpha 90.000000
_cell_angle_beta 90.000000
_cell_angle_gamma 90.000000
_cell_volume 3105.238576
_symmetry_space_group_name_H-M "P C C M"
_symmetry_group_IT_number 49
_symmetry_cell_setting 'orthorhombic'
loop_
_space_group_symop_operation_xyz
x,y,z
-x,-y,z
x,-y,1/2-z
-x,y,1/2-z
-x,-y,-z
x,y,-z
-x,y,1/2+z
x,-y,1/2+z
loop_
_atom_site_type_symbol
_atom_site_label
_atom_site_fract_x
_atom_site_fract_y
_atom_site_fract_z
Si Si1 0.431097 0.618356 0.814384
Si Si2 0.909212 0.079313 0.318373
Si Si3 0.796960 0.718782 0.185667
Si Si4 0.933538 0.242441 0.815853
Si Si5 0.357633 0.925062 0.174317
Si Si6 0.217585 0.121803 0.677321
Si Si7 0.434039 0.788116 0.184854
Si Si8 0.706390 0.577853 0.184838
O O1 0.500000 0.584797 0.750000
O O2 0.423008 0.703990 0.748086
O O3 0.367167 0.577753 0.749800
O O4 0.432190 0.611576 0.000000
O O5 0.926772 0.085795 0.500000
O O6 0.935900 0.152540 0.226421
O O7 0.831946 0.080198 0.293451
O O8 0.937945 0.000000 0.250000
O O9 0.872199 0.713608 0.240278
O O10 0.765956 0.793014 0.265537
O O11 0.753001 0.647189 0.241347
O O12 0.795886 0.727152 0.000000
O O13 0.000000 0.279419 0.750000
O O14 0.930402 0.253021 0.000000
O O15 0.280715 0.929646 0.182182
O O16 0.380222 0.845982 0.252693
O O17 0.388066 0.000000 0.250000
O O18 0.384658 0.924368 0.000000
O O19 0.189529 0.126224 0.500000
O O20 0.500000 0.822696 0.250000
O O21 0.434167 0.782059 0.000000
O O22 0.738324 0.500000 0.250000
O O23 0.703443 0.576549 0.000000
#
# Coordination Sequence:
#
# PCOD8203123 Si02
#       8
#     8   8   8   8   8   8   8   8
#     4  10  20  37  61  86 116 151 190 233 280 334
#     4  11  21  34  51  76 111 149 189 234 284 337
#     4  10  21  38  60  87 116 148 187 233 280 334
#     4  11  22  38  60  86 115 151 194 239 288 341
#     4  10  21  33  46  67  96 130 173 223 277 329
#     4  10  19  33  53  76 102 138 182 227 277 334
#     4   9  19  35  52  71  95 129 172 220 270 325
#     4  11  24  40  61  90 123 155 189 227 275 332
#
# _framework density 20.610332
#
# number of rings (size 3 to 8) (size 9 to 14) (size 15 to 20)
#    0.000    1.750    0.000    6.375    0.000    6.750 
#    0.000    3.750    0.000    0.375    0.000    2.625 
#    0.000    0.000    0.000    0.000    0.000    0.000 
#
# Total GULP energy -793222.611752 kJ/mol
# GULP energy per Si atom -12394.103309 kJ/mol
# Density = 2.056342 g / cm^3
# Si number density = 20.610332 Si / 1000 Ang^3
#
#
#
# Elastic Constant Matrix: (Units=GPa)
#
#
# Indices 1 2 3 4 5 6 
#
# 1 87.7414 30.0158 20.2822 0.0000 0.0000 0.0000
# 2 30.0158 89.1878 22.6054 0.0000 0.0000 0.0000
# 3 20.2822 22.6054 81.7446 0.0000 0.0000 0.0000
# 4 0.0000 0.0000 0.0000 27.8861 0.0000 0.0000
# 5 0.0000 0.0000 0.0000 0.0000 27.6040 0.0000
# 6 0.0000 0.0000 0.0000 0.0000 0.0000 0.9767
#
#
#
# Elastic Compliance Matrix: (Units=1/GPa)
#
#
# Indices 1 2 3 4 5 6 
#
# 1 0.013240 -0.003896 -0.002208 0.000000 0.000000 0.000000
# 2 -0.003896 0.013204 -0.002685 0.000000 0.000000 0.000000
# 3 -0.002208 -0.002685 0.013523 0.000000 0.000000 0.000000
# 4 0.000000 0.000000 0.000000 0.035860 0.000000 0.000000
# 5 0.000000 0.000000 0.000000 0.000000 0.036227 0.000000
# 6 0.000000 0.000000 0.000000 0.000000 0.000000 1.023908
#
#
# Mechanical properties :
#
#
# Convention : Reuss Voigt Hill
#
# Bulk Modulus (GPa) = 44.66206 44.94228 44.80217
# Shear Modulus (GPa) = 4.30662 23.67804 13.99233
#
# Velocity S-wave (km/s) = 1.44709 3.39314 2.60840
# Velocity P-wave (km/s) = 4.95065 6.09953 5.55487
#
# Compressibility (1/GPa) = 0.02239037
#
# Stress axis : x y z
#
# Youngs Moduli (GPa) = 75.52644 75.73420 73.94599
#
# Poissons Ratio (x) = 0.29509 0.16325
# Poissons Ratio (y) = 0.29429 0.19852
# Poissons Ratio (z) = 0.16674 0.20332
#
# Static dielectric constant tensor:
#      x y z
#    x 3.878570 0.000000 0.000000 
#    y 0.000000 3.816210 0.000000 
#    z 0.000000 0.000000 3.716060 
# 
# 
# High freq. dielectric constant tensor:
#      x y z
#    x 1.808420 0.000000 0.000000 
#    y 0.000000 1.792800 0.000000 
#    z 0.000000 0.000000 1.807950 
# 
# From -- ./inp_files/5984.got.cif
#   From: 2010.03.12/outbox.cif.g09.slc.cpg/sg49_3_cif.got.tgz:5984.got - 2010.04.14 03:58:27.
