data_PCOD8203279
_publ_section_title
;
Structure prediction by ZEFSAII (Michael W. Deem and Ramdas Pophale) SiO2 
 PCOD8203279
Probable space group: P C C M
;
_chemical_formula_sum "Si O2"
_cell_formula_units_Z 40
_cell_length_a 5.147600
_cell_length_b 21.841261
_cell_length_c 16.122967
_cell_angle_alpha 90.000000
_cell_angle_beta 90.000000
_cell_angle_gamma 90.000000
_cell_volume 1812.706391
_symmetry_space_group_name_H-M "P C C M"
_symmetry_group_IT_number 49
_symmetry_cell_setting 'orthorhombic'
loop_
_space_group_symop_operation_xyz
x,y,z
-x,-y,z
x,-y,1/2-z
-x,y,1/2-z
-x,-y,-z
x,y,-z
-x,y,1/2+z
x,-y,1/2+z
loop_
_atom_site_type_symbol
_atom_site_label
_atom_site_fract_x
_atom_site_fract_y
_atom_site_fract_z
Si Si1 0.356366 0.732749 0.594791
Si Si2 0.131060 0.343193 0.404248
Si Si3 0.753367 0.472709 0.842962
Si Si4 0.053833 0.071392 0.342879
Si Si5 0.567301 0.866550 0.905733
O O1 0.269261 0.742226 0.500000
O O2 0.636375 0.703737 0.603521
O O3 0.389930 0.799656 0.636744
O O4 0.128597 0.689474 0.633192
O O5 0.091452 0.364470 0.500000
O O6 0.218837 0.399676 0.346238
O O7 0.500000 0.500000 0.889105
O O8 0.750807 0.500000 0.750000
O O9 0.000000 0.500000 0.891584
O O10 0.349610 0.091582 0.361534
O O11 0.000000 0.093347 0.250000
O O12 0.848325 0.102160 0.404231
O O13 0.000000 0.000000 0.353135
O O14 0.474149 0.858376 0.000000
#
# Coordination Sequence:
#
# PCOD8203279 Si02
#       5
#     8   8   8   8   8
#     4   9  19  35  58  88 116 148 188 246 307 350
#     4  10  19  34  58  84 111 146 193 237 291 359
#     4  10  21  36  55  75 110 149 182 233 286 352
#     4  11  24  41  62  88 130 175 209 256 318 379
#     4  11  22  39  66  94 125 162 212 270 316 369
#
# _framework density 22.066452999999999
#
# number of rings (size 3 to 8) (size 9 to 14) (size 15 to 20)
#    0.000    1.800    0.000    4.200    0.000    8.000 
#    0.000    0.000   44.000    0.000    0.000    0.000 
#    0.000    0.000    0.000    0.000    0.000    0.000 
#
# Total GULP energy -495701.996809 kJ/mol
# GULP energy per Si atom -12392.549920 kJ/mol
# Density = 2.201623 g / cm^3
# Si number density = 22.066453 Si / 1000 Ang^3
#
#
#
# Elastic Constant Matrix: (Units=GPa)
#
#
# Indices 1 2 3 4 5 6 
#
# 1 155.6564 44.0860 8.6628 0.0000 0.0000 0.0000
# 2 44.0860 143.3177 30.4195 0.0000 0.0000 0.0000
# 3 8.6628 30.4195 45.6887 0.0000 0.0000 0.0000
# 4 0.0000 0.0000 0.0000 13.9498 0.0000 0.0000
# 5 0.0000 0.0000 0.0000 0.0000 14.0353 0.0000
# 6 0.0000 0.0000 0.0000 0.0000 0.0000 46.2520
#
#
#
# Elastic Compliance Matrix: (Units=1/GPa)
#
#
# Indices 1 2 3 4 5 6 
#
# 1 0.007038 -0.002191 0.000125 0.000000 0.000000 0.000000
# 2 -0.002191 0.008808 -0.005449 0.000000 0.000000 0.000000
# 3 0.000125 -0.005449 0.025492 0.000000 0.000000 0.000000
# 4 0.000000 0.000000 0.000000 0.071686 0.000000 0.000000
# 5 0.000000 0.000000 0.000000 0.000000 0.071249 0.000000
# 6 0.000000 0.000000 0.000000 0.000000 0.000000 0.021621
#
#
# Mechanical properties :
#
#
# Convention : Reuss Voigt Hill
#
# Bulk Modulus (GPa) = 38.01381 56.77772 47.39577
# Shear Modulus (GPa) = 21.76810 32.28037 27.02424
#
# Velocity S-wave (km/s) = 3.14423 3.82890 3.50333
# Velocity P-wave (km/s) = 5.51779 6.73301 6.15546
#
# Compressibility (1/GPa) = 0.02630623
#
# Stress axis : x y z
#
# Youngs Moduli (GPa) = 142.08286 113.53091 39.22868
#
# Poissons Ratio (x) = 0.24880 -0.00489
# Poissons Ratio (y) = 0.31137 0.21376
# Poissons Ratio (z) = -0.01770 0.61863
#
# Static dielectric constant tensor:
#      x y z
#    x 0.440290 0.000000 0.000000 
#    y 0.000000 4.100740 0.000000 
#    z 0.000000 0.000000 3.651570 
# 
# 
# High freq. dielectric constant tensor:
#      x y z
#    x 1.894650 0.000000 0.000000 
#    y 0.000000 1.881060 0.000000 
#    z 0.000000 0.000000 1.826060 
# 
# From -- ./inp_files/15267.got.cif
#   From: 2010.03.12/outbox.cif.g09.slc.cpg/sg49_8_cif.got.tgz:15267.got - 2010.04.14 03:58:27.
