data_PCOD8203368
_publ_section_title
;
Structure prediction by ZEFSAII (Michael W. Deem and Ramdas Pophale) SiO2 
 PCOD8203368
Probable space group: P C C M
;
_chemical_formula_sum "Si O2"
_cell_formula_units_Z 64
_cell_length_a 19.326168
_cell_length_b 10.035755
_cell_length_c 17.208367
_cell_angle_alpha 90.000000
_cell_angle_beta 90.000000
_cell_angle_gamma 90.000000
_cell_volume 3337.609021
_symmetry_space_group_name_H-M "P C C M"
_symmetry_group_IT_number 49
_symmetry_cell_setting 'orthorhombic'
loop_
_space_group_symop_operation_xyz
x,y,z
-x,-y,z
x,-y,1/2-z
-x,y,1/2-z
-x,-y,-z
x,y,-z
-x,y,1/2+z
x,-y,1/2+z
loop_
_atom_site_type_symbol
_atom_site_label
_atom_site_fract_x
_atom_site_fract_y
_atom_site_fract_z
Si Si1 0.203003 0.894413 0.319511
Si Si2 0.307267 0.483240 0.086489
Si Si3 0.939249 0.096485 0.408482
Si Si4 0.183322 0.409865 0.817697
Si Si5 0.518438 0.854304 0.160535
Si Si6 0.552729 0.393588 0.908566
Si Si7 0.335714 0.173578 0.087174
Si Si8 0.949493 0.391806 0.590226
O O1 0.132459 0.933518 0.364297
O O2 0.199383 0.741135 0.289007
O O3 0.268873 0.902286 0.377349
O O4 0.213851 0.000000 0.250000
O O5 0.247815 0.494681 0.150325
O O6 0.370149 0.571960 0.120845
O O7 0.325525 0.329509 0.078770
O O8 0.285519 0.534535 0.000000
O O9 0.924080 0.080966 0.500000
O O10 0.970698 0.241455 0.387957
O O11 0.000000 0.000000 0.379329
O O12 0.151396 0.500000 0.750000
O O13 0.129687 0.409243 0.887469
O O14 0.500000 0.831852 0.250000
O O15 0.470743 0.754207 0.112038
O O16 0.599796 0.841241 0.145030
O O17 0.500000 0.000000 0.130990
O O18 0.500000 0.500000 0.870230
O O19 0.552355 0.412895 0.000000
O O20 0.349455 0.115581 0.000000
O O21 0.953254 0.416857 0.500000
O O22 0.000000 0.500000 0.631756
#
# Coordination Sequence:
#
# PCOD8203368 Si02
#       8
#     8   8   8   8   8   8   8   8
#     4  10  22  37  59  84 114 152 192 241 285 345
#     4   9  18  35  60  84 107 141 186 239 278 328
#     4   9  18  35  59  86 114 147 194 243 285 336
#     4  10  21  36  54  81 114 150 185 227 282 341
#     4  11  25  39  56  83 118 153 185 237 290 350
#     4  10  19  36  60  85 109 140 190 236 282 340
#     4  10  20  39  63  82 109 152 195 232 284 347
#     4   9  18  34  57  82 109 147 190 230 277 336
#
# _framework density 19.175404
#
# number of rings (size 3 to 8) (size 9 to 14) (size 15 to 20)
#    0.000    2.250    1.250    1.125    1.750    7.750 
#    0.000    2.500    0.000    1.500    0.000    0.000 
#    0.000    0.000    0.000    0.000    0.000    0.000 
#
# Total GULP energy -793231.847941 kJ/mol
# GULP energy per Si atom -12394.247624 kJ/mol
# Density = 1.913176 g / cm^3
# Si number density = 19.175404 Si / 1000 Ang^3
#
#
#
# Elastic Constant Matrix: (Units=GPa)
#
#
# Indices 1 2 3 4 5 6 
#
# 1 129.7013 63.1060 53.3177 0.0000 0.0000 0.0000
# 2 63.1060 89.9507 23.3747 0.0000 0.0000 0.0000
# 3 53.3177 23.3747 34.3602 0.0000 0.0000 0.0000
# 4 0.0000 0.0000 0.0000 53.9555 0.0000 0.0000
# 5 0.0000 0.0000 0.0000 0.0000 86.4603 0.0000
# 6 0.0000 0.0000 0.0000 0.0000 0.0000 36.5989
#
#
#
# Elastic Compliance Matrix: (Units=1/GPa)
#
#
# Indices 1 2 3 4 5 6 
#
# 1 0.026851 -0.009731 -0.035046 0.000000 0.000000 0.000000
# 2 -0.009731 0.017031 0.003514 0.000000 0.000000 0.000000
# 3 -0.035046 0.003514 0.081096 0.000000 0.000000 0.000000
# 4 0.000000 0.000000 0.000000 0.018534 0.000000 0.000000
# 5 0.000000 0.000000 0.000000 0.000000 0.011566 0.000000
# 6 0.000000 0.000000 0.000000 0.000000 0.000000 0.027323
#
#
# Mechanical properties :
#
#
# Convention : Reuss Voigt Hill
#
# Bulk Modulus (GPa) = 23.55658 59.28987 41.42322
# Shear Modulus (GPa) = 17.91610 43.01720 30.46665
#
# Velocity S-wave (km/s) = 3.05999 4.74154 3.99035
# Velocity P-wave (km/s) = 4.97958 7.80789 6.54826
#
# Compressibility (1/GPa) = 0.04245099
#
# Stress axis : x y z
#
# Youngs Moduli (GPa) = 37.24196 58.71689 12.33109
#
# Poissons Ratio (x) = 0.57136 0.43216
# Poissons Ratio (y) = 0.36239 -0.04333
# Poissons Ratio (z) = 1.30520 -0.20631
#
# Static dielectric constant tensor:
#      x y z
#    x 4.252520 0.000000 0.000000 
#    y 0.000000 3.587280 0.000000 
#    z 0.000000 0.000000 3.495920 
# 
# 
# High freq. dielectric constant tensor:
#      x y z
#    x 1.753680 0.000000 0.000000 
#    y 0.000000 1.739560 0.000000 
#    z 0.000000 0.000000 1.735660 
# 
# From -- ./inp_files/21082.got.cif
#   From: 2010.03.12/outbox.cif.g09.slc.cpg/sg49_11_cif.got.tgz:21082.got - 2010.04.14 03:58:27.
