data_PCOD8203955
_publ_section_title
;
Structure prediction by ZEFSAII (Michael W. Deem and Ramdas Pophale) SiO2 
 PCOD8203955
Probable space group: P C C M
;
_chemical_formula_sum "Si O2"
_cell_formula_units_Z 64
_cell_length_a 11.754405
_cell_length_b 19.073182
_cell_length_c 13.665364
_cell_angle_alpha 90.000000
_cell_angle_beta 90.000000
_cell_angle_gamma 90.000000
_cell_volume 3063.691330
_symmetry_space_group_name_H-M "P C C M"
_symmetry_group_IT_number 49
_symmetry_cell_setting 'orthorhombic'
loop_
_space_group_symop_operation_xyz
x,y,z
-x,-y,z
x,-y,1/2-z
-x,y,1/2-z
-x,-y,-z
x,y,-z
-x,y,1/2+z
x,-y,1/2+z
loop_
_atom_site_type_symbol
_atom_site_label
_atom_site_fract_x
_atom_site_fract_y
_atom_site_fract_z
Si Si1 0.696829 0.690760 0.112925
Si Si2 0.578582 0.935858 0.617017
Si Si3 0.123969 0.756962 0.728397
Si Si4 0.167943 0.040470 0.615561
Si Si5 0.365141 0.421101 0.251829
Si Si6 0.491613 0.209216 0.890845
Si Si7 0.285366 0.699134 0.110692
Si Si8 0.934822 0.105630 0.616278
O O1 0.824712 0.710357 0.141024
O O2 0.671558 0.613346 0.150109
O O3 0.611627 0.749171 0.163397
O O4 0.673940 0.689856 0.000000
O O5 0.584003 0.933200 0.500000
O O6 0.707658 0.941109 0.658903
O O7 0.522258 0.864724 0.660197
O O8 0.500000 0.000000 0.653664
O O9 0.197566 0.746984 0.827359
O O10 0.117626 0.835205 0.685339
O O11 0.000000 0.726585 0.750000
O O12 0.175673 0.034226 0.500000
O O13 0.070357 0.098292 0.640170
O O14 0.129355 0.964092 0.653635
O O15 0.316728 0.500000 0.250000
O O16 0.500000 0.421256 0.250000
O O17 0.309220 0.376992 0.341022
O O18 0.597894 0.259942 0.893296
O O19 0.449737 0.191461 0.000000
O O20 0.238074 0.688681 0.000000
O O21 0.915726 0.120179 0.500000
#
# Coordination Sequence:
#
# PCOD8203955 Si02
#       8
#     8   8   8   8   8   8   8   8
#     4  10  21  39  63  93 130 168 204 249 310 377
#     4   9  17  27  47  81 116 153 206 259 307 376
#     4  11  25  38  58  90 117 161 216 272 313 365
#     4   8  16  31  53  80 112 154 205 263 331 395
#     4  10  20  36  63 103 140 167 199 243 297 370
#     4   9  18  33  57  86 115 160 208 251 310 378
#     4  10  22  41  63  90 129 172 209 253 316 382
#     4   9  18  35  58  82 112 155 207 268 335 387
#
# _framework density 20.889832999999999
#
# number of rings (size 3 to 8) (size 9 to 14) (size 15 to 20)
#    0.000    2.500    1.250    1.125    3.500    1.500 
#    0.000    2.500    0.000    6.000    0.000    8.750 
#    0.000    0.000    0.000    0.000    0.000    0.000 
#
# Total GULP energy -793158.736267 kJ/mol
# GULP energy per Si atom -12393.105254 kJ/mol
# Density = 2.084229 g / cm^3
# Si number density = 20.889833 Si / 1000 Ang^3
#
#
#
# Elastic Constant Matrix: (Units=GPa)
#
#
# Indices 1 2 3 4 5 6 
#
# 1 110.6921 58.2476 32.9400 0.0000 0.0000 0.0000
# 2 58.2476 166.0525 50.6983 0.0000 0.0000 0.0000
# 3 32.9400 50.6983 93.3317 0.0000 0.0000 0.0000
# 4 0.0000 0.0000 0.0000 29.4163 0.0000 0.0000
# 5 0.0000 0.0000 0.0000 0.0000 21.1969 0.0000
# 6 0.0000 0.0000 0.0000 0.0000 0.0000 20.0240
#
#
#
# Elastic Compliance Matrix: (Units=1/GPa)
#
#
# Indices 1 2 3 4 5 6 
#
# 1 0.011454 -0.003337 -0.002230 0.000000 0.000000 0.000000
# 2 -0.003337 0.008192 -0.003272 0.000000 0.000000 0.000000
# 3 -0.002230 -0.003272 0.013279 0.000000 0.000000 0.000000
# 4 0.000000 0.000000 0.000000 0.033995 0.000000 0.000000
# 5 0.000000 0.000000 0.000000 0.000000 0.047177 0.000000
# 6 0.000000 0.000000 0.000000 0.000000 0.000000 0.049940
#
#
# Mechanical properties :
#
#
# Convention : Reuss Voigt Hill
#
# Bulk Modulus (GPa) = 65.58805 72.64979 69.11892
# Shear Modulus (GPa) = 26.76729 29.34013 28.05371
#
# Velocity S-wave (km/s) = 3.58349 3.75175 3.66858
# Velocity P-wave (km/s) = 6.97044 7.32261 7.14870
#
# Compressibility (1/GPa) = 0.01524668
#
# Stress axis : x y z
#
# Youngs Moduli (GPa) = 87.30952 122.07458 75.30774
#
# Poissons Ratio (x) = 0.40735 0.16792
# Poissons Ratio (y) = 0.29134 0.24641
# Poissons Ratio (z) = 0.19468 0.39944
#
# Static dielectric constant tensor:
#      x y z
#    x 3.931810 0.000000 0.000000 
#    y 0.000000 3.834360 0.000000 
#    z 0.000000 0.000000 3.906140 
# 
# 
# High freq. dielectric constant tensor:
#      x y z
#    x 1.812100 0.000000 0.000000 
#    y 0.000000 1.798090 0.000000 
#    z 0.000000 0.000000 1.826410 
# 
# From -- ./inp_files/13123.got.cif
#   From: 2010.03.12/outbox.cif.g09.slc.cpg/sg49_7_cif.got.tgz:13123.got - 2010.04.14 03:58:27.
