data_PCOD8203648
_publ_section_title
;
Structure prediction by ZEFSAII (Michael W. Deem and Ramdas Pophale) SiO2 
 PCOD8203648
Probable space group: P C C M
;
_chemical_formula_sum "Si O2"
_cell_formula_units_Z 64
_cell_length_a 14.952430
_cell_length_b 24.668090
_cell_length_c 8.863423
_cell_angle_alpha 90.000000
_cell_angle_beta 90.000000
_cell_angle_gamma 90.000000
_cell_volume 3269.254862
_symmetry_space_group_name_H-M "P C C M"
_symmetry_group_IT_number 49
_symmetry_cell_setting 'orthorhombic'
loop_
_space_group_symop_operation_xyz
x,y,z
-x,-y,z
x,-y,1/2-z
-x,y,1/2-z
-x,-y,-z
x,y,-z
-x,y,1/2+z
x,-y,1/2+z
loop_
_atom_site_type_symbol
_atom_site_label
_atom_site_fract_x
_atom_site_fract_y
_atom_site_fract_z
Si Si1 0.718926 0.142332 0.825349
Si Si2 0.910079 0.182336 0.823749
Si Si3 0.587013 0.761468 0.674712
Si Si4 0.849119 0.298965 0.171779
Si Si5 0.281726 0.555495 0.180080
Si Si6 0.086722 0.585213 0.168595
Si Si7 0.592693 0.942000 0.820781
Si Si8 0.326920 0.663634 0.677466
O O1 0.822561 0.147943 0.775507
O O2 0.672780 0.200462 0.799644
O O3 0.673659 0.097788 0.719502
O O4 0.709888 0.124664 0.000000
O O5 0.899042 0.244906 0.773342
O O6 0.000000 0.158012 0.750000
O O7 0.923408 0.178246 0.000000
O O8 0.500000 0.789648 0.750000
O O9 0.568817 0.751375 0.500000
O O10 0.598805 0.704066 0.757861
O O11 0.916991 0.349365 0.176286
O O12 0.768752 0.310679 0.284723
O O13 0.811244 0.291437 0.000000
O O14 0.319919 0.500000 0.250000
O O15 0.179469 0.563312 0.238913
O O16 0.340021 0.605221 0.243391
O O17 0.287638 0.555350 0.000000
O O18 0.000000 0.560793 0.250000
O O19 0.080921 0.563746 0.000000
O O20 0.500000 0.919692 0.750000
O O21 0.615565 0.000000 0.750000
O O22 0.582341 0.946771 0.000000
O O23 0.338241 0.656660 0.500000
#
# Coordination Sequence:
#
# PCOD8203648 Si02
#       8
#     8   8   8   8   8   8   8   8
#     4  10  21  38  59  85 123 163 199 243 294 341
#     4  10  20  34  53  79 114 157 200 245 293 342
#     4  11  22  38  59  86 121 155 188 229 284 346
#     4   9  17  33  50  70 103 145 186 230 283 331
#     4  10  21  37  54  73  98 133 177 227 281 339
#     4   9  18  29  45  67  97 131 171 220 276 335
#     4  11  22  38  62  91 124 160 202 245 293 350
#     4  11  21  34  55  81 108 142 183 226 278 340
#
# _framework density 19.576326999999999
#
# number of rings (size 3 to 8) (size 9 to 14) (size 15 to 20)
#    0.000    1.875    1.250    4.875    0.000    5.750 
#    0.000    1.250    0.000    0.750    0.000    5.250 
#    0.000    0.000    0.000    0.000    0.000    0.000 
#
# Total GULP energy -793609.570219 kJ/mol
# GULP energy per Si atom -12400.149535 kJ/mol
# Density = 1.953177 g / cm^3
# Si number density = 19.576327 Si / 1000 Ang^3
#
#
#
# Elastic Constant Matrix: (Units=GPa)
#
#
# Indices 1 2 3 4 5 6 
#
# 1 97.0375 38.1130 42.2473 0.0000 0.0000 0.0000
# 2 38.1130 91.2310 45.7655 0.0000 0.0000 0.0000
# 3 42.2473 45.7655 113.6382 0.0000 0.0000 0.0000
# 4 0.0000 0.0000 0.0000 27.5401 0.0000 0.0000
# 5 0.0000 0.0000 0.0000 0.0000 31.9815 0.0000
# 6 0.0000 0.0000 0.0000 0.0000 0.0000 17.5317
#
#
#
# Elastic Compliance Matrix: (Units=1/GPa)
#
#
# Indices 1 2 3 4 5 6 
#
# 1 0.013295 -0.003853 -0.003391 0.000000 0.000000 0.000000
# 2 -0.003853 0.014853 -0.004549 0.000000 0.000000 0.000000
# 3 -0.003391 -0.004549 0.011893 0.000000 0.000000 0.000000
# 4 0.000000 0.000000 0.000000 0.036311 0.000000 0.000000
# 5 0.000000 0.000000 0.000000 0.000000 0.031268 0.000000
# 6 0.000000 0.000000 0.000000 0.000000 0.000000 0.057040
#
#
# Mechanical properties :
#
#
# Convention : Reuss Voigt Hill
#
# Bulk Modulus (GPa) = 60.77553 61.57313 61.17433
# Shear Modulus (GPa) = 25.80910 27.12939 26.46925
#
# Velocity S-wave (km/s) = 3.63489 3.72671 3.68109
# Velocity P-wave (km/s) = 6.98065 7.07382 7.02739
#
# Compressibility (1/GPa) = 0.01645399
#
# Stress axis : x y z
#
# Youngs Moduli (GPa) = 75.21643 67.32651 84.08582
#
# Poissons Ratio (x) = 0.25942 0.28513
# Poissons Ratio (y) = 0.28982 0.38253
# Poissons Ratio (z) = 0.25505 0.30629
#
# Static dielectric constant tensor:
#      x y z
#    x 3.464580 0.000000 0.000000 
#    y 0.000000 3.478870 0.000000 
#    z 0.000000 0.000000 3.477230 
# 
# 
# High freq. dielectric constant tensor:
#      x y z
#    x 1.747240 0.000000 0.000000 
#    y 0.000000 1.748740 0.000000 
#    z 0.000000 0.000000 1.761360 
# 
# From -- ./inp_files/4311.got.cif
#   From: 2010.03.12/outbox.cif.g09.slc.cpg/sg49_3_cif.got.tgz:4311.got - 2010.04.14 03:58:27.
