data_PCOD8203781
_publ_section_title
;
Structure prediction by ZEFSAII (Michael W. Deem and Ramdas Pophale) SiO2 
 PCOD8203781
Probable space group: P C C M
;
_chemical_formula_sum "Si O2"
_cell_formula_units_Z 58
_cell_length_a 17.778954
_cell_length_b 17.434675
_cell_length_c 9.379259
_cell_angle_alpha 90.000000
_cell_angle_beta 90.000000
_cell_angle_gamma 90.000000
_cell_volume 2907.291584
_symmetry_space_group_name_H-M "P C C M"
_symmetry_group_IT_number 49
_symmetry_cell_setting 'orthorhombic'
loop_
_space_group_symop_operation_xyz
x,y,z
-x,-y,z
x,-y,1/2-z
-x,y,1/2-z
-x,-y,-z
x,y,-z
-x,y,1/2+z
x,-y,1/2+z
loop_
_atom_site_type_symbol
_atom_site_label
_atom_site_fract_x
_atom_site_fract_y
_atom_site_fract_z
Si Si1 0.931410 0.847390 0.842510
Si Si2 0.426896 0.278064 0.330438
Si Si3 0.500000 0.000000 0.750000
Si Si4 0.930741 0.666888 0.160638
Si Si5 0.654760 0.570491 0.342014
Si Si6 0.219743 0.924450 0.332956
Si Si7 0.614941 0.127247 0.661768
Si Si8 0.167761 0.571338 0.161426
O O1 0.938607 0.757015 0.846394
O O2 0.847142 0.866351 0.787524
O O3 0.000000 0.882625 0.750000
O O4 0.941862 0.882275 0.000000
O O5 0.500000 0.308398 0.250000
O O6 0.438692 0.268880 0.500000
O O7 0.366605 0.343844 0.290187
O O8 0.407442 0.194652 0.268755
O O9 0.444045 0.944001 0.662068
O O10 0.855960 0.646646 0.250084
O O11 0.000000 0.630883 0.250000
O O12 0.927921 0.632885 0.000000
O O13 0.621090 0.500000 0.250000
O O14 0.622117 0.557864 0.500000
O O15 0.743551 0.566823 0.341124
O O16 0.220937 0.941221 0.500000
O O17 0.301991 0.895957 0.285039
O O18 0.198743 0.000000 0.250000
O O19 0.617505 0.158664 0.500000
O O20 0.133646 0.500000 0.250000
O O21 0.135839 0.572835 0.000000
#
# Coordination Sequence:
#
# PCOD8203781 Si02
#       8
#     8   8   2   8   8   8   8   8
#     4   9  20  38  59  83 116 152 194 239 292 352
#     4  11  24  41  61  90 123 155 199 246 294 353
#     4  12  22  40  68  90 126 160 210 244 310 356
#     4  10  20  35  55  80 110 147 189 235 287 343
#     4   9  21  40  61  87 119 156 196 242 295 352
#     4  10  22  40  59  87 119 153 196 243 293 354
#     4  11  24  40  62  91 124 161 202 250 305 360
#     4  10  20  36  56  81 112 147 189 235 286 343
#
# _framework density 19.949839000000001
#
# number of rings (size 3 to 8) (size 9 to 14) (size 15 to 20)
#    0.000    1.931    1.379    1.448    1.931    4.690 
#    0.000    4.138    0.000    0.000    0.000    0.000 
#    0.000    0.000    0.000    0.000    0.000    0.000 
#
# Total GULP energy -718829.290978 kJ/mol
# GULP energy per Si atom -12393.608465 kJ/mol
# Density = 1.990443 g / cm^3
# Si number density = 19.949839 Si / 1000 Ang^3
#
#
#
# Elastic Constant Matrix: (Units=GPa)
#
#
# Indices 1 2 3 4 5 6 
#
# 1 96.5572 28.3959 42.1591 0.0000 0.0000 0.0000
# 2 28.3959 82.7401 48.8573 0.0000 0.0000 0.0000
# 3 42.1591 48.8573 120.7284 0.0000 0.0000 0.0000
# 4 0.0000 0.0000 0.0000 28.1126 0.0000 0.0000
# 5 0.0000 0.0000 0.0000 0.0000 29.3311 0.0000
# 6 0.0000 0.0000 0.0000 0.0000 0.0000 35.0876
#
#
#
# Elastic Compliance Matrix: (Units=1/GPa)
#
#
# Indices 1 2 3 4 5 6 
#
# 1 0.012532 -0.002256 -0.003463 0.000000 0.000000 0.000000
# 2 -0.002256 0.016287 -0.005803 0.000000 0.000000 0.000000
# 3 -0.003463 -0.005803 0.011841 0.000000 0.000000 0.000000
# 4 0.000000 0.000000 0.000000 0.035571 0.000000 0.000000
# 5 0.000000 0.000000 0.000000 0.000000 0.034094 0.000000
# 6 0.000000 0.000000 0.000000 0.000000 0.000000 0.028500
#
#
# Mechanical properties :
#
#
# Convention : Reuss Voigt Hill
#
# Bulk Modulus (GPa) = 56.76985 59.87225 58.32105
# Shear Modulus (GPa) = 29.80765 30.54716 30.17740
#
# Velocity S-wave (km/s) = 3.86959 3.91730 3.89352
# Velocity P-wave (km/s) = 6.96298 7.10893 7.03633
#
# Compressibility (1/GPa) = 0.01761498
#
# Stress axis : x y z
#
# Youngs Moduli (GPa) = 79.79474 61.39826 84.45186
#
# Poissons Ratio (x) = 0.13851 0.29249
# Poissons Ratio (y) = 0.18001 0.49011
# Poissons Ratio (z) = 0.27636 0.35632
#
# Static dielectric constant tensor:
#      x y z
#    x 3.774700 0.000000 0.000000 
#    y 0.000000 3.501440 0.000000 
#    z 0.000000 0.000000 3.942660 
# 
# 
# High freq. dielectric constant tensor:
#      x y z
#    x 1.782480 0.000000 0.000000 
#    y 0.000000 1.771600 0.000000 
#    z 0.000000 0.000000 1.784130 
# 
# From -- ./inp_files/5095.got.cif
#   From: 2010.03.12/outbox.cif.g09.slc.cpg/sg49_3_cif.got.tgz:5095.got - 2010.04.14 03:58:27.
