data_PCOD8203212
_publ_section_title
;
Structure prediction by ZEFSAII (Michael W. Deem and Ramdas Pophale) SiO2 
 PCOD8203212
Probable space group: P C C M
;
_chemical_formula_sum "Si O2"
_cell_formula_units_Z 64
_cell_length_a 30.814727
_cell_length_b 14.339406
_cell_length_c 8.732434
_cell_angle_alpha 90.000000
_cell_angle_beta 90.000000
_cell_angle_gamma 90.000000
_cell_volume 3858.555912
_symmetry_space_group_name_H-M "P C C M"
_symmetry_group_IT_number 49
_symmetry_cell_setting 'orthorhombic'
loop_
_space_group_symop_operation_xyz
x,y,z
-x,-y,z
x,-y,1/2-z
-x,y,1/2-z
-x,-y,-z
x,y,-z
-x,y,1/2+z
x,-y,1/2+z
loop_
_atom_site_type_symbol
_atom_site_label
_atom_site_fract_x
_atom_site_fract_y
_atom_site_fract_z
Si Si1 0.953294 0.598473 0.317694
Si Si2 0.123219 0.291611 0.181667
Si Si3 0.742453 0.095285 0.319213
Si Si4 0.362909 0.397972 0.179004
Si Si5 0.541249 0.398971 0.323380
Si Si6 0.712373 0.720614 0.679506
Si Si7 0.840938 0.905344 0.179829
Si Si8 0.796192 0.399143 0.181251
O O1 0.936847 0.500000 0.250000
O O2 0.955801 0.591582 0.500000
O O3 0.920718 0.679063 0.265876
O O4 0.000000 0.624241 0.250000
O O5 0.131262 0.184356 0.230141
O O6 0.161969 0.356286 0.238582
O O7 0.118586 0.302939 0.000000
O O8 0.740029 0.091006 0.500000
O O9 0.713335 0.179480 0.259826
O O10 0.791861 0.109214 0.260056
O O11 0.723296 0.000000 0.250000
O O12 0.358449 0.500000 0.250000
O O13 0.411231 0.354168 0.204958
O O14 0.330363 0.330039 0.263322
O O15 0.351619 0.404937 0.000000
O O16 0.542837 0.500000 0.250000
O O17 0.500000 0.342590 0.250000
O O18 0.531343 0.409158 0.500000
O O19 0.709636 0.735362 0.500000
O O20 0.754805 0.662446 0.725820
O O21 0.861265 0.000000 0.250000
O O22 0.841125 0.917133 0.000000
O O23 0.787210 0.500000 0.250000
O O24 0.803865 0.404950 0.000000
#
# Coordination Sequence:
#
# PCOD8203212 Si02
#       8
#     8   8   8   8   8   8   8   8
#     4  11  22  38  58  81 106 136 167 205 247 292
#     4  11  21  36  55  78 104 133 167 204 247 294
#     4  10  19  34  53  74  98 129 165 209 253 296
#     4  10  20  32  46  66  95 132 171 209 251 301
#     4   9  16  26  42  63  87 119 160 206 252 295
#     4  11  22  34  49  70  97 133 171 207 249 298
#     4   9  19  33  53  77 102 131 163 203 248 293
#     4  11  23  35  48  69  98 133 170 207 243 287
#
# _framework density 16.586516
#
# number of rings (size 3 to 8) (size 9 to 14) (size 15 to 20)
#    0.000    1.750    1.250    4.875    0.000    5.500 
#    0.000    0.000    0.000    0.375    0.000    2.625 
#    0.000    0.500    0.000    5.250    0.000    2.875 
#
# Total GULP energy -793583.135006 kJ/mol
# GULP energy per Si atom -12399.736484 kJ/mol
# Density = 1.654876 g / cm^3
# Si number density = 16.586516 Si / 1000 Ang^3
#
#
#
# Elastic Constant Matrix: (Units=GPa)
#
#
# Indices 1 2 3 4 5 6 
#
# 1 93.7580 47.9711 38.6982 0.0000 0.0000 0.0000
# 2 47.9711 111.3608 40.4014 0.0000 0.0000 0.0000
# 3 38.6982 40.4014 88.3621 0.0000 0.0000 0.0000
# 4 0.0000 0.0000 0.0000 28.8384 0.0000 0.0000
# 5 0.0000 0.0000 0.0000 0.0000 28.5830 0.0000
# 6 0.0000 0.0000 0.0000 0.0000 0.0000 5.4710
#
#
#
# Elastic Compliance Matrix: (Units=1/GPa)
#
#
# Indices 1 2 3 4 5 6 
#
# 1 0.014939 -0.004869 -0.004316 0.000000 0.000000 0.000000
# 2 -0.004869 0.012353 -0.003516 0.000000 0.000000 0.000000
# 3 -0.004316 -0.003516 0.014815 0.000000 0.000000 0.000000
# 4 0.000000 0.000000 0.000000 0.034676 0.000000 0.000000
# 5 0.000000 0.000000 0.000000 0.000000 0.034986 0.000000
# 6 0.000000 0.000000 0.000000 0.000000 0.000000 0.182783
#
#
# Mechanical properties :
#
#
# Convention : Reuss Voigt Hill
#
# Bulk Modulus (GPa) = 59.86438 60.84692 60.35565
# Shear Modulus (GPa) = 15.36001 23.67248 19.51624
#
# Velocity S-wave (km/s) = 3.04641 3.78195 3.43393
# Velocity P-wave (km/s) = 6.96741 7.47228 7.22426
#
# Compressibility (1/GPa) = 0.01670442
#
# Stress axis : x y z
#
# Youngs Moduli (GPa) = 66.94105 80.95342 67.50084
#
# Poissons Ratio (x) = 0.39418 0.29133
# Poissons Ratio (y) = 0.32595 0.23730
# Poissons Ratio (z) = 0.28892 0.28459
#
# Static dielectric constant tensor:
#      x y z
#    x 3.471520 0.000000 0.000000 
#    y 0.000000 3.060990 0.000000 
#    z 0.000000 0.000000 3.268070 
# 
# 
# High freq. dielectric constant tensor:
#      x y z
#    x 1.631250 0.000000 0.000000 
#    y 0.000000 1.617880 0.000000 
#    z 0.000000 0.000000 1.658700 
# 
# From -- ./inp_files/7051.got.cif
#   From: 2010.03.12/outbox.cif.g09.slc.cpg/sg49_4_cif.got.tgz:7051.got - 2010.04.14 03:58:27.
