data_PCOD8203752
_publ_section_title
;
Structure prediction by ZEFSAII (Michael W. Deem and Ramdas Pophale) SiO2 
 PCOD8203752
Probable space group: P C C M
;
_chemical_formula_sum "Si O2"
_cell_formula_units_Z 64
_cell_length_a 19.337110
_cell_length_b 12.247954
_cell_length_c 14.018149
_cell_angle_alpha 90.000000
_cell_angle_beta 90.000000
_cell_angle_gamma 90.000000
_cell_volume 3320.058883
_symmetry_space_group_name_H-M "P C C M"
_symmetry_group_IT_number 49
_symmetry_cell_setting 'orthorhombic'
loop_
_space_group_symop_operation_xyz
x,y,z
-x,-y,z
x,-y,1/2-z
-x,y,1/2-z
-x,-y,-z
x,y,-z
-x,y,1/2+z
x,-y,1/2+z
loop_
_atom_site_type_symbol
_atom_site_label
_atom_site_fract_x
_atom_site_fract_y
_atom_site_fract_z
Si Si1 0.395466 0.623694 0.765128
Si Si2 0.922758 0.871401 0.250826
Si Si3 0.802837 0.194430 0.613708
Si Si4 0.497097 0.298768 0.890258
Si Si5 0.562628 0.067529 0.111578
Si Si6 0.817388 0.206603 0.888153
Si Si7 0.285294 0.982511 0.112277
Si Si8 0.243628 0.369493 0.745221
O O1 0.377354 0.500000 0.750000
O O2 0.445827 0.613813 0.857231
O O3 0.429667 0.688611 0.675680
O O4 0.320378 0.673760 0.782640
O O5 0.877272 0.830283 0.160917
O O6 0.891470 0.833598 0.351818
O O7 0.000000 0.821457 0.250000
O O8 0.926337 0.000000 0.250000
O O9 0.811498 0.202995 0.500000
O O10 0.748427 0.098146 0.642289
O O11 0.776003 0.310688 0.654501
O O12 0.542017 0.191402 0.868495
O O13 0.474528 0.310892 0.000000
O O14 0.500000 0.000000 0.159189
O O15 0.637110 0.033083 0.155996
O O16 0.566051 0.041289 0.000000
O O17 0.802964 0.323921 0.840624
O O18 0.761838 0.117198 0.850958
O O19 0.818502 0.221327 0.000000
O O20 0.289653 0.974137 0.000000
O O21 0.233280 0.500000 0.750000
#
# Coordination Sequence:
#
# PCOD8203752 Si02
#       8
#     8   8   8   8   8   8   8   8
#     4  10  22  38  53  76 106 135 187 252 298 345
#     4  10  20  35  58  94 132 161 190 229 280 346
#     4  10  21  37  60  88 123 161 195 240 297 355
#     4  10  20  35  54  73 101 143 183 229 297 361
#     4   9  18  30  47  74 105 137 181 230 273 332
#     4  10  20  37  61  87 117 158 195 235 289 352
#     4   9  17  31  53  82 112 147 190 234 288 353
#     4  10  23  39  57  83 113 151 203 259 302 345
#
# _framework density 19.276765999999999
#
# number of rings (size 3 to 8) (size 9 to 14) (size 15 to 20)
#    0.000    2.250    1.250    1.500    1.750    4.000 
#    0.000    5.000    0.000    6.000    0.000    7.000 
#    0.000    0.000    0.000    0.000    0.000    0.000 
#
# Total GULP energy -792946.872578 kJ/mol
# GULP energy per Si atom -12389.794884 kJ/mol
# Density = 1.923289 g / cm^3
# Si number density = 19.276766 Si / 1000 Ang^3
#
#
#
# Elastic Constant Matrix: (Units=GPa)
#
#
# Indices 1 2 3 4 5 6 
#
# 1 141.9506 41.2579 23.6950 0.0000 0.0000 0.0000
# 2 41.2579 89.3672 29.3156 0.0000 0.0000 0.0000
# 3 23.6950 29.3156 96.7210 0.0000 0.0000 0.0000
# 4 0.0000 0.0000 0.0000 18.8044 0.0000 0.0000
# 5 0.0000 0.0000 0.0000 0.0000 -42.2461 0.0000
# 6 0.0000 0.0000 0.0000 0.0000 0.0000 20.8138
#
#
#
# Elastic Compliance Matrix: (Units=1/GPa)
#
#
# Indices 1 2 3 4 5 6 
#
# 1 0.008216 -0.003479 -0.000958 0.000000 0.000000 0.000000
# 2 -0.003479 0.013898 -0.003360 0.000000 0.000000 0.000000
# 3 -0.000958 -0.003360 0.011592 0.000000 0.000000 0.000000
# 4 0.000000 0.000000 0.000000 0.053179 0.000000 0.000000
# 5 0.000000 0.000000 0.000000 0.000000 -0.023671 0.000000
# 6 0.000000 0.000000 0.000000 0.000000 0.000000 0.048045
#
#
# Mechanical properties :
#
#
# Convention : Reuss Voigt Hill
#
# Bulk Modulus (GPa) = 55.21301 57.39734 56.30517
# Shear Modulus (GPa) = 37.62489 15.05910 26.34200
#
# Velocity S-wave (km/s) = 4.42274 2.79804 3.70065
# Velocity P-wave (km/s) = 7.40171 6.34655 6.89435
#
# Compressibility (1/GPa) = 0.01811167
#
# Stress axis : x y z
#
# Youngs Moduli (GPa) = 121.71788 71.95282 86.26441
#
# Poissons Ratio (x) = 0.25029 0.08267
# Poissons Ratio (y) = 0.42340 0.28987
# Poissons Ratio (z) = 0.11665 0.24178
#
# Static dielectric constant tensor:
#      x y z
#    x 3.871020 0.000000 0.000000 
#    y 0.000000 3.327520 0.000000 
#    z 0.000000 0.000000 3.509580 
# 
# 
# High freq. dielectric constant tensor:
#      x y z
#    x 1.747470 0.000000 0.000000 
#    y 0.000000 1.743140 0.000000 
#    z 0.000000 0.000000 1.748480 
# 
# From -- ./inp_files/14211.got.cif
#   From: 2010.03.12/outbox.cif.g09.slc.cpg/sg49_8_cif.got.tgz:14211.got - 2010.04.14 03:58:27.
