data_PCOD8203171
_publ_section_title
;
Structure prediction by ZEFSAII (Michael W. Deem and Ramdas Pophale) SiO2 
 PCOD8203171
Probable space group: P C C M
;
_chemical_formula_sum "Si O2"
_cell_formula_units_Z 64
_cell_length_a 17.674730
_cell_length_b 23.021152
_cell_length_c 9.011923
_cell_angle_alpha 90.000000
_cell_angle_beta 90.000000
_cell_angle_gamma 90.000000
_cell_volume 3666.885194
_symmetry_space_group_name_H-M "P C C M"
_symmetry_group_IT_number 49
_symmetry_cell_setting 'orthorhombic'
loop_
_space_group_symop_operation_xyz
x,y,z
-x,-y,z
x,-y,1/2-z
-x,y,1/2-z
-x,-y,-z
x,y,-z
-x,y,1/2+z
x,-y,1/2+z
loop_
_atom_site_type_symbol
_atom_site_label
_atom_site_fract_x
_atom_site_fract_y
_atom_site_fract_z
Si Si1 0.237604 0.062156 0.173061
Si Si2 0.182894 0.265053 0.669645
Si Si3 0.579584 0.749451 0.829365
Si Si4 0.702528 0.829856 0.325873
Si Si5 0.299925 0.661651 0.332703
Si Si6 0.921191 0.345709 0.674302
Si Si7 0.796621 0.439802 0.332094
Si Si8 0.930694 0.938345 0.171046
O O1 0.294369 0.106512 0.253253
O O2 0.152659 0.088711 0.191507
O O3 0.246744 0.000000 0.250000
O O4 0.258467 0.055877 0.000000
O O5 0.158532 0.273186 0.500000
O O6 0.215247 0.200455 0.699980
O O7 0.252724 0.306852 0.706012
O O8 0.110775 0.283060 0.769816
O O9 0.500000 0.750189 0.750000
O O10 0.635598 0.795155 0.753804
O O11 0.613612 0.683530 0.816854
O O12 0.568901 0.767507 0.000000
O O13 0.683902 0.834378 0.500000
O O14 0.269981 0.678279 0.500000
O O15 0.285380 0.592448 0.311679
O O16 0.932965 0.342153 0.500000
O O17 0.862599 0.396174 0.722861
O O18 0.000000 0.360780 0.750000
O O19 0.797181 0.500000 0.250000
O O20 0.812502 0.456305 0.500000
O O21 0.000000 0.902267 0.250000
O O22 0.927531 0.000000 0.250000
O O23 0.951422 0.945624 0.000000
#
# Coordination Sequence:
#
# PCOD8203171 Si02
#       8
#     8   8   8   8   8   8   8   8
#     4  10  20  33  50  73 101 136 174 211 252 297
#     4   9  17  30  49  71  93 121 160 204 250 297
#     4  10  19  33  55  81 107 131 159 199 246 295
#     4  10  20  34  53  77 103 130 163 202 244 297
#     4   8  16  31  49  70  98 130 161 197 242 290
#     4  10  20  33  48  67  95 130 169 213 260 305
#     4   9  18  31  47  69  96 130 171 211 251 296
#     4   9  16  26  42  63  87 117 155 197 239 279
#
# _framework density 17.453506000000001
#
# number of rings (size 3 to 8) (size 9 to 14) (size 15 to 20)
#    0.000    2.625    0.000    3.375    0.000    6.250 
#    0.000    1.875    0.000    2.250    0.000    5.250 
#    0.000    0.000    0.000    0.000    0.000    0.000 
#
# Total GULP energy -792879.066714 kJ/mol
# GULP energy per Si atom -12388.735417 kJ/mol
# Density = 1.741378 g / cm^3
# Si number density = 17.453506 Si / 1000 Ang^3
#
#
#
# Elastic Constant Matrix: (Units=GPa)
#
#
# Indices 1 2 3 4 5 6 
#
# 1 101.4103 53.1033 57.7973 0.0000 0.0000 0.0000
# 2 53.1033 90.1185 56.3036 0.0000 0.0000 0.0000
# 3 57.7973 56.3036 118.0288 0.0000 0.0000 0.0000
# 4 0.0000 0.0000 0.0000 25.6262 0.0000 0.0000
# 5 0.0000 0.0000 0.0000 0.0000 25.0701 0.0000
# 6 0.0000 0.0000 0.0000 0.0000 0.0000 16.9904
#
#
#
# Elastic Compliance Matrix: (Units=1/GPa)
#
#
# Indices 1 2 3 4 5 6 
#
# 1 0.015923 -0.006427 -0.004732 0.000000 0.000000 0.000000
# 2 -0.006427 0.018402 -0.005631 0.000000 0.000000 0.000000
# 3 -0.004732 -0.005631 0.013476 0.000000 0.000000 0.000000
# 4 0.000000 0.000000 0.000000 0.039023 0.000000 0.000000
# 5 0.000000 0.000000 0.000000 0.000000 0.039888 0.000000
# 6 0.000000 0.000000 0.000000 0.000000 0.000000 0.058857
#
#
# Mechanical properties :
#
#
# Convention : Reuss Voigt Hill
#
# Bulk Modulus (GPa) = 70.31529 71.55178 70.93353
# Shear Modulus (GPa) = 22.33273 23.02758 22.68015
#
# Velocity S-wave (km/s) = 3.58097 3.63625 3.60871
# Velocity P-wave (km/s) = 7.58106 7.66253 7.62190
#
# Compressibility (1/GPa) = 0.01422166
#
# Stress axis : x y z
#
# Youngs Moduli (GPa) = 62.80267 54.34301 74.20751
#
# Poissons Ratio (x) = 0.34924 0.35112
# Poissons Ratio (y) = 0.40361 0.41787
# Poissons Ratio (z) = 0.29715 0.30601
#
# Static dielectric constant tensor:
#      x y z
#    x 3.333770 0.000000 0.000000 
#    y 0.000000 3.104540 0.000000 
#    z 0.000000 0.000000 3.375920 
# 
# 
# High freq. dielectric constant tensor:
#      x y z
#    x 1.653560 0.000000 0.000000 
#    y 0.000000 1.649490 0.000000 
#    z 0.000000 0.000000 1.691820 
# 
# From -- ./inp_files/5250.got.cif
#   From: 2010.03.12/outbox.cif.g09.slc.cpg/sg49_3_cif.got.tgz:5250.got - 2010.04.14 03:58:27.
