data_PCOD8203357
_publ_section_title
;
Structure prediction by ZEFSAII (Michael W. Deem and Ramdas Pophale) SiO2 
 PCOD8203357
Probable space group: P C C M
;
_chemical_formula_sum "Si O2"
_cell_formula_units_Z 64
_cell_length_a 24.908656
_cell_length_b 14.893855
_cell_length_c 8.675125
_cell_angle_alpha 90.000000
_cell_angle_beta 90.000000
_cell_angle_gamma 90.000000
_cell_volume 3218.349149
_symmetry_space_group_name_H-M "P C C M"
_symmetry_group_IT_number 49
_symmetry_cell_setting 'orthorhombic'
loop_
_space_group_symop_operation_xyz
x,y,z
-x,-y,z
x,-y,1/2-z
-x,y,1/2-z
-x,-y,-z
x,y,-z
-x,y,1/2+z
x,-y,1/2+z
loop_
_atom_site_type_symbol
_atom_site_label
_atom_site_fract_x
_atom_site_fract_y
_atom_site_fract_z
Si Si1 0.557846 0.094902 0.182617
Si Si2 0.836813 0.837103 0.823775
Si Si3 0.735044 0.907368 0.682169
Si Si4 0.805658 0.367131 0.676110
Si Si5 0.912552 0.588473 0.321402
Si Si6 0.055634 0.216967 0.316564
Si Si7 0.352264 0.217022 0.182158
Si Si8 0.686858 0.408066 0.318802
O O1 0.500000 0.119750 0.250000
O O2 0.597955 0.173971 0.228792
O O3 0.578443 0.000000 0.250000
O O4 0.554296 0.086690 0.000000
O O5 0.797877 0.901187 0.725569
O O6 0.811927 0.738965 0.811137
O O7 0.896166 0.842672 0.751010
O O8 0.839260 0.870497 0.000000
O O9 0.726186 0.903984 0.500000
O O10 0.703173 0.827065 0.763482
O O11 0.711675 0.000000 0.750000
O O12 0.814211 0.398531 0.500000
O O13 0.849347 0.415021 0.783141
O O14 0.747530 0.393988 0.742522
O O15 0.940778 0.500000 0.250000
O O16 0.922315 0.584790 0.500000
O O17 0.938052 0.680326 0.254950
O O18 0.056786 0.211588 0.500000
O O19 0.000000 0.178363 0.250000
O O20 0.349808 0.322648 0.227091
O O21 0.358951 0.203374 0.000000
O O22 0.662273 0.500000 0.250000
O O23 0.688712 0.416947 0.500000
#
# Coordination Sequence:
#
# PCOD8203357 Si02
#       8
#     8   8   8   8   8   8   8   8
#     4  11  22  39  63  94 126 164 205 248 298 354
#     4  10  19  36  58  80 110 144 181 229 285 343
#     4  12  24  38  59  89 122 157 193 234 287 354
#     4   9  17  32  51  73 102 142 184 228 281 337
#     4  10  20  31  45  68  97 131 174 226 281 340
#     4  10  21  36  53  75  99 134 181 228 282 343
#     4  11  22  40  60  86 125 165 203 249 298 347
#     4  10  21  35  53  79 114 156 201 246 293 344
#
# _framework density 19.885971999999999
#
# number of rings (size 3 to 8) (size 9 to 14) (size 15 to 20)
#    0.000    1.625    1.250    4.875    0.000    4.750 
#    0.000    1.250    0.000    0.750    0.000    5.250 
#    0.000    0.000    0.000    0.000    0.000    0.000 
#
# Total GULP energy -793704.863415 kJ/mol
# GULP energy per Si atom -12401.638491 kJ/mol
# Density = 1.984071 g / cm^3
# Si number density = 19.885972 Si / 1000 Ang^3
#
#
#
# Elastic Constant Matrix: (Units=GPa)
#
#
# Indices 1 2 3 4 5 6 
#
# 1 104.6441 39.7740 30.6042 0.0000 0.0000 0.0000
# 2 39.7740 87.9264 30.6234 0.0000 0.0000 0.0000
# 3 30.6042 30.6234 91.2299 0.0000 0.0000 0.0000
# 4 0.0000 0.0000 0.0000 29.5770 0.0000 0.0000
# 5 0.0000 0.0000 0.0000 0.0000 30.2147 0.0000
# 6 0.0000 0.0000 0.0000 0.0000 0.0000 13.8243
#
#
#
# Elastic Compliance Matrix: (Units=1/GPa)
#
#
# Indices 1 2 3 4 5 6 
#
# 1 0.012024 -0.004568 -0.002500 0.000000 0.000000 0.000000
# 2 -0.004568 0.014614 -0.003373 0.000000 0.000000 0.000000
# 3 -0.002500 -0.003373 0.012932 0.000000 0.000000 0.000000
# 4 0.000000 0.000000 0.000000 0.033810 0.000000 0.000000
# 5 0.000000 0.000000 0.000000 0.000000 0.033096 0.000000
# 6 0.000000 0.000000 0.000000 0.000000 0.000000 0.072336
#
#
# Mechanical properties :
#
#
# Convention : Reuss Voigt Hill
#
# Bulk Modulus (GPa) = 53.51197 53.97820 53.74509
# Shear Modulus (GPa) = 24.28061 26.90977 25.59519
#
# Velocity S-wave (km/s) = 3.49806 3.68258 3.59151
# Velocity P-wave (km/s) = 6.57899 6.72939 6.65461
#
# Compressibility (1/GPa) = 0.01868741
#
# Stress axis : x y z
#
# Youngs Moduli (GPa) = 83.16894 68.42537 77.32585
#
# Poissons Ratio (x) = 0.31259 0.19332
# Poissons Ratio (y) = 0.37994 0.26084
# Poissons Ratio (z) = 0.20793 0.23081
#
# Static dielectric constant tensor:
#      x y z
#    x 3.503340 0.000000 0.000000 
#    y 0.000000 3.779510 0.000000 
#    z 0.000000 0.000000 3.560040 
# 
# 
# High freq. dielectric constant tensor:
#      x y z
#    x 1.759210 0.000000 0.000000 
#    y 0.000000 1.766410 0.000000 
#    z 0.000000 0.000000 1.780690 
# 
# From -- ./inp_files/4375.got.cif
#   From: 2010.03.12/outbox.cif.g09.slc.cpg/sg49_3_cif.got.tgz:4375.got - 2010.04.14 03:58:27.
