data_PCOD8203164
_publ_section_title
;
Structure prediction by ZEFSAII (Michael W. Deem and Ramdas Pophale) SiO2 
 PCOD8203164
Probable space group: P C C M
;
_chemical_formula_sum "Si O2"
_cell_formula_units_Z 64
_cell_length_a 19.474874
_cell_length_b 20.535476
_cell_length_c 8.861230
_cell_angle_alpha 90.000000
_cell_angle_beta 90.000000
_cell_angle_gamma 90.000000
_cell_volume 3543.834564
_symmetry_space_group_name_H-M "P C C M"
_symmetry_group_IT_number 49
_symmetry_cell_setting 'orthorhombic'
loop_
_space_group_symop_operation_xyz
x,y,z
-x,-y,z
x,-y,1/2-z
-x,y,1/2-z
-x,-y,-z
x,y,-z
-x,y,1/2+z
x,-y,1/2+z
loop_
_atom_site_type_symbol
_atom_site_label
_atom_site_fract_x
_atom_site_fract_y
_atom_site_fract_z
Si Si1 0.931949 0.378489 0.674775
Si Si2 0.931390 0.759598 0.323915
Si Si3 0.786938 0.816009 0.325110
Si Si4 0.570333 0.275405 0.321460
Si Si5 0.707680 0.314035 0.178780
Si Si6 0.786664 0.432987 0.675558
Si Si7 0.569098 0.874360 0.177038
Si Si8 0.711007 0.932359 0.821807
O O1 0.946631 0.365758 0.500000
O O2 0.914534 0.309868 0.751443
O O3 0.868427 0.426746 0.699305
O O4 0.000000 0.409878 0.750000
O O5 0.943660 0.748775 0.500000
O O6 0.867824 0.807470 0.294318
O O7 0.000000 0.790419 0.250000
O O8 0.771724 0.830136 0.500000
O O9 0.746423 0.751788 0.271454
O O10 0.763896 0.876911 0.226549
O O11 0.500000 0.302612 0.250000
O O12 0.568748 0.284775 0.500000
O O13 0.632369 0.316211 0.251243
O O14 0.579995 0.200250 0.273464
O O15 0.749307 0.374624 0.240976
O O16 0.702240 0.319446 0.000000
O O17 0.761785 0.500000 0.750000
O O18 0.766763 0.432103 0.500000
O O19 0.500000 0.903540 0.250000
O O20 0.634441 0.914739 0.236301
O O21 0.560854 0.880209 0.000000
O O22 0.734676 0.000000 0.750000
O O23 0.712647 0.938457 0.000000
#
# Coordination Sequence:
#
# PCOD8203164 Si02
#       8
#     8   8   8   8   8   8   8   8
#     4  10  20  33  52  78 110 148 188 228 274 327
#     4  10  19  33  54  83 113 143 180 226 277 329
#     4  10  21  36  57  83 111 145 185 229 277 329
#     4  10  19  34  55  84 115 145 186 230 280 331
#     4  11  21  36  59  85 113 147 186 233 282 329
#     4  11  24  39  56  80 112 151 191 234 281 334
#     4   9  19  33  51  76 108 146 184 224 267 321
#     4  11  23  38  55  79 111 148 188 230 278 330
#
# _framework density 18.059533999999999
#
# number of rings (size 3 to 8) (size 9 to 14) (size 15 to 20)
#    0.000    1.750    2.500    3.000    0.000    5.000 
#    0.000    2.500    0.000    0.750    0.000    5.250 
#    0.000    0.000    0.000    0.000    0.000    0.000 
#
# Total GULP energy -793800.380143 kJ/mol
# GULP energy per Si atom -12403.130940 kJ/mol
# Density = 1.801843 g / cm^3
# Si number density = 18.059534 Si / 1000 Ang^3
#
#
#
# Elastic Constant Matrix: (Units=GPa)
#
#
# Indices 1 2 3 4 5 6 
#
# 1 105.8756 42.0566 50.0176 0.0000 0.0000 0.0000
# 2 42.0566 89.4595 42.0559 0.0000 0.0000 0.0000
# 3 50.0176 42.0559 96.8269 0.0000 0.0000 0.0000
# 4 0.0000 0.0000 0.0000 22.1243 0.0000 0.0000
# 5 0.0000 0.0000 0.0000 0.0000 34.2501 0.0000
# 6 0.0000 0.0000 0.0000 0.0000 0.0000 21.6117
#
#
#
# Elastic Compliance Matrix: (Units=1/GPa)
#
#
# Indices 1 2 3 4 5 6 
#
# 1 0.013471 -0.003847 -0.005288 0.000000 0.000000 0.000000
# 2 -0.003847 0.015145 -0.004591 0.000000 0.000000 0.000000
# 3 -0.005288 -0.004591 0.015053 0.000000 0.000000 0.000000
# 4 0.000000 0.000000 0.000000 0.045199 0.000000 0.000000
# 5 0.000000 0.000000 0.000000 0.000000 0.029197 0.000000
# 6 0.000000 0.000000 0.000000 0.000000 0.000000 0.046271
#
#
# Mechanical properties :
#
#
# Convention : Reuss Voigt Hill
#
# Bulk Modulus (GPa) = 61.66026 62.26913 61.96470
# Shear Modulus (GPa) = 25.35565 26.13268 25.74416
#
# Velocity S-wave (km/s) = 3.75107 3.80811 3.77970
# Velocity P-wave (km/s) = 7.27857 7.34101 7.30986
#
# Compressibility (1/GPa) = 0.01621790
#
# Stress axis : x y z
#
# Youngs Moduli (GPa) = 74.23162 66.02796 66.43114
#
# Poissons Ratio (x) = 0.25403 0.35128
# Poissons Ratio (y) = 0.28559 0.30497
# Poissons Ratio (z) = 0.39252 0.30312
#
# Static dielectric constant tensor:
#      x y z
#    x 3.493850 0.000000 0.000000 
#    y 0.000000 3.071650 0.000000 
#    z 0.000000 0.000000 3.389960 
# 
# 
# High freq. dielectric constant tensor:
#      x y z
#    x 1.705570 0.000000 0.000000 
#    y 0.000000 1.670770 0.000000 
#    z 0.000000 0.000000 1.712550 
# 
# From -- ./inp_files/5969.got.cif
#   From: 2010.03.12/outbox.cif.g09.slc.cpg/sg49_3_cif.got.tgz:5969.got - 2010.04.14 03:58:27.
