data_PCOD8203402
_publ_section_title
;
Structure prediction by ZEFSAII (Michael W. Deem and Ramdas Pophale) SiO2 
 PCOD8203402
Probable space group: P C C M
;
_chemical_formula_sum "Si O2"
_cell_formula_units_Z 48
_cell_length_a 9.921283
_cell_length_b 8.925222
_cell_length_c 28.323352
_cell_angle_alpha 90.000000
_cell_angle_beta 90.000000
_cell_angle_gamma 90.000000
_cell_volume 2508.023000
_symmetry_space_group_name_H-M "P C C M"
_symmetry_group_IT_number 49
_symmetry_cell_setting 'orthorhombic'
loop_
_space_group_symop_operation_xyz
x,y,z
-x,-y,z
x,-y,1/2-z
-x,y,1/2-z
-x,-y,-z
x,y,-z
-x,y,1/2+z
x,-y,1/2+z
loop_
_atom_site_type_symbol
_atom_site_label
_atom_site_fract_x
_atom_site_fract_y
_atom_site_fract_z
Si Si1 0.744528 0.314341 0.343620
Si Si2 0.150457 0.675729 0.754542
Si Si3 0.502579 0.325766 0.093628
Si Si4 0.028058 0.175747 0.099249
Si Si5 0.777596 0.662167 0.357645
Si Si6 0.100714 0.140397 0.000000
Si Si7 0.582752 0.149779 0.500000
O O1 0.750080 0.275712 0.287903
O O2 0.595483 0.285951 0.362921
O O3 0.845904 0.198822 0.367131
O O4 0.789149 0.483135 0.356042
O O5 0.131800 0.500000 0.750000
O O6 0.220113 0.724011 0.803795
O O7 0.000000 0.748295 0.750000
O O8 0.500000 0.500000 0.080827
O O9 0.648577 0.278890 0.113429
O O10 0.459034 0.240436 0.046607
O O11 0.904113 0.275400 0.114745
O O12 0.067736 0.234376 0.046944
O O13 0.000000 0.000000 0.099532
O O14 0.260284 0.103192 0.000000
O O15 0.000000 0.000000 0.000000
O O16 0.500000 0.000000 0.500000
#
# Coordination Sequence:
#
# PCOD8203402 Si02
#       7
#     8   8   8   8   8   4   4
#     4  10  19  38  59  84 118 154 189 236 290 338
#     4   9  16  30  57  86 115 151 192 231 281 346
#     4  10  23  39  60  87 120 150 193 242 288 344
#     4  11  22  37  59  82 116 147 195 244 283 341
#     4  10  21  36  59  88 116 153 192 234 287 346
#     4  10  24  41  58  85 113 145 200 243 279 346
#     4  12  25  41  65  82 116 162 192 234 299 349
#
# _framework density 19.138580000000001
#
# number of rings (size 3 to 8) (size 9 to 14) (size 15 to 20)
#    0.000    1.833    3.333    0.750    4.667    0.667 
#    0.000    7.500    0.000    0.000    0.000    3.500 
#    0.000    0.000    0.000    0.000    0.000    0.000 
#
# Total GULP energy -594969.106367 kJ/mol
# GULP energy per Si atom -12395.189716 kJ/mol
# Density = 1.909502 g / cm^3
# Si number density = 19.138580 Si / 1000 Ang^3
#
#
#
# Elastic Constant Matrix: (Units=GPa)
#
#
# Indices 1 2 3 4 5 6 
#
# 1 79.5655 24.4199 52.7953 0.0000 0.0000 0.0000
# 2 24.4199 35.6242 28.3739 0.0000 0.0000 0.0000
# 3 52.7953 28.3739 164.5877 0.0000 0.0000 0.0000
# 4 0.0000 0.0000 0.0000 13.8651 0.0000 0.0000
# 5 0.0000 0.0000 0.0000 0.0000 41.3805 0.0000
# 6 0.0000 0.0000 0.0000 0.0000 0.0000 18.0512
#
#
#
# Elastic Compliance Matrix: (Units=1/GPa)
#
#
# Indices 1 2 3 4 5 6 
#
# 1 0.018184 -0.009063 -0.004270 0.000000 0.000000 0.000000
# 2 -0.009063 0.037056 -0.003481 0.000000 0.000000 0.000000
# 3 -0.004270 -0.003481 0.008046 0.000000 0.000000 0.000000
# 4 0.000000 0.000000 0.000000 0.072123 0.000000 0.000000
# 5 0.000000 0.000000 0.000000 0.000000 0.024166 0.000000
# 6 0.000000 0.000000 0.000000 0.000000 0.000000 0.055398
#
#
# Mechanical properties :
#
#
# Convention : Reuss Voigt Hill
#
# Bulk Modulus (GPa) = 33.71991 54.55062 44.13526
# Shear Modulus (GPa) = 19.34331 26.27191 22.80761
#
# Velocity S-wave (km/s) = 3.18260 3.70904 3.45586
# Velocity P-wave (km/s) = 5.58232 6.84891 6.24779
#
# Compressibility (1/GPa) = 0.02965607
#
# Stress axis : x y z
#
# Youngs Moduli (GPa) = 54.99488 26.98609 124.29016
#
# Poissons Ratio (x) = 0.24458 0.53076
# Poissons Ratio (y) = 0.49844 0.43265
# Poissons Ratio (z) = 0.23485 0.09394
#
# Static dielectric constant tensor:
#      x y z
#    x 3.774230 0.000000 0.000000 
#    y 0.000000 3.263900 0.000000 
#    z 0.000000 0.000000 4.051300 
# 
# 
# High freq. dielectric constant tensor:
#      x y z
#    x 1.751910 0.000000 0.000000 
#    y 0.000000 1.709180 0.000000 
#    z 0.000000 0.000000 1.766250 
# 
# From -- ./inp_files/26347.got.cif
#   From: 2010.03.12/outbox.cif.g09.slc.cpg/sg49_14_cif.got.tgz:26347.got - 2010.04.14 03:58:27.
