data_PCOD8203116
_publ_section_title
;
Structure prediction by ZEFSAII (Michael W. Deem and Ramdas Pophale) SiO2 
 PCOD8203116
Probable space group: P C C M
;
_chemical_formula_sum "Si O2"
_cell_formula_units_Z 58
_cell_length_a 26.068532
_cell_length_b 14.431709
_cell_length_c 9.002787
_cell_angle_alpha 90.000000
_cell_angle_beta 90.000000
_cell_angle_gamma 90.000000
_cell_volume 3386.969718
_symmetry_space_group_name_H-M "P C C M"
_symmetry_group_IT_number 49
_symmetry_cell_setting 'orthorhombic'
loop_
_space_group_symop_operation_xyz
x,y,z
-x,-y,z
x,-y,1/2-z
-x,y,1/2-z
-x,-y,-z
x,y,-z
-x,y,1/2+z
x,-y,1/2+z
loop_
_atom_site_type_symbol
_atom_site_label
_atom_site_fract_x
_atom_site_fract_y
_atom_site_fract_z
Si Si1 0.161797 0.773831 0.174479
Si Si2 0.098547 0.913404 0.334751
Si Si3 0.315736 0.591919 0.327466
Si Si4 0.197281 0.593262 0.675048
Si Si5 0.447767 0.095487 0.826142
Si Si6 0.258261 0.098419 0.325454
Si Si7 0.347788 0.791776 0.672505
Si Si8 0.000000 0.000000 0.750000
O O1 0.110757 0.821980 0.239857
O O2 0.165237 0.675982 0.254674
O O3 0.210777 0.835994 0.216005
O O4 0.155676 0.759075 0.000000
O O5 0.121531 0.904629 0.500000
O O6 0.037083 0.932451 0.346087
O O7 0.125582 0.000000 0.250000
O O8 0.338554 0.500000 0.250000
O O9 0.322174 0.574047 0.500000
O O10 0.256688 0.607129 0.282716
O O11 0.345747 0.684317 0.276026
O O12 0.176235 0.500000 0.750000
O O13 0.188257 0.589491 0.500000
O O14 0.500000 0.131106 0.750000
O O15 0.405331 0.173788 0.799525
O O16 0.429553 0.000000 0.750000
O O17 0.457028 0.077358 0.000000
O O18 0.263534 0.083316 0.500000
O O19 0.309912 0.145605 0.267705
O O20 0.249797 0.000000 0.250000
O O21 0.331609 0.800185 0.500000
#
# Coordination Sequence:
#
# PCOD8203116 Si02
#       8
#     8   8   8   8   8   8   8   2
#     4  11  22  34  50  76 107 142 181 216 260 315
#     4  10  20  34  54  77 106 141 179 222 266 307
#     4   9  18  32  51  74 100 132 169 212 256 306
#     4  10  19  33  53  74 104 140 177 221 265 312
#     4  10  20  34  53  74  99 128 167 211 257 308
#     4  11  23  34  47  70 103 140 174 209 251 308
#     4  10  20  35  53  74 100 133 170 212 258 310
#     4   8  22  36  58  80 108 140 190 228 264 312
#
# _framework density 17.124452000000002
#
# number of rings (size 3 to 8) (size 9 to 14) (size 15 to 20)
#    0.414    1.517    1.379    3.517    0.000    6.069 
#    0.000    0.000    0.000    0.414    0.000    3.379 
#    0.000    3.310    0.000    0.000    0.000    0.000 
#
# Total GULP energy -719137.280876 kJ/mol
# GULP energy per Si atom -12398.918636 kJ/mol
# Density = 1.708548 g / cm^3
# Si number density = 17.124452 Si / 1000 Ang^3
#
#
#
# Elastic Constant Matrix: (Units=GPa)
#
#
# Indices 1 2 3 4 5 6 
#
# 1 70.1926 52.2141 35.7672 0.0000 0.0000 0.0000
# 2 52.2141 149.1123 59.0341 0.0000 0.0000 0.0000
# 3 35.7672 59.0341 98.4991 0.0000 0.0000 0.0000
# 4 0.0000 0.0000 0.0000 33.7001 0.0000 0.0000
# 5 0.0000 0.0000 0.0000 0.0000 19.9078 0.0000
# 6 0.0000 0.0000 0.0000 0.0000 0.0000 20.0222
#
#
#
# Elastic Compliance Matrix: (Units=1/GPa)
#
#
# Indices 1 2 3 4 5 6 
#
# 1 0.020460 -0.005537 -0.004111 0.000000 0.000000 0.000000
# 2 -0.005537 0.010291 -0.004157 0.000000 0.000000 0.000000
# 3 -0.004111 -0.004157 0.014137 0.000000 0.000000 0.000000
# 4 0.000000 0.000000 0.000000 0.029674 0.000000 0.000000
# 5 0.000000 0.000000 0.000000 0.000000 0.050231 0.000000
# 6 0.000000 0.000000 0.000000 0.000000 0.000000 0.049944
#
#
# Mechanical properties :
#
#
# Convention : Reuss Voigt Hill
#
# Bulk Modulus (GPa) = 57.87854 67.98164 62.93009
# Shear Modulus (GPa) = 24.02614 26.11194 25.06904
#
# Velocity S-wave (km/s) = 3.74977 3.90915 3.83029
# Velocity P-wave (km/s) = 7.25395 7.75629 7.50932
#
# Compressibility (1/GPa) = 0.01727756
#
# Stress axis : x y z
#
# Youngs Moduli (GPa) = 48.87584 97.17198 70.73740
#
# Poissons Ratio (x) = 0.53802 0.29081
# Poissons Ratio (y) = 0.27062 0.29407
# Poissons Ratio (z) = 0.20093 0.40397
#
# Static dielectric constant tensor:
#      x y z
#    x 2.965160 0.000000 0.000000 
#    y 0.000000 3.316580 0.000000 
#    z 0.000000 0.000000 3.244640 
# 
# 
# High freq. dielectric constant tensor:
#      x y z
#    x 1.630880 0.000000 0.000000 
#    y 0.000000 1.661120 0.000000 
#    z 0.000000 0.000000 1.673630 
# 
# From -- ./inp_files/6780.got.cif
#   From: 2010.03.12/outbox.cif.g09.slc.cpg/sg49_4_cif.got.tgz:6780.got - 2010.04.14 03:58:27.
