data_PCOD8203707
_publ_section_title
;
Structure prediction by ZEFSAII (Michael W. Deem and Ramdas Pophale) SiO2 
 PCOD8203707
Probable space group: P C C M
;
_chemical_formula_sum "Si O2"
_cell_formula_units_Z 64
_cell_length_a 11.303512
_cell_length_b 8.536243
_cell_length_c 31.151596
_cell_angle_alpha 90.000000
_cell_angle_beta 90.000000
_cell_angle_gamma 90.000000
_cell_volume 3005.802707
_symmetry_space_group_name_H-M "P C C M"
_symmetry_group_IT_number 49
_symmetry_cell_setting 'orthorhombic'
loop_
_space_group_symop_operation_xyz
x,y,z
-x,-y,z
x,-y,1/2-z
-x,y,1/2-z
-x,-y,-z
x,y,-z
-x,y,1/2+z
x,-y,1/2+z
loop_
_atom_site_type_symbol
_atom_site_label
_atom_site_fract_x
_atom_site_fract_y
_atom_site_fract_z
Si Si1 0.016909 0.823484 0.547398
Si Si2 0.117747 0.600164 0.385405
Si Si3 0.134168 0.682427 0.240736
Si Si4 0.506675 0.816278 0.862629
Si Si5 0.526734 0.681036 0.452827
Si Si6 0.248196 0.168888 0.660723
Si Si7 0.785471 0.691021 0.574536
Si Si8 0.746496 0.804496 0.819567
O O1 0.074786 0.825655 0.500000
O O2 0.894780 0.725697 0.543395
O O3 0.103162 0.735050 0.579441
O O4 0.000000 0.000000 0.564033
O O5 0.214944 0.483186 0.405031
O O6 0.161301 0.688939 0.343046
O O7 0.000000 0.500000 0.374362
O O8 0.147696 0.500000 0.250000
O O9 0.170121 0.722157 0.191959
O O10 0.228988 0.777602 0.269421
O O11 0.000000 0.739003 0.250000
O O12 0.532729 0.762853 0.911657
O O13 0.382775 0.760772 0.841549
O O14 0.613194 0.755817 0.832603
O O15 0.500000 0.000000 0.864300
O O16 0.500000 0.500000 0.448820
O O17 0.481736 0.742671 0.500000
O O18 0.666406 0.714422 0.451796
O O19 0.197190 0.184202 0.612993
O O20 0.235052 0.987665 0.672275
#
# Coordination Sequence:
#
# PCOD8203707 Si02
#       8
#     8   8   8   8   8   8   8   8
#     4  10  21  36  54  79 111 151 199 244 291 353
#     4  10  22  35  56  83 115 156 195 240 300 355
#     4  11  26  42  62  90 126 156 196 247 298 360
#     4   9  21  41  63  88 119 158 203 249 298 356
#     4  10  20  34  56  87 118 154 199 247 295 350
#     4  10  22  41  63  90 118 156 201 245 298 357
#     4  10  20  36  58  80 117 154 195 243 299 354
#     4  11  22  40  64  87 120 158 199 245 301 356
#
# _framework density 21.292148999999998
#
# number of rings (size 3 to 8) (size 9 to 14) (size 15 to 20)
#    0.000    1.875    0.000    3.000    5.250    5.500 
#    0.000    3.125    0.000    0.000    0.000    0.000 
#    0.000    0.000    0.000    0.000    0.000    0.000 
#
# Total GULP energy -793425.786800 kJ/mol
# GULP energy per Si atom -12397.277919 kJ/mol
# Density = 2.124369 g / cm^3
# Si number density = 21.292149 Si / 1000 Ang^3
#
#
#
# Elastic Constant Matrix: (Units=GPa)
#
#
# Indices 1 2 3 4 5 6 
#
# 1 75.7826 17.6529 39.8322 0.0000 0.0000 0.0000
# 2 17.6529 67.4969 14.7421 0.0000 0.0000 0.0000
# 3 39.8322 14.7421 89.1369 0.0000 0.0000 0.0000
# 4 0.0000 0.0000 0.0000 -17.8618 0.0000 0.0000
# 5 0.0000 0.0000 0.0000 0.0000 29.8384 0.0000
# 6 0.0000 0.0000 0.0000 0.0000 0.0000 27.3217
#
#
#
# Elastic Compliance Matrix: (Units=1/GPa)
#
#
# Indices 1 2 3 4 5 6 
#
# 1 0.017825 -0.003032 -0.007464 0.000000 0.000000 0.000000
# 2 -0.003032 0.015886 -0.001273 0.000000 0.000000 0.000000
# 3 -0.007464 -0.001273 0.014765 0.000000 0.000000 0.000000
# 4 0.000000 0.000000 0.000000 -0.055985 0.000000 0.000000
# 5 0.000000 0.000000 0.000000 0.000000 0.033514 0.000000
# 6 0.000000 0.000000 0.000000 0.000000 0.000000 0.036601
#
#
# Mechanical properties :
#
#
# Convention : Reuss Voigt Hill
#
# Bulk Modulus (GPa) = 40.09731 41.87453 40.98592
# Shear Modulus (GPa) = 52.93525 18.53894 35.73710
#
# Velocity S-wave (km/s) = 4.99153 2.95395 4.10129
# Velocity P-wave (km/s) = 7.21757 5.59855 6.45899
#
# Compressibility (1/GPa) = 0.02493933
#
# Stress axis : x y z
#
# Youngs Moduli (GPa) = 56.10099 62.94719 67.72971
#
# Poissons Ratio (x) = 0.19083 0.50553
# Poissons Ratio (y) = 0.17008 0.08620
# Poissons Ratio (z) = 0.41874 0.08011
#
# Static dielectric constant tensor:
#      x y z
#    x 4.051300 0.000000 0.000000 
#    y 0.000000 3.781300 0.000000 
#    z 0.000000 0.000000 3.883530 
# 
# 
# High freq. dielectric constant tensor:
#      x y z
#    x 1.826950 0.000000 0.000000 
#    y 0.000000 1.837790 0.000000 
#    z 0.000000 0.000000 1.840690 
# 
# From -- ./inp_files/26701.got.cif
#   From: 2010.03.12/outbox.cif.g09.slc.cpg/sg49_14_cif.got.tgz:26701.got - 2010.04.14 03:58:27.
