data_PCOD8203019
_publ_section_title
;
Structure prediction by ZEFSAII (Michael W. Deem and Ramdas Pophale) SiO2 
 PCOD8203019
Probable space group: P C C M
;
_chemical_formula_sum "Si O2"
_cell_formula_units_Z 38
_cell_length_a 11.008901
_cell_length_b 18.082596
_cell_length_c 10.131889
_cell_angle_alpha 90.000000
_cell_angle_beta 90.000000
_cell_angle_gamma 90.000000
_cell_volume 2016.950170
_symmetry_space_group_name_H-M "P C C M"
_symmetry_group_IT_number 49
_symmetry_cell_setting 'orthorhombic'
loop_
_space_group_symop_operation_xyz
x,y,z
-x,-y,z
x,-y,1/2-z
-x,y,1/2-z
-x,-y,-z
x,y,-z
-x,y,1/2+z
x,-y,1/2+z
loop_
_atom_site_type_symbol
_atom_site_label
_atom_site_fract_x
_atom_site_fract_y
_atom_site_fract_z
Si Si1 0.658009 0.677064 0.000000
Si Si2 0.630352 0.672570 0.500000
Si Si3 0.732711 0.168033 0.000000
Si Si4 0.643760 0.417620 0.748843
Si Si5 0.970013 0.097923 0.000000
Si Si6 0.755922 0.840814 0.000000
Si Si7 0.000000 0.000000 0.750000
Si Si8 0.643141 0.917586 0.750074
O O1 0.513120 0.691380 0.000000
O O2 0.694495 0.628300 0.874315
O O3 0.737189 0.752206 0.000000
O O4 0.700680 0.747810 0.500000
O O5 0.680384 0.626566 0.622146
O O6 0.678000 0.127485 0.876271
O O7 0.878588 0.166146 0.000000
O O8 0.701220 0.500000 0.750000
O O9 0.500000 0.425061 0.750000
O O10 0.935702 0.053026 0.862061
O O11 0.104607 0.131913 0.000000
O O12 0.689654 0.873193 0.874502
O O13 0.500000 0.924646 0.750000
O O14 0.701822 0.000000 0.750000
#
# Coordination Sequence:
#
# PCOD8203019 Si02
#       8
#     4   4   4   8   4   4   2   8
#     4  10  19  32  52  79 111 146 176 220 280 333
#     4  10  19  32  52  79 111 146 176 220 280 333
#     4  12  24  38  59  82 114 147 192 238 285 337
#     4   9  17  30  50  79 112 143 178 216 265 332
#     4  11  26  40  62  84 105 146 196 242 299 316
#     4  12  24  38  59  82 114 147 192 238 285 337
#     4  10  24  42  60  78 102 138 194 250 284 332
#     4  11  24  39  57  82 112 149 185 230 287 346
#
# _framework density 18.840326999999998
#
# number of rings (size 3 to 8) (size 9 to 14) (size 15 to 20)
#    0.000    1.474    0.000    5.684    8.842    5.895 
#    0.000    0.000    0.000    0.000    0.000    4.421 
#    0.000    0.000    0.000    0.000    0.000    0.000 
#
# Total GULP energy -470792.629943 kJ/mol
# GULP energy per Si atom -12389.279735 kJ/mol
# Density = 1.879745 g / cm^3
# Si number density = 18.840327 Si / 1000 Ang^3
#
#
#
# Elastic Constant Matrix: (Units=GPa)
#
#
# Indices 1 2 3 4 5 6 
#
# 1 64.3205 47.8521 30.3318 0.0000 0.0000 0.0000
# 2 47.8521 204.1201 92.9315 0.0000 0.0000 0.0000
# 3 30.3318 92.9315 196.5448 0.0000 0.0000 0.0000
# 4 0.0000 0.0000 0.0000 21.2446 0.0000 0.0000
# 5 0.0000 0.0000 0.0000 0.0000 12.1651 0.0000
# 6 0.0000 0.0000 0.0000 0.0000 0.0000 9.4258
#
#
#
# Elastic Compliance Matrix: (Units=1/GPa)
#
#
# Indices 1 2 3 4 5 6 
#
# 1 0.019001 -0.003975 -0.001053 0.000000 0.000000 0.000000
# 2 -0.003975 0.007075 -0.002732 0.000000 0.000000 0.000000
# 3 -0.001053 -0.002732 0.006542 0.000000 0.000000 0.000000
# 4 0.000000 0.000000 0.000000 0.047071 0.000000 0.000000
# 5 0.000000 0.000000 0.000000 0.000000 0.082202 0.000000
# 6 0.000000 0.000000 0.000000 0.000000 0.000000 0.106092
#
#
# Mechanical properties :
#
#
# Convention : Reuss Voigt Hill
#
# Bulk Modulus (GPa) = 58.48465 89.69068 74.08767
# Shear Modulus (GPa) = 17.28904 28.15845 22.72375
#
# Velocity S-wave (km/s) = 3.03258 3.87018 3.47670
# Velocity P-wave (km/s) = 6.58572 8.22679 7.45157
#
# Compressibility (1/GPa) = 0.01709850
#
# Stress axis : x y z
#
# Youngs Moduli (GPa) = 52.62900 141.35084 152.85981
#
# Poissons Ratio (x) = 0.56188 0.16093
# Poissons Ratio (y) = 0.20920 0.41755
# Poissons Ratio (z) = 0.05541 0.38611
#
# Static dielectric constant tensor:
#      x y z
#    x 3.218540 0.000000 0.000000 
#    y 0.000000 3.656750 0.000000 
#    z 0.000000 0.000000 3.829910 
# 
# 
# High freq. dielectric constant tensor:
#      x y z
#    x 1.688700 0.000000 0.000000 
#    y 0.000000 1.743260 0.000000 
#    z 0.000000 0.000000 1.760200 
# 
# From -- ./inp_files/2747.got.cif
#   From: 2010.03.12/outbox.cif.g09.slc.cpg/sg49_2_cif.got.tgz:2747.got - 2010.04.14 03:58:27.
