data_PCOD8203529
_publ_section_title
;
Structure prediction by ZEFSAII (Michael W. Deem and Ramdas Pophale) SiO2 
 PCOD8203529
Probable space group: P C C M
;
_chemical_formula_sum "Si O2"
_cell_formula_units_Z 64
_cell_length_a 24.297679
_cell_length_b 9.204802
_cell_length_c 14.896504
_cell_angle_alpha 90.000000
_cell_angle_beta 90.000000
_cell_angle_gamma 90.000000
_cell_volume 3331.682432
_symmetry_space_group_name_H-M "P C C M"
_symmetry_group_IT_number 49
_symmetry_cell_setting 'orthorhombic'
loop_
_space_group_symop_operation_xyz
x,y,z
-x,-y,z
x,-y,1/2-z
-x,y,1/2-z
-x,-y,-z
x,y,-z
-x,y,1/2+z
x,-y,1/2+z
loop_
_atom_site_type_symbol
_atom_site_label
_atom_site_fract_x
_atom_site_fract_y
_atom_site_fract_z
Si Si1 0.632499 0.329790 0.604465
Si Si2 0.434943 0.167508 0.250000
Si Si3 0.255975 0.828907 0.101157
Si Si4 0.063618 0.500000 0.098992
Si Si5 0.822655 0.161412 0.250000
Si Si6 0.936452 0.273199 0.750000
Si Si7 0.367501 0.329790 0.604465
Si Si8 0.255975 0.171093 0.101157
O O1 0.619541 0.302986 0.500000
O O2 0.585890 0.249062 0.661075
O O3 0.633457 0.500000 0.628048
O O4 0.690752 0.260382 0.631820
O O5 0.500000 0.177236 0.250000
O O6 0.414110 0.249062 0.338925
O O7 0.415014 0.000000 0.250000
O O8 0.204473 0.770075 0.160560
O O9 0.309248 0.739618 0.131820
O O10 0.268519 1.000000 0.111582
O O11 0.239404 0.790020 0.000000
O O12 0.077235 0.639288 0.159393
O O13 0.077235 0.360712 0.159393
O O14 0.000000 0.500000 0.079197
O O15 0.093294 0.500000 0.000000
O O16 0.889263 0.152443 0.250000
O O17 0.795527 0.229925 0.339440
O O18 0.800496 0.000000 0.250000
O O19 0.000000 0.215462 0.750000
O O20 0.380459 0.302986 0.500000
O O21 0.239404 0.209980 0.000000
#
# Coordination Sequence:
#
# PCOD8203529 Si02
#       8
#     8   8   8   8   8   8   8   8
#     4  10  21  38  60  86 115 145 181 231 287 334
#     4  11  24  39  57  84 116 153 196 232 264 317
#     4   9  18  34  55  77 105 143 184 222 265 324
#     4   8  15  31  52  69  91 126 165 207 252 301
#     4  10  20  33  50  74 104 138 174 215 263 311
#     4   9  18  32  49  74 102 130 173 215 257 320
#     4  10  21  38  60  86 115 145 181 231 287 334
#     4   9  18  34  55  77 105 143 184 222 265 324
#
# _framework density 19.209513999999999
#
# number of rings (size 3 to 8) (size 9 to 14) (size 15 to 20)
#    0.000    2.500    0.000    2.625    0.000    5.250 
#    4.500    2.500    0.000    0.000    0.000    7.000 
#    0.000    0.000    0.000    0.000    0.000    0.000 
#
# Total GULP energy -792958.582566 kJ/mol
# GULP energy per Si atom -12389.977853 kJ/mol
# Density = 1.916579 g / cm^3
# Si number density = 19.209514 Si / 1000 Ang^3
#
#
#
# Elastic Constant Matrix: (Units=GPa)
#
#
# Indices 1 2 3 4 5 6 
#
# 1 120.5487 43.5326 54.6899 0.0000 0.0000 0.0000
# 2 43.5326 75.2710 34.7506 0.0000 0.0000 0.0000
# 3 54.6899 34.7506 129.0666 0.0000 0.0000 0.0000
# 4 0.0000 0.0000 0.0000 20.8725 0.0000 0.0000
# 5 0.0000 0.0000 0.0000 0.0000 19.0986 0.0000
# 6 0.0000 0.0000 0.0000 0.0000 0.0000 17.6112
#
#
#
# Elastic Compliance Matrix: (Units=1/GPa)
#
#
# Indices 1 2 3 4 5 6 
#
# 1 0.011795 -0.005155 -0.003610 0.000000 0.000000 0.000000
# 2 -0.005155 0.017424 -0.002507 0.000000 0.000000 0.000000
# 3 -0.003610 -0.002507 0.009953 0.000000 0.000000 0.000000
# 4 0.000000 0.000000 0.000000 0.047910 0.000000 0.000000
# 5 0.000000 0.000000 0.000000 0.000000 0.052360 0.000000
# 6 0.000000 0.000000 0.000000 0.000000 0.000000 0.056782
#
#
# Mechanical properties :
#
#
# Convention : Reuss Voigt Hill
#
# Bulk Modulus (GPa) = 60.14043 65.64805 62.89424
# Shear Modulus (GPa) = 22.29067 24.31067 23.30067
#
# Velocity S-wave (km/s) = 3.41016 3.56132 3.48656
# Velocity P-wave (km/s) = 6.84698 7.15260 7.00146
#
# Compressibility (1/GPa) = 0.01662775
#
# Stress axis : x y z
#
# Youngs Moduli (GPa) = 84.78458 57.39201 100.47640
#
# Poissons Ratio (x) = 0.29584 0.36271
# Poissons Ratio (y) = 0.43704 0.25190
# Poissons Ratio (z) = 0.30606 0.14389
#
# Static dielectric constant tensor:
#      x y z
#    x 3.264110 0.000000 0.000000 
#    y 0.000000 3.447290 0.000000 
#    z 0.000000 0.000000 4.087820 
# 
# 
# High freq. dielectric constant tensor:
#      x y z
#    x 1.736160 0.000000 0.000000 
#    y 0.000000 1.730500 0.000000 
#    z 0.000000 0.000000 1.765880 
# 
# From -- ./inp_files/14545.got.cif
#   From: 2010.03.12/outbox.cif.g09.slc.cpg/sg49_8_cif.got.tgz:14545.got - 2010.04.14 03:58:27.
