data_PCOD8203384
_publ_section_title
;
Structure prediction by ZEFSAII (Michael W. Deem and Ramdas Pophale) SiO2 
 PCOD8203384
Probable space group: P C C M
;
_chemical_formula_sum "Si O2"
_cell_formula_units_Z 56
_cell_length_a 16.622964
_cell_length_b 9.876818
_cell_length_c 17.844255
_cell_angle_alpha 90.000000
_cell_angle_beta 90.000000
_cell_angle_gamma 90.000000
_cell_volume 2929.705297
_symmetry_space_group_name_H-M "P C C M"
_symmetry_group_IT_number 49
_symmetry_cell_setting 'orthorhombic'
loop_
_space_group_symop_operation_xyz
x,y,z
-x,-y,z
x,-y,1/2-z
-x,y,1/2-z
-x,-y,-z
x,y,-z
-x,y,1/2+z
x,-y,1/2+z
loop_
_atom_site_type_symbol
_atom_site_label
_atom_site_fract_x
_atom_site_fract_y
_atom_site_fract_z
Si Si1 0.163116 0.756179 0.845950
Si Si2 0.256647 0.523325 0.085454
Si Si3 0.565128 0.396747 0.912213
Si Si4 0.994798 0.348293 0.338330
Si Si5 0.265020 0.009170 0.163386
Si Si6 0.573717 0.092123 0.911007
Si Si7 0.180017 0.282390 0.171872
O O1 0.214640 0.667655 0.903485
O O2 0.068989 0.742844 0.867609
O O3 0.190718 0.910326 0.855519
O O4 0.179380 0.707282 0.761408
O O5 0.349671 0.537489 0.105591
O O6 0.219922 0.418081 0.142756
O O7 0.244621 0.475411 0.000000
O O8 0.500000 0.500000 0.875932
O O9 0.560984 0.244271 0.878188
O O10 0.548562 0.383566 0.000000
O O11 0.000000 0.500000 0.373355
O O12 0.000000 0.361564 0.250000
O O13 0.911165 0.275328 0.360480
O O14 0.343511 0.973822 0.116284
O O15 0.289186 0.000000 0.250000
O O16 0.232361 0.157160 0.141877
O O17 0.500000 0.000000 0.882481
O O18 0.577899 0.096023 0.000000
#
# Coordination Sequence:
#
# PCOD8203384 Si02
#       7
#     8   8   8   8   8   8   8
#     4  10  19  37  58  77 111 149 183 224 271 329
#     4  11  21  34  57  84 109 143 182 228 275 321
#     4   9  19  35  55  81 107 135 179 226 266 316
#     4   9  16  30  55  81 105 143 188 226 266 318
#     4  10  22  37  56  83 114 147 180 226 281 327
#     4  10  21  37  59  81 107 146 184 222 269 327
#     4  10  21  35  55  83 111 145 185 227 271 323
#
# _framework density 19.114550000000001
#
# number of rings (size 3 to 8) (size 9 to 14) (size 15 to 20)
#    0.000    2.143    2.857    0.429    2.000    1.429 
#    0.000    4.286    0.000    1.714    0.000    3.000 
#    0.000    0.000    0.000    0.000    0.000    0.000 
#
# Total GULP energy -694332.584525 kJ/mol
# GULP energy per Si atom -12398.796152 kJ/mol
# Density = 1.907104 g / cm^3
# Si number density = 19.114550 Si / 1000 Ang^3
#
#
#
# Elastic Constant Matrix: (Units=GPa)
#
#
# Indices 1 2 3 4 5 6 
#
# 1 140.1297 42.7283 24.3106 0.0000 0.0000 0.0000
# 2 42.7283 83.0557 14.6847 0.0000 0.0000 0.0000
# 3 24.3106 14.6847 17.4252 0.0000 0.0000 0.0000
# 4 0.0000 0.0000 0.0000 16.6695 0.0000 0.0000
# 5 0.0000 0.0000 0.0000 0.0000 16.8226 0.0000
# 6 0.0000 0.0000 0.0000 0.0000 0.0000 32.2840
#
#
#
# Elastic Compliance Matrix: (Units=1/GPa)
#
#
# Indices 1 2 3 4 5 6 
#
# 1 0.010079 -0.003172 -0.011389 0.000000 0.000000 0.000000
# 2 -0.003172 0.015146 -0.008339 0.000000 0.000000 0.000000
# 3 -0.011389 -0.008339 0.080305 0.000000 0.000000 0.000000
# 4 0.000000 0.000000 0.000000 0.059990 0.000000 0.000000
# 5 0.000000 0.000000 0.000000 0.000000 0.059444 0.000000
# 6 0.000000 0.000000 0.000000 0.000000 0.000000 0.030975
#
#
# Mechanical properties :
#
#
# Convention : Reuss Voigt Hill
#
# Bulk Modulus (GPa) = 16.74177 44.89531 30.81854
# Shear Modulus (GPa) = 15.54486 23.74769 19.64627
#
# Velocity S-wave (km/s) = 2.85484 3.52858 3.20944
# Velocity P-wave (km/s) = 4.43221 6.33558 5.46736
#
# Compressibility (1/GPa) = 0.05973085
#
# Stress axis : x y z
#
# Youngs Moduli (GPa) = 99.21427 66.02329 12.45246
#
# Poissons Ratio (x) = 0.20940 0.14182
# Poissons Ratio (y) = 0.31467 0.10384
# Poissons Ratio (z) = 1.12996 0.55058
#
# Static dielectric constant tensor:
#      x y z
#    x 3.791380 0.000000 0.000000 
#    y 0.000000 3.674760 0.000000 
#    z 0.000000 0.000000 3.129250 
# 
# 
# High freq. dielectric constant tensor:
#      x y z
#    x 1.757990 0.000000 0.000000 
#    y 0.000000 1.748420 0.000000 
#    z 0.000000 0.000000 1.702250 
# 
# From -- ./inp_files/20858.got.cif
#   From: 2010.03.12/outbox.cif.g09.slc.cpg/sg49_11_cif.got.tgz:20858.got - 2010.04.14 03:58:27.
