data_PCOD8203560
_publ_section_title
;
Structure prediction by ZEFSAII (Michael W. Deem and Ramdas Pophale) SiO2 
 PCOD8203560
Probable space group: P C C M
;
_chemical_formula_sum "Si O2"
_cell_formula_units_Z 40
_cell_length_a 16.396636
_cell_length_b 5.149180
_cell_length_c 24.918706
_cell_angle_alpha 90.000000
_cell_angle_beta 90.000000
_cell_angle_gamma 90.000000
_cell_volume 2103.867164
_symmetry_space_group_name_H-M "P C C M"
_symmetry_group_IT_number 49
_symmetry_cell_setting 'orthorhombic'
loop_
_space_group_symop_operation_xyz
x,y,z
-x,-y,z
x,-y,1/2-z
-x,y,1/2-z
-x,-y,-z
x,y,-z
-x,y,1/2+z
x,-y,1/2+z
loop_
_atom_site_type_symbol
_atom_site_label
_atom_site_fract_x
_atom_site_fract_y
_atom_site_fract_z
Si Si1 0.690117 0.990244 0.186336
Si Si2 0.852214 0.905627 0.619311
Si Si3 0.090054 0.248551 0.726387
Si Si4 0.590340 0.487585 0.813186
Si Si5 0.093814 0.427320 0.061344
O O1 0.648902 0.721316 0.167857
O O2 0.709920 0.000000 0.250000
O O3 0.768814 0.038477 0.149899
O O4 0.628133 0.215436 0.169460
O O5 0.914177 0.773380 0.662441
O O6 0.848450 0.676614 0.574914
O O7 0.886246 0.174501 0.596583
O O8 0.138012 0.500000 0.750000
O O9 0.000000 0.256667 0.750000
O O10 0.137949 0.000000 0.750000
O O11 0.500000 0.500000 0.839459
O O12 0.580873 0.500000 0.750000
O O13 0.000000 0.500000 0.070308
O O14 0.111077 0.351565 0.000000
#
# Coordination Sequence:
#
# PCOD8203560 Si02
#       5
#     8   8   8   8   8
#     4  10  20  33  51  84 121 149 184 224 272 330
#     4  12  23  38  62  81 114 149 184 245 298 332
#     4  10  22  34  50  78 109 145 187 216 259 347
#     4   9  17  31  52  76 114 161 192 214 253 320
#     4  11  26  44  61  80 103 142 203 259 299 336
#
# _framework density 19.012606000000002
#
# number of rings (size 3 to 8) (size 9 to 14) (size 15 to 20)
#    0.000    1.600    0.000    4.800    8.400    6.400 
#    0.000    0.000    0.000    0.000    0.000    0.000 
#    0.000   56.000    0.000    0.000    0.000    0.000 
#
# Total GULP energy -495706.692768 kJ/mol
# GULP energy per Si atom -12392.667319 kJ/mol
# Density = 1.896933 g / cm^3
# Si number density = 19.012606 Si / 1000 Ang^3
#
#
#
# Elastic Constant Matrix: (Units=GPa)
#
#
# Indices 1 2 3 4 5 6 
#
# 1 101.7177 34.7870 47.2204 0.0000 0.0000 0.0000
# 2 34.7870 165.5323 43.6758 0.0000 0.0000 0.0000
# 3 47.2204 43.6758 82.2651 0.0000 0.0000 0.0000
# 4 0.0000 0.0000 0.0000 32.0950 0.0000 0.0000
# 5 0.0000 0.0000 0.0000 0.0000 11.1957 0.0000
# 6 0.0000 0.0000 0.0000 0.0000 0.0000 -2.0585
#
#
#
# Elastic Compliance Matrix: (Units=1/GPa)
#
#
# Indices 1 2 3 4 5 6 
#
# 1 0.013523 -0.000923 -0.007272 0.000000 0.000000 0.000000
# 2 -0.000923 0.007088 -0.003233 0.000000 0.000000 0.000000
# 3 -0.007272 -0.003233 0.018047 0.000000 0.000000 0.000000
# 4 0.000000 0.000000 0.000000 0.031157 0.000000 0.000000
# 5 0.000000 0.000000 0.000000 0.000000 0.089320 0.000000
# 6 0.000000 0.000000 0.000000 0.000000 0.000000 -0.485786
#
#
# Mechanical properties :
#
#
# Convention : Reuss Voigt Hill
#
# Bulk Modulus (GPa) = 63.28869 66.76459 65.02664
# Shear Modulus (GPa) = -16.74889 23.16858 3.20984
#
# Velocity S-wave (km/s) = -2.97128 3.49462 1.30074
# Velocity P-wave (km/s) = 4.64636 7.17463 6.04417
#
# Compressibility (1/GPa) = 0.01580061
#
# Stress axis : x y z
#
# Youngs Moduli (GPa) = 73.94981 141.07867 55.41208
#
# Poissons Ratio (x) = 0.13023 0.40295
# Poissons Ratio (y) = 0.06826 0.17917
# Poissons Ratio (z) = 0.53776 0.45616
#
# Static dielectric constant tensor:
#      x y z
#    x 3.356770 0.000000 0.000000 
#    y 0.000000 3.473420 0.000000 
#    z 0.000000 0.000000 3.498040 
# 
# 
# High freq. dielectric constant tensor:
#      x y z
#    x 1.725540 0.000000 0.000000 
#    y 0.000000 1.773250 0.000000 
#    z 0.000000 0.000000 1.699300 
# 
# From -- ./inp_files/23108.got.cif
#   From: 2010.03.12/outbox.cif.g09.slc.cpg/sg49_12_cif.got.tgz:23108.got - 2010.04.14 03:58:27.
