data_PCOD8203893
_publ_section_title
;
Structure prediction by ZEFSAII (Michael W. Deem and Ramdas Pophale) SiO2 
 PCOD8203893
Probable space group: P C C M
;
_chemical_formula_sum "Si O2"
_cell_formula_units_Z 48
_cell_length_a 30.279672
_cell_length_b 9.462883
_cell_length_c 8.624857
_cell_angle_alpha 90.000000
_cell_angle_beta 90.000000
_cell_angle_gamma 90.000000
_cell_volume 2471.306094
_symmetry_space_group_name_H-M "P C C M"
_symmetry_group_IT_number 49
_symmetry_cell_setting 'orthorhombic'
loop_
_space_group_symop_operation_xyz
x,y,z
-x,-y,z
x,-y,1/2-z
-x,y,1/2-z
-x,-y,-z
x,y,-z
-x,y,1/2+z
x,-y,1/2+z
loop_
_atom_site_type_symbol
_atom_site_label
_atom_site_fract_x
_atom_site_fract_y
_atom_site_fract_z
Si Si1 0.451535 0.648234 0.684340
Si Si2 0.118543 0.849512 0.183258
Si Si3 0.296102 0.654742 0.817353
Si Si4 0.781168 0.149437 0.817652
Si Si5 0.378544 0.844575 0.184005
Si Si6 0.044776 0.344735 0.183210
O O1 0.432456 0.500000 0.750000
O O2 0.500000 0.675697 0.750000
O O3 0.452897 0.640434 0.500000
O O4 0.421924 0.777943 0.739982
O O5 0.168827 0.813382 0.231463
O O6 0.088105 0.735739 0.264112
O O7 0.104461 0.000000 0.250000
O O8 0.111673 0.847487 0.000000
O O9 0.301143 0.500000 0.750000
O O10 0.251121 0.727885 0.754613
O O11 0.337048 0.750216 0.763905
O O12 0.294620 0.640917 0.000000
O O13 0.765851 0.000000 0.750000
O O14 0.776888 0.135212 0.000000
O O15 0.371218 0.000000 0.250000
O O16 0.384041 0.850330 0.000000
O O17 0.048921 0.500000 0.250000
O O18 0.000000 0.272504 0.250000
O O19 0.041805 0.349044 0.000000
#
# Coordination Sequence:
#
# PCOD8203893 Si02
#       6
#     8   8   8   8   8   8
#     4  11  22  39  62  88 118 152 191 234 283 336
#     4  10  20  36  57  83 114 147 186 230 278 331
#     4  10  22  38  57  83 114 148 188 232 278 331
#     4   9  19  36  57  82 112 146 184 227 275 329
#     4  11  23  39  59  85 116 151 192 236 285 337
#     4  11  22  38  58  81 110 145 185 229 280 333
#
# _framework density 19.422929
#
# number of rings (size 3 to 8) (size 9 to 14) (size 15 to 20)
#    0.000    1.667    0.000    6.000    0.000    5.333 
#    0.000    5.000    0.000    0.000    0.000    0.000 
#    0.000    0.000    0.000    0.000    0.000    0.000 
#
# Total GULP energy -595345.586300 kJ/mol
# GULP energy per Si atom -12403.033048 kJ/mol
# Density = 1.937872 g / cm^3
# Si number density = 19.422929 Si / 1000 Ang^3
#
#
#
# Elastic Constant Matrix: (Units=GPa)
#
#
# Indices 1 2 3 4 5 6 
#
# 1 121.3682 86.4467 50.3608 0.0000 0.0000 0.0000
# 2 86.4467 149.0939 52.6292 0.0000 0.0000 0.0000
# 3 50.3608 52.6292 108.9302 0.0000 0.0000 0.0000
# 4 0.0000 0.0000 0.0000 38.2180 0.0000 0.0000
# 5 0.0000 0.0000 0.0000 0.0000 27.1969 0.0000
# 6 0.0000 0.0000 0.0000 0.0000 0.0000 40.5246
#
#
#
# Elastic Compliance Matrix: (Units=1/GPa)
#
#
# Indices 1 2 3 4 5 6 
#
# 1 0.014951 -0.007509 -0.003284 0.000000 0.000000 0.000000
# 2 -0.007509 0.011858 -0.002257 0.000000 0.000000 0.000000
# 3 -0.003284 -0.002257 0.011789 0.000000 0.000000 0.000000
# 4 0.000000 0.000000 0.000000 0.026166 0.000000 0.000000
# 5 0.000000 0.000000 0.000000 0.000000 0.036769 0.000000
# 6 0.000000 0.000000 0.000000 0.000000 0.000000 0.024676
#
#
# Mechanical properties :
#
#
# Convention : Reuss Voigt Hill
#
# Bulk Modulus (GPa) = 80.02304 84.25176 82.13740
# Shear Modulus (GPa) = 31.95380 33.85161 32.90271
#
# Velocity S-wave (km/s) = 4.06046 4.17930 4.12030
# Velocity P-wave (km/s) = 7.95442 8.17070 8.06329
#
# Compressibility (1/GPa) = 0.01249640
#
# Stress axis : x y z
#
# Youngs Moduli (GPa) = 66.88621 84.33039 84.82432
#
# Poissons Ratio (x) = 0.63328 0.27855
# Poissons Ratio (y) = 0.50228 0.19148
# Poissons Ratio (z) = 0.21965 0.19037
#
# Static dielectric constant tensor:
#      x y z
#    x 3.917220 0.000000 0.000000 
#    y 0.000000 3.331480 0.000000 
#    z 0.000000 0.000000 3.517580 
# 
# 
# High freq. dielectric constant tensor:
#      x y z
#    x 1.770660 0.000000 0.000000 
#    y 0.000000 1.757160 0.000000 
#    z 0.000000 0.000000 1.765550 
# 
# From -- ./inp_files/2052.got.cif
#   From: 2010.03.12/outbox.cif.g09.slc.cpg/sg49_2_cif.got.tgz:2052.got - 2010.04.14 03:58:27.
