data_PCOD8203699
_publ_section_title
;
Structure prediction by ZEFSAII (Michael W. Deem and Ramdas Pophale) SiO2 
 PCOD8203699
Probable space group: P C C M
;
_chemical_formula_sum "Si O2"
_cell_formula_units_Z 58
_cell_length_a 11.423523
_cell_length_b 18.866796
_cell_length_c 14.030517
_cell_angle_alpha 90.000000
_cell_angle_beta 90.000000
_cell_angle_gamma 90.000000
_cell_volume 3023.931078
_symmetry_space_group_name_H-M "P C C M"
_symmetry_group_IT_number 49
_symmetry_cell_setting 'orthorhombic'
loop_
_space_group_symop_operation_xyz
x,y,z
-x,-y,z
x,-y,1/2-z
-x,y,1/2-z
-x,-y,-z
x,y,-z
-x,y,1/2+z
x,-y,1/2+z
loop_
_atom_site_type_symbol
_atom_site_label
_atom_site_fract_x
_atom_site_fract_y
_atom_site_fract_z
Si Si1 0.000000 0.000000 0.250000
Si Si2 0.836163 0.919358 0.607146
Si Si3 0.806886 0.580574 0.255076
Si Si4 0.995667 0.373969 0.608184
Si Si5 0.670446 0.713483 0.730292
Si Si6 0.469411 0.778407 0.387163
Si Si7 0.566838 0.930459 0.387755
Si Si8 0.872184 0.759742 0.603859
O O1 0.084858 0.041850 0.318129
O O2 0.841233 0.952432 0.500000
O O3 0.701751 0.922009 0.645438
O O4 0.896334 0.842629 0.603896
O O5 0.763854 0.500000 0.250000
O O6 0.888412 0.589605 0.348035
O O7 0.690018 0.628988 0.258164
O O8 0.879583 0.602419 0.161769
O O9 0.984038 0.399726 0.500000
O O10 0.010793 0.288069 0.616161
O O11 0.571050 0.726929 0.651446
O O12 0.646060 0.752554 0.831268
O O13 0.790220 0.745312 0.692774
O O14 0.453163 0.769126 0.500000
O O15 0.496516 0.859718 0.357702
O O16 0.566308 0.936734 0.500000
O O17 0.500000 0.000000 0.344290
O O18 0.815006 0.739974 0.500000
#
# Coordination Sequence:
#
# PCOD8203699 Si02
#       8
#     2   8   8   8   8   8   8   8
#     4  12  26  36  50  82 116 160 196 238 276 354
#     4  10  21  39  58  79 114 155 194 238 292 350
#     4  10  21  35  52  80 117 148 179 230 282 332
#     4   9  18  33  56  83 109 143 185 228 276 331
#     4  10  20  34  56  82 104 141 186 226 272 341
#     4  10  20  37  57  80 108 139 182 235 285 334
#     4   9  18  36  61  85 110 142 184 240 299 346
#     4   9  17  34  58  80 105 144 186 226 274 336
#
# _framework density 19.180330000000001
#
# number of rings (size 3 to 8) (size 9 to 14) (size 15 to 20)
#    0.000    2.345    1.379    1.448    0.000    5.517 
#    0.000    1.379    0.000    6.621    0.000    0.000 
#    0.000    0.000    0.000    0.000    0.000    0.000 
#
# Total GULP energy -718707.471419 kJ/mol
# GULP energy per Si atom -12391.508128 kJ/mol
# Density = 1.913668 g / cm^3
# Si number density = 19.180330 Si / 1000 Ang^3
#
#
#
# Elastic Constant Matrix: (Units=GPa)
#
#
# Indices 1 2 3 4 5 6 
#
# 1 65.3640 61.3562 42.8720 0.0000 0.0000 0.0000
# 2 61.3562 155.4579 53.6949 0.0000 0.0000 0.0000
# 3 42.8720 53.6949 133.6878 0.0000 0.0000 0.0000
# 4 0.0000 0.0000 0.0000 19.3291 0.0000 0.0000
# 5 0.0000 0.0000 0.0000 0.0000 26.5521 0.0000
# 6 0.0000 0.0000 0.0000 0.0000 0.0000 25.4967
#
#
#
# Elastic Compliance Matrix: (Units=1/GPa)
#
#
# Indices 1 2 3 4 5 6 
#
# 1 0.026979 -0.008894 -0.005080 0.000000 0.000000 0.000000
# 2 -0.008894 0.010400 -0.001325 0.000000 0.000000 0.000000
# 3 -0.005080 -0.001325 0.009641 0.000000 0.000000 0.000000
# 4 0.000000 0.000000 0.000000 0.051735 0.000000 0.000000
# 5 0.000000 0.000000 0.000000 0.000000 0.037662 0.000000
# 6 0.000000 0.000000 0.000000 0.000000 0.000000 0.039221
#
#
# Mechanical properties :
#
#
# Convention : Reuss Voigt Hill
#
# Bulk Modulus (GPa) = 60.88751 74.48398 67.68574
# Shear Modulus (GPa) = 23.61717 27.38137 25.49927
#
# Velocity S-wave (km/s) = 3.51283 3.78243 3.65012
# Velocity P-wave (km/s) = 6.94744 7.61535 7.28905
#
# Compressibility (1/GPa) = 0.01642373
#
# Stress axis : x y z
#
# Youngs Moduli (GPa) = 37.06591 96.14976 103.71926
#
# Poissons Ratio (x) = 0.85511 0.52687
# Poissons Ratio (y) = 0.32965 0.13745
# Poissons Ratio (z) = 0.18829 0.12742
#
# Static dielectric constant tensor:
#      x y z
#    x 3.495090 0.000000 0.000000 
#    y 0.000000 3.760580 0.000000 
#    z 0.000000 0.000000 4.108630 
# 
# 
# High freq. dielectric constant tensor:
#      x y z
#    x 1.716650 0.000000 0.000000 
#    y 0.000000 1.744020 0.000000 
#    z 0.000000 0.000000 1.757650 
# 
# From -- ./inp_files/13007.got.cif
#   From: 2010.03.12/outbox.cif.g09.slc.cpg/sg49_7_cif.got.tgz:13007.got - 2010.04.14 03:58:27.
