data_PCOD8203152
_publ_section_title
;
Structure prediction by ZEFSAII (Michael W. Deem and Ramdas Pophale) SiO2 
 PCOD8203152
Probable space group: P C C M
;
_chemical_formula_sum "Si O2"
_cell_formula_units_Z 56
_cell_length_a 14.502102
_cell_length_b 22.812283
_cell_length_c 8.922460
_cell_angle_alpha 90.000000
_cell_angle_beta 90.000000
_cell_angle_gamma 90.000000
_cell_volume 2951.782242
_symmetry_space_group_name_H-M "P C C M"
_symmetry_group_IT_number 49
_symmetry_cell_setting 'orthorhombic'
loop_
_space_group_symop_operation_xyz
x,y,z
-x,-y,z
x,-y,1/2-z
-x,y,1/2-z
-x,-y,-z
x,y,-z
-x,y,1/2+z
x,-y,1/2+z
loop_
_atom_site_type_symbol
_atom_site_label
_atom_site_fract_x
_atom_site_fract_y
_atom_site_fract_z
Si Si1 0.903942 0.060479 0.176272
Si Si2 0.711644 0.439143 0.822278
Si Si3 0.853933 0.282402 0.333523
Si Si4 0.647871 0.672461 0.832079
Si Si5 0.210715 0.827077 0.825971
Si Si6 0.910916 0.605962 0.324527
Si Si7 0.589883 0.786067 0.676624
O O1 0.824445 0.107785 0.209506
O O2 0.000000 0.080999 0.250000
O O3 0.869922 0.000000 0.250000
O O4 0.919605 0.051625 0.000000
O O5 0.680207 0.500000 0.750000
O O6 0.644927 0.389405 0.754733
O O7 0.817947 0.427338 0.775861
O O8 0.699560 0.440586 0.000000
O O9 0.897412 0.279621 0.500000
O O10 0.750971 0.305211 0.341793
O O11 0.855111 0.217774 0.262234
O O12 0.911287 0.326790 0.231124
O O13 0.590478 0.719640 0.738054
O O14 0.606894 0.665313 0.000000
O O15 0.317814 0.821476 0.775809
O O16 0.201853 0.810997 0.000000
O O17 0.923817 0.605255 0.500000
O O18 0.000000 0.574338 0.250000
O O19 0.500000 0.817416 0.750000
O O20 0.577941 0.784646 0.500000
#
# Coordination Sequence:
#
# PCOD8203152 Si02
#       7
#     8   8   8   8   8   8   8
#     4  10  20  35  54  77 105 141 182 223 263 304
#     4  10  20  33  49  68  90 122 163 208 255 306
#     4   9  17  29  47  69  93 122 159 201 248 301
#     4   9  17  31  50  72  97 126 160 199 244 298
#     4   9  19  34  52  75 107 142 175 213 260 310
#     4  10  20  32  45  62  89 123 160 204 257 311
#     4  10  19  33  54  81 110 139 171 210 257 311
#
# _framework density 18.971589000000002
#
# number of rings (size 3 to 8) (size 9 to 14) (size 15 to 20)
#    0.000    2.429    0.000    3.000    0.000    7.714 
#    0.000    2.857    0.000    0.857    0.000    6.000 
#    0.000    0.000    0.000    0.000    0.000    0.000 
#
# Total GULP energy -694308.567314 kJ/mol
# GULP energy per Si atom -12398.367273 kJ/mol
# Density = 1.892841 g / cm^3
# Si number density = 18.971589 Si / 1000 Ang^3
#
#
#
# Elastic Constant Matrix: (Units=GPa)
#
#
# Indices 1 2 3 4 5 6 
#
# 1 62.6060 34.4633 25.8463 0.0000 0.0000 0.0000
# 2 34.4633 109.7373 41.3764 0.0000 0.0000 0.0000
# 3 25.8463 41.3764 93.5100 0.0000 0.0000 0.0000
# 4 0.0000 0.0000 0.0000 27.5445 0.0000 0.0000
# 5 0.0000 0.0000 0.0000 0.0000 27.8114 0.0000
# 6 0.0000 0.0000 0.0000 0.0000 0.0000 17.7617
#
#
#
# Elastic Compliance Matrix: (Units=1/GPa)
#
#
# Indices 1 2 3 4 5 6 
#
# 1 0.020136 -0.005071 -0.003322 0.000000 0.000000 0.000000
# 2 -0.005071 0.012215 -0.004003 0.000000 0.000000 0.000000
# 3 -0.003322 -0.004003 0.013383 0.000000 0.000000 0.000000
# 4 0.000000 0.000000 0.000000 0.036305 0.000000 0.000000
# 5 0.000000 0.000000 0.000000 0.000000 0.035956 0.000000
# 6 0.000000 0.000000 0.000000 0.000000 0.000000 0.056301
#
#
# Mechanical properties :
#
#
# Convention : Reuss Voigt Hill
#
# Bulk Modulus (GPa) = 47.75092 52.13615 49.94353
# Shear Modulus (GPa) = 24.26372 25.56800 24.91586
#
# Velocity S-wave (km/s) = 3.58012 3.67509 3.62791
# Velocity P-wave (km/s) = 6.50492 6.74901 6.62809
#
# Compressibility (1/GPa) = 0.02094201
#
# Stress axis : x y z
#
# Youngs Moduli (GPa) = 49.66260 81.86871 74.71932
#
# Poissons Ratio (x) = 0.41518 0.24819
# Poissons Ratio (y) = 0.25185 0.29911
# Poissons Ratio (z) = 0.16496 0.32772
#
# Static dielectric constant tensor:
#      x y z
#    x 3.473610 0.000000 0.000000 
#    y 0.000000 3.341650 0.000000 
#    z 0.000000 0.000000 3.641870 
# 
# 
# High freq. dielectric constant tensor:
#      x y z
#    x 1.723920 0.000000 0.000000 
#    y 0.000000 1.714270 0.000000 
#    z 0.000000 0.000000 1.751440 
# 
# From -- ./inp_files/4001.got.cif
#   From: 2010.03.12/outbox.cif.g09.slc.cpg/sg49_3_cif.got.tgz:4001.got - 2010.04.14 03:58:27.
