data_PCOD8203306
_publ_section_title
;
Structure prediction by ZEFSAII (Michael W. Deem and Ramdas Pophale) SiO2 
 PCOD8203306
Probable space group: P C C M
;
_chemical_formula_sum "Si O2"
_cell_formula_units_Z 64
_cell_length_a 20.498227
_cell_length_b 18.475860
_cell_length_c 8.588873
_cell_angle_alpha 90.000000
_cell_angle_beta 90.000000
_cell_angle_gamma 90.000000
_cell_volume 3252.798358
_symmetry_space_group_name_H-M "P C C M"
_symmetry_group_IT_number 49
_symmetry_cell_setting 'orthorhombic'
loop_
_space_group_symop_operation_xyz
x,y,z
-x,-y,z
x,-y,1/2-z
-x,y,1/2-z
-x,-y,-z
x,y,-z
-x,y,1/2+z
x,-y,1/2+z
loop_
_atom_site_type_symbol
_atom_site_label
_atom_site_fract_x
_atom_site_fract_y
_atom_site_fract_z
Si Si1 0.430636 0.078704 0.814929
Si Si2 0.570206 0.422808 0.184386
Si Si3 0.068761 0.159938 0.684252
Si Si4 0.068387 0.324200 0.316559
Si Si5 0.309998 0.827076 0.315555
Si Si6 0.810757 0.579833 0.685192
Si Si7 0.687351 0.663104 0.815037
Si Si8 0.809653 0.078575 0.315474
O O1 0.500000 0.105613 0.750000
O O2 0.376354 0.135379 0.755051
O O3 0.412291 0.000000 0.750000
O O4 0.433900 0.074288 0.000000
O O5 0.593252 0.500000 0.250000
O O6 0.500000 0.400673 0.250000
O O7 0.620394 0.362710 0.239552
O O8 0.567030 0.427318 0.000000
O O9 0.069251 0.153805 0.500000
O O10 0.081855 0.242278 0.740743
O O11 0.121979 0.107281 0.754755
O O12 0.000000 0.132653 0.750000
O O13 0.063330 0.327237 0.500000
O O14 0.127141 0.374141 0.255960
O O15 0.000000 0.353656 0.250000
O O16 0.309955 0.828788 0.500000
O O17 0.303918 0.745106 0.255536
O O18 0.247573 0.869927 0.250549
O O19 0.819653 0.500000 0.750000
O O20 0.805158 0.578601 0.500000
O O21 0.746178 0.614565 0.755019
O O22 0.683008 0.657442 0.000000
O O23 0.810631 0.076039 0.500000
O O24 0.795286 0.000000 0.250000
#
# Coordination Sequence:
#
# PCOD8203306 Si02
#       8
#     8   8   8   8   8   8   8   8
#     4  10  19  35  56  82 112 146 184 225 270 324
#     4  11  22  39  61  87 116 150 188 231 279 334
#     4  10  20  37  59  85 113 146 183 227 276 331
#     4   9  20  37  59  84 114 147 186 230 279 334
#     4   9  21  38  58  82 112 146 186 230 278 331
#     4  11  23  39  57  83 114 149 189 233 279 332
#     4  11  22  39  60  84 113 149 188 233 282 334
#     4  11  22  38  58  83 112 147 186 231 280 332
#
# _framework density 19.675367000000001
#
# number of rings (size 3 to 8) (size 9 to 14) (size 15 to 20)
#    0.000    1.750    0.000    5.250    0.000    2.500 
#    0.000   10.000    0.000    0.000    0.000    0.000 
#    0.000    0.000    0.000    0.000    0.000    0.000 
#
# Total GULP energy -793856.760774 kJ/mol
# GULP energy per Si atom -12404.011887 kJ/mol
# Density = 1.963059 g / cm^3
# Si number density = 19.675367 Si / 1000 Ang^3
#
#
#
# Elastic Constant Matrix: (Units=GPa)
#
#
# Indices 1 2 3 4 5 6 
#
# 1 129.4670 66.9062 37.9453 0.0000 0.0000 0.0000
# 2 66.9062 118.0332 36.0598 0.0000 0.0000 0.0000
# 3 37.9453 36.0598 91.4185 0.0000 0.0000 0.0000
# 4 0.0000 0.0000 0.0000 40.5482 0.0000 0.0000
# 5 0.0000 0.0000 0.0000 0.0000 30.2007 0.0000
# 6 0.0000 0.0000 0.0000 0.0000 0.0000 44.7117
#
#
#
# Elastic Compliance Matrix: (Units=1/GPa)
#
#
# Indices 1 2 3 4 5 6 
#
# 1 0.011399 -0.005703 -0.002482 0.000000 0.000000 0.000000
# 2 -0.005703 0.012486 -0.002558 0.000000 0.000000 0.000000
# 3 -0.002482 -0.002558 0.012978 0.000000 0.000000 0.000000
# 4 0.000000 0.000000 0.000000 0.024662 0.000000 0.000000
# 5 0.000000 0.000000 0.000000 0.000000 0.033112 0.000000
# 6 0.000000 0.000000 0.000000 0.000000 0.000000 0.022366
#
#
# Mechanical properties :
#
#
# Convention : Reuss Voigt Hill
#
# Bulk Modulus (GPa) = 65.03122 68.97126 67.00124
# Shear Modulus (GPa) = 34.81572 36.29262 35.55417
#
# Velocity S-wave (km/s) = 4.21112 4.29951 4.25554
# Velocity P-wave (km/s) = 7.53449 7.73165 7.63371
#
# Compressibility (1/GPa) = 0.01537723
#
# Stress axis : x y z
#
# Youngs Moduli (GPa) = 87.73056 80.08714 77.05464
#
# Poissons Ratio (x) = 0.45674 0.19123
# Poissons Ratio (y) = 0.50033 0.19711
# Poissons Ratio (z) = 0.21772 0.20487
#
# Static dielectric constant tensor:
#      x y z
#    x 3.804350 0.000000 0.000000 
#    y 0.000000 3.751740 0.000000 
#    z 0.000000 0.000000 3.563770 
# 
# 
# High freq. dielectric constant tensor:
#      x y z
#    x 1.783410 0.000000 0.000000 
#    y 0.000000 1.770290 0.000000 
#    z 0.000000 0.000000 1.767170 
# 
# From -- ./inp_files/5977.got.cif
#   From: 2010.03.12/outbox.cif.g09.slc.cpg/sg49_3_cif.got.tgz:5977.got - 2010.04.14 03:58:27.
