data_PCOD8203343
_publ_section_title
;
Structure prediction by ZEFSAII (Michael W. Deem and Ramdas Pophale) SiO2 
 PCOD8203343
Probable space group: P C C M
;
_chemical_formula_sum "Si O2"
_cell_formula_units_Z 64
_cell_length_a 25.370864
_cell_length_b 14.401564
_cell_length_c 8.981287
_cell_angle_alpha 90.000000
_cell_angle_beta 90.000000
_cell_angle_gamma 90.000000
_cell_volume 3281.583736
_symmetry_space_group_name_H-M "P C C M"
_symmetry_group_IT_number 49
_symmetry_cell_setting 'orthorhombic'
loop_
_space_group_symop_operation_xyz
x,y,z
-x,-y,z
x,-y,1/2-z
-x,y,1/2-z
-x,-y,-z
x,y,-z
-x,y,1/2+z
x,-y,1/2+z
loop_
_atom_site_type_symbol
_atom_site_label
_atom_site_fract_x
_atom_site_fract_y
_atom_site_fract_z
Si Si1 0.345458 0.903658 0.325992
Si Si2 0.555793 0.208821 0.673603
Si Si3 0.844516 0.099534 0.176165
Si Si4 0.946246 0.214654 0.174945
Si Si5 0.245460 0.219916 0.824467
Si Si6 0.556401 0.585978 0.173169
Si Si7 0.777210 0.405605 0.825014
Si Si8 0.099615 0.592739 0.827060
O O1 0.349576 0.921172 0.500000
O O2 0.400823 0.863044 0.264760
O O3 0.299196 0.832779 0.287853
O O4 0.331942 0.000000 0.250000
O O5 0.500000 0.190239 0.750000
O O6 0.545739 0.194722 0.500000
O O7 0.580473 0.311900 0.702147
O O8 0.902036 0.139146 0.215541
O O9 0.802170 0.169433 0.242340
O O10 0.837364 0.000000 0.250000
O O11 0.835616 0.091822 0.000000
O O12 0.930065 0.316515 0.236405
O O13 0.000000 0.180979 0.250000
O O14 0.954538 0.219967 0.000000
O O15 0.252756 0.322049 0.756367
O O16 0.233863 0.225209 0.000000
O O17 0.588826 0.500000 0.250000
O O18 0.500000 0.588594 0.250000
O O19 0.551101 0.564242 0.000000
O O20 0.756342 0.500000 0.750000
O O21 0.839013 0.393518 0.792962
O O22 0.764501 0.406079 0.000000
O O23 0.077227 0.500000 0.750000
O O24 0.089012 0.580914 0.000000
#
# Coordination Sequence:
#
# PCOD8203343 Si02
#       8
#     8   8   8   8   8   8   8   8
#     4  10  23  41  59  83 115 148 188 239 291 341
#     4   9  19  36  56  80 113 151 188 231 280 335
#     4  11  23  41  61  84 113 145 189 242 294 350
#     4  10  22  39  56  79 114 150 188 236 287 340
#     4  11  22  38  62  89 116 151 191 234 289 345
#     4   9  15  25  45  72 103 138 176 218 263 313
#     4  10  19  35  59  88 121 154 191 234 282 339
#     4   9  18  34  54  80 112 148 185 227 276 330
#
# _framework density 19.502780000000001
#
# number of rings (size 3 to 8) (size 9 to 14) (size 15 to 20)
#    0.000    2.125    1.250    2.250    0.000    5.750 
#    0.000    4.375    0.000    1.500    0.000    0.000 
#    0.000    0.000    0.000    0.000    0.000    0.000 
#
# Total GULP energy -793512.791165 kJ/mol
# GULP energy per Si atom -12398.637362 kJ/mol
# Density = 1.945839 g / cm^3
# Si number density = 19.502780 Si / 1000 Ang^3
#
#
#
# Elastic Constant Matrix: (Units=GPa)
#
#
# Indices 1 2 3 4 5 6 
#
# 1 90.7091 52.5519 48.1507 0.0000 0.0000 0.0000
# 2 52.5519 146.4997 59.4182 0.0000 0.0000 0.0000
# 3 48.1507 59.4182 83.4274 0.0000 0.0000 0.0000
# 4 0.0000 0.0000 0.0000 29.9477 0.0000 0.0000
# 5 0.0000 0.0000 0.0000 0.0000 23.0652 0.0000
# 6 0.0000 0.0000 0.0000 0.0000 0.0000 37.2163
#
#
#
# Elastic Compliance Matrix: (Units=1/GPa)
#
#
# Indices 1 2 3 4 5 6 
#
# 1 0.016745 -0.002935 -0.007574 0.000000 0.000000 0.000000
# 2 -0.002935 0.010113 -0.005509 0.000000 0.000000 0.000000
# 3 -0.007574 -0.005509 0.020282 0.000000 0.000000 0.000000
# 4 0.000000 0.000000 0.000000 0.033392 0.000000 0.000000
# 5 0.000000 0.000000 0.000000 0.000000 0.043355 0.000000
# 6 0.000000 0.000000 0.000000 0.000000 0.000000 0.026870
#
#
# Mechanical properties :
#
#
# Convention : Reuss Voigt Hill
#
# Bulk Modulus (GPa) = 66.20864 71.20867 68.70866
# Shear Modulus (GPa) = 26.62021 28.74685 27.68353
#
# Velocity S-wave (km/s) = 3.69852 3.84342 3.77167
# Velocity P-wave (km/s) = 7.22916 7.50248 7.36709
#
# Compressibility (1/GPa) = 0.01510377
#
# Stress axis : x y z
#
# Youngs Moduli (GPa) = 59.71872 98.88292 49.30580
#
# Poissons Ratio (x) = 0.29019 0.37347
# Poissons Ratio (y) = 0.17526 0.27162
# Poissons Ratio (z) = 0.45234 0.54473
#
# Static dielectric constant tensor:
#      x y z
#    x 3.423370 0.000000 0.000000 
#    y 0.000000 4.229290 0.000000 
#    z 0.000000 0.000000 3.632310 
# 
# 
# High freq. dielectric constant tensor:
#      x y z
#    x 1.738070 0.000000 0.000000 
#    y 0.000000 1.777280 0.000000 
#    z 0.000000 0.000000 1.760620 
# 
# From -- ./inp_files/6526.got.cif
#   From: 2010.03.12/outbox.cif.g09.slc.cpg/sg49_4_cif.got.tgz:6526.got - 2010.04.14 03:58:27.
