data_PCOD8203609
_publ_section_title
;
Structure prediction by ZEFSAII (Michael W. Deem and Ramdas Pophale) SiO2 
 PCOD8203609
Probable space group: P C C M
;
_chemical_formula_sum "Si O2"
_cell_formula_units_Z 48
_cell_length_a 9.444905
_cell_length_b 30.425243
_cell_length_c 8.793800
_cell_angle_alpha 90.000000
_cell_angle_beta 90.000000
_cell_angle_gamma 90.000000
_cell_volume 2527.017408
_symmetry_space_group_name_H-M "P C C M"
_symmetry_group_IT_number 49
_symmetry_cell_setting 'orthorhombic'
loop_
_space_group_symop_operation_xyz
x,y,z
-x,-y,z
x,-y,1/2-z
-x,y,1/2-z
-x,-y,-z
x,y,-z
-x,y,1/2+z
x,-y,1/2+z
loop_
_atom_site_type_symbol
_atom_site_label
_atom_site_fract_x
_atom_site_fract_y
_atom_site_fract_z
Si Si1 0.853798 0.621489 0.820922
Si Si2 0.154499 0.873341 0.821659
Si Si3 0.353165 0.953833 0.177746
Si Si4 0.653455 0.455888 0.319384
Si Si5 0.147292 0.280000 0.821412
Si Si6 0.345347 0.798152 0.320155
O O1 0.737079 0.587142 0.764845
O O2 0.814040 0.670735 0.764871
O O3 0.000000 0.605775 0.750000
O O4 0.869826 0.620397 0.000000
O O5 0.228052 0.919878 0.788316
O O6 0.247976 0.836330 0.743904
O O7 0.000000 0.874027 0.750000
O O8 0.143186 0.863495 0.000000
O O9 0.500000 0.936512 0.250000
O O10 0.306900 0.000000 0.250000
O O11 0.379051 0.960215 0.000000
O O12 0.725056 0.500000 0.250000
O O13 0.500000 0.450291 0.250000
O O14 0.646255 0.460149 0.500000
O O15 0.274871 0.248190 0.772117
O O16 0.000000 0.263497 0.750000
O O17 0.124425 0.278652 0.000000
O O18 0.500000 0.800889 0.250000
O O19 0.357436 0.803324 0.500000
#
# Coordination Sequence:
#
# PCOD8203609 Si02
#       6
#     8   8   8   8   8   8
#     4   9  19  35  54  77 105 137 174 216 263 316
#     4  11  24  40  59  84 114 149 187 228 276 327
#     4  10  21  37  59  85 113 147 185 227 274 324
#     4  10  20  34  52  74 102 136 174 216 262 313
#     4   9  19  36  56  79 107 139 176 218 265 318
#     4  11  23  38  58  83 112 145 183 227 272 323
#
# _framework density 18.994723
#
# number of rings (size 3 to 8) (size 9 to 14) (size 15 to 20)
#    0.000    2.000    0.000    4.000    0.000    9.333 
#    0.000    3.333    0.000    0.000    0.000    0.000 
#    0.000    0.000    0.000    0.000    0.000    0.000 
#
# Total GULP energy -595252.073445 kJ/mol
# GULP energy per Si atom -12401.084863 kJ/mol
# Density = 1.895149 g / cm^3
# Si number density = 18.994723 Si / 1000 Ang^3
#
#
#
# Elastic Constant Matrix: (Units=GPa)
#
#
# Indices 1 2 3 4 5 6 
#
# 1 154.1858 96.3518 61.1283 0.0000 0.0000 0.0000
# 2 96.3518 135.9560 63.3073 0.0000 0.0000 0.0000
# 3 61.1283 63.3073 83.7983 0.0000 0.0000 0.0000
# 4 0.0000 0.0000 0.0000 29.9556 0.0000 0.0000
# 5 0.0000 0.0000 0.0000 0.0000 35.4752 0.0000
# 6 0.0000 0.0000 0.0000 0.0000 0.0000 40.9965
#
#
#
# Elastic Compliance Matrix: (Units=1/GPa)
#
#
# Indices 1 2 3 4 5 6 
#
# 1 0.012341 -0.007025 -0.003695 0.000000 0.000000 0.000000
# 2 -0.007025 0.015347 -0.006469 0.000000 0.000000 0.000000
# 3 -0.003695 -0.006469 0.019516 0.000000 0.000000 0.000000
# 4 0.000000 0.000000 0.000000 0.033383 0.000000 0.000000
# 5 0.000000 0.000000 0.000000 0.000000 0.028189 0.000000
# 6 0.000000 0.000000 0.000000 0.000000 0.000000 0.024392
#
#
# Mechanical properties :
#
#
# Convention : Reuss Voigt Hill
#
# Bulk Modulus (GPa) = 77.97443 90.61277 84.29360
# Shear Modulus (GPa) = 29.10025 31.49563 30.29794
#
# Velocity S-wave (km/s) = 3.91835 4.07643 3.99817
# Velocity P-wave (km/s) = 7.84926 8.36445 8.11095
#
# Compressibility (1/GPa) = 0.01282472
#
# Stress axis : x y z
#
# Youngs Moduli (GPa) = 81.03256 65.16134 51.24080
#
# Poissons Ratio (x) = 0.45779 0.18932
# Poissons Ratio (y) = 0.56929 0.33148
# Poissons Ratio (z) = 0.29939 0.42153
#
# Static dielectric constant tensor:
#      x y z
#    x 3.465720 0.000000 0.000000 
#    y 0.000000 4.033410 0.000000 
#    z 0.000000 0.000000 3.569620 
# 
# 
# High freq. dielectric constant tensor:
#      x y z
#    x 1.736920 0.000000 0.000000 
#    y 0.000000 1.754040 0.000000 
#    z 0.000000 0.000000 1.746910 
# 
# From -- ./inp_files/2033.got.cif
#   From: 2010.03.12/outbox.cif.g09.slc.cpg/sg49_2_cif.got.tgz:2033.got - 2010.04.14 03:58:27.
