data_PCOD8203756
_publ_section_title
;
Structure prediction by ZEFSAII (Michael W. Deem and Ramdas Pophale) SiO2 
 PCOD8203756
Probable space group: P C C M
;
_chemical_formula_sum "Si O2"
_cell_formula_units_Z 64
_cell_length_a 24.775976
_cell_length_b 14.973588
_cell_length_c 8.850979
_cell_angle_alpha 90.000000
_cell_angle_beta 90.000000
_cell_angle_gamma 90.000000
_cell_volume 3283.582718
_symmetry_space_group_name_H-M "P C C M"
_symmetry_group_IT_number 49
_symmetry_cell_setting 'orthorhombic'
loop_
_space_group_symop_operation_xyz
x,y,z
-x,-y,z
x,-y,1/2-z
-x,y,1/2-z
-x,-y,-z
x,y,-z
-x,y,1/2+z
x,-y,1/2+z
loop_
_atom_site_type_symbol
_atom_site_label
_atom_site_fract_x
_atom_site_fract_y
_atom_site_fract_z
Si Si1 0.730459 0.588786 0.829337
Si Si2 0.441278 0.782239 0.177694
Si Si3 0.558168 0.415512 0.174924
Si Si4 0.141080 0.586392 0.332497
Si Si5 0.856518 0.763931 0.324460
Si Si6 0.267184 0.228234 0.678518
Si Si7 0.350870 0.097782 0.180170
Si Si8 0.945342 0.904601 0.678755
O O1 0.706642 0.500000 0.750000
O O2 0.794598 0.583283 0.830475
O O3 0.711842 0.675202 0.734576
O O4 0.707835 0.595160 0.000000
O O5 0.500000 0.789810 0.250000
O O6 0.415662 0.682499 0.202180
O O7 0.404149 0.853197 0.261154
O O8 0.444704 0.804291 0.000000
O O9 0.590648 0.500000 0.250000
O O10 0.500000 0.411848 0.250000
O O11 0.551996 0.435992 0.000000
O O12 0.116884 0.500000 0.250000
O O13 0.117736 0.585564 0.500000
O O14 0.120355 0.675898 0.254129
O O15 0.859139 0.743952 0.500000
O O16 0.795296 0.785954 0.277087
O O17 0.894417 0.844952 0.275287
O O18 0.277799 0.221258 0.500000
O O19 0.298246 0.150474 0.764899
O O20 0.348867 0.000000 0.250000
O O21 0.351657 0.092149 0.000000
O O22 0.952439 0.912933 0.500000
O O23 0.000000 0.863543 0.750000
O O24 0.933461 0.000000 0.750000
#
# Coordination Sequence:
#
# PCOD8203756 Si02
#       8
#     8   8   8   8   8   8   8   8
#     4   9  16  28  48  77 110 146 184 223 267 319
#     4  10  21  39  62  89 116 146 185 229 274 324
#     4   9  16  27  49  80 115 148 179 214 257 310
#     4   9  16  26  45  73 106 142 181 222 266 316
#     4   9  19  34  54  80 110 144 183 224 269 322
#     4  10  20  37  58  82 113 147 183 226 273 327
#     4  12  26  44  63  83 109 143 182 229 282 335
#     4  10  20  35  54  78 107 140 178 224 275 326
#
# _framework density 19.490905999999999
#
# number of rings (size 3 to 8) (size 9 to 14) (size 15 to 20)
#    0.000    2.250    0.000    4.125    0.000    6.750 
#    0.000    3.125    0.000    1.875    0.000    2.625 
#    0.000    0.000    0.000    0.000    0.000    0.000 
#
# Total GULP energy -793445.790499 kJ/mol
# GULP energy per Si atom -12397.590477 kJ/mol
# Density = 1.944654 g / cm^3
# Si number density = 19.490906 Si / 1000 Ang^3
#
#
#
# Elastic Constant Matrix: (Units=GPa)
#
#
# Indices 1 2 3 4 5 6 
#
# 1 77.0190 65.2319 50.7574 0.0000 0.0000 0.0000
# 2 65.2319 173.3559 86.6256 0.0000 0.0000 0.0000
# 3 50.7574 86.6256 140.1645 0.0000 0.0000 0.0000
# 4 0.0000 0.0000 0.0000 39.6108 0.0000 0.0000
# 5 0.0000 0.0000 0.0000 0.0000 6.1571 0.0000
# 6 0.0000 0.0000 0.0000 0.0000 0.0000 -13.9450
#
#
#
# Elastic Compliance Matrix: (Units=1/GPa)
#
#
# Indices 1 2 3 4 5 6 
#
# 1 0.020380 -0.005760 -0.003820 0.000000 0.000000 0.000000
# 2 -0.005760 0.009974 -0.004078 0.000000 0.000000 0.000000
# 3 -0.003820 -0.004078 0.011038 0.000000 0.000000 0.000000
# 4 0.000000 0.000000 0.000000 0.025246 0.000000 0.000000
# 5 0.000000 0.000000 0.000000 0.000000 0.162414 0.000000
# 6 0.000000 0.000000 0.000000 0.000000 0.000000 -0.071710
#
#
# Mechanical properties :
#
#
# Convention : Reuss Voigt Hill
#
# Bulk Modulus (GPa) = 71.04722 88.41881 79.73302
# Shear Modulus (GPa) = 26.40618 18.89289 22.64953
#
# Velocity S-wave (km/s) = 3.68475 3.11677 3.41259
# Velocity P-wave (km/s) = 7.39146 7.64297 7.51827
#
# Compressibility (1/GPa) = 0.01407515
#
# Stress axis : x y z
#
# Youngs Moduli (GPa) = 49.06839 100.26406 90.59220
#
# Poissons Ratio (x) = 0.57748 0.34611
# Poissons Ratio (y) = 0.28261 0.36946
# Poissons Ratio (z) = 0.18746 0.40891
#
# Static dielectric constant tensor:
#      x y z
#    x 3.325190 0.000000 0.000000 
#    y 0.000000 3.968760 0.000000 
#    z 0.000000 0.000000 3.738870 
# 
# 
# High freq. dielectric constant tensor:
#      x y z
#    x 1.727680 0.000000 0.000000 
#    y 0.000000 1.769600 0.000000 
#    z 0.000000 0.000000 1.775230 
# 
# From -- ./inp_files/6511.got.cif
#   From: 2010.03.12/outbox.cif.g09.slc.cpg/sg49_4_cif.got.tgz:6511.got - 2010.04.14 03:58:27.
