data_PCOD8203601
_publ_section_title
;
Structure prediction by ZEFSAII (Michael W. Deem and Ramdas Pophale) SiO2 
 PCOD8203601
Probable space group: P C C M
;
_chemical_formula_sum "Si O2"
_cell_formula_units_Z 34
_cell_length_a 20.221082
_cell_length_b 10.325739
_cell_length_c 9.301886
_cell_angle_alpha 90.000000
_cell_angle_beta 90.000000
_cell_angle_gamma 90.000000
_cell_volume 1942.211612
_symmetry_space_group_name_H-M "P C C M"
_symmetry_group_IT_number 49
_symmetry_cell_setting 'orthorhombic'
loop_
_space_group_symop_operation_xyz
x,y,z
-x,-y,z
x,-y,1/2-z
-x,y,1/2-z
-x,-y,-z
x,y,-z
-x,y,1/2+z
x,-y,1/2+z
loop_
_atom_site_type_symbol
_atom_site_label
_atom_site_fract_x
_atom_site_fract_y
_atom_site_fract_z
Si Si1 0.000000 0.000000 0.750000
Si Si2 0.190204 0.625221 0.667856
Si Si3 0.657508 0.625634 0.166269
Si Si4 0.569052 0.871110 0.827172
Si Si5 0.872508 0.884765 0.840599
O O1 0.952342 0.094004 0.656180
O O2 0.163209 0.500000 0.750000
O O3 0.179468 0.601316 0.500000
O O4 0.266403 0.652308 0.706512
O O5 0.146889 0.746094 0.725274
O O6 0.630189 0.500000 0.250000
O O7 0.617456 0.753191 0.209763
O O8 0.648671 0.593348 0.000000
O O9 0.500000 0.838806 0.750000
O O10 0.598205 0.000000 0.750000
O O11 0.560895 0.890981 0.000000
O O12 0.838183 0.000000 0.750000
O O13 0.842992 0.892669 0.000000
#
# Coordination Sequence:
#
# PCOD8203601 Si02
#       5
#     2   8   8   8   8
#     4   8  18  32  52  72 102 128 162 196 246 280
#     4   9  18  34  51  73 100 129 162 204 244 289
#     4   9  19  34  52  72  99 129 164 203 247 290
#     4  10  20  34  51  73  99 131 164 205 246 292
#     4   9  18  31  51  73  98 127 162 199 239 286
#
# _framework density 17.505817
#
# number of rings (size 3 to 8) (size 9 to 14) (size 15 to 20)
#    0.706    2.118    0.000    1.765    0.000    4.235 
#    0.000    2.941    0.000    2.824    0.000    0.000 
#    0.000    0.000    0.000    0.000    0.000    0.000 
#
# Total GULP energy -421327.888917 kJ/mol
# GULP energy per Si atom -12391.996733 kJ/mol
# Density = 1.746597 g / cm^3
# Si number density = 17.505817 Si / 1000 Ang^3
#
#
#
# Elastic Constant Matrix: (Units=GPa)
#
#
# Indices 1 2 3 4 5 6 
#
# 1 61.8229 74.9974 28.7027 0.0000 0.0000 0.0000
# 2 74.9974 197.1637 69.1969 0.0000 0.0000 0.0000
# 3 28.7027 69.1969 74.9084 0.0000 0.0000 0.0000
# 4 0.0000 0.0000 0.0000 35.8284 0.0000 0.0000
# 5 0.0000 0.0000 0.0000 0.0000 -0.0162 0.0000
# 6 0.0000 0.0000 0.0000 0.0000 0.0000 35.6755
#
#
#
# Elastic Compliance Matrix: (Units=1/GPa)
#
#
# Indices 1 2 3 4 5 6 
#
# 1 0.030136 -0.010966 -0.001418 0.000000 0.000000 0.000000
# 2 -0.010966 0.011495 -0.006417 0.000000 0.000000 0.000000
# 3 -0.001418 -0.006417 0.019821 0.000000 0.000000 0.000000
# 4 0.000000 0.000000 0.000000 0.027911 0.000000 0.000000
# 5 0.000000 0.000000 0.000000 0.000000-61.858113 0.000000
# 6 0.000000 0.000000 0.000000 0.000000 0.000000 0.028030
#
#
# Mechanical properties :
#
#
# Convention : Reuss Voigt Hill
#
# Bulk Modulus (GPa) = 41.92690 75.52099 58.72395
# Shear Modulus (GPa) = -0.08104 25.03075 12.47485
#
# Velocity S-wave (km/s) = -0.21540 3.78544 2.67237
# Velocity P-wave (km/s) = 4.89289 7.89558 6.56813
#
# Compressibility (1/GPa) = 0.02385104
#
# Stress axis : x y z
#
# Youngs Moduli (GPa) = 33.18323 86.99335 50.45255
#
# Poissons Ratio (x) = 0.95393 0.07153
# Poissons Ratio (y) = 0.36387 0.32376
# Poissons Ratio (z) = 0.04704 0.55824
#
# Static dielectric constant tensor:
#      x y z
#    x 3.067880 0.000000 0.000000 
#    y 0.000000 3.404500 0.000000 
#    z 0.000000 0.000000 3.282620 
# 
# 
# High freq. dielectric constant tensor:
#      x y z
#    x 1.655870 0.000000 0.000000 
#    y 0.000000 1.684700 0.000000 
#    z 0.000000 0.000000 1.676230 
# 
# From -- ./inp_files/1870.got.cif
#   From: 2010.03.12/outbox.cif.g09.slc.cpg/sg49_1_cif.got.tgz:1870.got - 2010.04.14 03:58:27.
