data_PCOD8203706
_publ_section_title
;
Structure prediction by ZEFSAII (Michael W. Deem and Ramdas Pophale) SiO2 
 PCOD8203706
Probable space group: P C C M
;
_chemical_formula_sum "Si O2"
_cell_formula_units_Z 58
_cell_length_a 11.952814
_cell_length_b 9.670002
_cell_length_c 26.263560
_cell_angle_alpha 90.000000
_cell_angle_beta 90.000000
_cell_angle_gamma 90.000000
_cell_volume 3035.640367
_symmetry_space_group_name_H-M "P C C M"
_symmetry_group_IT_number 49
_symmetry_cell_setting 'orthorhombic'
loop_
_space_group_symop_operation_xyz
x,y,z
-x,-y,z
x,-y,1/2-z
-x,y,1/2-z
-x,-y,-z
x,y,-z
-x,y,1/2+z
x,-y,1/2+z
loop_
_atom_site_type_symbol
_atom_site_label
_atom_site_fract_x
_atom_site_fract_y
_atom_site_fract_z
Si Si1 0.500000 0.000000 0.750000
Si Si2 0.272686 0.499038 0.557167
Si Si3 0.099848 0.250457 0.557804
Si Si4 0.199655 0.621116 0.285054
Si Si5 0.126488 0.714896 0.387180
Si Si6 0.380431 0.546778 0.155886
Si Si7 0.129991 0.981495 0.135731
Si Si8 0.302878 0.177644 0.705046
O O1 0.416381 0.094108 0.716742
O O2 0.317109 0.523343 0.500000
O O3 0.189474 0.370758 0.559489
O O4 0.213616 0.635963 0.577602
O O5 0.375637 0.468634 0.594716
O O6 0.069849 0.209507 0.500000
O O7 0.143347 0.115532 0.586616
O O8 0.992201 0.306397 0.586886
O O9 0.146163 0.500000 0.250000
O O10 0.111292 0.662186 0.328736
O O11 0.304450 0.560385 0.314548
O O12 0.241743 0.755404 0.254074
O O13 0.172732 0.870791 0.383821
O O14 0.500000 0.500000 0.175928
O O15 0.344071 0.702743 0.167517
O O16 0.209355 0.922741 0.180333
O O17 0.000000 0.000000 0.154025
#
# Coordination Sequence:
#
# PCOD8203706 Si02
#       8
#     2   8   8   8   8   8   8   8
#     4  12  24  32  60  84 110 160 200 236 300 344
#     4  10  20  36  59  84 114 150 192 245 297 349
#     4  10  20  37  60  85 114 154 195 237 295 359
#     4   9  20  37  58  81 112 151 193 241 294 342
#     4  10  20  34  56  87 115 147 197 239 288 349
#     4  10  20  36  62  86 113 148 196 255 301 347
#     4  10  22  38  60  84 122 161 194 238 299 362
#     4  11  21  40  59  85 121 156 205 248 293 364
#
# _framework density 19.106348000000001
#
# number of rings (size 3 to 8) (size 9 to 14) (size 15 to 20)
#    0.000    1.931    1.379    2.483    0.000    7.448 
#    0.000    7.931    6.069    0.000    0.000    1.931 
#    0.000    0.000    0.000    0.000    0.000    0.000 
#
# Total GULP energy -718884.042864 kJ/mol
# GULP energy per Si atom -12394.552463 kJ/mol
# Density = 1.906286 g / cm^3
# Si number density = 19.106348 Si / 1000 Ang^3
#
#
#
# Elastic Constant Matrix: (Units=GPa)
#
#
# Indices 1 2 3 4 5 6 
#
# 1 51.1998 12.7541 38.2783 0.0000 0.0000 0.0000
# 2 12.7541 77.7184 43.1470 0.0000 0.0000 0.0000
# 3 38.2783 43.1470 128.5170 0.0000 0.0000 0.0000
# 4 0.0000 0.0000 0.0000 16.5190 0.0000 0.0000
# 5 0.0000 0.0000 0.0000 0.0000 17.1664 0.0000
# 6 0.0000 0.0000 0.0000 0.0000 0.0000 25.6877
#
#
#
# Elastic Compliance Matrix: (Units=1/GPa)
#
#
# Indices 1 2 3 4 5 6 
#
# 1 0.025127 0.000039 -0.007497 0.000000 0.000000 0.000000
# 2 0.000039 0.015815 -0.005321 0.000000 0.000000 0.000000
# 3 -0.007497 -0.005321 0.011800 0.000000 0.000000 0.000000
# 4 0.000000 0.000000 0.000000 0.060536 0.000000 0.000000
# 5 0.000000 0.000000 0.000000 0.000000 0.058253 0.000000
# 6 0.000000 0.000000 0.000000 0.000000 0.000000 0.038929
#
#
# Mechanical properties :
#
#
# Convention : Reuss Voigt Hill
#
# Bulk Modulus (GPa) = 36.78740 49.53268 43.16004
# Shear Modulus (GPa) = 20.40154 22.75835 21.57995
#
# Velocity S-wave (km/s) = 3.27125 3.45504 3.36440
# Velocity P-wave (km/s) = 5.79344 6.47282 6.14253
#
# Compressibility (1/GPa) = 0.02718322
#
# Stress axis : x y z
#
# Youngs Moduli (GPa) = 39.79857 63.23245 84.74318
#
# Poissons Ratio (x) = -0.00244 0.63530
# Poissons Ratio (y) = -0.00153 0.45091
# Poissons Ratio (z) = 0.29836 0.33646
#
# Static dielectric constant tensor:
#      x y z
#    x 3.306280 0.000000 0.000000 
#    y 0.000000 3.816480 0.000000 
#    z 0.000000 0.000000 3.939820 
# 
# 
# High freq. dielectric constant tensor:
#      x y z
#    x 1.721440 0.000000 0.000000 
#    y 0.000000 1.759260 0.000000 
#    z 0.000000 0.000000 1.752370 
# 
# From -- ./inp_files/24860.got.cif
#   From: 2010.03.12/outbox.cif.g09.slc.cpg/sg49_13_cif.got.tgz:24860.got - 2010.04.14 03:58:27.
