data_PCOD8203244
_publ_section_title
;
Structure prediction by ZEFSAII (Michael W. Deem and Ramdas Pophale) SiO2 
 PCOD8203244
Probable space group: P C C M
;
_chemical_formula_sum "Si O2"
_cell_formula_units_Z 64
_cell_length_a 25.559312
_cell_length_b 14.326964
_cell_length_c 8.840615
_cell_angle_alpha 90.000000
_cell_angle_beta 90.000000
_cell_angle_gamma 90.000000
_cell_volume 3237.321316
_symmetry_space_group_name_H-M "P C C M"
_symmetry_group_IT_number 49
_symmetry_cell_setting 'orthorhombic'
loop_
_space_group_symop_operation_xyz
x,y,z
-x,-y,z
x,-y,1/2-z
-x,y,1/2-z
-x,-y,-z
x,y,-z
-x,y,1/2+z
x,-y,1/2+z
loop_
_atom_site_type_symbol
_atom_site_label
_atom_site_fract_x
_atom_site_fract_y
_atom_site_fract_z
Si Si1 0.250878 0.791429 0.824625
Si Si2 0.100037 0.594511 0.320711
Si Si3 0.946314 0.788109 0.177769
Si Si4 0.787903 0.591397 0.674833
Si Si5 0.444404 0.206106 0.823736
Si Si6 0.443317 0.588391 0.676921
Si Si7 0.155512 0.898849 0.320216
Si Si8 0.343218 0.900437 0.320546
O O1 0.250224 0.679484 0.806181
O O2 0.200897 0.833706 0.742346
O O3 0.303296 0.825497 0.745111
O O4 0.250253 0.821276 0.000000
O O5 0.075635 0.500000 0.250000
O O6 0.102307 0.585633 0.500000
O O7 0.064907 0.682071 0.269444
O O8 0.158039 0.611811 0.259622
O O9 0.899738 0.855651 0.232095
O O10 0.000000 0.824238 0.250000
O O11 0.952183 0.793475 0.000000
O O12 0.760896 0.500000 0.750000
O O13 0.800271 0.571108 0.500000
O O14 0.500000 0.183315 0.750000
O O15 0.420460 0.308987 0.784191
O O16 0.401615 0.130454 0.771659
O O17 0.455053 0.199876 0.000000
O O18 0.411456 0.500000 0.750000
O O19 0.500000 0.588234 0.750000
O O20 0.446769 0.571112 0.500000
O O21 0.160441 0.904165 0.500000
O O22 0.161817 0.000000 0.250000
O O23 0.336947 0.904891 0.500000
O O24 0.330219 0.000000 0.250000
#
# Coordination Sequence:
#
# PCOD8203244 Si02
#       8
#     8   8   8   8   8   8   8   8
#     4  11  23  40  63  91 118 151 192 237 288 344
#     4  10  19  34  55  83 115 151 192 233 283 341
#     4  10  23  39  57  81 115 153 193 239 291 345
#     4  10  20  34  58  89 119 152 190 231 281 341
#     4   9  20  37  58  84 116 155 195 235 286 342
#     4   9  15  26  46  75 108 143 184 226 271 324
#     4  11  23  41  62  86 113 148 192 241 295 352
#     4  11  24  42  62  86 117 153 193 243 296 347
#
# _framework density 19.769431999999998
#
# number of rings (size 3 to 8) (size 9 to 14) (size 15 to 20)
#    0.000    1.875    1.250    3.750    0.000    5.750 
#    0.000    4.375    0.000    3.000    0.000    0.000 
#    0.000    0.000    0.000    0.000    0.000    0.000 
#
# Total GULP energy -793461.470949 kJ/mol
# GULP energy per Si atom -12397.835484 kJ/mol
# Density = 1.972444 g / cm^3
# Si number density = 19.769432 Si / 1000 Ang^3
#
#
#
# Elastic Constant Matrix: (Units=GPa)
#
#
# Indices 1 2 3 4 5 6 
#
# 1 99.5760 42.2855 39.0953 0.0000 0.0000 0.0000
# 2 42.2855 106.5172 44.5145 0.0000 0.0000 0.0000
# 3 39.0953 44.5145 94.5683 0.0000 0.0000 0.0000
# 4 0.0000 0.0000 0.0000 41.4261 0.0000 0.0000
# 5 0.0000 0.0000 0.0000 0.0000 25.4534 0.0000
# 6 0.0000 0.0000 0.0000 0.0000 0.0000 26.6458
#
#
#
# Elastic Compliance Matrix: (Units=1/GPa)
#
#
# Indices 1 2 3 4 5 6 
#
# 1 0.013030 -0.003637 -0.003675 0.000000 0.000000 0.000000
# 2 -0.003637 0.012702 -0.004476 0.000000 0.000000 0.000000
# 3 -0.003675 -0.004476 0.014200 0.000000 0.000000 0.000000
# 4 0.000000 0.000000 0.000000 0.024139 0.000000 0.000000
# 5 0.000000 0.000000 0.000000 0.000000 0.039288 0.000000
# 6 0.000000 0.000000 0.000000 0.000000 0.000000 0.037529
#
#
# Mechanical properties :
#
#
# Convention : Reuss Voigt Hill
#
# Bulk Modulus (GPa) = 61.13242 61.38356 61.25799
# Shear Modulus (GPa) = 29.42636 30.35613 29.89125
#
# Velocity S-wave (km/s) = 3.86227 3.92281 3.89265
# Velocity P-wave (km/s) = 7.13297 7.18575 7.15941
#
# Compressibility (1/GPa) = 0.01635793
#
# Stress axis : x y z
#
# Youngs Moduli (GPa) = 76.74738 78.72558 70.42128
#
# Poissons Ratio (x) = 0.28632 0.25878
# Poissons Ratio (y) = 0.27912 0.31518
# Poissons Ratio (z) = 0.28202 0.35235
#
# Static dielectric constant tensor:
#      x y z
#    x 3.479180 0.000000 0.000000 
#    y 0.000000 4.816360 0.000000 
#    z 0.000000 0.000000 3.701580 
# 
# 
# High freq. dielectric constant tensor:
#      x y z
#    x 1.745840 0.000000 0.000000 
#    y 0.000000 1.788270 0.000000 
#    z 0.000000 0.000000 1.780490 
# 
# From -- ./inp_files/6510.got.cif
#   From: 2010.03.12/outbox.cif.g09.slc.cpg/sg49_4_cif.got.tgz:6510.got - 2010.04.14 03:58:27.
