data_PCOD8203786
_publ_section_title
;
Structure prediction by ZEFSAII (Michael W. Deem and Ramdas Pophale) SiO2 
 PCOD8203786
Probable space group: P C C M
;
_chemical_formula_sum "Si O2"
_cell_formula_units_Z 32
_cell_length_a 20.570067
_cell_length_b 9.375285
_cell_length_c 8.595736
_cell_angle_alpha 90.000000
_cell_angle_beta 90.000000
_cell_angle_gamma 90.000000
_cell_volume 1657.689756
_symmetry_space_group_name_H-M "P C C M"
_symmetry_group_IT_number 49
_symmetry_cell_setting 'orthorhombic'
loop_
_space_group_symop_operation_xyz
x,y,z
-x,-y,z
x,-y,1/2-z
-x,y,1/2-z
-x,-y,-z
x,y,-z
-x,y,1/2+z
x,-y,1/2+z
loop_
_atom_site_type_symbol
_atom_site_label
_atom_site_fract_x
_atom_site_fract_y
_atom_site_fract_z
Si Si1 0.318918 0.343699 0.816579
Si Si2 0.062616 0.844214 0.820826
Si Si3 0.793978 0.841796 0.682819
Si Si4 0.570508 0.848852 0.315854
O O1 0.309826 0.500000 0.750000
O O2 0.254365 0.257034 0.777418
O O3 0.381029 0.274433 0.734968
O O4 0.330133 0.347648 0.000000
O O5 0.133578 0.775281 0.789573
O O6 0.000000 0.758446 0.750000
O O7 0.064558 0.000000 0.750000
O O8 0.048860 0.858639 0.000000
O O9 0.776255 0.844260 0.500000
O O10 0.788469 0.000000 0.750000
O O11 0.500000 0.810464 0.250000
O O12 0.566871 0.859351 0.500000
O O13 0.595664 0.000000 0.250000
#
# Coordination Sequence:
#
# PCOD8203786 Si02
#       4
#     8   8   8   8
#     4  12  25  41  59  82 112 149 188 231 279 331
#     4   9  16  26  45  73 107 140 177 223 275 326
#     4  10  20  35  55  82 112 147 187 231 278 330
#     4  11  22  40  64  91 119 149 185 227 273 325
#
# _framework density 19.303974
#
# number of rings (size 3 to 8) (size 9 to 14) (size 15 to 20)
#    0.000    1.500    0.000    8.250    0.000    3.500 
#    0.000    2.500    0.000    0.750    0.000    5.250 
#    0.000    0.000    0.000    0.000    0.000    0.000 
#
# Total GULP energy -396692.238183 kJ/mol
# GULP energy per Si atom -12396.632443 kJ/mol
# Density = 1.926004 g / cm^3
# Si number density = 19.303974 Si / 1000 Ang^3
#
#
#
# Elastic Constant Matrix: (Units=GPa)
#
#
# Indices 1 2 3 4 5 6 
#
# 1 126.4151 51.6000 55.3273 0.0000 0.0000 0.0000
# 2 51.6000 84.3164 32.8312 0.0000 0.0000 0.0000
# 3 55.3273 32.8312 157.7381 0.0000 0.0000 0.0000
# 4 0.0000 0.0000 0.0000 27.8407 0.0000 0.0000
# 5 0.0000 0.0000 0.0000 0.0000 39.8847 0.0000
# 6 0.0000 0.0000 0.0000 0.0000 0.0000 -0.8941
#
#
#
# Elastic Compliance Matrix: (Units=1/GPa)
#
#
# Indices 1 2 3 4 5 6 
#
# 1 0.011591 -0.005997 -0.002818 0.000000 0.000000 0.000000
# 2 -0.005997 0.016008 -0.001229 0.000000 0.000000 0.000000
# 3 -0.002818 -0.001229 0.007584 0.000000 0.000000 0.000000
# 4 0.000000 0.000000 0.000000 0.035919 0.000000 0.000000
# 5 0.000000 0.000000 0.000000 0.000000 0.025072 0.000000
# 6 0.000000 0.000000 0.000000 0.000000 0.000000 -1.118479
#
#
# Mechanical properties :
#
#
# Convention : Reuss Voigt Hill
#
# Bulk Modulus (GPa) = 66.23525 71.99851 69.11688
# Shear Modulus (GPa) = -5.01411 28.61367 11.79978
#
# Velocity S-wave (km/s) = -1.61341 3.85420 2.47505
# Velocity P-wave (km/s) = 5.56016 7.56206 6.63702
#
# Compressibility (1/GPa) = 0.01509770
#
# Stress axis : x y z
#
# Youngs Moduli (GPa) = 86.27201 62.46787 131.86314
#
# Poissons Ratio (x) = 0.37459 0.37153
# Poissons Ratio (y) = 0.51733 0.16201
# Poissons Ratio (z) = 0.24308 0.07675
#
# Static dielectric constant tensor:
#      x y z
#    x 4.420580 0.000000 0.000000 
#    y 0.000000 3.235050 0.000000 
#    z 0.000000 0.000000 3.788410 
# 
# 
# High freq. dielectric constant tensor:
#      x y z
#    x 1.780100 0.000000 0.000000 
#    y 0.000000 1.707700 0.000000 
#    z 0.000000 0.000000 1.776290 
# 
# From -- ./inp_files/1397.got.cif
#   From: 2010.03.12/outbox.cif.g09.slc.cpg/sg49_1_cif.got.tgz:1397.got - 2010.04.14 03:58:27.
