data_PCOD8203622
_publ_section_title
;
Structure prediction by ZEFSAII (Michael W. Deem and Ramdas Pophale) SiO2 
 PCOD8203622
Probable space group: P C C M
;
_chemical_formula_sum "Si O2"
_cell_formula_units_Z 48
_cell_length_a 8.895921
_cell_length_b 28.869744
_cell_length_c 9.636291
_cell_angle_alpha 90.000000
_cell_angle_beta 90.000000
_cell_angle_gamma 90.000000
_cell_volume 2474.820796
_symmetry_space_group_name_H-M "P C C M"
_symmetry_group_IT_number 49
_symmetry_cell_setting 'orthorhombic'
loop_
_space_group_symop_operation_xyz
x,y,z
-x,-y,z
x,-y,1/2-z
-x,y,1/2-z
-x,-y,-z
x,y,-z
-x,y,1/2+z
x,-y,1/2+z
loop_
_atom_site_type_symbol
_atom_site_label
_atom_site_fract_x
_atom_site_fract_y
_atom_site_fract_z
Si Si1 0.643375 0.812117 0.342153
Si Si2 0.653448 0.541204 0.665194
Si Si3 0.144834 0.269122 0.661340
Si Si4 0.347127 0.934991 0.500000
Si Si5 0.821743 0.900083 0.265625
Si Si6 0.312847 0.955699 0.000000
Si Si7 0.137939 0.373741 0.342718
O O1 0.500000 0.823776 0.250000
O O2 0.587765 0.809197 0.500000
O O3 0.716747 0.763490 0.294780
O O4 0.769892 0.851387 0.328505
O O5 0.741955 0.500000 0.750000
O O6 0.500000 0.545867 0.750000
O O7 0.634122 0.529535 0.500000
O O8 0.729577 0.590600 0.684630
O O9 0.104290 0.261839 0.500000
O O10 0.193775 0.321934 0.694303
O O11 0.000000 0.254979 0.750000
O O12 0.269808 0.909603 0.372941
O O13 0.527627 0.928059 0.500000
O O14 0.324164 0.989574 0.500000
O O15 0.781875 0.942262 0.366019
O O16 0.000000 0.898563 0.250000
O O17 0.080844 0.375776 0.500000
O O18 0.000000 0.389468 0.250000
#
# Coordination Sequence:
#
# PCOD8203622 Si02
#       7
#     8   8   8   4   8   4   8
#     4  11  24  41  62  87 119 154 194 240 290 349
#     4  10  20  34  52  77 108 148 191 239 290 344
#     4   9  19  38  60  85 116 149 189 238 289 346
#     4  11  25  41  69  89 121 165 193 245 290 351
#     4  12  25  41  63  92 122 158 198 244 294 346
#     4  11  23  45  63  93 125 155 203 237 296 347
#     4   9  19  35  56  81 112 148 188 235 289 345
#
# _framework density 19.395344000000001
#
# number of rings (size 3 to 8) (size 9 to 14) (size 15 to 20)
#    0.000    1.667    0.833    4.000    1.167    6.333 
#    0.000    1.667    0.000    0.000    0.000    0.000 
#    0.000    0.000    0.000    0.000    0.000    0.000 
#
# Total GULP energy -595106.654809 kJ/mol
# GULP energy per Si atom -12398.055309 kJ/mol
# Density = 1.935120 g / cm^3
# Si number density = 19.395344 Si / 1000 Ang^3
#
#
#
# Elastic Constant Matrix: (Units=GPa)
#
#
# Indices 1 2 3 4 5 6 
#
# 1 107.4342 39.9352 37.0964 0.0000 0.0000 0.0000
# 2 39.9352 86.2320 31.0698 0.0000 0.0000 0.0000
# 3 37.0964 31.0698 100.7447 0.0000 0.0000 0.0000
# 4 0.0000 0.0000 0.0000 29.6993 0.0000 0.0000
# 5 0.0000 0.0000 0.0000 0.0000 35.0374 0.0000
# 6 0.0000 0.0000 0.0000 0.0000 0.0000 34.1617
#
#
#
# Elastic Compliance Matrix: (Units=1/GPa)
#
#
# Indices 1 2 3 4 5 6 
#
# 1 0.012022 -0.004469 -0.003048 0.000000 0.000000 0.000000
# 2 -0.004469 0.014708 -0.002890 0.000000 0.000000 0.000000
# 3 -0.003048 -0.002890 0.011940 0.000000 0.000000 0.000000
# 4 0.000000 0.000000 0.000000 0.033671 0.000000 0.000000
# 5 0.000000 0.000000 0.000000 0.000000 0.028541 0.000000
# 6 0.000000 0.000000 0.000000 0.000000 0.000000 0.029273
#
#
# Mechanical properties :
#
#
# Convention : Reuss Voigt Hill
#
# Bulk Modulus (GPa) = 56.01017 56.73487 56.37252
# Shear Modulus (GPa) = 31.86323 32.20032 32.03178
#
# Velocity S-wave (km/s) = 4.05758 4.07899 4.06830
# Velocity P-wave (km/s) = 7.13392 7.17631 7.15515
#
# Compressibility (1/GPa) = 0.01785390
#
# Stress axis : x y z
#
# Youngs Moduli (GPa) = 83.18162 67.99161 83.75256
#
# Poissons Ratio (x) = 0.30386 0.25531
# Poissons Ratio (y) = 0.37175 0.24207
# Poissons Ratio (z) = 0.25357 0.19651
#
# Static dielectric constant tensor:
#      x y z
#    x 3.431650 0.000000 0.000000 
#    y 0.000000 3.977550 0.000000 
#    z 0.000000 0.000000 1.815150 
# 
# 
# High freq. dielectric constant tensor:
#      x y z
#    x 1.742680 0.000000 0.000000 
#    y 0.000000 1.772260 0.000000 
#    z 0.000000 0.000000 1.768400 
# 
# From -- ./inp_files/2152.got.cif
#   From: 2010.03.12/outbox.cif.g09.slc.cpg/sg49_2_cif.got.tgz:2152.got - 2010.04.14 03:58:27.
