data_PCOD8203878
_publ_section_title
;
Structure prediction by ZEFSAII (Michael W. Deem and Ramdas Pophale) SiO2 
 PCOD8203878
Probable space group: P C C M
;
_chemical_formula_sum "Si O2"
_cell_formula_units_Z 48
_cell_length_a 27.283784
_cell_length_b 5.113656
_cell_length_c 15.868036
_cell_angle_alpha 90.000000
_cell_angle_beta 90.000000
_cell_angle_gamma 90.000000
_cell_volume 2213.906570
_symmetry_space_group_name_H-M "P C C M"
_symmetry_group_IT_number 49
_symmetry_cell_setting 'orthorhombic'
loop_
_space_group_symop_operation_xyz
x,y,z
-x,-y,z
x,-y,1/2-z
-x,y,1/2-z
-x,-y,-z
x,y,-z
-x,y,1/2+z
x,-y,1/2+z
loop_
_atom_site_type_symbol
_atom_site_label
_atom_site_fract_x
_atom_site_fract_y
_atom_site_fract_z
Si Si1 0.206170 0.239695 0.302959
Si Si2 0.360816 0.209863 0.899469
Si Si3 0.949978 0.397201 0.595428
Si Si4 0.302879 0.708795 0.099816
Si Si5 0.529003 0.750068 0.100525
Si Si6 0.111560 0.912220 0.903579
O O1 0.191885 0.500000 0.250000
O O2 0.247105 0.314213 0.370468
O O3 0.159852 0.106907 0.348256
O O4 0.228505 0.000000 0.250000
O O5 0.330783 0.456172 0.865506
O O6 0.415877 0.232357 0.863600
O O7 0.333002 0.955244 0.864203
O O8 0.362382 0.203112 0.000000
O O9 0.964339 0.320221 0.500000
O O10 0.911552 0.628152 0.599901
O O11 0.000000 0.500000 0.641276
O O12 0.925038 0.135837 0.635288
O O13 0.301602 0.717770 0.000000
O O14 0.500000 0.500000 0.136431
O O15 0.500000 0.000000 0.133867
O O16 0.530380 0.739693 0.000000
O O17 0.124935 0.989847 0.000000
#
# Coordination Sequence:
#
# PCOD8203878 Si02
#       6
#     8   8   8   8   8   8
#     4  12  25  40  57  80 112 146 186 234 282 329
#     4   9  17  29  48  74 104 140 179 221 269 326
#     4   9  17  31  56  89 117 141 179 227 265 308
#     4  10  20  36  56  77 105 142 186 230 275 328
#     4   9  15  23  38  65 104 141 167 202 264 332
#     4  10  20  36  59  85 114 149 185 221 269 325
#
# _framework density 21.681131000000001
#
# number of rings (size 3 to 8) (size 9 to 14) (size 15 to 20)
#    0.000    2.167    0.000    4.000    0.000    6.000 
#    0.000    6.667    0.000    7.500    0.000    0.000 
#    0.000   46.667    0.000    0.000    0.000    0.000 
#
# Total GULP energy -595061.716743 kJ/mol
# GULP energy per Si atom -12397.119099 kJ/mol
# Density = 2.163178 g / cm^3
# Si number density = 21.681131 Si / 1000 Ang^3
#
#
#
# Elastic Constant Matrix: (Units=GPa)
#
#
# Indices 1 2 3 4 5 6 
#
# 1 156.7012 58.2454 22.0993 0.0000 0.0000 0.0000
# 2 58.2454 173.9532 19.6230 0.0000 0.0000 0.0000
# 3 22.0993 19.6230 19.5152 0.0000 0.0000 0.0000
# 4 0.0000 0.0000 0.0000 14.6640 0.0000 0.0000
# 5 0.0000 0.0000 0.0000 0.0000 1.8309 0.0000
# 6 0.0000 0.0000 0.0000 0.0000 0.0000 48.2321
#
#
#
# Elastic Compliance Matrix: (Units=1/GPa)
#
#
# Indices 1 2 3 4 5 6 
#
# 1 0.008113 -0.001895 -0.007282 0.000000 0.000000 0.000000
# 2 -0.001895 0.006927 -0.004819 0.000000 0.000000 0.000000
# 3 -0.007282 -0.004819 0.064334 0.000000 0.000000 0.000000
# 4 0.000000 0.000000 0.000000 0.068194 0.000000 0.000000
# 5 0.000000 0.000000 0.000000 0.000000 0.546183 0.000000
# 6 0.000000 0.000000 0.000000 0.000000 0.000000 0.020733
#
#
# Mechanical properties :
#
#
# Convention : Reuss Voigt Hill
#
# Bulk Modulus (GPa) = 19.46218 61.12277 40.29248
# Shear Modulus (GPa) = 6.58239 29.62552 18.10395
#
# Velocity S-wave (km/s) = 1.74430 3.70052 2.89279
# Velocity P-wave (km/s) = 3.61287 6.81992 5.45730
#
# Compressibility (1/GPa) = 0.05138170
#
# Stress axis : x y z
#
# Youngs Moduli (GPa) = 123.26097 144.36625 15.54400
#
# Poissons Ratio (x) = 0.27358 0.11319
# Poissons Ratio (y) = 0.23359 0.07491
# Poissons Ratio (z) = 0.89754 0.69572
#
# Static dielectric constant tensor:
#      x y z
#    x 3.999010 0.000000 0.000000 
#    y 0.000000 4.180950 0.000000 
#    z 0.000000 0.000000 3.384730 
# 
# 
# High freq. dielectric constant tensor:
#      x y z
#    x 1.863980 0.000000 0.000000 
#    y 0.000000 1.872080 0.000000 
#    z 0.000000 0.000000 1.799080 
# 
# From -- ./inp_files/18367.got.cif
#   From: 2010.03.12/outbox.cif.g09.slc.cpg/sg49_10_cif.got.tgz:18367.got - 2010.04.14 03:58:27.
