data_PCOD8203474
_publ_section_title
;
Structure prediction by ZEFSAII (Michael W. Deem and Ramdas Pophale) SiO2 
 PCOD8203474
Probable space group: P C C M
;
_chemical_formula_sum "Si O2"
_cell_formula_units_Z 58
_cell_length_a 25.112134
_cell_length_b 14.652814
_cell_length_c 9.026651
_cell_angle_alpha 90.000000
_cell_angle_beta 90.000000
_cell_angle_gamma 90.000000
_cell_volume 3321.477451
_symmetry_space_group_name_H-M "P C C M"
_symmetry_group_IT_number 49
_symmetry_cell_setting 'orthorhombic'
loop_
_space_group_symop_operation_xyz
x,y,z
-x,-y,z
x,-y,1/2-z
-x,y,1/2-z
-x,-y,-z
x,y,-z
-x,y,1/2+z
x,-y,1/2+z
loop_
_atom_site_type_symbol
_atom_site_label
_atom_site_fract_x
_atom_site_fract_y
_atom_site_fract_z
Si Si1 0.195301 0.090845 0.676320
Si Si2 0.332430 0.597777 0.672009
Si Si3 0.841292 0.587709 0.331295
Si Si4 0.749452 0.275211 0.830378
Si Si5 0.549006 0.403034 0.328180
Si Si6 0.000000 0.000000 0.250000
Si Si7 0.947683 0.678792 0.323788
Si Si8 0.085206 0.139169 0.166792
O O1 0.187383 0.080711 0.500000
O O2 0.238098 0.170589 0.712272
O O3 0.137868 0.106030 0.749117
O O4 0.220115 0.000000 0.750000
O O5 0.322275 0.500000 0.750000
O O6 0.320858 0.580344 0.500000
O O7 0.295383 0.678960 0.729869
O O8 0.392133 0.638088 0.696709
O O9 0.817583 0.500000 0.250000
O O10 0.842664 0.559429 0.500000
O O11 0.804957 0.674584 0.302063
O O12 0.899879 0.612917 0.274372
O O13 0.730731 0.284100 0.000000
O O14 0.550543 0.500000 0.250000
O O15 0.500000 0.346583 0.250000
O O16 0.535596 0.413050 0.500000
O O17 0.039761 0.938155 0.347884
O O18 0.952996 0.686265 0.500000
O O19 0.939330 0.778802 0.259549
O O20 0.000000 0.635143 0.250000
O O21 0.100514 0.169446 0.000000
#
# Coordination Sequence:
#
# PCOD8203474 Si02
#       8
#     8   8   8   8   8   2   8   8
#     4  11  23  40  59  80 107 133 168 210 257 313
#     4  10  20  32  49  77 110 146 188 231 267 311
#     4  10  22  39  56  76 101 131 166 211 256 303
#     4  10  21  38  56  76 105 140 173 218 265 307
#     4   9  16  26  42  67 102 143 186 226 266 307
#     4  12  26  36  56  86 108 124 158 200 256 312
#     4  11  23  40  57  75 102 127 160 205 251 304
#     4  12  24  37  56  79 104 132 160 196 250 310
#
# _framework density 17.462108000000001
#
# number of rings (size 3 to 8) (size 9 to 14) (size 15 to 20)
#    0.000    1.517    2.759    3.103    0.000    6.897 
#    0.000    1.379    0.000    0.000    0.000    0.000 
#    0.000    0.552    0.000    6.069    0.000    4.414 
#
# Total GULP energy -718932.193269 kJ/mol
# GULP energy per Si atom -12395.382643 kJ/mol
# Density = 1.742236 g / cm^3
# Si number density = 17.462108 Si / 1000 Ang^3
#
#
#
# Elastic Constant Matrix: (Units=GPa)
#
#
# Indices 1 2 3 4 5 6 
#
# 1 104.0254 34.7505 56.9830 0.0000 0.0000 0.0000
# 2 34.7505 73.3934 35.8050 0.0000 0.0000 0.0000
# 3 56.9830 35.8050 106.5722 0.0000 0.0000 0.0000
# 4 0.0000 0.0000 0.0000 21.7333 0.0000 0.0000
# 5 0.0000 0.0000 0.0000 0.0000 22.3984 0.0000
# 6 0.0000 0.0000 0.0000 0.0000 0.0000 7.5363
#
#
#
# Elastic Compliance Matrix: (Units=1/GPa)
#
#
# Indices 1 2 3 4 5 6 
#
# 1 0.014370 -0.003655 -0.006456 0.000000 0.000000 0.000000
# 2 -0.003655 0.017226 -0.003833 0.000000 0.000000 0.000000
# 3 -0.006456 -0.003833 0.014123 0.000000 0.000000 0.000000
# 4 0.000000 0.000000 0.000000 0.046012 0.000000 0.000000
# 5 0.000000 0.000000 0.000000 0.000000 0.044646 0.000000
# 6 0.000000 0.000000 0.000000 0.000000 0.000000 0.132691
#
#
# Mechanical properties :
#
#
# Convention : Reuss Voigt Hill
#
# Bulk Modulus (GPa) = 56.08001 59.89647 57.98824
# Shear Modulus (GPa) = 16.50714 20.76376 18.63545
#
# Velocity S-wave (km/s) = 3.07793 3.45204 3.27034
# Velocity P-wave (km/s) = 6.69451 7.08971 6.89495
#
# Compressibility (1/GPa) = 0.01783167
#
# Stress axis : x y z
#
# Youngs Moduli (GPa) = 69.58834 58.05305 70.80660
#
# Poissons Ratio (x) = 0.21216 0.45711
# Poissons Ratio (y) = 0.25432 0.27142
# Poissons Ratio (z) = 0.44925 0.22253
#
# Static dielectric constant tensor:
#      x y z
#    x 4.269360 0.000000 0.000000 
#    y 0.000000 2.967670 0.000000 
#    z 0.000000 0.000000 3.339080 
# 
# 
# High freq. dielectric constant tensor:
#      x y z
#    x 1.668140 0.000000 0.000000 
#    y 0.000000 1.647570 0.000000 
#    z 0.000000 0.000000 1.688190 
# 
# From -- ./inp_files/6771.got.cif
#   From: 2010.03.12/outbox.cif.g09.slc.cpg/sg49_4_cif.got.tgz:6771.got - 2010.04.14 03:58:27.
