data_PCOD8203826
_publ_section_title
;
Structure prediction by ZEFSAII (Michael W. Deem and Ramdas Pophale) SiO2 
 PCOD8203826
Probable space group: P C C M
;
_chemical_formula_sum "Si O2"
_cell_formula_units_Z 64
_cell_length_a 21.946933
_cell_length_b 9.124030
_cell_length_c 16.860031
_cell_angle_alpha 90.000000
_cell_angle_beta 90.000000
_cell_angle_gamma 90.000000
_cell_volume 3376.128058
_symmetry_space_group_name_H-M "P C C M"
_symmetry_group_IT_number 49
_symmetry_cell_setting 'orthorhombic'
loop_
_space_group_symop_operation_xyz
x,y,z
-x,-y,z
x,-y,1/2-z
-x,y,1/2-z
-x,-y,-z
x,y,-z
-x,y,1/2+z
x,-y,1/2+z
loop_
_atom_site_type_symbol
_atom_site_label
_atom_site_fract_x
_atom_site_fract_y
_atom_site_fract_z
Si Si1 0.268439 0.822183 0.591620
Si Si2 0.928751 0.665127 0.764691
Si Si3 0.148112 0.100991 0.323537
Si Si4 0.733674 0.157567 0.908019
Si Si5 0.383708 0.670652 0.093873
Si Si6 0.131201 0.182604 0.906706
Si Si7 0.500098 0.164575 0.843422
Si Si8 0.615088 0.660694 0.094418
O O1 0.266502 0.784282 0.500000
O O2 0.200675 0.784725 0.623179
O O3 0.321891 0.725257 0.630910
O O4 0.286292 0.990382 0.606100
O O5 0.904693 0.500000 0.750000
O O6 0.900186 0.776951 0.701536
O O7 0.912918 0.713773 0.854925
O O8 0.000000 0.673041 0.750000
O O9 0.205676 0.189689 0.357913
O O10 0.168715 0.000000 0.250000
O O11 0.119087 0.990805 0.389606
O O12 0.680027 0.261579 0.876027
O O13 0.748130 0.188019 0.000000
O O14 0.438824 0.760358 0.128451
O O15 0.389491 0.505198 0.124710
O O16 0.386764 0.679812 0.000000
O O17 0.120659 0.213816 0.000000
O O18 0.500000 0.163931 0.750000
O O19 0.441692 0.249501 0.874334
O O20 0.500000 0.000000 0.877742
O O21 0.614902 0.670139 0.000000
#
# Coordination Sequence:
#
# PCOD8203826 Si02
#       8
#     8   8   8   8   8   8   8   8
#     4   8  15  30  54  82 108 136 173 223 271 317
#     4  10  22  40  57  80 121 161 193 230 286 346
#     4   9  18  34  57  85 113 150 187 236 281 329
#     4   9  17  33  55  81 111 141 180 226 271 324
#     4  10  21  36  55  79 107 139 175 219 271 330
#     4   9  18  36  61  88 115 148 195 242 284 333
#     4  11  24  40  53  73 100 138 182 228 271 321
#     4  10  20  35  57  81 105 136 175 217 272 330
#
# _framework density 18.956626
#
# number of rings (size 3 to 8) (size 9 to 14) (size 15 to 20)
#    0.000    2.500    0.000    2.625    0.000    7.250 
#    9.000    5.625    0.000    0.000    0.000    0.000 
#    0.000    0.000    0.000    0.000    0.000    0.000 
#
# Total GULP energy -793414.656942 kJ/mol
# GULP energy per Si atom -12397.104015 kJ/mol
# Density = 1.891348 g / cm^3
# Si number density = 18.956626 Si / 1000 Ang^3
#
#
#
# Elastic Constant Matrix: (Units=GPa)
#
#
# Indices 1 2 3 4 5 6 
#
# 1 112.0292 75.9725 47.9452 0.0000 0.0000 0.0000
# 2 75.9725 136.4802 46.0891 0.0000 0.0000 0.0000
# 3 47.9452 46.0891 55.3020 0.0000 0.0000 0.0000
# 4 0.0000 0.0000 0.0000 21.4932 0.0000 0.0000
# 5 0.0000 0.0000 0.0000 0.0000 28.2272 0.0000
# 6 0.0000 0.0000 0.0000 0.0000 0.0000 -8.5596
#
#
#
# Elastic Compliance Matrix: (Units=1/GPa)
#
#
# Indices 1 2 3 4 5 6 
#
# 1 0.017471 -0.006416 -0.009800 0.000000 0.000000 0.000000
# 2 -0.006416 0.012553 -0.004899 0.000000 0.000000 0.000000
# 3 -0.009800 -0.004899 0.030662 0.000000 0.000000 0.000000
# 4 0.000000 0.000000 0.000000 0.046526 0.000000 0.000000
# 5 0.000000 0.000000 0.000000 0.000000 0.035427 0.000000
# 6 0.000000 0.000000 0.000000 0.000000 0.000000 -0.116828
#
#
# Mechanical properties :
#
#
# Convention : Reuss Voigt Hill
#
# Bulk Modulus (GPa) = 54.18371 71.53609 62.85990
# Shear Modulus (GPa) = 67.39019 17.15246 42.27132
#
# Velocity S-wave (km/s) = 5.96882 3.01130 4.72730
# Velocity P-wave (km/s) = 8.72625 7.06464 7.93904
#
# Compressibility (1/GPa) = 0.01845573
#
# Stress axis : x y z
#
# Youngs Moduli (GPa) = 57.23631 79.66142 32.61376
#
# Poissons Ratio (x) = 0.51112 0.31961
# Poissons Ratio (y) = 0.36724 0.15978
# Poissons Ratio (z) = 0.56091 0.39028
#
# Static dielectric constant tensor:
#      x y z
#    x 3.627030 0.000000 0.000000 
#    y 0.000000 3.740850 0.000000 
#    z 0.000000 0.000000 3.408010 
# 
# 
# High freq. dielectric constant tensor:
#      x y z
#    x 1.738190 0.000000 0.000000 
#    y 0.000000 1.737660 0.000000 
#    z 0.000000 0.000000 1.725210 
# 
# From -- ./inp_files/18297.got.cif
#   From: 2010.03.12/outbox.cif.g09.slc.cpg/sg49_10_cif.got.tgz:18297.got - 2010.04.14 03:58:27.
