data_PCOD8203794
_publ_section_title
;
Structure prediction by ZEFSAII (Michael W. Deem and Ramdas Pophale) SiO2 
 PCOD8203794
Probable space group: P C C M
;
_chemical_formula_sum "Si O2"
_cell_formula_units_Z 34
_cell_length_a 19.787416
_cell_length_b 10.331071
_cell_length_c 8.805328
_cell_angle_alpha 90.000000
_cell_angle_beta 90.000000
_cell_angle_gamma 90.000000
_cell_volume 1800.030934
_symmetry_space_group_name_H-M "P C C M"
_symmetry_group_IT_number 49
_symmetry_cell_setting 'orthorhombic'
loop_
_space_group_symop_operation_xyz
x,y,z
-x,-y,z
x,-y,1/2-z
-x,y,1/2-z
-x,-y,-z
x,y,-z
-x,y,1/2+z
x,-y,1/2+z
loop_
_atom_site_type_symbol
_atom_site_label
_atom_site_fract_x
_atom_site_fract_y
_atom_site_fract_z
Si Si1 0.426587 0.135460 0.682057
Si Si2 0.000000 0.000000 0.750000
Si Si3 0.338364 0.361904 0.820248
Si Si4 0.935958 0.754576 0.334141
Si Si5 0.816954 0.633943 0.823420
O O1 0.500000 0.163945 0.750000
O O2 0.429650 0.127544 0.500000
O O3 0.378847 0.250951 0.734540
O O4 0.398768 0.000000 0.750000
O O5 0.951971 0.907807 0.648238
O O6 0.359777 0.500000 0.750000
O O7 0.260239 0.332460 0.783795
O O8 0.353598 0.361886 0.000000
O O9 0.927054 0.692119 0.500000
O O10 0.866393 0.743269 0.241304
O O11 0.000000 0.685721 0.250000
O O12 0.839698 0.500000 0.750000
O O13 0.828039 0.622340 0.000000
#
# Coordination Sequence:
#
# PCOD8203794 Si02
#       5
#     8   2   8   8   8
#     4  11  22  39  62  88 120 157 195 240 289 345
#     4   8  22  36  56  76 106 140 180 230 278 328
#     4  10  21  39  61  88 119 154 194 241 290 346
#     4  10  20  35  56  78 106 141 181 226 276 329
#     4  10  21  37  58  82 112 144 182 228 280 334
#
# _framework density 18.888565
#
# number of rings (size 3 to 8) (size 9 to 14) (size 15 to 20)
#    0.706    1.176    0.000    5.294    0.000    3.765 
#    2.118    4.706    0.000    0.000    0.000    0.000 
#    0.000    0.000    0.000    0.000    0.000    0.000 
#
# Total GULP energy -421430.737355 kJ/mol
# GULP energy per Si atom -12395.021687 kJ/mol
# Density = 1.884557 g / cm^3
# Si number density = 18.888565 Si / 1000 Ang^3
#
#
#
# Elastic Constant Matrix: (Units=GPa)
#
#
# Indices 1 2 3 4 5 6 
#
# 1 102.7894 76.8408 65.8039 0.0000 0.0000 0.0000
# 2 76.8408 122.6685 61.6286 0.0000 0.0000 0.0000
# 3 65.8039 61.6286 147.5605 0.0000 0.0000 0.0000
# 4 0.0000 0.0000 0.0000 31.5803 0.0000 0.0000
# 5 0.0000 0.0000 0.0000 0.0000 25.9190 0.0000
# 6 0.0000 0.0000 0.0000 0.0000 0.0000 36.2859
#
#
#
# Elastic Compliance Matrix: (Units=1/GPa)
#
#
# Indices 1 2 3 4 5 6 
#
# 1 0.020699 -0.010540 -0.004829 0.000000 0.000000 0.000000
# 2 -0.010540 0.015684 -0.001850 0.000000 0.000000 0.000000
# 3 -0.004829 -0.001850 0.009703 0.000000 0.000000 0.000000
# 4 0.000000 0.000000 0.000000 0.031665 0.000000 0.000000
# 5 0.000000 0.000000 0.000000 0.000000 0.038582 0.000000
# 6 0.000000 0.000000 0.000000 0.000000 0.000000 0.027559
#
#
# Mechanical properties :
#
#
# Convention : Reuss Voigt Hill
#
# Bulk Modulus (GPa) = 85.84965 86.84057 86.34511
# Shear Modulus (GPa) = 27.44041 30.00671 28.72356
#
# Velocity S-wave (km/s) = 3.81563 3.99007 3.90383
# Velocity P-wave (km/s) = 8.05986 8.20381 8.13216
#
# Compressibility (1/GPa) = 0.01164827
#
# Stress axis : x y z
#
# Youngs Moduli (GPa) = 48.31073 63.75876 103.06274
#
# Poissons Ratio (x) = 0.67204 0.49765
# Poissons Ratio (y) = 0.50921 0.19067
# Poissons Ratio (z) = 0.23327 0.11795
#
# Static dielectric constant tensor:
#      x y z
#    x 3.456260 0.000000 0.000000 
#    y 0.000000 3.378590 0.000000 
#    z 0.000000 0.000000 3.624280 
# 
# 
# High freq. dielectric constant tensor:
#      x y z
#    x 1.731470 0.000000 0.000000 
#    y 0.000000 1.723420 0.000000 
#    z 0.000000 0.000000 1.753450 
# 
# From -- ./inp_files/5532.got.cif
#   From: 2010.03.12/outbox.cif.g09.slc.cpg/sg49_3_cif.got.tgz:5532.got - 2010.04.14 03:58:27.
