data_PCOD8203838
_publ_section_title
;
Structure prediction by ZEFSAII (Michael W. Deem and Ramdas Pophale) SiO2 
 PCOD8203838
Probable space group: P C C M
;
_chemical_formula_sum "Si O2"
_cell_formula_units_Z 64
_cell_length_a 8.903292
_cell_length_b 20.709020
_cell_length_c 17.269550
_cell_angle_alpha 90.000000
_cell_angle_beta 90.000000
_cell_angle_gamma 90.000000
_cell_volume 3184.132897
_symmetry_space_group_name_H-M "P C C M"
_symmetry_group_IT_number 49
_symmetry_cell_setting 'orthorhombic'
loop_
_space_group_symop_operation_xyz
x,y,z
-x,-y,z
x,-y,1/2-z
-x,y,1/2-z
-x,-y,-z
x,y,-z
-x,y,1/2+z
x,-y,1/2+z
loop_
_atom_site_type_symbol
_atom_site_label
_atom_site_fract_x
_atom_site_fract_y
_atom_site_fract_z
Si Si1 0.056408 0.184590 0.337367
Si Si2 0.626312 0.818928 0.409884
Si Si3 0.926669 0.434322 0.667521
Si Si4 0.428255 0.563080 0.333258
Si Si5 0.932181 0.682459 0.409305
Si Si6 0.595298 0.674889 0.587871
Si Si7 0.911993 0.061780 0.591249
Si Si8 0.421215 0.936171 0.592036
O O1 0.235197 0.179609 0.350180
O O2 0.000888 0.254623 0.366525
O O3 0.000000 0.174457 0.250000
O O4 0.990480 0.128616 0.390218
O O5 0.677900 0.830040 0.500000
O O6 0.544813 0.749461 0.403028
O O7 0.510273 0.872720 0.380749
O O8 0.749585 0.444145 0.673609
O O9 0.000000 0.500000 0.635117
O O10 0.000000 0.416568 0.750000
O O11 0.959226 0.377368 0.607267
O O12 0.500000 0.500000 0.376733
O O13 0.500000 0.565390 0.250000
O O14 0.471552 0.630183 0.372729
O O15 0.926803 0.698179 0.500000
O O16 0.764212 0.666390 0.378092
O O17 0.598668 0.652555 0.500000
O O18 0.902530 0.052974 0.500000
O O19 0.745430 0.064449 0.627358
O O20 0.000000 0.000000 0.627000
O O21 0.416242 0.937824 0.500000
O O22 0.500000 0.000000 0.625290
#
# Coordination Sequence:
#
# PCOD8203838 Si02
#       8
#     8   8   8   8   8   8   8   8
#     4  11  22  36  57  84 115 150 188 233 286 342
#     4   9  18  36  59  82 113 149 187 230 280 337
#     4  11  22  38  60  85 118 153 189 233 282 338
#     4  11  22  37  58  82 111 148 188 229 277 337
#     4  10  21  39  61  84 113 149 192 238 286 339
#     4   9  19  36  57  81 111 147 186 233 283 331
#     4  10  20  35  57  84 114 149 191 238 286 336
#     4   9  17  31  55  83 109 144 190 235 277 329
#
# _framework density 20.099664000000001
#
# number of rings (size 3 to 8) (size 9 to 14) (size 15 to 20)
#    0.000    2.000    0.000    6.000    0.000    5.250 
#    0.000    1.875    0.000    0.750    0.000    0.000 
#    0.000    0.000    0.000    0.000    0.000    0.000 
#
# Total GULP energy -793465.952736 kJ/mol
# GULP energy per Si atom -12397.905512 kJ/mol
# Density = 2.005392 g / cm^3
# Si number density = 20.099664 Si / 1000 Ang^3
#
#
#
# Elastic Constant Matrix: (Units=GPa)
#
#
# Indices 1 2 3 4 5 6 
#
# 1 146.7417 77.7007 30.7529 0.0000 0.0000 0.0000
# 2 77.7007 160.4202 23.9625 0.0000 0.0000 0.0000
# 3 30.7529 23.9625 36.4958 0.0000 0.0000 0.0000
# 4 0.0000 0.0000 0.0000 18.6088 0.0000 0.0000
# 5 0.0000 0.0000 0.0000 0.0000 14.8571 0.0000
# 6 0.0000 0.0000 0.0000 0.0000 0.0000 41.6616
#
#
#
# Elastic Compliance Matrix: (Units=1/GPa)
#
#
# Indices 1 2 3 4 5 6 
#
# 1 0.010207 -0.004057 -0.005937 0.000000 0.000000 0.000000
# 2 -0.004057 0.008524 -0.002178 0.000000 0.000000 0.000000
# 3 -0.005937 -0.002178 0.033833 0.000000 0.000000 0.000000
# 4 0.000000 0.000000 0.000000 0.053738 0.000000 0.000000
# 5 0.000000 0.000000 0.000000 0.000000 0.067308 0.000000
# 6 0.000000 0.000000 0.000000 0.000000 0.000000 0.024003
#
#
# Mechanical properties :
#
#
# Convention : Reuss Voigt Hill
#
# Bulk Modulus (GPa) = 35.43593 67.60998 51.52296
# Shear Modulus (GPa) = 21.61089 29.10829 25.35959
#
# Velocity S-wave (km/s) = 3.28256 3.80965 3.55588
# Velocity P-wave (km/s) = 5.65998 7.28434 6.52292
#
# Compressibility (1/GPa) = 0.02821994
#
# Stress axis : x y z
#
# Youngs Moduli (GPa) = 97.96994 117.31513 29.55660
#
# Poissons Ratio (x) = 0.47596 0.17548
# Poissons Ratio (y) = 0.39747 0.06438
# Poissons Ratio (z) = 0.58167 0.25552
#
# Static dielectric constant tensor:
#      x y z
#    x 3.628670 0.000000 0.000000 
#    y 0.000000 4.135510 0.000000 
#    z 0.000000 0.000000 3.288330 
# 
# 
# High freq. dielectric constant tensor:
#      x y z
#    x 1.784700 0.000000 0.000000 
#    y 0.000000 1.806290 0.000000 
#    z 0.000000 0.000000 1.749770 
# 
# From -- ./inp_files/16586.got.cif
#   From: 2010.03.12/outbox.cif.g09.slc.cpg/sg49_9_cif.got.tgz:16586.got - 2010.04.14 03:58:27.
