data_PCOD8203600
_publ_section_title
;
Structure prediction by ZEFSAII (Michael W. Deem and Ramdas Pophale) SiO2 
 PCOD8203600
Probable space group: P C C M
;
_chemical_formula_sum "Si O2"
_cell_formula_units_Z 48
_cell_length_a 29.361268
_cell_length_b 10.228780
_cell_length_c 8.658727
_cell_angle_alpha 90.000000
_cell_angle_beta 90.000000
_cell_angle_gamma 90.000000
_cell_volume 2600.475055
_symmetry_space_group_name_H-M "P C C M"
_symmetry_group_IT_number 49
_symmetry_cell_setting 'orthorhombic'
loop_
_space_group_symop_operation_xyz
x,y,z
-x,-y,z
x,-y,1/2-z
-x,y,1/2-z
-x,-y,-z
x,y,-z
-x,y,1/2+z
x,-y,1/2+z
loop_
_atom_site_type_symbol
_atom_site_label
_atom_site_fract_x
_atom_site_fract_y
_atom_site_fract_z
Si Si1 0.216549 0.135519 0.681242
Si Si2 0.383527 0.363866 0.682215
Si Si3 0.280444 0.636134 0.182917
Si Si4 0.049036 0.360789 0.183373
Si Si5 0.451047 0.138742 0.316373
Si Si6 0.888144 0.138461 0.182699
O O1 0.222290 0.126665 0.500000
O O2 0.247873 0.250758 0.749663
O O3 0.164388 0.161586 0.727621
O O4 0.234457 0.000000 0.750000
O O5 0.402046 0.500000 0.750000
O O6 0.385553 0.374384 0.500000
O O7 0.332022 0.336785 0.739559
O O8 0.415148 0.246483 0.741805
O O9 0.262236 0.500000 0.250000
O O10 0.277628 0.629635 0.000000
O O11 0.065240 0.500000 0.250000
O O12 0.084652 0.252336 0.234094
O O13 0.000000 0.321780 0.250000
O O14 0.046200 0.369662 0.000000
O O15 0.500000 0.178363 0.250000
O O16 0.453839 0.130108 0.500000
O O17 0.434723 0.000000 0.250000
O O18 0.905040 0.000000 0.250000
O O19 0.896517 0.141753 0.000000
#
# Coordination Sequence:
#
# PCOD8203600 Si02
#       6
#     8   8   8   8   8   8
#     4   9  19  34  53  76 105 136 170 210 253 300
#     4   9  19  34  52  73 100 131 167 207 251 299
#     4   9  18  34  52  74 102 133 168 209 251 298
#     4  11  22  38  58  81 108 140 175 216 261 309
#     4  10  20  34  51  73  99 130 165 206 250 299
#     4  10  20  36  55  79 108 140 176 216 259 307
#
# _framework density 18.458165000000001
#
# number of rings (size 3 to 8) (size 9 to 14) (size 15 to 20)
#    0.000    2.333    0.000    3.500    0.000    4.667 
#    0.000    5.000    0.000    0.000    0.000    0.000 
#    0.000    0.000    0.000    0.000    0.000    0.000 
#
# Total GULP energy -595298.385329 kJ/mol
# GULP energy per Si atom -12402.049694 kJ/mol
# Density = 1.841615 g / cm^3
# Si number density = 18.458165 Si / 1000 Ang^3
#
#
#
# Elastic Constant Matrix: (Units=GPa)
#
#
# Indices 1 2 3 4 5 6 
#
# 1 97.6802 104.6990 36.7570 0.0000 0.0000 0.0000
# 2 104.6990 185.8515 49.5042 0.0000 0.0000 0.0000
# 3 36.7570 49.5042 69.9895 0.0000 0.0000 0.0000
# 4 0.0000 0.0000 0.0000 35.6800 0.0000 0.0000
# 5 0.0000 0.0000 0.0000 0.0000 24.0244 0.0000
# 6 0.0000 0.0000 0.0000 0.0000 0.0000 33.3227
#
#
#
# Elastic Compliance Matrix: (Units=1/GPa)
#
#
# Indices 1 2 3 4 5 6 
#
# 1 0.026800 -0.013983 -0.004184 0.000000 0.000000 0.000000
# 2 -0.013983 0.013926 -0.002506 0.000000 0.000000 0.000000
# 3 -0.004184 -0.002506 0.018258 0.000000 0.000000 0.000000
# 4 0.000000 0.000000 0.000000 0.028027 0.000000 0.000000
# 5 0.000000 0.000000 0.000000 0.000000 0.041624 0.000000
# 6 0.000000 0.000000 0.000000 0.000000 0.000000 0.030010
#
#
# Mechanical properties :
#
#
# Convention : Reuss Voigt Hill
#
# Bulk Modulus (GPa) = 56.70098 81.71574 69.20836
# Shear Modulus (GPa) = 24.28717 29.44283 26.86500
#
# Velocity S-wave (km/s) = 3.63133 3.99822 3.81918
# Velocity P-wave (km/s) = 6.95466 8.10439 7.55144
#
# Compressibility (1/GPa) = 0.01763638
#
# Stress axis : x y z
#
# Youngs Moduli (GPa) = 37.31346 71.81060 54.77081
#
# Poissons Ratio (x) = 1.00414 0.22918
# Poissons Ratio (y) = 0.52176 0.13726
# Poissons Ratio (z) = 0.15613 0.17996
#
# Static dielectric constant tensor:
#      x y z
#    x 3.535790 0.000000 0.000000 
#    y 0.000000 3.586590 0.000000 
#    z 0.000000 0.000000 3.401710 
# 
# 
# High freq. dielectric constant tensor:
#      x y z
#    x 1.713210 0.000000 0.000000 
#    y 0.000000 1.725960 0.000000 
#    z 0.000000 0.000000 1.718680 
# 
# From -- ./inp_files/2031.got.cif
#   From: 2010.03.12/outbox.cif.g09.slc.cpg/sg49_2_cif.got.tgz:2031.got - 2010.04.14 03:58:27.
