data_PCOD8203419
_publ_section_title
;
Structure prediction by ZEFSAII (Michael W. Deem and Ramdas Pophale) SiO2 
 PCOD8203419
Probable space group: P C C M
;
_chemical_formula_sum "Si O2"
_cell_formula_units_Z 48
_cell_length_a 15.357405
_cell_length_b 8.621887
_cell_length_c 16.757003
_cell_angle_alpha 90.000000
_cell_angle_beta 90.000000
_cell_angle_gamma 90.000000
_cell_volume 2218.791592
_symmetry_space_group_name_H-M "P C C M"
_symmetry_group_IT_number 49
_symmetry_cell_setting 'orthorhombic'
loop_
_space_group_symop_operation_xyz
x,y,z
-x,-y,z
x,-y,1/2-z
-x,y,1/2-z
-x,-y,-z
x,y,-z
-x,y,1/2+z
x,-y,1/2+z
loop_
_atom_site_type_symbol
_atom_site_label
_atom_site_fract_x
_atom_site_fract_y
_atom_site_fract_z
Si Si1 0.368275 0.819408 0.341294
Si Si2 0.471469 0.335838 0.592551
Si Si3 0.781810 0.402863 0.326402
Si Si4 0.135154 0.168672 0.282692
Si Si5 0.918238 0.610607 0.408880
Si Si6 0.325968 0.151805 0.339891
O O1 0.466183 0.790955 0.368369
O O2 0.300168 0.683845 0.368224
O O3 0.367730 0.835867 0.246833
O O4 0.342396 0.984302 0.380069
O O5 0.500000 0.500000 0.630785
O O6 0.490292 0.339990 0.500000
O O7 0.370756 0.289332 0.608721
O O8 0.746779 0.500000 0.250000
O O9 0.851462 0.275457 0.295093
O O10 0.830164 0.514743 0.388745
O O11 0.067653 0.246552 0.345743
O O12 0.222863 0.166734 0.334927
O O13 0.105249 0.000000 0.250000
O O14 0.911596 0.672255 0.500000
O O15 0.000000 0.500000 0.398314
#
# Coordination Sequence:
#
# PCOD8203419 Si02
#       6
#     8   8   8   8   8   8
#     4  10  20  37  60  84 113 157 206 266 312 371
#     4  11  26  38  50  82 123 162 212 261 313 383
#     4   9  19  35  63  91 122 161 217 265 311 380
#     4  10  19  40  69  97 125 159 218 271 316 374
#     4  10  23  42  64  95 138 175 204 251 325 401
#     4  10  20  39  61  84 117 155 206 263 321 367
#
# _framework density 21.633396999999999
#
# number of rings (size 3 to 8) (size 9 to 14) (size 15 to 20)
#    0.000    2.000    3.333    1.000    7.000    7.667 
#    0.000    2.500    0.000    2.000    0.000    0.000 
#    0.000    0.000    0.000    0.000    0.000    0.000 
#
# Total GULP energy -594949.873719 kJ/mol
# GULP energy per Si atom -12394.789036 kJ/mol
# Density = 2.158416 g / cm^3
# Si number density = 21.633397 Si / 1000 Ang^3
#
#
#
# Elastic Constant Matrix: (Units=GPa)
#
#
# Indices 1 2 3 4 5 6 
#
# 1 69.4930 17.5252 16.1388 0.0000 0.0000 0.0000
# 2 17.5252 131.5390 27.8064 0.0000 0.0000 0.0000
# 3 16.1388 27.8064 55.6974 0.0000 0.0000 0.0000
# 4 0.0000 0.0000 0.0000 24.5164 0.0000 0.0000
# 5 0.0000 0.0000 0.0000 0.0000 24.7032 0.0000
# 6 0.0000 0.0000 0.0000 0.0000 0.0000 26.8104
#
#
#
# Elastic Compliance Matrix: (Units=1/GPa)
#
#
# Indices 1 2 3 4 5 6 
#
# 1 0.015612 -0.001256 -0.003896 0.000000 0.000000 0.000000
# 2 -0.001256 0.008600 -0.003930 0.000000 0.000000 0.000000
# 3 -0.003896 -0.003930 0.021045 0.000000 0.000000 0.000000
# 4 0.000000 0.000000 0.000000 0.040789 0.000000 0.000000
# 5 0.000000 0.000000 0.000000 0.000000 0.040481 0.000000
# 6 0.000000 0.000000 0.000000 0.000000 0.000000 0.037299
#
#
# Mechanical properties :
#
#
# Convention : Reuss Voigt Hill
#
# Bulk Modulus (GPa) = 36.91079 42.18557 39.54818
# Shear Modulus (GPa) = 26.17511 28.22326 27.19918
#
# Velocity S-wave (km/s) = 3.48219 3.61586 3.54966
# Velocity P-wave (km/s) = 5.76772 6.08072 5.92629
#
# Compressibility (1/GPa) = 0.02709235
#
# Stress axis : x y z
#
# Youngs Moduli (GPa) = 64.05474 116.27386 47.51716
#
# Poissons Ratio (x) = 0.14607 0.18515
# Poissons Ratio (y) = 0.08047 0.18673
# Poissons Ratio (z) = 0.24958 0.45691
#
# Static dielectric constant tensor:
#      x y z
#    x 3.739630 0.000000 0.000000 
#    y 0.000000 4.449400 0.000000 
#    z 0.000000 0.000000 3.577920 
# 
# 
# High freq. dielectric constant tensor:
#      x y z
#    x 1.840860 0.000000 0.000000 
#    y 0.000000 1.865980 0.000000 
#    z 0.000000 0.000000 1.813250 
# 
# From -- ./inp_files/17683.got.cif
#   From: 2010.03.12/outbox.cif.g09.slc.cpg/sg49_9_cif.got.tgz:17683.got - 2010.04.14 03:58:27.
