data_PCOD8203313
_publ_section_title
;
Structure prediction by ZEFSAII (Michael W. Deem and Ramdas Pophale) SiO2 
 PCOD8203313
Probable space group: P C C M
;
_chemical_formula_sum "Si O2"
_cell_formula_units_Z 56
_cell_length_a 30.771470
_cell_length_b 5.110127
_cell_length_c 17.303036
_cell_angle_alpha 90.000000
_cell_angle_beta 90.000000
_cell_angle_gamma 90.000000
_cell_volume 2720.835270
_symmetry_space_group_name_H-M "P C C M"
_symmetry_group_IT_number 49
_symmetry_cell_setting 'orthorhombic'
loop_
_space_group_symop_operation_xyz
x,y,z
-x,-y,z
x,-y,1/2-z
-x,y,1/2-z
-x,-y,-z
x,y,-z
-x,y,1/2+z
x,-y,1/2+z
loop_
_atom_site_type_symbol
_atom_site_label
_atom_site_fract_x
_atom_site_fract_y
_atom_site_fract_z
Si Si1 0.451272 0.469643 0.092225
Si Si2 0.028124 0.745534 0.085312
Si Si3 0.839308 0.470492 0.341210
Si Si4 0.886504 0.962233 0.659186
Si Si5 0.698035 0.992709 0.091407
Si Si6 0.599744 0.030478 0.091902
Si Si7 0.259490 0.494679 0.658917
O O1 0.500000 0.500000 0.125060
O O2 0.428033 0.211341 0.125350
O O3 0.423059 0.710168 0.123188
O O4 0.452578 0.463498 0.000000
O O5 0.066412 0.843996 0.140570
O O6 0.000000 0.500000 0.120479
O O7 0.045375 0.659687 0.000000
O O8 0.000000 0.000000 0.075250
O O9 0.845309 0.500000 0.250000
O O10 0.853107 0.750010 0.375853
O O11 0.789465 0.420268 0.363102
O O12 0.871241 0.242761 0.375936
O O13 0.883173 0.000000 0.750000
O O14 0.649083 0.033592 0.121911
O O15 0.709956 0.699510 0.115795
O O16 0.729953 0.202632 0.130432
O O17 0.701387 0.023038 0.000000
O O18 0.599624 0.016404 0.000000
O O19 0.267041 0.500000 0.750000
#
# Coordination Sequence:
#
# PCOD8203313 Si02
#       7
#     8   8   8   8   8   8   8
#     4   9  15  24  40  64  96 135 177 217 265 331
#     4  10  21  37  55  77 110 147 177 211 262 318
#     4   9  19  35  56  79 107 140 177 227 280 320
#     4  10  19  35  57  81 105 136 180 226 270 319
#     4  11  22  37  56  82 118 152 185 231 290 345
#     4   9  17  28  43  66 101 141 172 214 280 335
#     4  11  22  39  61  84 112 151 195 235 281 341
#
# _framework density 20.581917000000001
#
# number of rings (size 3 to 8) (size 9 to 14) (size 15 to 20)
#    0.000    2.143    0.000    3.857    0.000    6.571 
#    0.000    5.000    0.000    0.000    0.000    0.000 
#    0.000   40.000    0.000    0.000    0.000    0.000 
#
# Total GULP energy -694064.142756 kJ/mol
# GULP energy per Si atom -12394.002549 kJ/mol
# Density = 2.053507 g / cm^3
# Si number density = 20.581917 Si / 1000 Ang^3
#
#
#
# Elastic Constant Matrix: (Units=GPa)
#
#
# Indices 1 2 3 4 5 6 
#
# 1 121.6767 48.6963 15.3895 0.0000 0.0000 0.0000
# 2 48.6963 138.4065 12.6265 0.0000 0.0000 0.0000
# 3 15.3895 12.6265 31.8642 0.0000 0.0000 0.0000
# 4 0.0000 0.0000 0.0000 21.1113 0.0000 0.0000
# 5 0.0000 0.0000 0.0000 0.0000 -10.2712 0.0000
# 6 0.0000 0.0000 0.0000 0.0000 0.0000 46.0147
#
#
#
# Elastic Compliance Matrix: (Units=1/GPa)
#
#
# Indices 1 2 3 4 5 6 
#
# 1 0.009936 -0.003173 -0.003542 0.000000 0.000000 0.000000
# 2 -0.003173 0.008509 -0.001839 0.000000 0.000000 0.000000
# 3 -0.003542 -0.001839 0.033823 0.000000 0.000000 0.000000
# 4 0.000000 0.000000 0.000000 0.047368 0.000000 0.000000
# 5 0.000000 0.000000 0.000000 0.000000 -0.097359 0.000000
# 6 0.000000 0.000000 0.000000 0.000000 0.000000 0.021732
#
#
# Mechanical properties :
#
#
# Convention : Reuss Voigt Hill
#
# Bulk Modulus (GPa) = 28.44127 49.48577 38.96352
# Shear Modulus (GPa) = 94.63079 25.71995 60.17537
#
# Velocity S-wave (km/s) = 6.78804 3.53886 5.41299
# Velocity P-wave (km/s) = 8.67670 6.38698 7.61836
#
# Compressibility (1/GPa) = 0.03516017
#
# Stress axis : x y z
#
# Youngs Moduli (GPa) = 100.64165 117.51963 29.56597
#
# Poissons Ratio (x) = 0.37287 0.10471
# Poissons Ratio (y) = 0.31932 0.05439
# Poissons Ratio (z) = 0.35644 0.21618
#
# Static dielectric constant tensor:
#      x y z
#    x 3.601770 0.000000 0.000000 
#    y 0.000000 4.190250 0.000000 
#    z 0.000000 0.000000 3.280590 
# 
# 
# High freq. dielectric constant tensor:
#      x y z
#    x 1.815520 0.000000 0.000000 
#    y 0.000000 1.829000 0.000000 
#    z 0.000000 0.000000 1.750080 
# 
# From -- ./inp_files/14607.got.cif
#   From: 2010.03.12/outbox.cif.g09.slc.cpg/sg49_8_cif.got.tgz:14607.got - 2010.04.14 03:58:27.
