data_PCOD8203777
_publ_section_title
;
Structure prediction by ZEFSAII (Michael W. Deem and Ramdas Pophale) SiO2 
 PCOD8203777
Probable space group: P C C M
;
_chemical_formula_sum "Si O2"
_cell_formula_units_Z 48
_cell_length_a 30.482291
_cell_length_b 9.450939
_cell_length_c 8.726583
_cell_angle_alpha 90.000000
_cell_angle_beta 90.000000
_cell_angle_gamma 90.000000
_cell_volume 2514.008771
_symmetry_space_group_name_H-M "P C C M"
_symmetry_group_IT_number 49
_symmetry_cell_setting 'orthorhombic'
loop_
_space_group_symop_operation_xyz
x,y,z
-x,-y,z
x,-y,1/2-z
-x,y,1/2-z
-x,-y,-z
x,y,-z
-x,y,1/2+z
x,-y,1/2+z
loop_
_atom_site_type_symbol
_atom_site_label
_atom_site_fract_x
_atom_site_fract_y
_atom_site_fract_z
Si Si1 0.383433 0.850117 0.818719
Si Si2 0.126312 0.845226 0.180492
Si Si3 0.046383 0.650499 0.818467
Si Si4 0.793450 0.654532 0.318684
Si Si5 0.716483 0.852045 0.679337
Si Si6 0.544262 0.654959 0.182052
O O1 0.333272 0.814132 0.774513
O O2 0.412793 0.735575 0.735463
O O3 0.397229 0.000000 0.750000
O O4 0.391332 0.848862 0.000000
O O5 0.081513 0.768272 0.230577
O O6 0.166748 0.751446 0.242067
O O7 0.128186 0.000000 0.250000
O O8 0.129323 0.860861 0.000000
O O9 0.061110 0.500000 0.750000
O O10 0.000000 0.699571 0.750000
O O11 0.042596 0.634611 0.000000
O O12 0.797491 0.500000 0.250000
O O13 0.795137 0.640125 0.500000
O O14 0.748027 0.726481 0.262488
O O15 0.721129 0.871933 0.500000
O O16 0.731881 0.000000 0.750000
O O17 0.548267 0.500000 0.250000
O O18 0.500000 0.727394 0.250000
O O19 0.541452 0.650451 0.000000
#
# Coordination Sequence:
#
# PCOD8203777 Si02
#       6
#     8   8   8   8   8   8
#     4  10  20  36  56  82 112 144 181 223 268 320
#     4  10  22  37  55  79 108 140 179 221 267 318
#     4  10  20  35  55  80 107 140 178 220 266 318
#     4  10  21  37  55  80 109 140 178 221 265 316
#     4   9  19  35  56  80 109 141 177 218 264 316
#     4  11  22  38  58  81 109 144 182 225 273 323
#
# _framework density 19.093012999999999
#
# number of rings (size 3 to 8) (size 9 to 14) (size 15 to 20)
#    0.000    2.000    0.000    4.500    0.000    4.667 
#    0.000    5.000    0.000    0.000    0.000    0.000 
#    0.000    0.000    0.000    0.000    0.000    0.000 
#
# Total GULP energy -595282.106609 kJ/mol
# GULP energy per Si atom -12401.710554 kJ/mol
# Density = 1.904956 g / cm^3
# Si number density = 19.093013 Si / 1000 Ang^3
#
#
#
# Elastic Constant Matrix: (Units=GPa)
#
#
# Indices 1 2 3 4 5 6 
#
# 1 138.8557 97.1134 49.9401 0.0000 0.0000 0.0000
# 2 97.1134 150.9912 47.6395 0.0000 0.0000 0.0000
# 3 49.9401 47.6395 81.8712 0.0000 0.0000 0.0000
# 4 0.0000 0.0000 0.0000 37.1897 0.0000 0.0000
# 5 0.0000 0.0000 0.0000 0.0000 27.9257 0.0000
# 6 0.0000 0.0000 0.0000 0.0000 0.0000 41.1957
#
#
#
# Elastic Compliance Matrix: (Units=1/GPa)
#
#
# Indices 1 2 3 4 5 6 
#
# 1 0.014120 -0.007795 -0.004077 0.000000 0.000000 0.000000
# 2 -0.007795 0.012416 -0.002470 0.000000 0.000000 0.000000
# 3 -0.004077 -0.002470 0.016138 0.000000 0.000000 0.000000
# 4 0.000000 0.000000 0.000000 0.026889 0.000000 0.000000
# 5 0.000000 0.000000 0.000000 0.000000 0.035809 0.000000
# 6 0.000000 0.000000 0.000000 0.000000 0.000000 0.024274
#
#
# Mechanical properties :
#
#
# Convention : Reuss Voigt Hill
#
# Bulk Modulus (GPa) = 71.47810 84.56713 78.02261
# Shear Modulus (GPa) = 30.67605 33.06388 31.86997
#
# Velocity S-wave (km/s) = 4.01267 4.16592 4.09001
# Velocity P-wave (km/s) = 7.68028 8.21755 7.95346
#
# Compressibility (1/GPa) = 0.01399030
#
# Stress axis : x y z
#
# Youngs Moduli (GPa) = 70.82236 80.54307 61.96468
#
# Poissons Ratio (x) = 0.62785 0.25263
# Poissons Ratio (y) = 0.55207 0.15303
# Poissons Ratio (z) = 0.28874 0.19891
#
# Static dielectric constant tensor:
#      x y z
#    x 3.922030 0.000000 0.000000 
#    y 0.000000 3.508270 0.000000 
#    z 0.000000 0.000000 3.496300 
# 
# 
# High freq. dielectric constant tensor:
#      x y z
#    x 1.758770 0.000000 0.000000 
#    y 0.000000 1.741590 0.000000 
#    z 0.000000 0.000000 1.744960 
# 
# From -- ./inp_files/2082.got.cif
#   From: 2010.03.12/outbox.cif.g09.slc.cpg/sg49_2_cif.got.tgz:2082.got - 2010.04.14 03:58:27.
