data_PCOD8203977
_publ_section_title
;
Structure prediction by ZEFSAII (Michael W. Deem and Ramdas Pophale) SiO2 
 PCOD8203977
Probable space group: P C C M
;
_chemical_formula_sum "Si O2"
_cell_formula_units_Z 48
_cell_length_a 9.674375
_cell_length_b 30.666362
_cell_length_c 8.603836
_cell_angle_alpha 90.000000
_cell_angle_beta 90.000000
_cell_angle_gamma 90.000000
_cell_volume 2552.567875
_symmetry_space_group_name_H-M "P C C M"
_symmetry_group_IT_number 49
_symmetry_cell_setting 'orthorhombic'
loop_
_space_group_symop_operation_xyz
x,y,z
-x,-y,z
x,-y,1/2-z
-x,y,1/2-z
-x,-y,-z
x,y,-z
-x,y,1/2+z
x,-y,1/2+z
loop_
_atom_site_type_symbol
_atom_site_label
_atom_site_fract_x
_atom_site_fract_y
_atom_site_fract_z
Si Si1 0.353564 0.547713 0.315020
Si Si2 0.152305 0.957534 0.681594
Si Si3 0.645279 0.790194 0.817283
Si Si4 0.849231 0.137547 0.316941
Si Si5 0.846115 0.619467 0.684601
Si Si6 0.350802 0.309139 0.184218
O O1 0.322095 0.500000 0.250000
O O2 0.500000 0.565308 0.250000
O O3 0.360569 0.546625 0.500000
O O4 0.230559 0.578351 0.259224
O O5 0.144424 0.963788 0.500000
O O6 0.217102 0.910151 0.725328
O O7 0.000000 0.957572 0.750000
O O8 0.234387 0.000000 0.750000
O O9 0.500000 0.804676 0.750000
O O10 0.756247 0.823792 0.745994
O O11 0.682385 0.740764 0.770242
O O12 0.637256 0.794776 0.000000
O O13 0.860974 0.142421 0.500000
O O14 0.000000 0.143355 0.250000
O O15 0.849103 0.614836 0.500000
O O16 0.767851 0.663333 0.733343
O O17 0.000000 0.621375 0.750000
O O18 0.500000 0.323177 0.250000
O O19 0.349114 0.317353 0.000000
#
# Coordination Sequence:
#
# PCOD8203977 Si02
#       6
#     8   8   8   8   8   8
#     4  11  22  40  64  91 119 152 192 232 272 318
#     4   9  15  24  40  62  91 123 159 201 248 298
#     4   9  19  35  54  76 103 134 172 213 258 309
#     4   9  18  31  47  71 100 130 164 208 256 307
#     4  12  25  41  59  84 116 150 185 226 275 325
#     4  10  20  37  59  82 107 140 180 223 266 317
#
# _framework density 18.804593000000001
#
# number of rings (size 3 to 8) (size 9 to 14) (size 15 to 20)
#    0.000    2.000    0.000    5.500    0.000    3.000 
#    0.000    3.333    0.000    0.500    0.000    3.500 
#    0.000    0.000    0.000    0.000    0.000    0.000 
#
# Total GULP energy -595005.104384 kJ/mol
# GULP energy per Si atom -12395.939675 kJ/mol
# Density = 1.876179 g / cm^3
# Si number density = 18.804593 Si / 1000 Ang^3
#
#
#
# Elastic Constant Matrix: (Units=GPa)
#
#
# Indices 1 2 3 4 5 6 
#
# 1 126.2808 88.8176 47.6362 0.0000 0.0000 0.0000
# 2 88.8176 147.9468 51.9201 0.0000 0.0000 0.0000
# 3 47.6362 51.9201 102.7715 0.0000 0.0000 0.0000
# 4 0.0000 0.0000 0.0000 34.2319 0.0000 0.0000
# 5 0.0000 0.0000 0.0000 0.0000 28.2480 0.0000
# 6 0.0000 0.0000 0.0000 0.0000 0.0000 24.3494
#
#
#
# Elastic Compliance Matrix: (Units=1/GPa)
#
#
# Indices 1 2 3 4 5 6 
#
# 1 0.014336 -0.007627 -0.002792 0.000000 0.000000 0.000000
# 2 -0.007627 0.012273 -0.002665 0.000000 0.000000 0.000000
# 3 -0.002792 -0.002665 0.012371 0.000000 0.000000 0.000000
# 4 0.000000 0.000000 0.000000 0.029213 0.000000 0.000000
# 5 0.000000 0.000000 0.000000 0.000000 0.035401 0.000000
# 6 0.000000 0.000000 0.000000 0.000000 0.000000 0.041069
#
#
# Mechanical properties :
#
#
# Convention : Reuss Voigt Hill
#
# Bulk Modulus (GPa) = 78.05033 83.74967 80.90000
# Shear Modulus (GPa) = 28.55494 29.94087 29.24790
#
# Velocity S-wave (km/s) = 3.90103 3.99458 3.94808
# Velocity P-wave (km/s) = 7.86682 8.11844 7.99362
#
# Compressibility (1/GPa) = 0.01281225
#
# Stress axis : x y z
#
# Youngs Moduli (GPa) = 69.75353 81.47910 80.83438
#
# Poissons Ratio (x) = 0.62141 0.22569
# Poissons Ratio (y) = 0.53199 0.21545
# Poissons Ratio (z) = 0.19476 0.21716
#
# Static dielectric constant tensor:
#      x y z
#    x 3.320740 0.000000 0.000000 
#    y 0.000000 4.201280 0.000000 
#    z 0.000000 0.000000 3.536380 
# 
# 
# High freq. dielectric constant tensor:
#      x y z
#    x 1.702010 0.000000 0.000000 
#    y 0.000000 1.754440 0.000000 
#    z 0.000000 0.000000 1.741210 
# 
# From -- ./inp_files/2057.got.cif
#   From: 2010.03.12/outbox.cif.g09.slc.cpg/sg49_2_cif.got.tgz:2057.got - 2010.04.14 03:58:27.
