data_PCOD8203470
_publ_section_title
;
Structure prediction by ZEFSAII (Michael W. Deem and Ramdas Pophale) SiO2 
 PCOD8203470
Probable space group: P C C M
;
_chemical_formula_sum "Si O2"
_cell_formula_units_Z 48
_cell_length_a 16.306932
_cell_length_b 18.330726
_cell_length_c 8.813969
_cell_angle_alpha 90.000000
_cell_angle_beta 90.000000
_cell_angle_gamma 90.000000
_cell_volume 2634.653125
_symmetry_space_group_name_H-M "P C C M"
_symmetry_group_IT_number 49
_symmetry_cell_setting 'orthorhombic'
loop_
_space_group_symop_operation_xyz
x,y,z
-x,-y,z
x,-y,1/2-z
-x,y,1/2-z
-x,-y,-z
x,y,-z
-x,y,1/2+z
x,-y,1/2+z
loop_
_atom_site_type_symbol
_atom_site_label
_atom_site_fract_x
_atom_site_fract_y
_atom_site_fract_z
Si Si1 0.085545 0.335698 0.819284
Si Si2 0.416147 0.835808 0.676525
Si Si3 0.765557 0.577615 0.680365
Si Si4 0.165846 0.204257 0.670256
Si Si5 0.664703 0.710796 0.667005
Si Si6 0.254894 0.078974 0.179895
O O1 0.153416 0.391736 0.759866
O O2 0.101321 0.252905 0.763355
O O3 0.000000 0.362942 0.750000
O O4 0.083324 0.337518 0.000000
O O5 0.500000 0.864217 0.750000
O O6 0.427929 0.840487 0.500000
O O7 0.397696 0.751472 0.720370
O O8 0.342376 0.887764 0.732070
O O9 0.743634 0.500000 0.750000
O O10 0.780505 0.574229 0.500000
O O11 0.686433 0.628510 0.718779
O O12 0.132358 0.189811 0.500000
O O13 0.249925 0.247492 0.662468
O O14 0.180465 0.127897 0.756188
O O15 0.624102 0.711403 0.500000
O O16 0.245683 0.000000 0.250000
O O17 0.248140 0.075731 0.000000
#
# Coordination Sequence:
#
# PCOD8203470 Si02
#       6
#     8   8   8   8   8   8
#     4  11  21  34  52  75 103 134 168 206 247 295
#     4  10  20  32  49  72  99 130 166 204 248 296
#     4  10  20  34  52  76 103 133 166 204 249 297
#     4   9  17  32  52  73  97 128 166 207 246 291
#     4   8  16  31  50  70  95 126 163 202 242 289
#     4  10  20  33  50  74 101 133 168 205 248 296
#
# _framework density 18.218717999999999
#
# number of rings (size 3 to 8) (size 9 to 14) (size 15 to 20)
#    0.000    2.333    0.000    4.500    0.000    7.333 
#    0.000    3.333    0.000    1.000    0.000    7.000 
#    0.000    0.000    0.000    0.000    0.000    0.000 
#
# Total GULP energy -595107.689125 kJ/mol
# GULP energy per Si atom -12398.076857 kJ/mol
# Density = 1.817725 g / cm^3
# Si number density = 18.218718 Si / 1000 Ang^3
#
#
#
# Elastic Constant Matrix: (Units=GPa)
#
#
# Indices 1 2 3 4 5 6 
#
# 1 5.2791 0.8132 -0.0979 0.0000 0.0000 0.0000
# 2 0.8132 115.9114 28.3999 0.0000 0.0000 0.0000
# 3 -0.0979 28.3999 91.0203 0.0000 0.0000 0.0000
# 4 0.0000 0.0000 0.0000 33.1471 0.0000 0.0000
# 5 0.0000 0.0000 0.0000 0.0000 27.9983 0.0000
# 6 0.0000 0.0000 0.0000 0.0000 0.0000 13.1582
#
#
#
# Elastic Compliance Matrix: (Units=1/GPa)
#
#
# Indices 1 2 3 4 5 6 
#
# 1 0.189668 -0.001495 0.000671 0.000000 0.000000 0.000000
# 2 -0.001495 0.009353 -0.002920 0.000000 0.000000 0.000000
# 3 0.000671 -0.002920 0.011898 0.000000 0.000000 0.000000
# 4 0.000000 0.000000 0.000000 0.030169 0.000000 0.000000
# 5 0.000000 0.000000 0.000000 0.000000 0.035716 0.000000
# 6 0.000000 0.000000 0.000000 0.000000 0.000000 0.075998
#
#
# Mechanical properties :
#
#
# Convention : Reuss Voigt Hill
#
# Bulk Modulus (GPa) = 4.91567 30.04903 17.48235
# Shear Modulus (GPa) = 11.67945 27.06709 19.37327
#
# Velocity S-wave (km/s) = 2.53468 3.85863 3.26448
# Velocity P-wave (km/s) = 3.35710 6.03169 4.88116
#
# Compressibility (1/GPa) = 0.20343101
#
# Stress axis : x y z
#
# Youngs Moduli (GPa) = 5.27236 106.91534 84.04521
#
# Poissons Ratio (x) = 0.15983 -0.05635
# Poissons Ratio (y) = 0.00788 0.24541
# Poissons Ratio (z) = -0.00354 0.31219
#
# Static dielectric constant tensor:
#      x y z
#    x 3.246820 0.000000 0.000000 
#    y 0.000000 3.532750 0.000000 
#    z 0.000000 0.000000 3.511950 
# 
# 
# High freq. dielectric constant tensor:
#      x y z
#    x 1.676580 0.000000 0.000000 
#    y 0.000000 1.700020 0.000000 
#    z 0.000000 0.000000 1.720980 
# 
# From -- ./inp_files/3704.got.cif
#   From: 2010.03.12/outbox.cif.g09.slc.cpg/sg49_2_cif.got.tgz:3704.got - 2010.04.14 03:58:27.
