data_PCOD8203109
_publ_section_title
;
Structure prediction by ZEFSAII (Michael W. Deem and Ramdas Pophale) SiO2 
 PCOD8203109
Probable space group: P C C M
;
_chemical_formula_sum "Si O2"
_cell_formula_units_Z 48
_cell_length_a 19.462935
_cell_length_b 15.424570
_cell_length_c 8.799649
_cell_angle_alpha 90.000000
_cell_angle_beta 90.000000
_cell_angle_gamma 90.000000
_cell_volume 2641.719776
_symmetry_space_group_name_H-M "P C C M"
_symmetry_group_IT_number 49
_symmetry_cell_setting 'orthorhombic'
loop_
_space_group_symop_operation_xyz
x,y,z
-x,-y,z
x,-y,1/2-z
-x,y,1/2-z
-x,-y,-z
x,y,-z
-x,y,1/2+z
x,-y,1/2+z
loop_
_atom_site_type_symbol
_atom_site_label
_atom_site_fract_x
_atom_site_fract_y
_atom_site_fract_z
Si Si1 0.171073 0.085052 0.830727
Si Si2 0.332975 0.264298 0.321087
Si Si3 0.927653 0.591419 0.319483
Si Si4 0.825287 0.740994 0.677016
Si Si5 0.426831 0.408524 0.180858
Si Si6 0.334637 0.086767 0.172230
O O1 0.144410 0.172589 0.752875
O O2 0.252941 0.082284 0.825728
O O3 0.140442 0.000000 0.750000
O O4 0.142325 0.084535 0.000000
O O5 0.346405 0.275144 0.500000
O O6 0.253333 0.276346 0.277143
O O7 0.372120 0.336620 0.226226
O O8 0.359645 0.169897 0.268240
O O9 0.904613 0.500000 0.250000
O O10 0.934373 0.583201 0.500000
O O11 0.870110 0.659772 0.268851
O O12 0.000000 0.621625 0.250000
O O13 0.831564 0.756904 0.500000
O O14 0.402376 0.500000 0.250000
O O15 0.500000 0.381557 0.250000
O O16 0.432481 0.416199 0.000000
O O17 0.365076 0.000000 0.250000
O O18 0.362372 0.093527 0.000000
#
# Coordination Sequence:
#
# PCOD8203109 Si02
#       6
#     8   8   8   8   8   8
#     4   9  16  26  44  69  99 132 166 202 245 294
#     4  10  19  33  52  77 106 135 167 209 254 297
#     4  10  20  35  53  73  97 130 168 207 249 300
#     4   9  19  33  50  74 104 133 166 207 252 296
#     4  11  22  38  57  77 101 133 171 209 250 302
#     4   9  16  27  44  70 101 135 170 206 247 295
#
# _framework density 18.169982999999998
#
# number of rings (size 3 to 8) (size 9 to 14) (size 15 to 20)
#    0.000    2.333    0.000    4.500    0.000    6.667 
#    0.000    1.667    0.000    1.000    0.000    7.000 
#    0.000    0.000    0.000    0.000    0.000    0.000 
#
# Total GULP energy -595223.641448 kJ/mol
# GULP energy per Si atom -12400.492530 kJ/mol
# Density = 1.812863 g / cm^3
# Si number density = 18.169983 Si / 1000 Ang^3
#
#
#
# Elastic Constant Matrix: (Units=GPa)
#
#
# Indices 1 2 3 4 5 6 
#
# 1 53.7065 68.4544 41.1437 0.0000 0.0000 0.0000
# 2 68.4544 166.3324 74.4829 0.0000 0.0000 0.0000
# 3 41.1437 74.4829 117.3442 0.0000 0.0000 0.0000
# 4 0.0000 0.0000 0.0000 39.1625 0.0000 0.0000
# 5 0.0000 0.0000 0.0000 0.0000 14.3697 0.0000
# 6 0.0000 0.0000 0.0000 0.0000 0.0000 -1.3259
#
#
#
# Elastic Compliance Matrix: (Units=1/GPa)
#
#
# Indices 1 2 3 4 5 6 
#
# 1 0.041282 -0.014681 -0.005156 0.000000 0.000000 0.000000
# 2 -0.014681 0.013620 -0.003498 0.000000 0.000000 0.000000
# 3 -0.005156 -0.003498 0.012550 0.000000 0.000000 0.000000
# 4 0.000000 0.000000 0.000000 0.025535 0.000000 0.000000
# 5 0.000000 0.000000 0.000000 0.000000 0.069591 0.000000
# 6 0.000000 0.000000 0.000000 0.000000 0.000000 -0.754206
#
#
# Mechanical properties :
#
#
# Convention : Reuss Voigt Hill
#
# Bulk Modulus (GPa) = 48.11660 78.39391 63.25526
# Shear Modulus (GPa) = -9.29314 20.66138 5.68412
#
# Velocity S-wave (km/s) = -2.26399 3.37577 1.77062
# Velocity P-wave (km/s) = 4.43899 7.64414 6.25050
#
# Compressibility (1/GPa) = 0.02078285
#
# Stress axis : x y z
#
# Youngs Moduli (GPa) = 24.22374 73.41968 79.68143
#
# Poissons Ratio (x) = 1.07786 0.41083
# Poissons Ratio (y) = 0.35562 0.27872
# Poissons Ratio (z) = 0.12490 0.25681
#
# Static dielectric constant tensor:
#      x y z
#    x 3.031600 0.000000 0.000000 
#    y 0.000000 3.561610 0.000000 
#    z 0.000000 0.000000 3.494280 
# 
# 
# High freq. dielectric constant tensor:
#      x y z
#    x 1.657920 0.000000 0.000000 
#    y 0.000000 1.719630 0.000000 
#    z 0.000000 0.000000 1.720650 
# 
# From -- ./inp_files/3727.got.cif
#   From: 2010.03.12/outbox.cif.g09.slc.cpg/sg49_2_cif.got.tgz:3727.got - 2010.04.14 03:58:27.
