data_PCOD8203154
_publ_section_title
;
Structure prediction by ZEFSAII (Michael W. Deem and Ramdas Pophale) SiO2 
 PCOD8203154
Probable space group: P C C M
;
_chemical_formula_sum "Si O2"
_cell_formula_units_Z 64
_cell_length_a 16.088363
_cell_length_b 22.502382
_cell_length_c 8.641628
_cell_angle_alpha 90.000000
_cell_angle_beta 90.000000
_cell_angle_gamma 90.000000
_cell_volume 3128.498253
_symmetry_space_group_name_H-M "P C C M"
_symmetry_group_IT_number 49
_symmetry_cell_setting 'orthorhombic'
loop_
_space_group_symop_operation_xyz
x,y,z
-x,-y,z
x,-y,1/2-z
-x,y,1/2-z
-x,-y,-z
x,y,-z
-x,y,1/2+z
x,-y,1/2+z
loop_
_atom_site_type_symbol
_atom_site_label
_atom_site_fract_x
_atom_site_fract_y
_atom_site_fract_z
Si Si1 0.255795 0.061802 0.682531
Si Si2 0.411188 0.593289 0.684511
Si Si3 0.288383 0.179210 0.180908
Si Si4 0.912644 0.354526 0.685266
Si Si5 0.232256 0.438078 0.685112
Si Si6 0.920502 0.100648 0.171542
Si Si7 0.416878 0.727711 0.317762
Si Si8 0.126151 0.229228 0.675763
O O1 0.257692 0.059031 0.500000
O O2 0.312335 0.116812 0.738023
O O3 0.164149 0.077243 0.751964
O O4 0.289370 0.000000 0.750000
O O5 0.500000 0.567353 0.750000
O O6 0.410184 0.584750 0.500000
O O7 0.328176 0.564441 0.756402
O O8 0.403470 0.660959 0.741389
O O9 0.346898 0.230027 0.249848
O O10 0.199463 0.204715 0.219909
O O11 0.299398 0.170060 0.000000
O O12 0.912004 0.358025 0.500000
O O13 0.829810 0.387152 0.749770
O O14 0.912891 0.286112 0.740236
O O15 0.000000 0.382370 0.750000
O O16 0.195735 0.500000 0.750000
O O17 0.230768 0.436157 0.500000
O O18 0.934364 0.172225 0.170961
O O19 0.000000 0.070619 0.250000
O O20 0.916551 0.075566 0.000000
O O21 0.500000 0.755094 0.250000
O O22 0.418866 0.727907 0.500000
O O23 0.152899 0.246308 0.500000
#
# Coordination Sequence:
#
# PCOD8203154 Si02
#       8
#     8   8   8   8   8   8   8   8
#     4  10  21  36  51  71  98 135 182 229 274 328
#     4  10  20  38  63  95 130 163 197 238 288 350
#     4  10  19  33  54  81 111 146 183 227 280 336
#     4  12  25  42  63  89 119 156 200 249 301 356
#     4  12  26  45  66  90 119 157 202 250 299 352
#     4   9  19  32  48  72 103 135 172 215 266 323
#     4   9  19  33  54  84 117 147 178 215 266 328
#     4  10  20  35  55  83 114 147 186 230 281 339
#
# _framework density 20.457100000000001
#
# number of rings (size 3 to 8) (size 9 to 14) (size 15 to 20)
#    0.000    1.750    0.000    5.625    0.000    7.250 
#    0.000    3.750    0.000    0.375    0.000    2.625 
#    0.000    0.000    0.000    0.000    0.000    0.000 
#
# Total GULP energy -793069.735736 kJ/mol
# GULP energy per Si atom -12391.714621 kJ/mol
# Density = 2.041054 g / cm^3
# Si number density = 20.457100 Si / 1000 Ang^3
#
#
#
# Elastic Constant Matrix: (Units=GPa)
#
#
# Indices 1 2 3 4 5 6 
#
# 1 63.9955 19.1936 23.1854 0.0000 0.0000 0.0000
# 2 19.1936 80.9657 31.4300 0.0000 0.0000 0.0000
# 3 23.1854 31.4300 94.5572 0.0000 0.0000 0.0000
# 4 0.0000 0.0000 0.0000 31.8610 0.0000 0.0000
# 5 0.0000 0.0000 0.0000 0.0000 32.3598 0.0000
# 6 0.0000 0.0000 0.0000 0.0000 0.0000 11.5253
#
#
#
# Elastic Compliance Matrix: (Units=1/GPa)
#
#
# Indices 1 2 3 4 5 6 
#
# 1 0.017718 -0.002886 -0.003385 0.000000 0.000000 0.000000
# 2 -0.002886 0.014651 -0.004162 0.000000 0.000000 0.000000
# 3 -0.003385 -0.004162 0.012789 0.000000 0.000000 0.000000
# 4 0.000000 0.000000 0.000000 0.031386 0.000000 0.000000
# 5 0.000000 0.000000 0.000000 0.000000 0.030903 0.000000
# 6 0.000000 0.000000 0.000000 0.000000 0.000000 0.086765
#
#
# Mechanical properties :
#
#
# Convention : Reuss Voigt Hill
#
# Bulk Modulus (GPa) = 41.16721 43.01517 42.09119
# Shear Modulus (GPa) = 22.40382 26.19651 24.30017
#
# Velocity S-wave (km/s) = 3.31291 3.58237 3.45027
# Velocity P-wave (km/s) = 5.89926 6.17931 6.04090
#
# Compressibility (1/GPa) = 0.02429118
#
# Stress axis : x y z
#
# Youngs Moduli (GPa) = 56.43931 68.25569 78.19158
#
# Poissons Ratio (x) = 0.19700 0.26469
# Poissons Ratio (y) = 0.16289 0.32544
# Poissons Ratio (z) = 0.19106 0.28409
#
# Static dielectric constant tensor:
#      x y z
#    x 3.794400 0.000000 0.000000 
#    y 0.000000 3.941630 0.000000 
#    z 0.000000 0.000000 3.678620 
# 
# 
# High freq. dielectric constant tensor:
#      x y z
#    x 1.785910 0.000000 0.000000 
#    y 0.000000 1.801360 0.000000 
#    z 0.000000 0.000000 1.806100 
# 
# From -- ./inp_files/4420.got.cif
#   From: 2010.03.12/outbox.cif.g09.slc.cpg/sg49_3_cif.got.tgz:4420.got - 2010.04.14 03:58:27.
