data_PCOD8203325
_publ_section_title
;
Structure prediction by ZEFSAII (Michael W. Deem and Ramdas Pophale) SiO2 
 PCOD8203325
Probable space group: P C C M
;
_chemical_formula_sum "Si O2"
_cell_formula_units_Z 64
_cell_length_a 14.845974
_cell_length_b 12.449988
_cell_length_c 16.661565
_cell_angle_alpha 90.000000
_cell_angle_beta 90.000000
_cell_angle_gamma 90.000000
_cell_volume 3079.593684
_symmetry_space_group_name_H-M "P C C M"
_symmetry_group_IT_number 49
_symmetry_cell_setting 'orthorhombic'
loop_
_space_group_symop_operation_xyz
x,y,z
-x,-y,z
x,-y,1/2-z
-x,y,1/2-z
-x,-y,-z
x,y,-z
-x,y,1/2+z
x,-y,1/2+z
loop_
_atom_site_type_symbol
_atom_site_label
_atom_site_fract_x
_atom_site_fract_y
_atom_site_fract_z
Si Si1 0.988536 0.118590 0.657470
Si Si2 0.285075 0.114414 0.409139
Si Si3 0.354088 0.737098 0.591826
Si Si4 0.150937 0.280491 0.357708
Si Si5 0.900498 0.508009 0.909017
Si Si6 0.232145 0.611518 0.706281
Si Si7 0.195493 0.904743 0.410048
Si Si8 0.517835 0.119207 0.095304
O O1 0.885989 0.152587 0.637721
O O2 0.000000 0.101204 0.750000
O O3 0.059152 0.211137 0.632705
O O4 0.000000 0.000000 0.615613
O O5 0.303605 0.076091 0.500000
O O6 0.227854 0.221193 0.406438
O O7 0.382045 0.144488 0.371161
O O8 0.229567 0.016241 0.367658
O O9 0.365133 0.689938 0.500000
O O10 0.321560 0.649642 0.657868
O O11 0.279819 0.827989 0.589937
O O12 0.446539 0.790887 0.625369
O O13 0.141926 0.390820 0.404690
O O14 0.188391 0.301491 0.267428
O O15 0.846002 0.594313 0.858566
O O16 0.000000 0.500000 0.871502
O O17 0.902853 0.550094 0.000000
O O18 0.257674 0.500000 0.750000
O O19 0.160850 0.927505 0.500000
O O20 0.500000 0.000000 0.128815
O O21 0.510026 0.120956 0.000000
#
# Coordination Sequence:
#
# PCOD8203325 Si02
#       8
#     8   8   8   8   8   8   8   8
#     4  11  23  36  50  78 120 165 199 227 273 350
#     4  10  19  35  57  87 124 157 191 236 288 354
#     4  10  19  35  62  91 117 153 198 246 299 352
#     4  11  23  38  59  82 117 163 201 233 294 355
#     4  10  23  41  62  86 110 144 200 261 304 343
#     4  10  23  41  60  82 116 158 205 255 303 340
#     4  10  20  33  54  85 120 156 194 242 290 340
#     4   9  16  31  59  92 124 154 190 235 292 355
#
# _framework density 20.781962
#
# number of rings (size 3 to 8) (size 9 to 14) (size 15 to 20)
#    0.000    1.875    2.500    1.500    3.500    3.000 
#    0.000    0.625    0.000    6.000    0.000   11.375 
#    0.000    0.000    0.000    0.000    0.000    0.000 
#
# Total GULP energy -793108.473200 kJ/mol
# GULP energy per Si atom -12392.319894 kJ/mol
# Density = 2.073466 g / cm^3
# Si number density = 20.781962 Si / 1000 Ang^3
#
#
#
# Elastic Constant Matrix: (Units=GPa)
#
#
# Indices 1 2 3 4 5 6 
#
# 1 163.3877 40.7730 33.9825 0.0000 0.0000 0.0000
# 2 40.7730 70.0863 17.7391 0.0000 0.0000 0.0000
# 3 33.9825 17.7391 58.9525 0.0000 0.0000 0.0000
# 4 0.0000 0.0000 0.0000 12.4040 0.0000 0.0000
# 5 0.0000 0.0000 0.0000 0.0000 13.0039 0.0000
# 6 0.0000 0.0000 0.0000 0.0000 0.0000 42.7119
#
#
#
# Elastic Compliance Matrix: (Units=1/GPa)
#
#
# Indices 1 2 3 4 5 6 
#
# 1 0.007729 -0.003646 -0.003358 0.000000 0.000000 0.000000
# 2 -0.003646 0.017165 -0.003063 0.000000 0.000000 0.000000
# 3 -0.003358 -0.003063 0.019820 0.000000 0.000000 0.000000
# 4 0.000000 0.000000 0.000000 0.080619 0.000000 0.000000
# 5 0.000000 0.000000 0.000000 0.000000 0.076900 0.000000
# 6 0.000000 0.000000 0.000000 0.000000 0.000000 0.023413
#
#
# Mechanical properties :
#
#
# Convention : Reuss Voigt Hill
#
# Bulk Modulus (GPa) = 40.68530 53.04619 46.86574
# Shear Modulus (GPa) = 19.68713 26.95276 23.31994
#
# Velocity S-wave (km/s) = 3.08119 3.60520 3.35345
# Velocity P-wave (km/s) = 5.68138 6.55061 6.13142
#
# Compressibility (1/GPa) = 0.02457890
#
# Stress axis : x y z
#
# Youngs Moduli (GPa) = 129.38697 58.25926 50.45371
#
# Poissons Ratio (x) = 0.21243 0.16942
# Poissons Ratio (y) = 0.47179 0.15454
# Poissons Ratio (z) = 0.43448 0.17845
#
# Static dielectric constant tensor:
#      x y z
#    x 4.202580 0.000000 0.000000 
#    y 0.000000 3.758670 0.000000 
#    z 0.000000 0.000000 3.603380 
# 
# 
# High freq. dielectric constant tensor:
#      x y z
#    x 1.816530 0.000000 0.000000 
#    y 0.000000 1.807570 0.000000 
#    z 0.000000 0.000000 1.790990 
# 
# From -- ./inp_files/17926.got.cif
#   From: 2010.03.12/outbox.cif.g09.slc.cpg/sg49_9_cif.got.tgz:17926.got - 2010.04.14 03:58:27.
