data_PCOD8203316
_publ_section_title
;
Structure prediction by ZEFSAII (Michael W. Deem and Ramdas Pophale) SiO2 
 PCOD8203316
Probable space group: P C C M
;
_chemical_formula_sum "Si O2"
_cell_formula_units_Z 48
_cell_length_a 20.473474
_cell_length_b 14.408482
_cell_length_c 8.659110
_cell_angle_alpha 90.000000
_cell_angle_beta 90.000000
_cell_angle_gamma 90.000000
_cell_volume 2554.365420
_symmetry_space_group_name_H-M "P C C M"
_symmetry_group_IT_number 49
_symmetry_cell_setting 'orthorhombic'
loop_
_space_group_symop_operation_xyz
x,y,z
-x,-y,z
x,-y,1/2-z
-x,y,1/2-z
-x,-y,-z
x,y,-z
-x,y,1/2+z
x,-y,1/2+z
loop_
_atom_site_type_symbol
_atom_site_label
_atom_site_fract_x
_atom_site_fract_y
_atom_site_fract_z
Si Si1 0.307931 0.101658 0.316754
Si Si2 0.386000 0.595819 0.682924
Si Si3 0.814305 0.209545 0.682838
Si Si4 0.433816 0.218461 0.681819
Si Si5 0.237674 0.594344 0.318817
Si Si6 0.070258 0.098344 0.317088
O O1 0.298104 0.099348 0.500000
O O2 0.246076 0.148934 0.238789
O O3 0.372405 0.157128 0.265979
O O4 0.315763 0.000000 0.250000
O O5 0.414638 0.500000 0.750000
O O6 0.391042 0.596045 0.500000
O O7 0.428462 0.678678 0.750324
O O8 0.311473 0.608259 0.742081
O O9 0.821575 0.197970 0.500000
O O10 0.804429 0.316687 0.732033
O O11 0.879769 0.177697 0.767375
O O12 0.500000 0.173010 0.750000
O O13 0.439076 0.223666 0.500000
O O14 0.206635 0.500000 0.250000
O O15 0.238217 0.583424 0.500000
O O16 0.065945 0.090701 0.500000
O O17 0.000000 0.125336 0.250000
O O18 0.094573 0.000000 0.250000
#
# Coordination Sequence:
#
# PCOD8203316 Si02
#       6
#     8   8   8   8   8   8
#     4  11  24  40  59  83 110 144 187 236 285 337
#     4  10  19  35  57  83 112 145 182 229 283 339
#     4  11  21  37  60  88 119 153 190 232 281 333
#     4  11  24  40  58  80 108 145 187 234 287 344
#     4   9  19  33  55  84 115 149 184 228 279 332
#     4  11  22  38  59  87 121 159 195 236 282 334
#
# _framework density 18.791360000000001
#
# number of rings (size 3 to 8) (size 9 to 14) (size 15 to 20)
#    0.000    1.500    1.667    4.500    0.000    4.667 
#    0.000    3.333    0.000    0.500    0.000    3.500 
#    0.000    0.000    0.000    0.000    0.000    0.000 
#
# Total GULP energy -595397.231476 kJ/mol
# GULP energy per Si atom -12404.108989 kJ/mol
# Density = 1.874859 g / cm^3
# Si number density = 18.791360 Si / 1000 Ang^3
#
#
#
# Elastic Constant Matrix: (Units=GPa)
#
#
# Indices 1 2 3 4 5 6 
#
# 1 103.0146 54.0750 36.9404 0.0000 0.0000 0.0000
# 2 54.0750 120.9199 35.5391 0.0000 0.0000 0.0000
# 3 36.9404 35.5391 85.7976 0.0000 0.0000 0.0000
# 4 0.0000 0.0000 0.0000 32.3808 0.0000 0.0000
# 5 0.0000 0.0000 0.0000 0.0000 31.6917 0.0000
# 6 0.0000 0.0000 0.0000 0.0000 0.0000 26.8562
#
#
#
# Elastic Compliance Matrix: (Units=1/GPa)
#
#
# Indices 1 2 3 4 5 6 
#
# 1 0.013707 -0.005005 -0.003829 0.000000 0.000000 0.000000
# 2 -0.005005 0.011243 -0.002503 0.000000 0.000000 0.000000
# 3 -0.003829 -0.002503 0.014340 0.000000 0.000000 0.000000
# 4 0.000000 0.000000 0.000000 0.030883 0.000000 0.000000
# 5 0.000000 0.000000 0.000000 0.000000 0.031554 0.000000
# 6 0.000000 0.000000 0.000000 0.000000 0.000000 0.037235
#
#
# Mechanical properties :
#
#
# Convention : Reuss Voigt Hill
#
# Bulk Modulus (GPa) = 60.17022 62.53790 61.35406
# Shear Modulus (GPa) = 29.90883 30.39758 30.15320
#
# Velocity S-wave (km/s) = 3.99385 4.02635 4.01013
# Velocity P-wave (km/s) = 7.30462 7.41402 7.35952
#
# Compressibility (1/GPa) = 0.01661952
#
# Stress axis : x y z
#
# Youngs Moduli (GPa) = 72.95348 88.94033 69.73298
#
# Poissons Ratio (x) = 0.44511 0.26699
# Poissons Ratio (y) = 0.36510 0.17451
# Poissons Ratio (z) = 0.27932 0.22258
#
# Static dielectric constant tensor:
#      x y z
#    x 3.464000 0.000000 0.000000 
#    y 0.000000 3.533800 0.000000 
#    z 0.000000 0.000000 3.572840 
# 
# 
# High freq. dielectric constant tensor:
#      x y z
#    x 1.719910 0.000000 0.000000 
#    y 0.000000 1.733660 0.000000 
#    z 0.000000 0.000000 1.743350 
# 
# From -- ./inp_files/3718.got.cif
#   From: 2010.03.12/outbox.cif.g09.slc.cpg/sg49_2_cif.got.tgz:3718.got - 2010.04.14 03:58:27.
