data_PCOD8203118
_publ_section_title
;
Structure prediction by ZEFSAII (Michael W. Deem and Ramdas Pophale) SiO2 
 PCOD8203118
Probable space group: P C C M
;
_chemical_formula_sum "Si O2"
_cell_formula_units_Z 64
_cell_length_a 24.860816
_cell_length_b 14.875667
_cell_length_c 8.700618
_cell_angle_alpha 90.000000
_cell_angle_beta 90.000000
_cell_angle_gamma 90.000000
_cell_volume 3217.673165
_symmetry_space_group_name_H-M "P C C M"
_symmetry_group_IT_number 49
_symmetry_cell_setting 'orthorhombic'
loop_
_space_group_symop_operation_xyz
x,y,z
-x,-y,z
x,-y,1/2-z
-x,y,1/2-z
-x,-y,-z
x,y,-z
-x,y,1/2+z
x,-y,1/2+z
loop_
_atom_site_type_symbol
_atom_site_label
_atom_site_fract_x
_atom_site_fract_y
_atom_site_fract_z
Si Si1 0.814089 0.905809 0.818607
Si Si2 0.444301 0.282883 0.818708
Si Si3 0.591780 0.087412 0.318997
Si Si4 0.336397 0.337436 0.675678
Si Si5 0.942863 0.405144 0.818860
Si Si6 0.299092 0.864760 0.175908
Si Si7 0.764559 0.408425 0.680908
Si Si8 0.152775 0.274229 0.681209
O O1 0.752035 0.891155 0.776258
O O2 0.850709 0.825930 0.749365
O O3 0.835136 0.000000 0.750000
O O4 0.820963 0.906878 0.000000
O O5 0.500000 0.319787 0.750000
O O6 0.438803 0.178220 0.770281
O O7 0.395934 0.340471 0.747159
O O8 0.443486 0.295551 0.000000
O O9 0.597071 0.080541 0.500000
O O10 0.650356 0.082870 0.242911
O O11 0.560563 0.000000 0.250000
O O12 0.339568 0.369847 0.500000
O O13 0.310259 0.240147 0.690257
O O14 0.298117 0.403840 0.771274
O O15 0.923112 0.500000 0.750000
O O16 0.900972 0.327744 0.773142
O O17 0.000000 0.376241 0.750000
O O18 0.948193 0.416609 0.000000
O O19 0.288787 0.893492 0.000000
O O20 0.789536 0.500000 0.750000
O O21 0.771118 0.409343 0.500000
O O22 0.795624 0.323549 0.749141
O O23 0.161222 0.268378 0.500000
#
# Coordination Sequence:
#
# PCOD8203118 Si02
#       8
#     8   8   8   8   8   8   8   8
#     4  12  24  37  56  81 115 159 204 251 299 352
#     4  10  21  36  54  75 100 135 182 231 285 349
#     4  10  20  32  47  69  99 133 177 228 284 345
#     4  10  20  36  58  81 111 146 184 233 287 346
#     4  10  21  37  62  92 127 165 206 251 297 354
#     4  10  19  33  53  75 106 144 187 235 285 344
#     4  12  24  38  60  90 124 160 195 236 291 356
#     4  11  23  40  60  89 126 163 204 251 300 352
#
# _framework density 19.890149000000001
#
# number of rings (size 3 to 8) (size 9 to 14) (size 15 to 20)
#    0.000    1.375    1.250    5.625    0.000    5.750 
#    0.000    1.250    0.000    0.750    0.000    5.250 
#    0.000    0.000    0.000    0.000    0.000    0.000 
#
# Total GULP energy -793817.865691 kJ/mol
# GULP energy per Si atom -12403.404151 kJ/mol
# Density = 1.984488 g / cm^3
# Si number density = 19.890149 Si / 1000 Ang^3
#
#
#
# Elastic Constant Matrix: (Units=GPa)
#
#
# Indices 1 2 3 4 5 6 
#
# 1 106.4629 46.7003 50.3198 0.0000 0.0000 0.0000
# 2 46.7003 97.5384 45.9473 0.0000 0.0000 0.0000
# 3 50.3198 45.9473 130.0079 0.0000 0.0000 0.0000
# 4 0.0000 0.0000 0.0000 32.1136 0.0000 0.0000
# 5 0.0000 0.0000 0.0000 0.0000 26.6718 0.0000
# 6 0.0000 0.0000 0.0000 0.0000 0.0000 15.0137
#
#
#
# Elastic Compliance Matrix: (Units=1/GPa)
#
#
# Indices 1 2 3 4 5 6 
#
# 1 0.013038 -0.004637 -0.003407 0.000000 0.000000 0.000000
# 2 -0.004637 0.013949 -0.003135 0.000000 0.000000 0.000000
# 3 -0.003407 -0.003135 0.010119 0.000000 0.000000 0.000000
# 4 0.000000 0.000000 0.000000 0.031139 0.000000 0.000000
# 5 0.000000 0.000000 0.000000 0.000000 0.037493 0.000000
# 6 0.000000 0.000000 0.000000 0.000000 0.000000 0.066606
#
#
# Mechanical properties :
#
#
# Convention : Reuss Voigt Hill
#
# Bulk Modulus (GPa) = 67.81344 68.88267 68.34806
# Shear Modulus (GPa) = 25.04778 27.49594 26.27186
#
# Velocity S-wave (km/s) = 3.55252 3.72208 3.63829
# Velocity P-wave (km/s) = 7.14109 7.29237 7.21713
#
# Compressibility (1/GPa) = 0.01474634
#
# Stress axis : x y z
#
# Youngs Moduli (GPa) = 76.70171 71.68733 98.82693
#
# Poissons Ratio (x) = 0.33242 0.33674
# Poissons Ratio (y) = 0.35568 0.30984
# Poissons Ratio (z) = 0.26135 0.22475
#
# Static dielectric constant tensor:
#      x y z
#    x 3.522870 0.000000 0.000000 
#    y 0.000000 3.702390 0.000000 
#    z 0.000000 0.000000 3.687850 
# 
# 
# High freq. dielectric constant tensor:
#      x y z
#    x 1.756660 0.000000 0.000000 
#    y 0.000000 1.771250 0.000000 
#    z 0.000000 0.000000 1.791750 
# 
# From -- ./inp_files/4434.got.cif
#   From: 2010.03.12/outbox.cif.g09.slc.cpg/sg49_3_cif.got.tgz:4434.got - 2010.04.14 03:58:27.
