data_PCOD8203002
_publ_section_title
;
Structure prediction by ZEFSAII (Michael W. Deem and Ramdas Pophale) SiO2 
 PCOD8203002
Probable space group: P C C M
;
_chemical_formula_sum "Si O2"
_cell_formula_units_Z 56
_cell_length_a 22.661335
_cell_length_b 14.787545
_cell_length_c 8.631523
_cell_angle_alpha 90.000000
_cell_angle_beta 90.000000
_cell_angle_gamma 90.000000
_cell_volume 2892.470926
_symmetry_space_group_name_H-M "P C C M"
_symmetry_group_IT_number 49
_symmetry_cell_setting 'orthorhombic'
loop_
_space_group_symop_operation_xyz
x,y,z
-x,-y,z
x,-y,1/2-z
-x,y,1/2-z
-x,-y,-z
x,y,-z
-x,y,1/2+z
x,-y,1/2+z
loop_
_atom_site_type_symbol
_atom_site_label
_atom_site_fract_x
_atom_site_fract_y
_atom_site_fract_z
Si Si1 0.289782 0.096231 0.183460
Si Si2 0.562994 0.596364 0.316986
Si Si3 0.667369 0.272332 0.817205
Si Si4 0.837860 0.095371 0.816586
Si Si5 0.893493 0.590826 0.819974
Si Si6 0.938350 0.782599 0.182567
Si Si7 0.759796 0.594069 0.816066
O O1 0.335223 0.173271 0.239521
O O2 0.224898 0.121851 0.244531
O O3 0.311010 0.000000 0.250000
O O4 0.288408 0.090681 0.000000
O O5 0.583654 0.500000 0.250000
O O6 0.500000 0.625789 0.250000
O O7 0.558521 0.587011 0.500000
O O8 0.609407 0.672642 0.265837
O O9 0.725107 0.323018 0.757197
O O10 0.671028 0.261134 0.000000
O O11 0.885229 0.169570 0.769887
O O12 0.860044 0.000000 0.750000
O O13 0.831401 0.089208 0.000000
O O14 0.922229 0.500000 0.750000
O O15 0.933644 0.676394 0.777253
O O16 0.827025 0.605639 0.757724
O O17 0.889829 0.575411 0.000000
O O18 0.000000 0.819121 0.250000
O O19 0.934268 0.801832 0.000000
O O20 0.733822 0.500000 0.750000
O O21 0.753016 0.596410 0.000000
#
# Coordination Sequence:
#
# PCOD8203002 Si02
#       7
#     8   8   8   8   8   8   8
#     4  11  22  38  60  86 115 147 181 224 274 330
#     4  10  21  36  56  81 115 155 197 238 278 324
#     4  11  22  35  54  83 114 148 188 232 278 330
#     4  11  22  39  62  86 112 143 176 219 273 332
#     4   9  20  36  54  74 102 137 176 220 268 321
#     4  11  23  39  56  79 107 139 181 227 273 326
#     4  10  19  32  51  78 109 143 179 223 277 333
#
# _framework density 19.360610000000001
#
# number of rings (size 3 to 8) (size 9 to 14) (size 15 to 20)
#    0.000    1.571    0.000    6.857    0.000    6.857 
#    0.000    2.857    0.000    0.429    0.000    3.000 
#    0.000    0.000    0.000    0.000    0.000    0.000 
#
# Total GULP energy -694613.990380 kJ/mol
# GULP energy per Si atom -12403.821257 kJ/mol
# Density = 1.931654 g / cm^3
# Si number density = 19.360610 Si / 1000 Ang^3
#
#
#
# Elastic Constant Matrix: (Units=GPa)
#
#
# Indices 1 2 3 4 5 6 
#
# 1 74.0504 50.6052 40.7749 0.0000 0.0000 0.0000
# 2 50.6052 120.0840 52.8608 0.0000 0.0000 0.0000
# 3 40.7749 52.8608 119.6841 0.0000 0.0000 0.0000
# 4 0.0000 0.0000 0.0000 36.9480 0.0000 0.0000
# 5 0.0000 0.0000 0.0000 0.0000 26.0067 0.0000
# 6 0.0000 0.0000 0.0000 0.0000 0.0000 24.5533
#
#
#
# Elastic Compliance Matrix: (Units=1/GPa)
#
#
# Indices 1 2 3 4 5 6 
#
# 1 0.020335 -0.006852 -0.003902 0.000000 0.000000 0.000000
# 2 -0.006852 0.012646 -0.003251 0.000000 0.000000 0.000000
# 3 -0.003902 -0.003251 0.011120 0.000000 0.000000 0.000000
# 4 0.000000 0.000000 0.000000 0.027065 0.000000 0.000000
# 5 0.000000 0.000000 0.000000 0.000000 0.038452 0.000000
# 6 0.000000 0.000000 0.000000 0.000000 0.000000 0.040728
#
#
# Mechanical properties :
#
#
# Convention : Reuss Voigt Hill
#
# Bulk Modulus (GPa) = 62.14094 66.92228 64.53161
# Shear Modulus (GPa) = 27.21530 28.80676 28.01103
#
# Velocity S-wave (km/s) = 3.75334 3.86152 3.80782
# Velocity P-wave (km/s) = 7.13790 7.38397 7.26198
#
# Compressibility (1/GPa) = 0.01609245
#
# Stress axis : x y z
#
# Youngs Moduli (GPa) = 49.17541 79.07529 89.92454
#
# Poissons Ratio (x) = 0.54183 0.35085
# Poissons Ratio (y) = 0.33696 0.29234
# Poissons Ratio (z) = 0.19186 0.25707
#
# Static dielectric constant tensor:
#      x y z
#    x 3.448500 0.000000 0.000000 
#    y 0.000000 3.680330 0.000000 
#    z 0.000000 0.000000 3.610320 
# 
# 
# High freq. dielectric constant tensor:
#      x y z
#    x 1.735020 0.000000 0.000000 
#    y 0.000000 1.759650 0.000000 
#    z 0.000000 0.000000 1.768270 
# 
# From -- ./inp_files/4003.got.cif
#   From: 2010.03.12/outbox.cif.g09.slc.cpg/sg49_3_cif.got.tgz:4003.got - 2010.04.14 03:58:27.
