data_PCOD8203324
_publ_section_title
;
Structure prediction by ZEFSAII (Michael W. Deem and Ramdas Pophale) SiO2 
 PCOD8203324
Probable space group: P C C M
;
_chemical_formula_sum "Si O2"
_cell_formula_units_Z 40
_cell_length_a 15.679296
_cell_length_b 14.439292
_cell_length_c 8.677577
_cell_angle_alpha 90.000000
_cell_angle_beta 90.000000
_cell_angle_gamma 90.000000
_cell_volume 1964.585499
_symmetry_space_group_name_H-M "P C C M"
_symmetry_group_IT_number 49
_symmetry_cell_setting 'orthorhombic'
loop_
_space_group_symop_operation_xyz
x,y,z
-x,-y,z
x,-y,1/2-z
-x,y,1/2-z
-x,-y,-z
x,y,-z
-x,y,1/2+z
x,-y,1/2+z
loop_
_atom_site_type_symbol
_atom_site_label
_atom_site_fract_x
_atom_site_fract_y
_atom_site_fract_z
Si Si1 0.086967 0.780116 0.182875
Si Si2 0.588250 0.212240 0.819834
Si Si3 0.338741 0.405947 0.318359
Si Si4 0.152962 0.596529 0.317104
Si Si5 0.248600 0.898482 0.182852
O O1 0.094224 0.677774 0.252660
O O2 0.165646 0.842798 0.239954
O O3 0.000000 0.824626 0.250000
O O4 0.083530 0.774469 0.000000
O O5 0.500000 0.175463 0.750000
O O6 0.599607 0.320570 0.778819
O O7 0.667177 0.153207 0.752393
O O8 0.584017 0.196824 0.000000
O O9 0.380223 0.500000 0.250000
O O10 0.323221 0.416189 0.500000
O O11 0.248997 0.386350 0.238609
O O12 0.117594 0.500000 0.250000
O O13 0.149518 0.594317 0.500000
O O14 0.244875 0.000000 0.250000
O O15 0.250582 0.902747 0.000000
#
# Coordination Sequence:
#
# PCOD8203324 Si02
#       5
#     8   8   8   8   8
#     4  11  23  42  64  91 126 159 201 251 300 359
#     4  10  22  40  61  88 123 161 200 250 302 356
#     4  10  19  35  57  85 123 162 204 248 298 352
#     4  11  21  35  59  90 123 164 207 246 297 355
#     4  10  23  44  66  88 121 157 197 252 309 363
#
# _framework density 20.360531000000002
#
# number of rings (size 3 to 8) (size 9 to 14) (size 15 to 20)
#    0.000    1.600    2.000    4.200    0.000    5.600 
#    0.000    8.000    0.000    0.000    0.000    0.000 
#    0.000    0.000    0.000    0.000    0.000    0.000 
#
# Total GULP energy -496103.246279 kJ/mol
# GULP energy per Si atom -12402.581157 kJ/mol
# Density = 2.031419 g / cm^3
# Si number density = 20.360531 Si / 1000 Ang^3
#
#
#
# Elastic Constant Matrix: (Units=GPa)
#
#
# Indices 1 2 3 4 5 6 
#
# 1 161.1855 79.2773 43.0699 0.0000 0.0000 0.0000
# 2 79.2773 136.1691 45.5601 0.0000 0.0000 0.0000
# 3 43.0699 45.5601 88.6005 0.0000 0.0000 0.0000
# 4 0.0000 0.0000 0.0000 33.7826 0.0000 0.0000
# 5 0.0000 0.0000 0.0000 0.0000 -370.4631 0.0000
# 6 0.0000 0.0000 0.0000 0.0000 0.0000 14.8037
#
#
#
# Elastic Compliance Matrix: (Units=1/GPa)
#
#
# Indices 1 2 3 4 5 6 
#
# 1 0.008985 -0.004553 -0.002026 0.000000 0.000000 0.000000
# 2 -0.004553 0.011177 -0.003534 0.000000 0.000000 0.000000
# 3 -0.002026 -0.003534 0.014089 0.000000 0.000000 0.000000
# 4 0.000000 0.000000 0.000000 0.029601 0.000000 0.000000
# 5 0.000000 0.000000 0.000000 0.000000 -0.002699 0.000000
# 6 0.000000 0.000000 0.000000 0.000000 0.000000 0.067551
#
#
# Mechanical properties :
#
#
# Convention : Reuss Voigt Hill
#
# Bulk Modulus (GPa) = 71.30758 80.19662 75.75210
# Shear Modulus (GPa) = 32.55107 -49.83883 -8.64388
#
# Velocity S-wave (km/s) = 4.00276 -4.95291 -2.06267
# Velocity P-wave (km/s) = 7.51407 2.60104 5.62257
#
# Compressibility (1/GPa) = 0.01402375
#
# Stress axis : x y z
#
# Youngs Moduli (GPa) = 111.29892 89.46951 70.97717
#
# Poissons Ratio (x) = 0.40735 0.14383
# Poissons Ratio (y) = 0.50674 0.25085
# Poissons Ratio (z) = 0.22554 0.31620
#
# Static dielectric constant tensor:
#      x y z
#    x 3.900640 0.000000 0.000000 
#    y 0.000000 3.842990 0.000000 
#    z 0.000000 0.000000 3.602750 
# 
# 
# High freq. dielectric constant tensor:
#      x y z
#    x 1.797570 0.000000 0.000000 
#    y 0.000000 1.796320 0.000000 
#    z 0.000000 0.000000 1.795040 
# 
# From -- ./inp_files/3428.got.cif
#   From: 2010.03.12/outbox.cif.g09.slc.cpg/sg49_2_cif.got.tgz:3428.got - 2010.04.14 03:58:27.
