data_PCOD8203558
_publ_section_title
;
Structure prediction by ZEFSAII (Michael W. Deem and Ramdas Pophale) SiO2 
 PCOD8203558
Probable space group: P C C M
;
_chemical_formula_sum "Si O2"
_cell_formula_units_Z 64
_cell_length_a 15.266746
_cell_length_b 24.576081
_cell_length_c 8.867597
_cell_angle_alpha 90.000000
_cell_angle_beta 90.000000
_cell_angle_gamma 90.000000
_cell_volume 3327.093897
_symmetry_space_group_name_H-M "P C C M"
_symmetry_group_IT_number 49
_symmetry_cell_setting 'orthorhombic'
loop_
_space_group_symop_operation_xyz
x,y,z
-x,-y,z
x,-y,1/2-z
-x,y,1/2-z
-x,-y,-z
x,y,-z
-x,y,1/2+z
x,-y,1/2+z
loop_
_atom_site_type_symbol
_atom_site_label
_atom_site_fract_x
_atom_site_fract_y
_atom_site_fract_z
Si Si1 0.676923 0.258414 0.672401
Si Si2 0.589103 0.644293 0.321645
Si Si3 0.589903 0.057539 0.177271
Si Si4 0.269200 0.148718 0.323269
Si Si5 0.088950 0.833680 0.677682
Si Si6 0.086232 0.603100 0.823663
Si Si7 0.731771 0.556510 0.678287
Si Si8 0.127147 0.289153 0.830644
O O1 0.647828 0.249008 0.500000
O O2 0.606347 0.295552 0.756945
O O3 0.682453 0.200582 0.753311
O O4 0.768544 0.289669 0.681001
O O5 0.500000 0.621610 0.250000
O O6 0.580882 0.647871 0.500000
O O7 0.664687 0.602942 0.270221
O O8 0.500000 0.080421 0.250000
O O9 0.670034 0.097423 0.212777
O O10 0.614746 0.000000 0.250000
O O11 0.574875 0.050520 0.000000
O O12 0.256175 0.158528 0.500000
O O13 0.174149 0.137712 0.249384
O O14 0.090369 0.844587 0.500000
O O15 0.091480 0.769753 0.716200
O O16 0.000000 0.858176 0.750000
O O17 0.172080 0.572809 0.759866
O O18 0.088808 0.667148 0.784833
O O19 0.000000 0.576155 0.750000
O O20 0.079854 0.596078 0.000000
O O21 0.701605 0.500000 0.750000
O O22 0.732485 0.550423 0.500000
O O23 0.097339 0.304534 0.000000
#
# Coordination Sequence:
#
# PCOD8203558 Si02
#       8
#     8   8   8   8   8   8   8   8
#     4  10  20  35  57  85 116 152 189 229 281 336
#     4  11  23  41  62  87 114 145 184 228 282 342
#     4  10  21  37  60  87 116 153 196 243 295 343
#     4  10  21  36  56  85 120 159 198 240 288 342
#     4  10  20  33  51  80 116 156 199 240 287 339
#     4  11  22  36  55  82 110 142 181 224 274 331
#     4  10  24  43  62  82 108 142 182 229 283 336
#     4   9  18  32  52  79 109 145 185 223 271 327
#
# _framework density 19.236006
#
# number of rings (size 3 to 8) (size 9 to 14) (size 15 to 20)
#    0.000    1.875    1.250    3.750    0.000    8.500 
#    0.000    3.750    0.000    0.375    0.000    2.625 
#    0.000    0.000    0.000    0.000    0.000    0.000 
#
# Total GULP energy -793778.908106 kJ/mol
# GULP energy per Si atom -12402.795439 kJ/mol
# Density = 1.919222 g / cm^3
# Si number density = 19.236006 Si / 1000 Ang^3
#
#
#
# Elastic Constant Matrix: (Units=GPa)
#
#
# Indices 1 2 3 4 5 6 
#
# 1 141.4084 59.9380 65.0106 0.0000 0.0000 0.0000
# 2 59.9380 84.4281 48.8905 0.0000 0.0000 0.0000
# 3 65.0106 48.8905 105.6817 0.0000 0.0000 0.0000
# 4 0.0000 0.0000 0.0000 27.5462 0.0000 0.0000
# 5 0.0000 0.0000 0.0000 0.0000 33.1251 0.0000
# 6 0.0000 0.0000 0.0000 0.0000 0.0000 9.5512
#
#
#
# Elastic Compliance Matrix: (Units=1/GPa)
#
#
# Indices 1 2 3 4 5 6 
#
# 1 0.011496 -0.005554 -0.004502 0.000000 0.000000 0.000000
# 2 -0.005554 0.018862 -0.005309 0.000000 0.000000 0.000000
# 3 -0.004502 -0.005309 0.014688 0.000000 0.000000 0.000000
# 4 0.000000 0.000000 0.000000 0.036303 0.000000 0.000000
# 5 0.000000 0.000000 0.000000 0.000000 0.030189 0.000000
# 6 0.000000 0.000000 0.000000 0.000000 0.000000 0.104699
#
#
# Mechanical properties :
#
#
# Convention : Reuss Voigt Hill
#
# Bulk Modulus (GPa) = 69.85874 75.46627 72.66250
# Shear Modulus (GPa) = 19.86185 24.55644 22.20914
#
# Velocity S-wave (km/s) = 3.21679 3.57681 3.40157
# Velocity P-wave (km/s) = 7.08467 7.50833 7.29957
#
# Compressibility (1/GPa) = 0.01431460
#
# Stress axis : x y z
#
# Youngs Moduli (GPa) = 86.98911 53.01712 68.08203
#
# Poissons Ratio (x) = 0.29446 0.30652
# Poissons Ratio (y) = 0.48313 0.36147
# Poissons Ratio (z) = 0.39165 0.28149
#
# Static dielectric constant tensor:
#      x y z
#    x 3.705940 0.000000 0.000000 
#    y 0.000000 3.266830 0.000000 
#    z 0.000000 0.000000 3.529440 
# 
# 
# High freq. dielectric constant tensor:
#      x y z
#    x 1.759060 0.000000 0.000000 
#    y 0.000000 1.722300 0.000000 
#    z 0.000000 0.000000 1.758070 
# 
# From -- ./inp_files/4303.got.cif
#   From: 2010.03.12/outbox.cif.g09.slc.cpg/sg49_3_cif.got.tgz:4303.got - 2010.04.14 03:58:27.
