data_PCOD8203218
_publ_section_title
;
Structure prediction by ZEFSAII (Michael W. Deem and Ramdas Pophale) SiO2 
 PCOD8203218
Probable space group: P C C M
;
_chemical_formula_sum "Si O2"
_cell_formula_units_Z 64
_cell_length_a 11.883949
_cell_length_b 15.123226
_cell_length_c 18.110070
_cell_angle_alpha 90.000000
_cell_angle_beta 90.000000
_cell_angle_gamma 90.000000
_cell_volume 3254.807819
_symmetry_space_group_name_H-M "P C C M"
_symmetry_group_IT_number 49
_symmetry_cell_setting 'orthorhombic'
loop_
_space_group_symop_operation_xyz
x,y,z
-x,-y,z
x,-y,1/2-z
-x,y,1/2-z
-x,-y,-z
x,y,-z
-x,y,1/2+z
x,-y,1/2+z
loop_
_atom_site_type_symbol
_atom_site_label
_atom_site_fract_x
_atom_site_fract_y
_atom_site_fract_z
Si Si1 0.829883 0.334709 0.915226
Si Si2 0.871547 0.995438 0.911866
Si Si3 0.762754 0.816083 0.087887
Si Si4 0.089803 0.650994 0.414877
Si Si5 0.574820 0.585186 0.915438
Si Si6 0.217169 0.511844 0.663411
Si Si7 0.516310 0.778370 0.086998
Si Si8 0.281401 0.843820 0.912012
O O1 0.775727 0.415365 0.871483
O O2 0.777442 0.245101 0.883934
O O3 0.961788 0.321789 0.904405
O O4 0.796695 0.350185 0.000000
O O5 0.790126 0.073334 0.880388
O O6 0.820922 0.904154 0.881273
O O7 0.872314 0.999422 0.000000
O O8 0.000000 0.000000 0.882290
O O9 0.832677 0.731002 0.114757
O O10 0.635111 0.813249 0.119156
O O11 0.762812 0.817597 0.000000
O O12 0.116774 0.628171 0.500000
O O13 0.106977 0.563321 0.365531
O O14 0.500000 0.500000 0.903819
O O15 0.680660 0.574521 0.862015
O O16 0.505417 0.673610 0.893514
O O17 0.617781 0.593640 0.000000
O O18 0.214926 0.500000 0.750000
O O19 0.410958 0.836409 0.117970
O O20 0.516223 0.790562 0.000000
O O21 0.280448 0.849173 0.000000
#
# Coordination Sequence:
#
# PCOD8203218 Si02
#       8
#     8   8   8   8   8   8   8   8
#     4  10  20  34  53  74 100 140 185 226 267 321
#     4   9  16  26  42  69 106 141 172 213 267 321
#     4   9  16  27  46  71 100 136 175 217 268 320
#     4  10  19  34  54  74 101 139 186 228 265 323
#     4  10  19  34  56  76 101 141 186 226 263 314
#     4  12  24  35  50  76 109 140 175 223 279 332
#     4   9  16  27  45  69  99 133 171 216 262 315
#     4   9  17  29  46  73 104 134 174 218 268 321
#
# _framework density 19.663219999999999
#
# number of rings (size 3 to 8) (size 9 to 14) (size 15 to 20)
#    0.000    2.250    1.250    3.000    0.000    7.750 
#    0.000    2.500    0.000    0.000    0.000    0.875 
#    0.000    3.000    1.500    0.000    0.250    0.000 
#
# Total GULP energy -793322.705132 kJ/mol
# GULP energy per Si atom -12395.667268 kJ/mol
# Density = 1.961847 g / cm^3
# Si number density = 19.663220 Si / 1000 Ang^3
#
#
#
# Elastic Constant Matrix: (Units=GPa)
#
#
# Indices 1 2 3 4 5 6 
#
# 1 117.1929 49.7277 15.0810 0.0000 0.0000 0.0000
# 2 49.7277 128.3559 20.5400 0.0000 0.0000 0.0000
# 3 15.0810 20.5400 40.9038 0.0000 0.0000 0.0000
# 4 0.0000 0.0000 0.0000 -6.7131 0.0000 0.0000
# 5 0.0000 0.0000 0.0000 0.0000 10.1043 0.0000
# 6 0.0000 0.0000 0.0000 0.0000 0.0000 42.1475
#
#
#
# Elastic Compliance Matrix: (Units=1/GPa)
#
#
# Indices 1 2 3 4 5 6 
#
# 1 0.010354 -0.003698 -0.001961 0.000000 0.000000 0.000000
# 2 -0.003698 0.009792 -0.003554 0.000000 0.000000 0.000000
# 3 -0.001961 -0.003554 0.026955 0.000000 0.000000 0.000000
# 4 0.000000 0.000000 0.000000 -0.148961 0.000000 0.000000
# 5 0.000000 0.000000 0.000000 0.000000 0.098968 0.000000
# 6 0.000000 0.000000 0.000000 0.000000 0.000000 0.023726
#
#
# Mechanical properties :
#
#
# Convention : Reuss Voigt Hill
#
# Bulk Modulus (GPa) = 34.87125 50.79444 42.83285
# Shear Modulus (GPa) = 102.42201 22.51466 62.46834
#
# Velocity S-wave (km/s) = 7.22504 3.38748 5.64253
# Velocity P-wave (km/s) = 9.34742 6.41781 8.01756
#
# Compressibility (1/GPa) = 0.02867692
#
# Stress axis : x y z
#
# Youngs Moduli (GPa) = 96.57842 102.12323 37.09881
#
# Poissons Ratio (x) = 0.37762 0.07274
# Poissons Ratio (y) = 0.35712 0.13184
# Poissons Ratio (z) = 0.18937 0.36293
#
# Static dielectric constant tensor:
#      x y z
#    x 3.940920 0.000000 0.000000 
#    y 0.000000 3.824660 0.000000 
#    z 0.000000 0.000000 2.878140 
# 
# 
# High freq. dielectric constant tensor:
#      x y z
#    x 1.785470 0.000000 0.000000 
#    y 0.000000 1.776100 0.000000 
#    z 0.000000 0.000000 1.682800 
# 
# From -- ./inp_files/17348.got.cif
#   From: 2010.03.12/outbox.cif.g09.slc.cpg/sg49_9_cif.got.tgz:17348.got - 2010.04.14 03:58:27.
