data_PCOD8203275
_publ_section_title
;
Structure prediction by ZEFSAII (Michael W. Deem and Ramdas Pophale) SiO2 
 PCOD8203275
Probable space group: P C C M
;
_chemical_formula_sum "Si O2"
_cell_formula_units_Z 26
_cell_length_a 9.683363
_cell_length_b 8.625171
_cell_length_c 15.905120
_cell_angle_alpha 90.000000
_cell_angle_beta 90.000000
_cell_angle_gamma 90.000000
_cell_volume 1328.406147
_symmetry_space_group_name_H-M "P C C M"
_symmetry_group_IT_number 49
_symmetry_cell_setting 'orthorhombic'
loop_
_space_group_symop_operation_xyz
x,y,z
-x,-y,z
x,-y,1/2-z
-x,y,1/2-z
-x,-y,-z
x,y,-z
-x,y,1/2+z
x,-y,1/2+z
loop_
_atom_site_type_symbol
_atom_site_label
_atom_site_fract_x
_atom_site_fract_y
_atom_site_fract_z
Si Si1 0.000000 0.000000 0.250000
Si Si2 0.343938 0.438111 0.334419
Si Si3 0.737534 0.090894 0.170687
Si Si4 0.347405 0.572697 0.500000
Si Si5 0.346790 0.939121 0.500000
O O1 0.098512 0.109209 0.308122
O O2 0.500000 0.500000 0.333204
O O3 0.268282 0.500000 0.250000
O O4 0.340198 0.253094 0.339238
O O5 0.268820 0.509873 0.416660
O O6 0.667138 0.000000 0.250000
O O7 0.728463 0.996302 0.084148
O O8 0.500000 0.500000 0.500000
O O9 0.349947 0.755530 0.500000
O O10 0.500000 0.000000 0.500000
#
# Coordination Sequence:
#
# PCOD8203275 Si02
#       5
#     2   8   8   4   4
#     4   8  24  46  64  84 122 180 234 248 288 364
#     4  10  19  34  57  88 126 157 191 261 332 374
#     4  10  22  42  63  90 124 170 220 257 303 381
#     4  10  20  34  50  87 131 153 188 241 324 394
#     4  12  22  35  66 100 124 165 204 272 338 374
#
# _framework density 19.572327999999999
#
# number of rings (size 3 to 8) (size 9 to 14) (size 15 to 20)
#    0.923    0.923    0.000    6.462    0.000    3.692 
#    0.000    0.769    0.000    1.846    0.000    0.000 
#    0.000    0.000    0.000    0.000    0.000    0.000 
#
# Total GULP energy -322120.345993 kJ/mol
# GULP energy per Si atom -12389.244077 kJ/mol
# Density = 1.952778 g / cm^3
# Si number density = 19.572328 Si / 1000 Ang^3
#
#
#
# Elastic Constant Matrix: (Units=GPa)
#
#
# Indices 1 2 3 4 5 6 
#
# 1 73.5462 33.0863 23.7889 0.0000 0.0000 0.0000
# 2 33.0863 201.5628 87.1879 0.0000 0.0000 0.0000
# 3 23.7889 87.1879 232.0486 0.0000 0.0000 0.0000
# 4 0.0000 0.0000 0.0000 42.3500 0.0000 0.0000
# 5 0.0000 0.0000 0.0000 0.0000 17.7332 0.0000
# 6 0.0000 0.0000 0.0000 0.0000 0.0000 14.5299
#
#
#
# Elastic Compliance Matrix: (Units=1/GPa)
#
#
# Indices 1 2 3 4 5 6 
#
# 1 0.014781 -0.002115 -0.000721 0.000000 0.000000 0.000000
# 2 -0.002115 0.006227 -0.002123 0.000000 0.000000 0.000000
# 3 -0.000721 -0.002123 0.005181 0.000000 0.000000 0.000000
# 4 0.000000 0.000000 0.000000 0.023613 0.000000 0.000000
# 5 0.000000 0.000000 0.000000 0.000000 0.056391 0.000000
# 6 0.000000 0.000000 0.000000 0.000000 0.000000 0.068824
#
#
# Mechanical properties :
#
#
# Convention : Reuss Voigt Hill
#
# Bulk Modulus (GPa) = 61.45312 88.36490 74.90901
# Shear Modulus (GPa) = 26.26647 39.12892 32.69770
#
# Velocity S-wave (km/s) = 3.66733 4.47609 4.09174
# Velocity P-wave (km/s) = 7.02841 8.48291 7.78968
#
# Compressibility (1/GPa) = 0.01627257
#
# Stress axis : x y z
#
# Youngs Moduli (GPa) = 67.65297 160.60290 193.01606
#
# Poissons Ratio (x) = 0.33960 0.13913
# Poissons Ratio (y) = 0.14305 0.40972
# Poissons Ratio (z) = 0.04877 0.34092
#
# Static dielectric constant tensor:
#      x y z
#    x 3.058850 0.000000 0.000000 
#    y 0.000000 3.479260 0.000000 
#    z 0.000000 0.000000 7.655800 
# 
# 
# High freq. dielectric constant tensor:
#      x y z
#    x 1.699580 0.000000 0.000000 
#    y 0.000000 1.766220 0.000000 
#    z 0.000000 0.000000 1.802200 
# 
# From -- ./inp_files/12356.got.cif
#   From: 2010.03.12/outbox.cif.g09.slc.cpg/sg49_7_cif.got.tgz:12356.got - 2010.04.14 03:58:27.
