data_PCOD8203395
_publ_section_title
;
Structure prediction by ZEFSAII (Michael W. Deem and Ramdas Pophale) SiO2 
 PCOD8203395
Probable space group: P C C M
;
_chemical_formula_sum "Si O2"
_cell_formula_units_Z 56
_cell_length_a 15.186422
_cell_length_b 20.146042
_cell_length_c 8.766736
_cell_angle_alpha 90.000000
_cell_angle_beta 90.000000
_cell_angle_gamma 90.000000
_cell_volume 2682.150402
_symmetry_space_group_name_H-M "P C C M"
_symmetry_group_IT_number 49
_symmetry_cell_setting 'orthorhombic'
loop_
_space_group_symop_operation_xyz
x,y,z
-x,-y,z
x,-y,1/2-z
-x,y,1/2-z
-x,-y,-z
x,y,-z
-x,y,1/2+z
x,-y,1/2+z
loop_
_atom_site_type_symbol
_atom_site_label
_atom_site_fract_x
_atom_site_fract_y
_atom_site_fract_z
Si Si1 0.870463 0.264402 0.674202
Si Si2 0.408482 0.826074 0.818758
Si Si3 0.330399 0.298345 0.175239
Si Si4 0.721131 0.431912 0.181696
Si Si5 0.723162 0.068937 0.318519
Si Si6 0.913671 0.604315 0.323154
Si Si7 0.911244 0.882885 0.178995
O O1 0.898942 0.278848 0.500000
O O2 0.765707 0.266867 0.688828
O O3 0.915593 0.317675 0.784141
O O4 0.901756 0.193095 0.733462
O O5 0.500000 0.852729 0.750000
O O6 0.395722 0.749979 0.766158
O O7 0.330941 0.871057 0.752755
O O8 0.409971 0.830707 0.000000
O O9 0.334894 0.371070 0.251306
O O10 0.360912 0.303864 0.000000
O O11 0.681971 0.500000 0.250000
O O12 0.822667 0.426524 0.239981
O O13 0.714628 0.431051 0.000000
O O14 0.711799 0.070597 0.500000
O O15 0.825223 0.076668 0.268181
O O16 0.687570 0.000000 0.250000
O O17 0.920124 0.592799 0.500000
O O18 0.000000 0.569591 0.250000
O O19 0.000000 0.914238 0.250000
O O20 0.920143 0.886199 0.000000
#
# Coordination Sequence:
#
# PCOD8203395 Si02
#       7
#     8   8   8   8   8   8   8
#     4   9  17  32  53  78 110 152 196 249 309 362
#     4  12  25  43  70 102 131 164 204 252 309 376
#     4  10  19  37  63  90 123 159 199 253 309 364
#     4  10  21  36  54  81 114 157 207 253 308 373
#     4  11  24  45  66  92 129 169 212 261 316 372
#     4  10  20  31  45  70 105 146 197 255 309 366
#     4  10  21  36  56  84 121 163 211 261 309 365
#
# _framework density 20.878768999999998
#
# number of rings (size 3 to 8) (size 9 to 14) (size 15 to 20)
#    0.000    1.714    1.429    3.429    0.000    6.000 
#    0.000    4.286    0.000    0.429    0.000    3.000 
#    0.000    0.000    0.000    0.000    0.000    0.000 
#
# Total GULP energy -694520.865905 kJ/mol
# GULP energy per Si atom -12402.158320 kJ/mol
# Density = 2.083125 g / cm^3
# Si number density = 20.878769 Si / 1000 Ang^3
#
#
#
# Elastic Constant Matrix: (Units=GPa)
#
#
# Indices 1 2 3 4 5 6 
#
# 1 77.4147 30.5750 41.0571 0.0000 0.0000 0.0000
# 2 30.5750 113.7412 45.0745 0.0000 0.0000 0.0000
# 3 41.0571 45.0745 107.6236 0.0000 0.0000 0.0000
# 4 0.0000 0.0000 0.0000 27.9120 0.0000 0.0000
# 5 0.0000 0.0000 0.0000 0.0000 29.9937 0.0000
# 6 0.0000 0.0000 0.0000 0.0000 0.0000 4.2579
#
#
#
# Elastic Compliance Matrix: (Units=1/GPa)
#
#
# Indices 1 2 3 4 5 6 
#
# 1 0.016704 -0.002356 -0.005386 0.000000 0.000000 0.000000
# 2 -0.002356 0.010874 -0.003655 0.000000 0.000000 0.000000
# 3 -0.005386 -0.003655 0.012877 0.000000 0.000000 0.000000
# 4 0.000000 0.000000 0.000000 0.035827 0.000000 0.000000
# 5 0.000000 0.000000 0.000000 0.000000 0.033340 0.000000
# 6 0.000000 0.000000 0.000000 0.000000 0.000000 0.234856
#
#
# Mechanical properties :
#
#
# Convention : Reuss Voigt Hill
#
# Bulk Modulus (GPa) = 56.62172 59.13253 57.87712
# Shear Modulus (GPa) = 13.39910 24.57091 18.98501
#
# Velocity S-wave (km/s) = 2.53604 3.43423 3.01873
# Velocity P-wave (km/s) = 5.97942 6.64143 6.31910
#
# Compressibility (1/GPa) = 0.01766107
#
# Stress axis : x y z
#
# Youngs Moduli (GPa) = 59.86480 91.96428 77.65681
#
# Poissons Ratio (x) = 0.21667 0.41824
# Poissons Ratio (y) = 0.14104 0.28386
# Poissons Ratio (z) = 0.32242 0.33616
#
# Static dielectric constant tensor:
#      x y z
#    x 3.759100 0.000000 0.000000 
#    y 0.000000 3.736960 0.000000 
#    z 0.000000 0.000000 3.671980 
# 
# 
# High freq. dielectric constant tensor:
#      x y z
#    x 1.803590 0.000000 0.000000 
#    y 0.000000 1.816490 0.000000 
#    z 0.000000 0.000000 1.818330 
# 
# From -- ./inp_files/4007.got.cif
#   From: 2010.03.12/outbox.cif.g09.slc.cpg/sg49_3_cif.got.tgz:4007.got - 2010.04.14 03:58:27.
