data_PCOD8203773
_publ_section_title
;
Structure prediction by ZEFSAII (Michael W. Deem and Ramdas Pophale) SiO2 
 PCOD8203773
Probable space group: P C C M
;
_chemical_formula_sum "Si O2"
_cell_formula_units_Z 48
_cell_length_a 19.028791
_cell_length_b 8.507106
_cell_length_c 14.988697
_cell_angle_alpha 90.000000
_cell_angle_beta 90.000000
_cell_angle_gamma 90.000000
_cell_volume 2426.369402
_symmetry_space_group_name_H-M "P C C M"
_symmetry_group_IT_number 49
_symmetry_cell_setting 'orthorhombic'
loop_
_space_group_symop_operation_xyz
x,y,z
-x,-y,z
x,-y,1/2-z
-x,y,1/2-z
-x,-y,-z
x,y,-z
-x,y,1/2+z
x,-y,1/2+z
loop_
_atom_site_type_symbol
_atom_site_label
_atom_site_fract_x
_atom_site_fract_y
_atom_site_fract_z
Si Si1 0.761396 0.183930 0.250874
Si Si2 0.609100 0.313896 0.246982
Si Si3 0.848485 0.309799 0.597039
Si Si4 0.005183 0.180131 0.105619
Si Si5 0.503431 0.314555 0.398362
Si Si6 0.124287 0.618346 0.833133
O O1 0.680648 0.220749 0.233508
O O2 0.781579 0.258469 0.345932
O O3 0.810807 0.261542 0.175751
O O4 0.774845 0.000000 0.250000
O O5 0.622486 0.500000 0.250000
O O6 0.572049 0.263831 0.340716
O O7 0.563560 0.261886 0.160567
O O8 0.836739 0.236065 0.500000
O O9 0.857028 0.499015 0.586618
O O10 0.919523 0.239357 0.640702
O O11 0.946418 0.284482 0.152797
O O12 0.997374 0.201557 0.000000
O O13 0.000000 0.000000 0.135339
O O14 0.500000 0.500000 0.407055
O O15 0.504146 0.242018 0.500000
O O16 0.116917 0.500000 0.750000
#
# Coordination Sequence:
#
# PCOD8203773 Si02
#       6
#     8   8   8   8   8   8
#     4  11  23  38  54  77 113 150 181 221 276 330
#     4   9  17  33  55  81 111 140 180 226 264 316
#     4  10  21  37  57  79 104 139 187 235 275 323
#     4  10  20  35  55  79 108 139 175 226 283 333
#     4   8  15  30  56  85 109 138 177 221 266 313
#     4  10  21  36  54  77 104 140 187 230 272 323
#
# _framework density 19.782643
#
# number of rings (size 3 to 8) (size 9 to 14) (size 15 to 20)
#    0.000    2.333    0.000    4.500    0.000    6.667 
#    0.000   12.500    0.000    1.000    0.000    0.000 
#    0.000    0.000    0.000    0.000    0.000    0.000 
#
# Total GULP energy -594916.660775 kJ/mol
# GULP energy per Si atom -12394.097099 kJ/mol
# Density = 1.973762 g / cm^3
# Si number density = 19.782643 Si / 1000 Ang^3
#
#
#
# Elastic Constant Matrix: (Units=GPa)
#
#
# Indices 1 2 3 4 5 6 
#
# 1 118.0299 37.0736 35.6836 0.0000 0.0000 0.0000
# 2 37.0736 108.4614 12.9131 0.0000 0.0000 0.0000
# 3 35.6836 12.9131 96.4814 0.0000 0.0000 0.0000
# 4 0.0000 0.0000 0.0000 13.9453 0.0000 0.0000
# 5 0.0000 0.0000 0.0000 0.0000 18.8870 0.0000
# 6 0.0000 0.0000 0.0000 0.0000 0.0000 20.7186
#
#
#
# Elastic Compliance Matrix: (Units=1/GPa)
#
#
# Indices 1 2 3 4 5 6 
#
# 1 0.010520 -0.003183 -0.003465 0.000000 0.000000 0.000000
# 2 -0.003183 0.010332 -0.000206 0.000000 0.000000 0.000000
# 3 -0.003465 -0.000206 0.011674 0.000000 0.000000 0.000000
# 4 0.000000 0.000000 0.000000 0.071709 0.000000 0.000000
# 5 0.000000 0.000000 0.000000 0.000000 0.052947 0.000000
# 6 0.000000 0.000000 0.000000 0.000000 0.000000 0.048266
#
#
# Mechanical properties :
#
#
# Convention : Reuss Voigt Hill
#
# Bulk Modulus (GPa) = 53.13849 54.92369 54.03109
# Shear Modulus (GPa) = 22.18014 26.53034 24.35524
#
# Velocity S-wave (km/s) = 3.35205 3.66606 3.51257
# Velocity P-wave (km/s) = 6.47311 6.76342 6.61986
#
# Compressibility (1/GPa) = 0.01881875
#
# Stress axis : x y z
#
# Youngs Moduli (GPa) = 95.05902 96.78259 85.66328
#
# Poissons Ratio (x) = 0.30809 0.29680
# Poissons Ratio (y) = 0.30260 0.01761
# Poissons Ratio (z) = 0.32935 0.01989
#
# Static dielectric constant tensor:
#      x y z
#    x 3.504490 0.000000 0.000000 
#    y 0.000000 3.635570 0.000000 
#    z 0.000000 0.000000 3.909760 
# 
# 
# High freq. dielectric constant tensor:
#      x y z
#    x 1.766690 0.000000 0.000000 
#    y 0.000000 1.760800 0.000000 
#    z 0.000000 0.000000 1.773070 
# 
# From -- ./inp_files/14313.got.cif
#   From: 2010.03.12/outbox.cif.g09.slc.cpg/sg49_8_cif.got.tgz:14313.got - 2010.04.14 03:58:27.
