data_PCOD8203245
_publ_section_title
;
Structure prediction by ZEFSAII (Michael W. Deem and Ramdas Pophale) SiO2 
 PCOD8203245
Probable space group: P C C M
;
_chemical_formula_sum "Si O2"
_cell_formula_units_Z 64
_cell_length_a 20.485501
_cell_length_b 19.606354
_cell_length_c 8.758307
_cell_angle_alpha 90.000000
_cell_angle_beta 90.000000
_cell_angle_gamma 90.000000
_cell_volume 3517.738837
_symmetry_space_group_name_H-M "P C C M"
_symmetry_group_IT_number 49
_symmetry_cell_setting 'orthorhombic'
loop_
_space_group_symop_operation_xyz
x,y,z
-x,-y,z
x,-y,1/2-z
-x,y,1/2-z
-x,-y,-z
x,y,-z
-x,y,1/2+z
x,-y,1/2+z
loop_
_atom_site_type_symbol
_atom_site_label
_atom_site_fract_x
_atom_site_fract_y
_atom_site_fract_z
Si Si1 0.066400 0.707730 0.181201
Si Si2 0.372288 0.930789 0.179280
Si Si3 0.739286 0.431047 0.321217
Si Si4 0.110904 0.429455 0.818695
Si Si5 0.777945 0.929520 0.680972
Si Si6 0.184033 0.207977 0.819537
Si Si7 0.431393 0.209344 0.680421
Si Si8 0.685683 0.287769 0.679625
O O1 0.070621 0.630698 0.241616
O O2 0.126896 0.751308 0.238902
O O3 0.000000 0.739825 0.250000
O O4 0.064062 0.708961 0.000000
O O5 0.297446 0.921016 0.229586
O O6 0.412465 0.866051 0.241870
O O7 0.401804 0.000000 0.250000
O O8 0.378294 0.937114 0.000000
O O9 0.709324 0.500000 0.250000
O O10 0.735963 0.439573 0.500000
O O11 0.813782 0.420249 0.269186
O O12 0.698020 0.365592 0.268109
O O13 0.083644 0.500000 0.750000
O O14 0.101641 0.427401 0.000000
O O15 0.787656 0.928142 0.500000
O O16 0.818418 0.869045 0.758641
O O17 0.805391 0.000000 0.750000
O O18 0.252602 0.241950 0.772770
O O19 0.173195 0.210569 0.000000
O O20 0.500000 0.231876 0.750000
O O21 0.436164 0.209475 0.500000
O O22 0.377591 0.263578 0.730467
O O23 0.672836 0.282340 0.500000
#
# Coordination Sequence:
#
# PCOD8203245 Si02
#       8
#     8   8   8   8   8   8   8   8
#     4  12  25  40  58  82 114 154 194 238 286 339
#     4   9  19  33  51  76 109 146 186 227 270 327
#     4   9  18  33  54  83 114 144 180 225 277 331
#     4  10  19  35  55  82 116 152 192 232 278 336
#     4  10  19  34  55  85 116 147 188 233 283 335
#     4  11  21  37  60  86 115 149 188 236 286 335
#     4  11  23  38  54  79 111 148 190 233 280 335
#     4  10  20  36  58  83 112 147 185 230 280 331
#
# _framework density 18.193504999999998
#
# number of rings (size 3 to 8) (size 9 to 14) (size 15 to 20)
#    0.000    1.750    2.500    2.625    0.000    3.500 
#    0.000    2.500    0.000    0.750    0.000    5.250 
#    0.000    0.000    0.000    0.000    0.000    0.000 
#
# Total GULP energy -793819.028205 kJ/mol
# GULP energy per Si atom -12403.422316 kJ/mol
# Density = 1.815210 g / cm^3
# Si number density = 18.193505 Si / 1000 Ang^3
#
#
#
# Elastic Constant Matrix: (Units=GPa)
#
#
# Indices 1 2 3 4 5 6 
#
# 1 89.9536 47.8544 43.2441 0.0000 0.0000 0.0000
# 2 47.8544 125.3140 45.3047 0.0000 0.0000 0.0000
# 3 43.2441 45.3047 84.3874 0.0000 0.0000 0.0000
# 4 0.0000 0.0000 0.0000 36.0287 0.0000 0.0000
# 5 0.0000 0.0000 0.0000 0.0000 23.5300 0.0000
# 6 0.0000 0.0000 0.0000 0.0000 0.0000 9.8845
#
#
#
# Elastic Compliance Matrix: (Units=1/GPa)
#
#
# Indices 1 2 3 4 5 6 
#
# 1 0.016186 -0.003949 -0.006174 0.000000 0.000000 0.000000
# 2 -0.003949 0.010865 -0.003810 0.000000 0.000000 0.000000
# 3 -0.006174 -0.003810 0.017059 0.000000 0.000000 0.000000
# 4 0.000000 0.000000 0.000000 0.027756 0.000000 0.000000
# 5 0.000000 0.000000 0.000000 0.000000 0.042499 0.000000
# 6 0.000000 0.000000 0.000000 0.000000 0.000000 0.101169
#
#
# Mechanical properties :
#
#
# Convention : Reuss Voigt Hill
#
# Bulk Modulus (GPa) = 61.55800 63.60683 62.58242
# Shear Modulus (GPa) = 20.09532 24.77208 22.43370
#
# Velocity S-wave (km/s) = 3.32706 3.69398 3.51531
# Velocity P-wave (km/s) = 6.97622 7.29597 7.13788
#
# Compressibility (1/GPa) = 0.01624484
#
# Stress axis : x y z
#
# Youngs Moduli (GPa) = 61.78249 92.03721 58.61857
#
# Poissons Ratio (x) = 0.36343 0.36194
# Poissons Ratio (y) = 0.24396 0.22331
# Poissons Ratio (z) = 0.38147 0.35063
#
# Static dielectric constant tensor:
#      x y z
#    x 3.203340 0.000000 0.000000 
#    y 0.000000 3.528330 0.000000 
#    z 0.000000 0.000000 3.321020 
# 
# 
# High freq. dielectric constant tensor:
#      x y z
#    x 1.681020 0.000000 0.000000 
#    y 0.000000 1.711410 0.000000 
#    z 0.000000 0.000000 1.711660 
# 
# From -- ./inp_files/5284.got.cif
#   From: 2010.03.12/outbox.cif.g09.slc.cpg/sg49_3_cif.got.tgz:5284.got - 2010.04.14 03:58:27.
