data_PCOD8203068
_publ_section_title
;
Structure prediction by ZEFSAII (Michael W. Deem and Ramdas Pophale) SiO2 
 PCOD8203068
Probable space group: P C C M
;
_chemical_formula_sum "Si O2"
_cell_formula_units_Z 40
_cell_length_a 9.016217
_cell_length_b 11.912776
_cell_length_c 18.492514
_cell_angle_alpha 90.000000
_cell_angle_beta 90.000000
_cell_angle_gamma 90.000000
_cell_volume 1986.247152
_symmetry_space_group_name_H-M "P C C M"
_symmetry_group_IT_number 49
_symmetry_cell_setting 'orthorhombic'
loop_
_space_group_symop_operation_xyz
x,y,z
-x,-y,z
x,-y,1/2-z
-x,y,1/2-z
-x,-y,-z
x,y,-z
-x,y,1/2+z
x,-y,1/2+z
loop_
_atom_site_type_symbol
_atom_site_label
_atom_site_fract_x
_atom_site_fract_y
_atom_site_fract_z
Si Si1 0.445707 0.228251 0.830921
Si Si2 0.767417 0.927296 0.914019
Si Si3 0.918698 0.851724 0.416850
Si Si4 0.710587 0.341106 0.916858
Si Si5 0.669210 0.461740 0.675892
O O1 0.500000 0.198498 0.750000
O O2 0.373507 0.119841 0.869408
O O3 0.583917 0.273773 0.875622
O O4 0.321134 0.327413 0.832007
O O5 0.915161 0.861962 0.885931
O O6 0.797256 0.056477 0.889138
O O7 0.734469 0.913572 0.000000
O O8 0.935655 0.883218 0.500000
O O9 0.862863 0.726049 0.403498
O O10 0.740675 0.468511 0.890299
O O11 0.664073 0.345460 0.000000
O O12 0.500000 0.500000 0.679906
O O13 0.749764 0.500000 0.750000
#
# Coordination Sequence:
#
# PCOD8203068 Si02
#       5
#     8   8   8   8   8
#     4  11  20  33  54  79 113 146 183 230 277 324
#     4   9  18  35  59  81 111 151 186 220 277 338
#     4   8  17  36  57  81 112 145 180 231 279 320
#     4  10  19  32  57  84 106 138 188 233 272 323
#     4   9  16  33  52  71 107 149 172 218 285 331
#
# _framework density 20.138480999999999
#
# number of rings (size 3 to 8) (size 9 to 14) (size 15 to 20)
#    0.000    2.600    4.000    1.800    0.000    5.200 
#    0.000    7.000    0.000    7.200    0.000    0.000 
#    0.000    0.000    0.000    0.000    0.000    0.000 
#
# Total GULP energy -495540.087343 kJ/mol
# GULP energy per Si atom -12388.502184 kJ/mol
# Density = 2.009265 g / cm^3
# Si number density = 20.138481 Si / 1000 Ang^3
#
#
#
# Elastic Constant Matrix: (Units=GPa)
#
#
# Indices 1 2 3 4 5 6 
#
# 1 37.5143 15.7575 26.4618 0.0000 0.0000 0.0000
# 2 15.7575 65.4219 30.4346 0.0000 0.0000 0.0000
# 3 26.4618 30.4346 109.5351 0.0000 0.0000 0.0000
# 4 0.0000 0.0000 0.0000 20.7356 0.0000 0.0000
# 5 0.0000 0.0000 0.0000 0.0000 6.9232 0.0000
# 6 0.0000 0.0000 0.0000 0.0000 0.0000 28.1657
#
#
#
# Elastic Compliance Matrix: (Units=1/GPa)
#
#
# Indices 1 2 3 4 5 6 
#
# 1 0.033466 -0.004938 -0.006713 0.000000 0.000000 0.000000
# 2 -0.004938 0.018283 -0.003887 0.000000 0.000000 0.000000
# 3 -0.006713 -0.003887 0.011831 0.000000 0.000000 0.000000
# 4 0.000000 0.000000 0.000000 0.048226 0.000000 0.000000
# 5 0.000000 0.000000 0.000000 0.000000 0.144442 0.000000
# 6 0.000000 0.000000 0.000000 0.000000 0.000000 0.035504
#
#
# Mechanical properties :
#
#
# Convention : Reuss Voigt Hill
#
# Bulk Modulus (GPa) = 30.76483 39.75324 35.25904
# Shear Modulus (GPa) = 14.98521 20.48606 17.73564
#
# Velocity S-wave (km/s) = 2.73079 3.19291 2.97085
# Velocity P-wave (km/s) = 5.02522 5.77717 5.41426
#
# Compressibility (1/GPa) = 0.03250465
#
# Stress axis : x y z
#
# Youngs Moduli (GPa) = 29.88144 54.69564 84.52210
#
# Poissons Ratio (x) = 0.27007 0.56738
# Poissons Ratio (y) = 0.14755 0.32855
# Poissons Ratio (z) = 0.20059 0.21261
#
# Static dielectric constant tensor:
#      x y z
#    x 3.385980 0.000000 0.000000 
#    y 0.000000 3.939940 0.000000 
#    z 0.000000 0.000000 3.660010 
# 
# 
# High freq. dielectric constant tensor:
#      x y z
#    x 1.753690 0.000000 0.000000 
#    y 0.000000 1.789530 0.000000 
#    z 0.000000 0.000000 1.770740 
# 
# From -- ./inp_files/15985.got.cif
#   From: 2010.03.12/outbox.cif.g09.slc.cpg/sg49_8_cif.got.tgz:15985.got - 2010.04.14 03:58:27.
