data_PCOD8203079
_publ_section_title
;
Structure prediction by ZEFSAII (Michael W. Deem and Ramdas Pophale) SiO2 
 PCOD8203079
Probable space group: P C C M
;
_chemical_formula_sum "Si O2"
_cell_formula_units_Z 58
_cell_length_a 14.537244
_cell_length_b 26.396584
_cell_length_c 8.917667
_cell_angle_alpha 90.000000
_cell_angle_beta 90.000000
_cell_angle_gamma 90.000000
_cell_volume 3422.008304
_symmetry_space_group_name_H-M "P C C M"
_symmetry_group_IT_number 49
_symmetry_cell_setting 'orthorhombic'
loop_
_space_group_symop_operation_xyz
x,y,z
-x,-y,z
x,-y,1/2-z
-x,y,1/2-z
-x,-y,-z
x,y,-z
-x,y,1/2+z
x,-y,1/2+z
loop_
_atom_site_type_symbol
_atom_site_label
_atom_site_fract_x
_atom_site_fract_y
_atom_site_fract_z
Si Si1 0.901883 0.765158 0.324180
Si Si2 0.000000 0.500000 0.250000
Si Si3 0.780156 0.136766 0.823704
Si Si4 0.591225 0.713204 0.172510
Si Si5 0.216251 0.321436 0.176989
Si Si6 0.904538 0.945666 0.820130
Si Si7 0.084069 0.401915 0.836512
Si Si8 0.594508 0.832028 0.175940
O O1 0.915567 0.756600 0.500000
O O2 0.835915 0.812304 0.289875
O O3 0.855386 0.716022 0.253355
O O4 0.000000 0.776013 0.250000
O O5 0.928350 0.536570 0.161341
O O6 0.824155 0.091719 0.728516
O O7 0.676729 0.141177 0.763677
O O8 0.779461 0.123840 0.000000
O O9 0.500000 0.691590 0.250000
O O10 0.680825 0.685086 0.241468
O O11 0.604146 0.772332 0.202855
O O12 0.579566 0.700303 0.000000
O O13 0.182021 0.379169 0.218435
O O14 0.219010 0.309843 0.000000
O O15 0.000000 0.925244 0.750000
O O16 0.881398 0.000000 0.750000
O O17 0.912262 0.948951 0.000000
O O18 0.000000 0.375983 0.750000
O O19 0.071433 0.380006 0.000000
O O20 0.500000 0.851753 0.250000
O O21 0.596618 0.845625 0.000000
#
# Coordination Sequence:
#
# PCOD8203079 Si02
#       8
#     8   2   8   8   8   8   8   8
#     4  11  23  34  47  70 103 140 173 207 249 305
#     4   8  18  32  50  68 100 128 178 212 260 296
#     4  11  22  36  54  78 106 139 179 218 260 312
#     4   9  18  31  49  70  99 133 169 211 254 304
#     4  10  19  33  49  71 100 134 169 207 255 307
#     4  11  22  38  59  82 108 139 178 222 268 315
#     4   9  18  30  48  69  96 129 166 207 251 299
#     4  10  19  33  53  76 103 137 175 216 261 311
#
# _framework density 16.949110999999998
#
# number of rings (size 3 to 8) (size 9 to 14) (size 15 to 20)
#    0.414    1.517    1.379    3.931    0.000    5.517 
#    0.000    0.000    0.000    0.414    0.000    3.379 
#    0.000    3.310    0.000    0.000    0.000    0.000 
#
# Total GULP energy -718703.014261 kJ/mol
# GULP energy per Si atom -12391.431280 kJ/mol
# Density = 1.691053 g / cm^3
# Si number density = 16.949111 Si / 1000 Ang^3
#
#
#
# Elastic Constant Matrix: (Units=GPa)
#
#
# Indices 1 2 3 4 5 6 
#
# 1 145.9134 52.4301 51.5978 0.0000 0.0000 0.0000
# 2 52.4301 67.4854 33.7645 0.0000 0.0000 0.0000
# 3 51.5978 33.7645 86.0055 0.0000 0.0000 0.0000
# 4 0.0000 0.0000 0.0000 -0.7672 0.0000 0.0000
# 5 0.0000 0.0000 0.0000 0.0000 31.8482 0.0000
# 6 0.0000 0.0000 0.0000 0.0000 0.0000 20.5192
#
#
#
# Elastic Compliance Matrix: (Units=1/GPa)
#
#
# Indices 1 2 3 4 5 6 
#
# 1 0.010431 -0.006188 -0.003828 0.000000 0.000000 0.000000
# 2 -0.006188 0.022111 -0.004968 0.000000 0.000000 0.000000
# 3 -0.003828 -0.004968 0.015874 0.000000 0.000000 0.000000
# 4 0.000000 0.000000 0.000000 -1.303501 0.000000 0.000000
# 5 0.000000 0.000000 0.000000 0.000000 0.031399 0.000000
# 6 0.000000 0.000000 0.000000 0.000000 0.000000 0.048735
#
#
# Mechanical properties :
#
#
# Convention : Reuss Voigt Hill
#
# Bulk Modulus (GPa) = 54.20910 63.88767 59.04839
# Shear Modulus (GPa) = -4.39046 21.09418 8.35186
#
# Velocity S-wave (km/s) = -1.61121 3.53166 2.22223
# Velocity P-wave (km/s) = 5.34711 7.37603 6.44195
#
# Compressibility (1/GPa) = 0.01844709
#
# Stress axis : x y z
#
# Youngs Moduli (GPa) = 95.87010 45.22547 62.99500
#
# Poissons Ratio (x) = 0.27987 0.24117
# Poissons Ratio (y) = 0.59328 0.31296
# Poissons Ratio (z) = 0.36702 0.22468
#
# Static dielectric constant tensor:
#      x y z
#    x 3.397350 0.000000 0.000000 
#    y 0.000000 3.023620 0.000000 
#    z 0.000000 0.000000 3.239180 
# 
# 
# High freq. dielectric constant tensor:
#      x y z
#    x 1.657400 0.000000 0.000000 
#    y 0.000000 1.627270 0.000000 
#    z 0.000000 0.000000 1.663070 
# 
# From -- ./inp_files/3011.got.cif
#   From: 2010.03.12/outbox.cif.g09.slc.cpg/sg49_2_cif.got.tgz:3011.got - 2010.04.14 03:58:27.
