data_PCOD8203950
_publ_section_title
;
Structure prediction by ZEFSAII (Michael W. Deem and Ramdas Pophale) SiO2 
 PCOD8203950
Probable space group: P C C M
;
_chemical_formula_sum "Si O2"
_cell_formula_units_Z 48
_cell_length_a 14.665436
_cell_length_b 18.813175
_cell_length_c 8.632639
_cell_angle_alpha 90.000000
_cell_angle_beta 90.000000
_cell_angle_gamma 90.000000
_cell_volume 2381.774571
_symmetry_space_group_name_H-M "P C C M"
_symmetry_group_IT_number 49
_symmetry_cell_setting 'orthorhombic'
loop_
_space_group_symop_operation_xyz
x,y,z
-x,-y,z
x,-y,1/2-z
-x,y,1/2-z
-x,-y,-z
x,y,-z
-x,y,1/2+z
x,-y,1/2+z
loop_
_atom_site_type_symbol
_atom_site_label
_atom_site_fract_x
_atom_site_fract_y
_atom_site_fract_z
Si Si1 0.905848 0.224816 0.817446
Si Si2 0.401947 0.422614 0.185377
Si Si3 0.582762 0.799159 0.172276
Si Si4 0.150503 0.925514 0.682237
Si Si5 0.742766 0.307497 0.673455
Si Si6 0.652461 0.931078 0.320134
O O1 0.894465 0.145221 0.752157
O O2 0.828528 0.283305 0.775448
O O3 0.000000 0.255841 0.750000
O O4 0.909759 0.219069 0.000000
O O5 0.378879 0.500000 0.250000
O O6 0.500000 0.396419 0.250000
O O7 0.317565 0.372841 0.241516
O O8 0.408312 0.421933 0.000000
O O9 0.500000 0.753197 0.250000
O O10 0.677091 0.759356 0.168969
O O11 0.587798 0.864958 0.290203
O O12 0.556911 0.823590 0.000000
O O13 0.133636 0.924746 0.500000
O O14 0.256622 0.921102 0.719735
O O15 0.109361 0.000000 0.750000
O O16 0.777024 0.325813 0.500000
O O17 0.677113 0.939363 0.500000
O O18 0.601899 0.000000 0.250000
#
# Coordination Sequence:
#
# PCOD8203950 Si02
#       6
#     8   8   8   8   8   8
#     4  12  25  41  63  89 118 155 200 249 305 363
#     4  10  20  36  61  95 132 169 204 243 287 341
#     4  11  22  36  55  80 112 149 192 241 290 348
#     4  11  21  37  59  84 114 149 195 249 308 365
#     4  10  22  40  61  86 121 159 196 242 296 350
#     4  11  21  35  54  77 105 145 192 239 296 351
#
# _framework density 20.153041999999999
#
# number of rings (size 3 to 8) (size 9 to 14) (size 15 to 20)
#    0.000    1.167    1.667    7.500    0.000    2.667 
#    0.000    3.333    0.000    0.500    0.000    3.500 
#    0.000    0.000    0.000    0.000    0.000    0.000 
#
# Total GULP energy -594895.204429 kJ/mol
# GULP energy per Si atom -12393.650092 kJ/mol
# Density = 2.010717 g / cm^3
# Si number density = 20.153042 Si / 1000 Ang^3
#
#
#
# Elastic Constant Matrix: (Units=GPa)
#
#
# Indices 1 2 3 4 5 6 
#
# 1 111.8024 49.5117 55.5937 0.0000 0.0000 0.0000
# 2 49.5117 112.8378 48.2300 0.0000 0.0000 0.0000
# 3 55.5937 48.2300 154.8766 0.0000 0.0000 0.0000
# 4 0.0000 0.0000 0.0000 26.2073 0.0000 0.0000
# 5 0.0000 0.0000 0.0000 0.0000 32.4451 0.0000
# 6 0.0000 0.0000 0.0000 0.0000 0.0000 28.7175
#
#
#
# Elastic Compliance Matrix: (Units=1/GPa)
#
#
# Indices 1 2 3 4 5 6 
#
# 1 0.012308 -0.004051 -0.003156 0.000000 0.000000 0.000000
# 2 -0.004051 0.011557 -0.002145 0.000000 0.000000 0.000000
# 3 -0.003156 -0.002145 0.008258 0.000000 0.000000 0.000000
# 4 0.000000 0.000000 0.000000 0.038157 0.000000 0.000000
# 5 0.000000 0.000000 0.000000 0.000000 0.030821 0.000000
# 6 0.000000 0.000000 0.000000 0.000000 0.000000 0.034822
#
#
# Mechanical properties :
#
#
# Convention : Reuss Voigt Hill
#
# Bulk Modulus (GPa) = 74.52960 76.24305 75.38632
# Shear Modulus (GPa) = 31.42675 32.55275 31.98975
#
# Velocity S-wave (km/s) = 3.95321 4.02341 3.98847
# Velocity P-wave (km/s) = 7.60916 7.71349 7.66150
#
# Compressibility (1/GPa) = 0.01341749
#
# Stress axis : x y z
#
# Youngs Moduli (GPa) = 81.24759 86.53023 121.10083
#
# Poissons Ratio (x) = 0.35058 0.38224
# Poissons Ratio (y) = 0.32917 0.25971
# Poissons Ratio (z) = 0.25645 0.18557
#
# Static dielectric constant tensor:
#      x y z
#    x 3.673080 0.000000 0.000000 
#    y 0.000000 3.862970 0.000000 
#    z 0.000000 0.000000 3.756230 
# 
# 
# High freq. dielectric constant tensor:
#      x y z
#    x 1.782830 0.000000 0.000000 
#    y 0.000000 1.771310 0.000000 
#    z 0.000000 0.000000 1.799610 
# 
# From -- ./inp_files/3726.got.cif
#   From: 2010.03.12/outbox.cif.g09.slc.cpg/sg49_2_cif.got.tgz:3726.got - 2010.04.14 03:58:27.
