data_PCOD8203953
_publ_section_title
;
Structure prediction by ZEFSAII (Michael W. Deem and Ramdas Pophale) SiO2 
 PCOD8203953
Probable space group: P C C M
;
_chemical_formula_sum "Si O2"
_cell_formula_units_Z 56
_cell_length_a 13.753113
_cell_length_b 11.528341
_cell_length_c 17.705279
_cell_angle_alpha 90.000000
_cell_angle_beta 90.000000
_cell_angle_gamma 90.000000
_cell_volume 2807.182192
_symmetry_space_group_name_H-M "P C C M"
_symmetry_group_IT_number 49
_symmetry_cell_setting 'orthorhombic'
loop_
_space_group_symop_operation_xyz
x,y,z
-x,-y,z
x,-y,1/2-z
-x,y,1/2-z
-x,-y,-z
x,y,-z
-x,y,1/2+z
x,-y,1/2+z
loop_
_atom_site_type_symbol
_atom_site_label
_atom_site_fract_x
_atom_site_fract_y
_atom_site_fract_z
Si Si1 0.985965 0.134340 0.837264
Si Si2 0.687572 0.045096 0.664760
Si Si3 0.829701 0.220925 0.412333
Si Si4 0.323939 0.402913 0.911993
Si Si5 0.211786 0.849275 0.083520
Si Si6 0.357703 0.659143 0.082970
Si Si7 0.468791 0.231757 0.164961
O O1 0.875615 0.160487 0.858150
O O2 0.000000 0.164184 0.750000
O O3 0.057898 0.214807 0.887138
O O4 0.000000 0.000000 0.855964
O O5 0.772713 0.134973 0.643963
O O6 0.581726 0.105414 0.651959
O O7 0.699280 0.000000 0.750000
O O8 0.702094 0.935548 0.610310
O O9 0.819341 0.181825 0.500000
O O10 0.785606 0.351082 0.402423
O O11 0.336302 0.533469 0.879926
O O12 0.394397 0.330027 0.859317
O O13 0.354283 0.392992 0.000000
O O14 0.254060 0.720604 0.080230
O O15 0.176130 0.888012 0.000000
O O16 0.431681 0.748375 0.121152
O O17 0.399830 0.635805 0.000000
O O18 0.500000 0.247258 0.250000
#
# Coordination Sequence:
#
# PCOD8203953 Si02
#       7
#     8   8   8   8   8   8   8
#     4  11  22  37  59  87 119 154 187 228 288 349
#     4  11  22  37  55  80 119 155 189 234 294 345
#     4  10  20  36  62  89 111 147 198 244 282 338
#     4   9  20  40  63  85 112 149 196 244 291 338
#     4  11  23  37  58  87 117 150 192 239 284 343
#     4  10  22  40  59  83 117 153 190 241 294 337
#     4  11  23  37  57  85 113 153 198 240 283 343
#
# _framework density 19.948830000000001
#
# number of rings (size 3 to 8) (size 9 to 14) (size 15 to 20)
#    0.000    1.571    1.429    3.429    0.000    7.714 
#    0.000    2.143    0.000    4.286    0.000    0.000 
#    0.000    0.000    0.000    0.000    0.000    0.000 
#
# Total GULP energy -694008.953477 kJ/mol
# GULP energy per Si atom -12393.017026 kJ/mol
# Density = 1.990343 g / cm^3
# Si number density = 19.948830 Si / 1000 Ang^3
#
#
#
# Elastic Constant Matrix: (Units=GPa)
#
#
# Indices 1 2 3 4 5 6 
#
# 1 114.6565 64.3797 56.9012 0.0000 0.0000 0.0000
# 2 64.3797 95.2185 48.8009 0.0000 0.0000 0.0000
# 3 56.9012 48.8009 104.1986 0.0000 0.0000 0.0000
# 4 0.0000 0.0000 0.0000 17.2344 0.0000 0.0000
# 5 0.0000 0.0000 0.0000 0.0000 44.3550 0.0000
# 6 0.0000 0.0000 0.0000 0.0000 0.0000 24.3572
#
#
#
# Elastic Compliance Matrix: (Units=1/GPa)
#
#
# Indices 1 2 3 4 5 6 
#
# 1 0.015647 -0.008158 -0.004724 0.000000 0.000000 0.000000
# 2 -0.008158 0.018073 -0.004009 0.000000 0.000000 0.000000
# 3 -0.004724 -0.004009 0.014054 0.000000 0.000000 0.000000
# 4 0.000000 0.000000 0.000000 0.058023 0.000000 0.000000
# 5 0.000000 0.000000 0.000000 0.000000 0.022545 0.000000
# 6 0.000000 0.000000 0.000000 0.000000 0.000000 0.041056
#
#
# Mechanical properties :
#
#
# Convention : Reuss Voigt Hill
#
# Bulk Modulus (GPa) = 71.47066 72.69300 72.08183
# Shear Modulus (GPa) = 24.05641 26.78877 25.42259
#
# Velocity S-wave (km/s) = 3.47638 3.66850 3.57373
# Velocity P-wave (km/s) = 7.21238 7.37988 7.29661
#
# Compressibility (1/GPa) = 0.01399176
#
# Stress axis : x y z
#
# Youngs Moduli (GPa) = 63.91087 55.33107 71.15290
#
# Poissons Ratio (x) = 0.45141 0.33609
# Poissons Ratio (y) = 0.52141 0.28527
# Poissons Ratio (z) = 0.30189 0.22184
#
# Static dielectric constant tensor:
#      x y z
#    x 3.697960 0.000000 0.000000 
#    y 0.000000 3.718580 0.000000 
#    z 0.000000 0.000000 3.503870 
# 
# 
# High freq. dielectric constant tensor:
#      x y z
#    x 1.776780 0.000000 0.000000 
#    y 0.000000 1.770740 0.000000 
#    z 0.000000 0.000000 1.782600 
# 
# From -- ./inp_files/13572.got.cif
#   From: 2010.03.12/outbox.cif.g09.slc.cpg/sg49_7_cif.got.tgz:13572.got - 2010.04.14 03:58:27.
