data_PCOD8203098
_publ_section_title
;
Structure prediction by ZEFSAII (Michael W. Deem and Ramdas Pophale) SiO2 
 PCOD8203098
Probable space group: P C C M
;
_chemical_formula_sum "Si O2"
_cell_formula_units_Z 64
_cell_length_a 20.626142
_cell_length_b 19.470140
_cell_length_c 8.749938
_cell_angle_alpha 90.000000
_cell_angle_beta 90.000000
_cell_angle_gamma 90.000000
_cell_volume 3513.921485
_symmetry_space_group_name_H-M "P C C M"
_symmetry_group_IT_number 49
_symmetry_cell_setting 'orthorhombic'
loop_
_space_group_symop_operation_xyz
x,y,z
-x,-y,z
x,-y,1/2-z
-x,y,1/2-z
-x,-y,-z
x,y,-z
-x,y,1/2+z
x,-y,1/2+z
loop_
_atom_site_type_symbol
_atom_site_label
_atom_site_fract_x
_atom_site_fract_y
_atom_site_fract_z
Si Si1 0.732275 0.071756 0.322280
Si Si2 0.433258 0.288640 0.320531
Si Si3 0.933350 0.208478 0.180306
Si Si4 0.115886 0.071653 0.822766
Si Si5 0.624360 0.570107 0.319226
Si Si6 0.305983 0.209045 0.680627
Si Si7 0.236067 0.568314 0.322900
Si Si8 0.184720 0.714716 0.323194
O O1 0.714026 0.072785 0.500000
O O2 0.808237 0.084477 0.296081
O O3 0.693506 0.130199 0.232370
O O4 0.710265 0.000000 0.250000
O O5 0.500000 0.261259 0.250000
O O6 0.440197 0.285849 0.500000
O O7 0.419824 0.366492 0.264609
O O8 0.374626 0.240069 0.267137
O O9 0.922654 0.131656 0.239994
O O10 0.876174 0.259205 0.228493
O O11 0.000000 0.237536 0.250000
O O12 0.938201 0.206919 0.000000
O O13 0.093627 0.000000 0.750000
O O14 0.097715 0.071234 0.000000
O O15 0.594983 0.500000 0.250000
O O16 0.626433 0.564466 0.500000
O O17 0.696738 0.583570 0.261215
O O18 0.294686 0.215325 0.500000
O O19 0.250092 0.250281 0.766093
O O20 0.203368 0.500000 0.250000
O O21 0.250940 0.555054 0.500000
O O22 0.188425 0.632692 0.299996
O O23 0.175315 0.734913 0.500000
#
# Coordination Sequence:
#
# PCOD8203098 Si02
#       8
#     8   8   8   8   8   8   8   8
#     4  10  20  34  56  85 116 147 183 230 279 332
#     4  10  23  38  54  78 111 150 191 234 282 337
#     4  12  25  40  59  82 114 153 190 234 282 332
#     4  10  20  35  55  82 116 151 192 230 273 331
#     4  10  19  33  51  77 110 147 189 230 275 331
#     4  11  21  36  58  84 113 147 188 234 282 332
#     4  10  20  33  55  84 114 146 183 230 280 331
#     4  11  22  37  58  86 114 147 189 232 280 334
#
# _framework density 18.213270000000001
#
# number of rings (size 3 to 8) (size 9 to 14) (size 15 to 20)
#    0.000    1.500    2.500    4.125    0.000    5.000 
#    0.000    2.500    0.000    0.750    0.000    5.250 
#    0.000    0.000    0.000    0.000    0.000    0.000 
#
# Total GULP energy -793835.229013 kJ/mol
# GULP energy per Si atom -12403.675453 kJ/mol
# Density = 1.817182 g / cm^3
# Si number density = 18.213270 Si / 1000 Ang^3
#
#
#
# Elastic Constant Matrix: (Units=GPa)
#
#
# Indices 1 2 3 4 5 6 
#
# 1 98.3684 51.1248 39.4728 0.0000 0.0000 0.0000
# 2 51.1248 108.1450 45.5411 0.0000 0.0000 0.0000
# 3 39.4728 45.5411 106.6907 0.0000 0.0000 0.0000
# 4 0.0000 0.0000 0.0000 32.8341 0.0000 0.0000
# 5 0.0000 0.0000 0.0000 0.0000 27.3122 0.0000
# 6 0.0000 0.0000 0.0000 0.0000 0.0000 10.9657
#
#
#
# Elastic Compliance Matrix: (Units=1/GPa)
#
#
# Indices 1 2 3 4 5 6 
#
# 1 0.014180 -0.005479 -0.002908 0.000000 0.000000 0.000000
# 2 -0.005479 0.013390 -0.003689 0.000000 0.000000 0.000000
# 3 -0.002908 -0.003689 0.012023 0.000000 0.000000 0.000000
# 4 0.000000 0.000000 0.000000 0.030456 0.000000 0.000000
# 5 0.000000 0.000000 0.000000 0.000000 0.036614 0.000000
# 6 0.000000 0.000000 0.000000 0.000000 0.000000 0.091194
#
#
# Mechanical properties :
#
#
# Convention : Reuss Voigt Hill
#
# Bulk Modulus (GPa) = 64.75363 65.05351 64.90357
# Shear Modulus (GPa) = 22.01134 26.02675 24.01905
#
# Velocity S-wave (km/s) = 3.48017 3.78431 3.63542
# Velocity P-wave (km/s) = 7.19576 7.40877 7.30304
#
# Compressibility (1/GPa) = 0.01544315
#
# Stress axis : x y z
#
# Youngs Moduli (GPa) = 70.52037 74.68034 83.17352
#
# Poissons Ratio (x) = 0.40919 0.24183
# Poissons Ratio (y) = 0.38640 0.30679
# Poissons Ratio (z) = 0.20504 0.27546
#
# Static dielectric constant tensor:
#      x y z
#    x 3.269290 0.000000 0.000000 
#    y 0.000000 3.604360 0.000000 
#    z 0.000000 0.000000 3.470070 
# 
# 
# High freq. dielectric constant tensor:
#      x y z
#    x 1.679700 0.000000 0.000000 
#    y 0.000000 1.712910 0.000000 
#    z 0.000000 0.000000 1.722760 
# 
# From -- ./inp_files/5272.got.cif
#   From: 2010.03.12/outbox.cif.g09.slc.cpg/sg49_3_cif.got.tgz:5272.got - 2010.04.14 03:58:27.
