data_PCOD8203494
_publ_section_title
;
Structure prediction by ZEFSAII (Michael W. Deem and Ramdas Pophale) SiO2 
 PCOD8203494
Probable space group: P C C M
;
_chemical_formula_sum "Si O2"
_cell_formula_units_Z 64
_cell_length_a 28.208642
_cell_length_b 14.694451
_cell_length_c 8.676041
_cell_angle_alpha 90.000000
_cell_angle_beta 90.000000
_cell_angle_gamma 90.000000
_cell_volume 3596.310159
_symmetry_space_group_name_H-M "P C C M"
_symmetry_group_IT_number 49
_symmetry_cell_setting 'orthorhombic'
loop_
_space_group_symop_operation_xyz
x,y,z
-x,-y,z
x,-y,1/2-z
-x,y,1/2-z
-x,-y,-z
x,y,-z
-x,y,1/2+z
x,-y,1/2+z
loop_
_atom_site_type_symbol
_atom_site_label
_atom_site_fract_x
_atom_site_fract_y
_atom_site_fract_z
Si Si1 0.915424 0.905207 0.319788
Si Si2 0.650232 0.899485 0.680752
Si Si3 0.765489 0.597622 0.683129
Si Si4 0.048317 0.274174 0.818702
Si Si5 0.269764 0.774298 0.682157
Si Si6 0.545314 0.901106 0.322097
Si Si7 0.867218 0.403808 0.316668
Si Si8 0.805471 0.095486 0.180943
O O1 0.925099 0.904715 0.500000
O O2 0.946365 0.828011 0.240747
O O3 0.860357 0.889399 0.280757
O O4 0.933000 0.000000 0.250000
O O5 0.662148 0.905107 0.500000
O O6 0.684659 0.829731 0.763927
O O7 0.597244 0.858482 0.709285
O O8 0.656511 0.000000 0.750000
O O9 0.749886 0.500000 0.750000
O O10 0.765472 0.592772 0.500000
O O11 0.728802 0.674035 0.741870
O O12 0.817535 0.625609 0.742526
O O13 0.093185 0.332484 0.762797
O O14 0.000000 0.316433 0.750000
O O15 0.044321 0.275070 0.000000
O O16 0.269941 0.764296 0.500000
O O17 0.222040 0.823886 0.735859
O O18 0.500000 0.846010 0.250000
O O19 0.535123 0.909980 0.500000
O O20 0.546440 0.000000 0.250000
O O21 0.883821 0.500000 0.250000
O O22 0.861347 0.409092 0.500000
O O23 0.787434 0.000000 0.250000
O O24 0.794604 0.096655 0.000000
#
# Coordination Sequence:
#
# PCOD8203494 Si02
#       8
#     8   8   8   8   8   8   8   8
#     4  10  21  37  57  77  99 128 164 203 243 287
#     4  10  20  33  47  69 102 141 181 221 263 308
#     4  11  22  38  59  81 104 131 165 205 247 298
#     4  11  24  39  56  78 104 131 162 199 241 289
#     4  12  23  34  50  73 103 138 172 210 254 302
#     4   9  16  26  43  64  91 129 175 221 263 305
#     4  10  21  38  60  84 107 132 161 197 240 291
#     4  10  20  34  52  75 102 134 168 205 246 294
#
# _framework density 17.796018
#
# number of rings (size 3 to 8) (size 9 to 14) (size 15 to 20)
#    0.000    1.625    0.000    6.750    0.000    7.500 
#    0.000    2.500    0.000    0.000    0.000    0.000 
#    0.000    0.500    0.000    5.250    0.000    2.875 
#
# Total GULP energy -793637.997931 kJ/mol
# GULP energy per Si atom -12400.593718 kJ/mol
# Density = 1.775551 g / cm^3
# Si number density = 17.796018 Si / 1000 Ang^3
#
#
#
# Elastic Constant Matrix: (Units=GPa)
#
#
# Indices 1 2 3 4 5 6 
#
# 1 77.4905 43.6423 39.1169 0.0000 0.0000 0.0000
# 2 43.6423 97.0910 40.7047 0.0000 0.0000 0.0000
# 3 39.1169 40.7047 116.6466 0.0000 0.0000 0.0000
# 4 0.0000 0.0000 0.0000 26.7752 0.0000 0.0000
# 5 0.0000 0.0000 0.0000 0.0000 29.7831 0.0000
# 6 0.0000 0.0000 0.0000 0.0000 0.0000 12.5850
#
#
#
# Elastic Compliance Matrix: (Units=1/GPa)
#
#
# Indices 1 2 3 4 5 6 
#
# 1 0.018685 -0.006761 -0.003907 0.000000 0.000000 0.000000
# 2 -0.006761 0.014511 -0.002796 0.000000 0.000000 0.000000
# 3 -0.003907 -0.002796 0.010859 0.000000 0.000000 0.000000
# 4 0.000000 0.000000 0.000000 0.037348 0.000000 0.000000
# 5 0.000000 0.000000 0.000000 0.000000 0.033576 0.000000
# 6 0.000000 0.000000 0.000000 0.000000 0.000000 0.079460
#
#
# Mechanical properties :
#
#
# Convention : Reuss Voigt Hill
#
# Bulk Modulus (GPa) = 58.38888 59.79509 59.09199
# Shear Modulus (GPa) = 22.01917 25.01293 23.51605
#
# Velocity S-wave (km/s) = 3.52136 3.75311 3.63908
# Velocity P-wave (km/s) = 7.02955 7.24254 7.13684
#
# Compressibility (1/GPa) = 0.01712655
#
# Stress axis : x y z
#
# Youngs Moduli (GPa) = 53.52027 68.91303 92.09125
#
# Poissons Ratio (x) = 0.46591 0.35976
# Poissons Ratio (y) = 0.36184 0.25753
# Poissons Ratio (z) = 0.20908 0.19272
#
# Static dielectric constant tensor:
#      x y z
#    x 3.875610 0.000000 0.000000 
#    y 0.000000 3.137160 0.000000 
#    z 0.000000 0.000000 3.452600 
# 
# 
# High freq. dielectric constant tensor:
#      x y z
#    x 1.682480 0.000000 0.000000 
#    y 0.000000 1.666450 0.000000 
#    z 0.000000 0.000000 1.710700 
# 
# From -- ./inp_files/7013.got.cif
#   From: 2010.03.12/outbox.cif.g09.slc.cpg/sg49_4_cif.got.tgz:7013.got - 2010.04.14 03:58:27.
