data_PCOD8203782
_publ_section_title
;
Structure prediction by ZEFSAII (Michael W. Deem and Ramdas Pophale) SiO2 
 PCOD8203782
Probable space group: P C C M
;
_chemical_formula_sum "Si O2"
_cell_formula_units_Z 64
_cell_length_a 17.290923
_cell_length_b 20.830505
_cell_length_c 9.103084
_cell_angle_alpha 90.000000
_cell_angle_beta 90.000000
_cell_angle_gamma 90.000000
_cell_volume 3278.736579
_symmetry_space_group_name_H-M "P C C M"
_symmetry_group_IT_number 49
_symmetry_cell_setting 'orthorhombic'
loop_
_space_group_symop_operation_xyz
x,y,z
-x,-y,z
x,-y,1/2-z
-x,y,1/2-z
-x,-y,-z
x,y,-z
-x,y,1/2+z
x,-y,1/2+z
loop_
_atom_site_type_symbol
_atom_site_label
_atom_site_fract_x
_atom_site_fract_y
_atom_site_fract_z
Si Si1 0.925762 0.647144 0.827035
Si Si2 0.189485 0.562875 0.831321
Si Si3 0.074415 0.909842 0.164262
Si Si4 0.245634 0.937061 0.175150
Si Si5 0.712265 0.798547 0.673378
Si Si6 0.883790 0.234313 0.833666
Si Si7 0.628070 0.563422 0.667028
Si Si8 0.578796 0.296470 0.824133
O O1 0.847065 0.622168 0.754374
O O2 0.927839 0.722132 0.785231
O O3 0.000000 0.613281 0.750000
O O4 0.927588 0.635570 0.000000
O O5 0.158154 0.500000 0.750000
O O6 0.280586 0.569233 0.816721
O O7 0.162748 0.561496 0.000000
O O8 0.156377 0.933178 0.230807
O O9 0.073605 0.833206 0.168078
O O10 0.000000 0.937282 0.250000
O O11 0.066422 0.935796 0.000000
O O12 0.292571 0.873137 0.227470
O O13 0.283793 0.000000 0.250000
O O14 0.248645 0.942668 0.000000
O O15 0.706330 0.798947 0.500000
O O16 0.794955 0.770430 0.719340
O O17 0.644631 0.752538 0.736168
O O18 0.887976 0.263400 0.000000
O O19 0.596356 0.500000 0.750000
O O20 0.602591 0.554212 0.500000
O O21 0.594297 0.630257 0.730050
O O22 0.500000 0.272548 0.750000
O O23 0.573654 0.294098 0.000000
#
# Coordination Sequence:
#
# PCOD8203782 Si02
#       8
#     8   8   8   8   8   8   8   8
#     4  12  24  35  48  70  98 130 168 214 264 312
#     4  10  20  37  57  75  95 125 166 211 257 308
#     4   9  18  30  46  69 100 135 170 208 256 306
#     4   9  18  33  52  75 100 133 175 219 262 311
#     4   8  16  34  58  77 101 138 176 211 260 319
#     4   9  17  33  54  73  94 127 170 214 257 307
#     4   9  19  35  57  81 108 141 174 207 250 302
#     4  10  20  35  55  81 110 142 174 208 251 303
#
# _framework density 19.519714
#
# number of rings (size 3 to 8) (size 9 to 14) (size 15 to 20)
#    0.000    2.500    0.000    4.125    0.000    5.750 
#    0.000    8.125    0.000    0.375    0.000    2.625 
#    0.000    0.000    0.000    0.000    0.000    0.000 
#
# Total GULP energy -793277.867082 kJ/mol
# GULP energy per Si atom -12394.966673 kJ/mol
# Density = 1.947529 g / cm^3
# Si number density = 19.519714 Si / 1000 Ang^3
#
#
#
# Elastic Constant Matrix: (Units=GPa)
#
#
# Indices 1 2 3 4 5 6 
#
# 1 68.6394 37.6312 27.7266 0.0000 0.0000 0.0000
# 2 37.6312 106.3264 30.2549 0.0000 0.0000 0.0000
# 3 27.7266 30.2549 77.3327 0.0000 0.0000 0.0000
# 4 0.0000 0.0000 0.0000 30.7442 0.0000 0.0000
# 5 0.0000 0.0000 0.0000 0.0000 24.0129 0.0000
# 6 0.0000 0.0000 0.0000 0.0000 0.0000 10.1970
#
#
#
# Elastic Compliance Matrix: (Units=1/GPa)
#
#
# Indices 1 2 3 4 5 6 
#
# 1 0.019567 -0.005546 -0.004846 0.000000 0.000000 0.000000
# 2 -0.005546 0.012155 -0.002767 0.000000 0.000000 0.000000
# 3 -0.004846 -0.002767 0.015751 0.000000 0.000000 0.000000
# 4 0.000000 0.000000 0.000000 0.032526 0.000000 0.000000
# 5 0.000000 0.000000 0.000000 0.000000 0.041644 0.000000
# 6 0.000000 0.000000 0.000000 0.000000 0.000000 0.098068
#
#
# Mechanical properties :
#
#
# Convention : Reuss Voigt Hill
#
# Bulk Modulus (GPa) = 47.26905 49.28041 48.27473
# Shear Modulus (GPa) = 19.75646 23.43654 21.59650
#
# Velocity S-wave (km/s) = 3.18485 3.46881 3.32986
# Velocity P-wave (km/s) = 6.14760 6.43000 6.29038
#
# Compressibility (1/GPa) = 0.02115549
#
# Stress axis : x y z
#
# Youngs Moduli (GPa) = 51.10640 82.26853 63.48814
#
# Poissons Ratio (x) = 0.45629 0.30764
# Poissons Ratio (y) = 0.28346 0.17567
# Poissons Ratio (z) = 0.24764 0.22763
#
# Static dielectric constant tensor:
#      x y z
#    x 3.522390 0.000000 0.000000 
#    y 0.000000 3.789640 0.000000 
#    z 0.000000 0.000000 3.372810 
# 
# 
# High freq. dielectric constant tensor:
#      x y z
#    x 1.742630 0.000000 0.000000 
#    y 0.000000 1.767270 0.000000 
#    z 0.000000 0.000000 1.737110 
# 
# From -- ./inp_files/4307.got.cif
#   From: 2010.03.12/outbox.cif.g09.slc.cpg/sg49_3_cif.got.tgz:4307.got - 2010.04.14 03:58:27.
