data_PCOD8203307
_publ_section_title
;
Structure prediction by ZEFSAII (Michael W. Deem and Ramdas Pophale) SiO2 
 PCOD8203307
Probable space group: P C C M
;
_chemical_formula_sum "Si O2"
_cell_formula_units_Z 52
_cell_length_a 17.203651
_cell_length_b 16.226290
_cell_length_c 9.182883
_cell_angle_alpha 90.000000
_cell_angle_beta 90.000000
_cell_angle_gamma 90.000000
_cell_volume 2563.414923
_symmetry_space_group_name_H-M "P C C M"
_symmetry_group_IT_number 49
_symmetry_cell_setting 'orthorhombic'
loop_
_space_group_symop_operation_xyz
x,y,z
-x,-y,z
x,-y,1/2-z
-x,y,1/2-z
-x,-y,-z
x,y,-z
-x,y,1/2+z
x,-y,1/2+z
loop_
_atom_site_type_symbol
_atom_site_label
_atom_site_fract_x
_atom_site_fract_y
_atom_site_fract_z
Si Si1 0.707625 0.000000 0.250000
Si Si2 0.636324 0.246031 0.335191
Si Si3 0.320038 0.421981 0.167979
Si Si4 0.204349 0.158050 0.839179
Si Si5 0.139972 0.583503 0.325939
Si Si6 0.920905 0.252457 0.175318
Si Si7 0.569194 0.103703 0.840660
O O1 0.763622 0.064501 0.329989
O O2 0.648186 0.050035 0.146217
O O3 0.607705 0.231249 0.500000
O O4 0.630138 0.341536 0.289304
O O5 0.726105 0.221941 0.321249
O O6 0.583904 0.192966 0.228593
O O7 0.356316 0.500000 0.250000
O O8 0.230616 0.407927 0.210560
O O9 0.327019 0.441814 0.000000
O O10 0.141928 0.181585 0.715913
O O11 0.166918 0.168356 0.000000
O O12 0.107766 0.500000 0.250000
O O13 0.123105 0.583283 0.500000
O O14 0.098463 0.659904 0.248050
O O15 0.000000 0.221528 0.250000
O O16 0.926770 0.259692 0.000000
O O17 0.500000 0.059827 0.750000
O O18 0.535700 0.117631 0.000000
#
# Coordination Sequence:
#
# PCOD8203307 Si02
#       7
#     4   8   8   8   8   8   8
#     4  10  23  40  65  94 118 148 188 230 283 346
#     4   9  18  35  57  82 116 157 192 233 285 337
#     4   9  17  30  51  81 115 151 191 237 286 332
#     4  10  20  39  62  85 116 149 188 240 291 346
#     4  10  19  35  56  84 118 153 194 242 295 347
#     4  12  25  40  59  83 114 155 199 244 295 351
#     4  11  23  38  59  90 123 156 190 228 278 340
#
# _framework density 20.285440000000001
#
# number of rings (size 3 to 8) (size 9 to 14) (size 15 to 20)
#    0.000    1.846    1.538    3.000    0.000    7.077 
#    0.000    1.923    0.000    2.308    0.000    3.231 
#    0.000    0.000    0.000    0.000    0.000    0.000 
#
# Total GULP energy -644517.252136 kJ/mol
# GULP energy per Si atom -12394.562541 kJ/mol
# Density = 2.023927 g / cm^3
# Si number density = 20.285440 Si / 1000 Ang^3
#
#
#
# Elastic Constant Matrix: (Units=GPa)
#
#
# Indices 1 2 3 4 5 6 
#
# 1 64.4261 40.8380 43.4834 0.0000 0.0000 0.0000
# 2 40.8380 128.6063 52.5179 0.0000 0.0000 0.0000
# 3 43.4834 52.5179 145.6917 0.0000 0.0000 0.0000
# 4 0.0000 0.0000 0.0000 9.0839 0.0000 0.0000
# 5 0.0000 0.0000 0.0000 0.0000 28.1412 0.0000
# 6 0.0000 0.0000 0.0000 0.0000 0.0000 7.1076
#
#
#
# Elastic Compliance Matrix: (Units=1/GPa)
#
#
# Indices 1 2 3 4 5 6 
#
# 1 0.021894 -0.005023 -0.004724 0.000000 0.000000 0.000000
# 2 -0.005023 0.010270 -0.002203 0.000000 0.000000 0.000000
# 3 -0.004724 -0.002203 0.009068 0.000000 0.000000 0.000000
# 4 0.000000 0.000000 0.000000 0.110085 0.000000 0.000000
# 5 0.000000 0.000000 0.000000 0.000000 0.035535 0.000000
# 6 0.000000 0.000000 0.000000 0.000000 0.000000 0.140695
#
#
# Mechanical properties :
#
#
# Convention : Reuss Voigt Hill
#
# Bulk Modulus (GPa) = 57.69610 68.04476 62.87043
# Shear Modulus (GPa) = 13.99681 22.32552 18.16116
#
# Velocity S-wave (km/s) = 2.62962 3.32108 2.99537
# Velocity P-wave (km/s) = 6.14197 6.95144 6.55920
#
# Compressibility (1/GPa) = 0.01733219
#
# Stress axis : x y z
#
# Youngs Moduli (GPa) = 45.67453 97.36749 110.28060
#
# Poissons Ratio (x) = 0.48910 0.52094
# Poissons Ratio (y) = 0.22944 0.24294
# Poissons Ratio (z) = 0.21576 0.21449
#
# Static dielectric constant tensor:
#      x y z
#    x 3.563230 0.000000 0.000000 
#    y 0.000000 3.852590 0.000000 
#    z 0.000000 0.000000 3.586990 
# 
# 
# High freq. dielectric constant tensor:
#      x y z
#    x 1.768040 0.000000 0.000000 
#    y 0.000000 1.801030 0.000000 
#    z 0.000000 0.000000 1.791490 
# 
# From -- ./inp_files/5031.got.cif
#   From: 2010.03.12/outbox.cif.g09.slc.cpg/sg49_3_cif.got.tgz:5031.got - 2010.04.14 03:58:27.
