data_PCOD8203604
_publ_section_title
;
Structure prediction by ZEFSAII (Michael W. Deem and Ramdas Pophale) SiO2 
 PCOD8203604
Probable space group: P C C M
;
_chemical_formula_sum "Si O2"
_cell_formula_units_Z 64
_cell_length_a 20.419574
_cell_length_b 19.600260
_cell_length_c 9.262641
_cell_angle_alpha 90.000000
_cell_angle_beta 90.000000
_cell_angle_gamma 90.000000
_cell_volume 3707.177170
_symmetry_space_group_name_H-M "P C C M"
_symmetry_group_IT_number 49
_symmetry_cell_setting 'orthorhombic'
loop_
_space_group_symop_operation_xyz
x,y,z
-x,-y,z
x,-y,1/2-z
-x,y,1/2-z
-x,-y,-z
x,y,-z
-x,y,1/2+z
x,-y,1/2+z
loop_
_atom_site_type_symbol
_atom_site_label
_atom_site_fract_x
_atom_site_fract_y
_atom_site_fract_z
Si Si1 0.383586 0.213571 0.170562
Si Si2 0.310676 0.570821 0.168835
Si Si3 0.436895 0.339877 0.329867
Si Si4 0.614400 0.937856 0.159088
Si Si5 0.229770 0.937645 0.659749
Si Si6 0.810427 0.338994 0.832983
Si Si7 0.065462 0.430731 0.670715
Si Si8 0.232576 0.787491 0.670002
O O1 0.426530 0.264759 0.264619
O O2 0.404637 0.137040 0.219056
O O3 0.307931 0.226467 0.209576
O O4 0.395584 0.224482 0.000000
O O5 0.313276 0.500000 0.250000
O O6 0.375775 0.612419 0.206822
O O7 0.248098 0.613147 0.225144
O O8 0.304490 0.555640 0.000000
O O9 0.500000 0.372256 0.250000
O O10 0.449491 0.334156 0.500000
O O11 0.692349 0.943244 0.154461
O O12 0.583658 0.000000 0.250000
O O13 0.585223 0.946196 0.000000
O O14 0.200461 0.944600 0.500000
O O15 0.211221 0.863205 0.724180
O O16 0.198987 0.000000 0.750000
O O17 0.879326 0.374708 0.804519
O O18 0.812384 0.267748 0.748773
O O19 0.798492 0.322807 0.000000
O O20 0.088092 0.500000 0.750000
O O21 0.053455 0.443949 0.500000
O O22 0.000000 0.403892 0.750000
O O23 0.221761 0.782106 0.500000
#
# Coordination Sequence:
#
# PCOD8203604 Si02
#       8
#     8   8   8   8   8   8   8   8
#     4   9  17  31  49  70  96 126 161 200 245 295
#     4  10  22  38  55  76  99 124 158 199 246 297
#     4  11  23  38  55  73  95 123 160 204 250 303
#     4   8  14  24  40  64  93 122 155 193 234 286
#     4   8  14  24  37  60  93 128 164 198 238 285
#     4  10  20  34  51  76 106 133 167 207 245 290
#     4  10  20  34  53  75 104 138 173 210 245 292
#     4   9  17  28  46  71  99 131 166 205 246 292
#
# _framework density 17.263809999999999
#
# number of rings (size 3 to 8) (size 9 to 14) (size 15 to 20)
#    0.000    2.625    1.250    3.000    0.000    3.750 
#    0.000    3.750    0.000    0.375    0.000    2.625 
#    0.000    0.500    0.000    5.500    0.000    4.250 
#
# Total GULP energy -793384.991617 kJ/mol
# GULP energy per Si atom -12396.640494 kJ/mol
# Density = 1.722452 g / cm^3
# Si number density = 17.263810 Si / 1000 Ang^3
#
#
#
# Elastic Constant Matrix: (Units=GPa)
#
#
# Indices 1 2 3 4 5 6 
#
# 1 65.4847 45.7247 35.4302 0.0000 0.0000 0.0000
# 2 45.7247 135.9670 58.1718 0.0000 0.0000 0.0000
# 3 35.4302 58.1718 71.1281 0.0000 0.0000 0.0000
# 4 0.0000 0.0000 0.0000 35.7196 0.0000 0.0000
# 5 0.0000 0.0000 0.0000 0.0000 20.6528 0.0000
# 6 0.0000 0.0000 0.0000 0.0000 0.0000 15.3491
#
#
#
# Elastic Compliance Matrix: (Units=1/GPa)
#
#
# Indices 1 2 3 4 5 6 
#
# 1 0.022390 -0.004242 -0.007683 0.000000 0.000000 0.000000
# 2 -0.004242 0.012117 -0.007797 0.000000 0.000000 0.000000
# 3 -0.007683 -0.007797 0.024263 0.000000 0.000000 0.000000
# 4 0.000000 0.000000 0.000000 0.027996 0.000000 0.000000
# 5 0.000000 0.000000 0.000000 0.000000 0.048420 0.000000
# 6 0.000000 0.000000 0.000000 0.000000 0.000000 0.065150
#
#
# Mechanical properties :
#
#
# Convention : Reuss Voigt Hill
#
# Bulk Modulus (GPa) = 51.74586 61.24815 56.49700
# Shear Modulus (GPa) = 20.30687 23.22785 21.76736
#
# Velocity S-wave (km/s) = 3.43340 3.67204 3.55472
# Velocity P-wave (km/s) = 6.76434 7.31664 7.04591
#
# Compressibility (1/GPa) = 0.01932522
#
# Stress axis : x y z
#
# Youngs Moduli (GPa) = 44.66281 82.52748 41.21527
#
# Poissons Ratio (x) = 0.35012 0.31667
# Poissons Ratio (y) = 0.18948 0.32135
# Poissons Ratio (z) = 0.34315 0.64345
#
# Static dielectric constant tensor:
#      x y z
#    x 2.919770 0.000000 0.000000 
#    y 0.000000 3.335360 0.000000 
#    z 0.000000 0.000000 3.295100 
# 
# 
# High freq. dielectric constant tensor:
#      x y z
#    x 1.625810 0.000000 0.000000 
#    y 0.000000 1.674440 0.000000 
#    z 0.000000 0.000000 1.666870 
# 
# From -- ./inp_files/6049.got.cif
#   From: 2010.03.12/outbox.cif.g09.slc.cpg/sg49_4_cif.got.tgz:6049.got - 2010.04.14 03:58:27.
