data_PCOD8203658
_publ_section_title
;
Structure prediction by ZEFSAII (Michael W. Deem and Ramdas Pophale) SiO2 
 PCOD8203658
Probable space group: P C C M
;
_chemical_formula_sum "Si O2"
_cell_formula_units_Z 64
_cell_length_a 24.616583
_cell_length_b 15.285241
_cell_length_c 8.626908
_cell_angle_alpha 90.000000
_cell_angle_beta 90.000000
_cell_angle_gamma 90.000000
_cell_volume 3246.050156
_symmetry_space_group_name_H-M "P C C M"
_symmetry_group_IT_number 49
_symmetry_cell_setting 'orthorhombic'
loop_
_space_group_symop_operation_xyz
x,y,z
-x,-y,z
x,-y,1/2-z
-x,y,1/2-z
-x,-y,-z
x,y,-z
-x,y,1/2+z
x,-y,1/2+z
loop_
_atom_site_type_symbol
_atom_site_label
_atom_site_fract_x
_atom_site_fract_y
_atom_site_fract_z
Si Si1 0.287733 0.629524 0.680885
Si Si2 0.443058 0.766198 0.682607
Si Si3 0.141436 0.220979 0.321924
Si Si4 0.173616 0.412990 0.682994
Si Si5 0.600310 0.588719 0.318360
Si Si6 0.644153 0.090289 0.683349
Si Si7 0.264481 0.809407 0.179741
Si Si8 0.941694 0.091515 0.318861
O O1 0.297860 0.612473 0.500000
O O2 0.231865 0.586732 0.735210
O O3 0.335928 0.587092 0.778594
O O4 0.287233 0.732726 0.712172
O O5 0.500000 0.799488 0.750000
O O6 0.447068 0.763312 0.500000
O O7 0.429848 0.670127 0.742627
O O8 0.396829 0.833721 0.736648
O O9 0.123827 0.210158 0.500000
O O10 0.141289 0.324022 0.274900
O O11 0.200356 0.178200 0.292937
O O12 0.099053 0.170660 0.215198
O O13 0.143016 0.500000 0.750000
O O14 0.181584 0.418751 0.500000
O O15 0.573997 0.500000 0.250000
O O16 0.591148 0.592562 0.500000
O O17 0.651286 0.085340 0.500000
O O18 0.702844 0.105154 0.765395
O O19 0.620557 0.000000 0.750000
O O20 0.275320 0.786599 0.000000
O O21 0.947925 0.079149 0.500000
O O22 0.000000 0.116043 0.250000
O O23 0.919543 0.000000 0.250000
#
# Coordination Sequence:
#
# PCOD8203658 Si02
#       8
#     8   8   8   8   8   8   8   8
#     4  11  20  33  54  82 117 154 195 238 286 346
#     4  11  25  45  66  89 115 149 191 242 295 351
#     4   9  20  37  57  86 122 159 200 245 292 350
#     4  10  20  34  53  81 119 161 202 246 293 344
#     4  12  24  39  61  87 117 152 191 238 290 349
#     4  11  24  41  64  90 120 153 194 240 292 353
#     4  10  20  36  59  86 120 158 195 237 293 348
#     4  11  22  38  62  88 118 156 199 249 301 353
#
# _framework density 19.716269
#
# number of rings (size 3 to 8) (size 9 to 14) (size 15 to 20)
#    0.000    1.375    1.250    6.375    0.000    5.500 
#    0.000    2.500    0.000    0.375    0.000    2.625 
#    0.000    0.000    0.000    0.000    0.000    0.000 
#
# Total GULP energy -793782.250839 kJ/mol
# GULP energy per Si atom -12402.847669 kJ/mol
# Density = 1.967139 g / cm^3
# Si number density = 19.716269 Si / 1000 Ang^3
#
#
#
# Elastic Constant Matrix: (Units=GPa)
#
#
# Indices 1 2 3 4 5 6 
#
# 1 80.9650 55.0128 39.3282 0.0000 0.0000 0.0000
# 2 55.0128 130.2396 44.7030 0.0000 0.0000 0.0000
# 3 39.3282 44.7030 99.5680 0.0000 0.0000 0.0000
# 4 0.0000 0.0000 0.0000 36.2793 0.0000 0.0000
# 5 0.0000 0.0000 0.0000 0.0000 29.5855 0.0000
# 6 0.0000 0.0000 0.0000 0.0000 0.0000 8.8371
#
#
#
# Elastic Compliance Matrix: (Units=1/GPa)
#
#
# Indices 1 2 3 4 5 6 
#
# 1 0.018952 -0.006426 -0.004601 0.000000 0.000000 0.000000
# 2 -0.006426 0.011256 -0.002515 0.000000 0.000000 0.000000
# 3 -0.004601 -0.002515 0.012990 0.000000 0.000000 0.000000
# 4 0.000000 0.000000 0.000000 0.027564 0.000000 0.000000
# 5 0.000000 0.000000 0.000000 0.000000 0.033800 0.000000
# 6 0.000000 0.000000 0.000000 0.000000 0.000000 0.113159
#
#
# Mechanical properties :
#
#
# Convention : Reuss Voigt Hill
#
# Bulk Modulus (GPa) = 62.05951 65.42895 63.74423
# Shear Modulus (GPa) = 19.98584 26.38894 23.18739
#
# Velocity S-wave (km/s) = 3.18728 3.66243 3.43308
# Velocity P-wave (km/s) = 6.71488 7.15135 6.93655
#
# Compressibility (1/GPa) = 0.01611357
#
# Stress axis : x y z
#
# Youngs Moduli (GPa) = 52.76448 88.84237 76.98282
#
# Poissons Ratio (x) = 0.57092 0.35418
# Poissons Ratio (y) = 0.33907 0.19363
# Poissons Ratio (z) = 0.24275 0.22346
#
# Static dielectric constant tensor:
#      x y z
#    x -7.722220 0.000000 0.000000 
#    y 0.000000 4.067590 0.000000 
#    z 0.000000 0.000000 3.624660 
# 
# 
# High freq. dielectric constant tensor:
#      x y z
#    x 1.743930 0.000000 0.000000 
#    y 0.000000 1.778650 0.000000 
#    z 0.000000 0.000000 1.781380 
# 
# From -- ./inp_files/6484.got.cif
#   From: 2010.03.12/outbox.cif.g09.slc.cpg/sg49_4_cif.got.tgz:6484.got - 2010.04.14 03:58:27.
