data_PCOD8203033
_publ_section_title
;
Structure prediction by ZEFSAII (Michael W. Deem and Ramdas Pophale) SiO2 
 PCOD8203033
Probable space group: P C C M
;
_chemical_formula_sum "Si O2"
_cell_formula_units_Z 64
_cell_length_a 15.918891
_cell_length_b 21.529318
_cell_length_c 9.516934
_cell_angle_alpha 90.000000
_cell_angle_beta 90.000000
_cell_angle_gamma 90.000000
_cell_volume 3261.670901
_symmetry_space_group_name_H-M "P C C M"
_symmetry_group_IT_number 49
_symmetry_cell_setting 'orthorhombic'
loop_
_space_group_symop_operation_xyz
x,y,z
-x,-y,z
x,-y,1/2-z
-x,y,1/2-z
-x,-y,-z
x,y,-z
-x,y,1/2+z
x,-y,1/2+z
loop_
_atom_site_type_symbol
_atom_site_label
_atom_site_fract_x
_atom_site_fract_y
_atom_site_fract_z
Si Si1 0.742849 0.557117 0.162980
Si Si2 0.574384 0.756648 0.656464
Si Si3 0.073587 0.406757 0.839866
Si Si4 0.422223 0.096252 0.342584
Si Si5 0.698570 0.307534 0.345549
Si Si6 0.919569 0.850044 0.667033
Si Si7 0.110482 0.268694 0.153910
Si Si8 0.765014 0.060478 0.834382
O O1 0.703212 0.500000 0.250000
O O2 0.837164 0.569727 0.218128
O O3 0.688610 0.619317 0.188940
O O4 0.742583 0.539365 0.000000
O O5 0.500000 0.728562 0.750000
O O6 0.565890 0.730198 0.500000
O O7 0.573268 0.830226 0.656675
O O8 0.659964 0.733305 0.722848
O O9 0.061853 0.332658 0.822182
O O10 0.000000 0.439018 0.750000
O O11 0.062823 0.427034 0.000000
O O12 0.500000 0.069167 0.250000
O O13 0.434019 0.070074 0.500000
O O14 0.329804 0.078093 0.283693
O O15 0.658453 0.293896 0.500000
O O16 0.793368 0.287018 0.348527
O O17 0.936092 0.850378 0.500000
O O18 0.910592 0.779488 0.722113
O O19 0.833119 0.886384 0.702849
O O20 0.000000 0.879991 0.750000
O O21 0.086660 0.239906 0.000000
O O22 0.794013 0.000000 0.750000
O O23 0.765447 0.046896 0.000000
#
# Coordination Sequence:
#
# PCOD8203033 Si02
#       8
#     8   8   8   8   8   8   8   8
#     4   9  19  34  49  67  94 129 170 212 252 297
#     4  10  19  32  53  81 111 139 168 203 249 307
#     4   9  18  31  46  68  98 129 162 204 252 302
#     4   9  19  36  57  84 115 143 172 210 258 314
#     4   9  18  33  52  75 105 137 169 211 260 308
#     4  11  23  38  56  79 107 139 179 228 276 321
#     4   9  18  33  53  77 104 134 169 210 261 318
#     4  10  23  41  58  78 107 142 181 223 264 311
#
# _framework density 19.621846000000001
#
# number of rings (size 3 to 8) (size 9 to 14) (size 15 to 20)
#    0.000    2.500    0.000    3.375    0.000    6.750 
#    0.000    6.250    0.000    0.375    0.000    2.625 
#    0.000    0.000    0.000    0.000    0.000    0.000 
#
# Total GULP energy -793242.164583 kJ/mol
# GULP energy per Si atom -12394.408822 kJ/mol
# Density = 1.957719 g / cm^3
# Si number density = 19.621846 Si / 1000 Ang^3
#
#
#
# Elastic Constant Matrix: (Units=GPa)
#
#
# Indices 1 2 3 4 5 6 
#
# 1 69.5953 12.2168 32.0110 0.0000 0.0000 0.0000
# 2 12.2168 35.3032 27.7270 0.0000 0.0000 0.0000
# 3 32.0110 27.7270 95.9645 0.0000 0.0000 0.0000
# 4 0.0000 0.0000 0.0000 36.4323 0.0000 0.0000
# 5 0.0000 0.0000 0.0000 0.0000 30.3338 0.0000
# 6 0.0000 0.0000 0.0000 0.0000 0.0000 6.4855
#
#
#
# Elastic Compliance Matrix: (Units=1/GPa)
#
#
# Indices 1 2 3 4 5 6 
#
# 1 0.017066 -0.001856 -0.005157 0.000000 0.000000 0.000000
# 2 -0.001856 0.036842 -0.010026 0.000000 0.000000 0.000000
# 3 -0.005157 -0.010026 0.015037 0.000000 0.000000 0.000000
# 4 0.000000 0.000000 0.000000 0.027448 0.000000 0.000000
# 5 0.000000 0.000000 0.000000 0.000000 0.032967 0.000000
# 6 0.000000 0.000000 0.000000 0.000000 0.000000 0.154189
#
#
# Mechanical properties :
#
#
# Convention : Reuss Voigt Hill
#
# Bulk Modulus (GPa) = 28.67826 38.30804 33.49315
# Shear Modulus (GPa) = 15.18602 23.24421 19.21511
#
# Velocity S-wave (km/s) = 2.78499 3.44555 3.13273
# Velocity P-wave (km/s) = 4.99887 5.94934 5.49469
#
# Compressibility (1/GPa) = 0.03486962
#
# Stress axis : x y z
#
# Youngs Moduli (GPa) = 58.59465 27.14258 66.50091
#
# Poissons Ratio (x) = 0.05037 0.34292
# Poissons Ratio (y) = 0.10874 0.66673
# Poissons Ratio (z) = 0.30215 0.27213
#
# Static dielectric constant tensor:
#      x y z
#    x 3.607840 0.000000 0.000000 
#    y 0.000000 3.421730 0.000000 
#    z 0.000000 0.000000 3.584300 
# 
# 
# High freq. dielectric constant tensor:
#      x y z
#    x 1.758690 0.000000 0.000000 
#    y 0.000000 1.751130 0.000000 
#    z 0.000000 0.000000 1.765800 
# 
# From -- ./inp_files/4292.got.cif
#   From: 2010.03.12/outbox.cif.g09.slc.cpg/sg49_3_cif.got.tgz:4292.got - 2010.04.14 03:58:27.
