data_PCOD8203843
_publ_section_title
;
Structure prediction by ZEFSAII (Michael W. Deem and Ramdas Pophale) SiO2 
 PCOD8203843
Probable space group: P C C M
;
_chemical_formula_sum "Si O2"
_cell_formula_units_Z 48
_cell_length_a 9.370642
_cell_length_b 11.031488
_cell_length_c 23.736928
_cell_angle_alpha 90.000000
_cell_angle_beta 90.000000
_cell_angle_gamma 90.000000
_cell_volume 2453.736683
_symmetry_space_group_name_H-M "P C C M"
_symmetry_group_IT_number 49
_symmetry_cell_setting 'orthorhombic'
loop_
_space_group_symop_operation_xyz
x,y,z
-x,-y,z
x,-y,1/2-z
-x,y,1/2-z
-x,-y,-z
x,y,-z
-x,y,1/2+z
x,-y,1/2+z
loop_
_atom_site_type_symbol
_atom_site_label
_atom_site_fract_x
_atom_site_fract_y
_atom_site_fract_z
Si Si1 0.753673 0.742991 0.563477
Si Si2 0.833819 0.969523 0.367142
Si Si3 0.944919 0.367686 0.147840
Si Si4 0.232862 0.230161 0.856431
Si Si5 0.452151 0.636332 0.435548
Si Si6 0.843257 0.807936 0.734211
O O1 0.803425 0.728833 0.500000
O O2 0.798221 0.876097 0.583613
O O3 0.835853 0.634995 0.595802
O O4 0.585014 0.726502 0.570370
O O5 0.779742 0.910536 0.307751
O O6 0.749311 0.093801 0.380200
O O7 0.000000 0.000000 0.364823
O O8 0.859576 0.320638 0.202383
O O9 0.000000 0.500000 0.161081
O O10 0.073216 0.276947 0.132997
O O11 0.338683 0.320589 0.888791
O O12 0.256733 0.219271 0.788458
O O13 0.500000 0.500000 0.421116
O O14 0.391048 0.641738 0.500000
O O15 0.000000 0.856820 0.750000
#
# Coordination Sequence:
#
# PCOD8203843 Si02
#       6
#     8   8   8   8   8   8
#     4  10  22  39  59  84 121 164 203 253 308 354
#     4  11  19  36  58  91 125 157 193 254 308 370
#     4  10  20  35  57  89 121 151 204 256 301 358
#     4  11  21  34  62  91 112 161 205 248 304 371
#     4  10  23  44  63  83 121 169 209 253 307 363
#     4   9  18  32  57  87 120 154 190 241 310 361
#
# _framework density 19.562000999999999
#
# number of rings (size 3 to 8) (size 9 to 14) (size 15 to 20)
#    0.000    1.833    5.000    1.500    0.000    5.667 
#    0.000    5.000    0.000    8.000    0.000    0.000 
#    0.000    0.000    0.000    0.000    0.000    0.000 
#
# Total GULP energy -594924.629535 kJ/mol
# GULP energy per Si atom -12394.263115 kJ/mol
# Density = 1.951748 g / cm^3
# Si number density = 19.562001 Si / 1000 Ang^3
#
#
#
# Elastic Constant Matrix: (Units=GPa)
#
#
# Indices 1 2 3 4 5 6 
#
# 1 49.0471 22.6728 45.5452 0.0000 0.0000 0.0000
# 2 22.6728 129.0562 34.0920 0.0000 0.0000 0.0000
# 3 45.5452 34.0920 86.2149 0.0000 0.0000 0.0000
# 4 0.0000 0.0000 0.0000 24.3966 0.0000 0.0000
# 5 0.0000 0.0000 0.0000 0.0000 34.5709 0.0000
# 6 0.0000 0.0000 0.0000 0.0000 0.0000 29.5945
#
#
#
# Elastic Compliance Matrix: (Units=1/GPa)
#
#
# Indices 1 2 3 4 5 6 
#
# 1 0.040325 -0.001627 -0.020659 0.000000 0.000000 0.000000
# 2 -0.001627 0.008718 -0.002588 0.000000 0.000000 0.000000
# 3 -0.020659 -0.002588 0.023536 0.000000 0.000000 0.000000
# 4 0.000000 0.000000 0.000000 0.040989 0.000000 0.000000
# 5 0.000000 0.000000 0.000000 0.000000 0.028926 0.000000
# 6 0.000000 0.000000 0.000000 0.000000 0.000000 0.033790
#
#
# Mechanical properties :
#
#
# Convention : Reuss Voigt Hill
#
# Bulk Modulus (GPa) = 43.80063 52.10424 47.95244
# Shear Modulus (GPa) = 21.40018 28.51296 24.95657
#
# Velocity S-wave (km/s) = 3.31111 3.82195 3.57566
# Velocity P-wave (km/s) = 6.08746 6.79483 6.45085
#
# Compressibility (1/GPa) = 0.02283072
#
# Stress axis : x y z
#
# Youngs Moduli (GPa) = 24.79856 114.70497 42.48801
#
# Poissons Ratio (x) = 0.18661 0.87777
# Poissons Ratio (y) = 0.04034 0.10996
# Poissons Ratio (z) = 0.51232 0.29685
#
# Static dielectric constant tensor:
#      x y z
#    x 3.278240 0.000000 0.000000 
#    y 0.000000 3.760290 0.000000 
#    z 0.000000 0.000000 3.766810 
# 
# 
# High freq. dielectric constant tensor:
#      x y z
#    x 1.724150 0.000000 0.000000 
#    y 0.000000 1.775510 0.000000 
#    z 0.000000 0.000000 1.767160 
# 
# From -- ./inp_files/22416.got.cif
#   From: 2010.03.12/outbox.cif.g09.slc.cpg/sg49_12_cif.got.tgz:22416.got - 2010.04.14 03:58:27.
