data_PCOD8203913
_publ_section_title
;
Structure prediction by ZEFSAII (Michael W. Deem and Ramdas Pophale) SiO2 
 PCOD8203913
Probable space group: P C C M
;
_chemical_formula_sum "Si O2"
_cell_formula_units_Z 64
_cell_length_a 8.901212
_cell_length_b 14.085063
_cell_length_c 26.030865
_cell_angle_alpha 90.000000
_cell_angle_beta 90.000000
_cell_angle_gamma 90.000000
_cell_volume 3263.597099
_symmetry_space_group_name_H-M "P C C M"
_symmetry_group_IT_number 49
_symmetry_cell_setting 'orthorhombic'
loop_
_space_group_symop_operation_xyz
x,y,z
-x,-y,z
x,-y,1/2-z
-x,y,1/2-z
-x,-y,-z
x,y,-z
-x,y,1/2+z
x,-y,1/2+z
loop_
_atom_site_type_symbol
_atom_site_label
_atom_site_fract_x
_atom_site_fract_y
_atom_site_fract_z
Si Si1 0.394285 0.728794 0.058782
Si Si2 0.844985 0.090985 0.722885
Si Si3 0.608065 0.236464 0.297650
Si Si4 0.896775 0.918038 0.106130
Si Si5 0.560611 0.894812 0.893651
Si Si6 0.412405 0.593018 0.629071
Si Si7 0.132601 0.433759 0.942066
Si Si8 0.053875 0.752592 0.057268
O O1 0.456991 0.835652 0.067068
O O2 0.479935 0.652338 0.092359
O O3 0.219563 0.720130 0.074178
O O4 0.419172 0.700530 0.000000
O O5 0.756866 0.190147 0.726587
O O6 0.871710 0.057703 0.665124
O O7 0.000000 0.112790 0.750000
O O8 0.763519 0.000000 0.750000
O O9 0.500000 0.253243 0.250000
O O10 0.549436 0.159987 0.339238
O O11 0.638789 0.338992 0.323881
O O12 0.729614 0.902880 0.082511
O O13 0.994035 0.824082 0.099746
O O14 0.000000 0.000000 0.080205
O O15 0.500000 0.000000 0.885553
O O16 0.500000 0.500000 0.650001
O O17 0.269992 0.557664 0.596863
O O18 0.000000 0.500000 0.921121
O O19 0.068811 0.328857 0.943334
O O20 0.182006 0.464997 0.000000
O O21 0.062700 0.798261 0.000000
#
# Coordination Sequence:
#
# PCOD8203913 Si02
#       8
#     8   8   8   8   8   8   8   8
#     4  10  21  38  59  88 120 158 203 244 293 354
#     4  10  20  36  58  89 117 147 190 249 308 353
#     4  10  24  38  60  87 114 156 197 251 302 362
#     4  11  21  35  55  80 117 157 192 240 289 349
#     4  10  22  36  55  86 117 156 199 242 300 355
#     4  11  23  41  61  87 120 157 201 249 305 357
#     4  10  20  36  61  92 120 152 196 246 299 355
#     4  10  21  36  55  81 118 157 194 237 285 346
#
# _framework density 19.610263
#
# number of rings (size 3 to 8) (size 9 to 14) (size 15 to 20)
#    0.000    1.750    1.250    4.125    3.500    6.250 
#    0.000    1.250    0.000    0.000    0.000    0.000 
#    0.000    0.000    0.000    0.000    0.000    0.000 
#
# Total GULP energy -793334.454170 kJ/mol
# GULP energy per Si atom -12395.850846 kJ/mol
# Density = 1.956563 g / cm^3
# Si number density = 19.610263 Si / 1000 Ang^3
#
#
#
# Elastic Constant Matrix: (Units=GPa)
#
#
# Indices 1 2 3 4 5 6 
#
# 1 100.0439 34.0464 29.2201 0.0000 0.0000 0.0000
# 2 34.0464 122.4798 33.9095 0.0000 0.0000 0.0000
# 3 29.2201 33.9095 53.8048 0.0000 0.0000 0.0000
# 4 0.0000 0.0000 0.0000 29.8918 0.0000 0.0000
# 5 0.0000 0.0000 0.0000 0.0000 33.0659 0.0000
# 6 0.0000 0.0000 0.0000 0.0000 0.0000 36.2252
#
#
#
# Elastic Compliance Matrix: (Units=1/GPa)
#
#
# Indices 1 2 3 4 5 6 
#
# 1 0.012231 -0.001891 -0.005451 0.000000 0.000000 0.000000
# 2 -0.001891 0.010183 -0.005391 0.000000 0.000000 0.000000
# 3 -0.005451 -0.005391 0.024943 0.000000 0.000000 0.000000
# 4 0.000000 0.000000 0.000000 0.033454 0.000000 0.000000
# 5 0.000000 0.000000 0.000000 0.000000 0.030243 0.000000
# 6 0.000000 0.000000 0.000000 0.000000 0.000000 0.027605
#
#
# Mechanical properties :
#
#
# Convention : Reuss Voigt Hill
#
# Bulk Modulus (GPa) = 45.67749 52.29783 48.98766
# Shear Modulus (GPa) = 29.16803 31.78007 30.47405
#
# Velocity S-wave (km/s) = 3.86085 4.03001 3.94634
# Velocity P-wave (km/s) = 6.57405 6.95566 6.76754
#
# Compressibility (1/GPa) = 0.02189262
#
# Stress axis : x y z
#
# Youngs Moduli (GPa) = 81.75874 98.20631 40.09111
#
# Poissons Ratio (x) = 0.18570 0.21853
# Poissons Ratio (y) = 0.15459 0.21611
# Poissons Ratio (z) = 0.44565 0.52939
#
# Static dielectric constant tensor:
#      x y z
#    x 4.845120 0.000000 0.000000 
#    y 0.000000 3.769850 0.000000 
#    z 0.000000 0.000000 3.545830 
# 
# 
# High freq. dielectric constant tensor:
#      x y z
#    x 1.773110 0.000000 0.000000 
#    y 0.000000 1.767590 0.000000 
#    z 0.000000 0.000000 1.746350 
# 
# From -- ./inp_files/22575.got.cif
#   From: 2010.03.12/outbox.cif.g09.slc.cpg/sg49_12_cif.got.tgz:22575.got - 2010.04.14 03:58:27.
