data_PCOD8203146
_publ_section_title
;
Structure prediction by ZEFSAII (Michael W. Deem and Ramdas Pophale) SiO2 
 PCOD8203146
Probable space group: P C C M
;
_chemical_formula_sum "Si O2"
_cell_formula_units_Z 64
_cell_length_a 9.882803
_cell_length_b 18.764624
_cell_length_c 18.000993
_cell_angle_alpha 90.000000
_cell_angle_beta 90.000000
_cell_angle_gamma 90.000000
_cell_volume 3338.231631
_symmetry_space_group_name_H-M "P C C M"
_symmetry_group_IT_number 49
_symmetry_cell_setting 'orthorhombic'
loop_
_space_group_symop_operation_xyz
x,y,z
-x,-y,z
x,-y,1/2-z
-x,y,1/2-z
-x,-y,-z
x,y,-z
-x,y,1/2+z
x,-y,1/2+z
loop_
_atom_site_type_symbol
_atom_site_label
_atom_site_fract_x
_atom_site_fract_y
_atom_site_fract_z
Si Si1 0.269895 0.831572 0.914673
Si Si2 0.844841 0.693744 0.337667
Si Si3 0.519104 0.920401 0.087880
Si Si4 0.984431 0.923170 0.414921
Si Si5 0.349531 0.414763 0.414405
Si Si6 0.844716 0.310184 0.337963
Si Si7 0.776291 0.830870 0.912259
Si Si8 0.656317 0.581352 0.085723
O O1 0.224525 0.765443 0.866056
O O2 0.408284 0.864137 0.882427
O O3 0.167540 0.897278 0.907423
O O4 0.282444 0.805833 0.000000
O O5 0.758666 0.626786 0.365189
O O6 0.841511 0.694790 0.249758
O O7 0.999669 0.688294 0.366886
O O8 0.661986 0.887350 0.111300
O O9 0.500000 0.000000 0.122156
O O10 0.502037 0.926112 0.000000
O O11 0.031726 0.931958 0.500000
O O12 0.084746 0.864514 0.380572
O O13 0.000000 0.000000 0.375004
O O14 0.325639 0.394565 0.500000
O O15 0.503843 0.394910 0.391779
O O16 0.325197 0.497814 0.400929
O O17 0.760367 0.244495 0.371990
O O18 0.767973 0.381101 0.363528
O O19 0.774978 0.816138 0.000000
O O20 0.682447 0.600901 0.000000
#
# Coordination Sequence:
#
# PCOD8203146 Si02
#       8
#     8   8   8   8   8   8   8   8
#     4  10  19  33  54  80 110 144 184 233 283 332
#     4  11  24  39  55  80 118 158 193 230 273 328
#     4   9  18  32  53  83 112 137 176 235 295 342
#     4   9  16  28  51  79 104 137 184 235 283 328
#     4   9  20  40  65  91 116 143 181 230 281 333
#     4  11  24  39  55  80 118 158 193 230 273 328
#     4  10  19  33  54  80 110 144 184 233 283 332
#     4   9  20  40  65  91 116 143 181 230 281 333
#
# _framework density 19.171827
#
# number of rings (size 3 to 8) (size 9 to 14) (size 15 to 20)
#    0.000    2.250    1.250    2.250    1.750    6.000 
#    0.000    3.750    0.000    4.500    0.000    0.000 
#    0.000    0.000    0.000    0.000    0.000    0.000 
#
# Total GULP energy -793544.875915 kJ/mol
# GULP energy per Si atom -12399.138686 kJ/mol
# Density = 1.912819 g / cm^3
# Si number density = 19.171827 Si / 1000 Ang^3
#
#
#
# Elastic Constant Matrix: (Units=GPa)
#
#
# Indices 1 2 3 4 5 6 
#
# 1 104.7110 46.7842 35.1126 0.0000 0.0000 0.0000
# 2 46.7842 100.2205 35.4795 0.0000 0.0000 0.0000
# 3 35.1126 35.4795 49.4786 0.0000 0.0000 0.0000
# 4 0.0000 0.0000 0.0000 -0.8398 0.0000 0.0000
# 5 0.0000 0.0000 0.0000 0.0000 23.3059 0.0000
# 6 0.0000 0.0000 0.0000 0.0000 0.0000 35.7260
#
#
#
# Elastic Compliance Matrix: (Units=1/GPa)
#
#
# Indices 1 2 3 4 5 6 
#
# 1 0.013596 -0.003928 -0.006832 0.000000 0.000000 0.000000
# 2 -0.003928 0.014508 -0.007615 0.000000 0.000000 0.000000
# 3 -0.006832 -0.007615 0.030519 0.000000 0.000000 0.000000
# 4 0.000000 0.000000 0.000000 -1.190746 0.000000 0.000000
# 5 0.000000 0.000000 0.000000 0.000000 0.042908 0.000000
# 6 0.000000 0.000000 0.000000 0.000000 0.000000 0.027991
#
#
# Mechanical properties :
#
#
# Convention : Reuss Voigt Hill
#
# Bulk Modulus (GPa) = 45.71872 54.35139 50.03506
# Shear Modulus (GPa) = -4.91554 20.77399 7.92923
#
# Velocity S-wave (km/s) = -1.60297 3.29533 2.03589
# Velocity P-wave (km/s) = 4.52466 6.54905 5.62862
#
# Compressibility (1/GPa) = 0.02187288
#
# Stress axis : x y z
#
# Youngs Moduli (GPa) = 73.55053 68.92889 32.76596
#
# Poissons Ratio (x) = 0.27078 0.22384
# Poissons Ratio (y) = 0.28893 0.24952
# Poissons Ratio (z) = 0.50247 0.52491
#
# Static dielectric constant tensor:
#      x y z
#    x 3.673780 0.000000 0.000000 
#    y 0.000000 3.541480 0.000000 
#    z 0.000000 0.000000 3.121100 
# 
# 
# High freq. dielectric constant tensor:
#      x y z
#    x 1.757760 0.000000 0.000000 
#    y 0.000000 1.758120 0.000000 
#    z 0.000000 0.000000 1.703580 
# 
# From -- ./inp_files/20014.got.cif
#   From: 2010.03.12/outbox.cif.g09.slc.cpg/sg49_11_cif.got.tgz:20014.got - 2010.04.14 03:58:27.
