data_PCOD8203289
_publ_section_title
;
Structure prediction by ZEFSAII (Michael W. Deem and Ramdas Pophale) SiO2 
 PCOD8203289
Probable space group: P C C M
;
_chemical_formula_sum "Si O2"
_cell_formula_units_Z 64
_cell_length_a 9.008146
_cell_length_b 21.838193
_cell_length_c 16.546170
_cell_angle_alpha 90.000000
_cell_angle_beta 90.000000
_cell_angle_gamma 90.000000
_cell_volume 3254.989548
_symmetry_space_group_name_H-M "P C C M"
_symmetry_group_IT_number 49
_symmetry_cell_setting 'orthorhombic'
loop_
_space_group_symop_operation_xyz
x,y,z
-x,-y,z
x,-y,1/2-z
-x,y,1/2-z
-x,-y,-z
x,y,-z
-x,y,1/2+z
x,-y,1/2+z
loop_
_atom_site_type_symbol
_atom_site_label
_atom_site_fract_x
_atom_site_fract_y
_atom_site_fract_z
Si Si1 0.396532 0.349192 0.324493
Si Si2 0.286831 0.771109 0.093160
Si Si3 0.831838 0.429689 0.733304
Si Si4 0.490306 0.113519 0.409353
Si Si5 0.215041 0.047665 0.635531
Si Si6 0.777193 0.086908 0.318153
Si Si7 0.598804 0.559476 0.906106
Si Si8 0.985522 0.149499 0.089204
O O1 0.500000 0.331252 0.250000
O O2 0.320318 0.287764 0.354488
O O3 0.268560 0.395520 0.298147
O O4 0.493216 0.381500 0.394296
O O5 0.408526 0.823005 0.109437
O O6 0.125258 0.797036 0.118512
O O7 0.285732 0.752168 0.000000
O O8 0.836814 0.500000 0.750000
O O9 0.751834 0.427312 0.644308
O O10 0.000000 0.403676 0.750000
O O11 0.558181 0.113548 0.500000
O O12 0.378500 0.056203 0.401437
O O13 0.611935 0.105475 0.340743
O O14 0.207801 0.078763 0.723551
O O15 0.099711 0.084546 0.580929
O O16 0.175506 0.976142 0.637384
O O17 0.881616 0.142574 0.347084
O O18 0.500000 0.500000 0.877932
O O19 0.644003 0.553178 0.000000
O O20 0.048911 0.164799 0.000000
#
# Coordination Sequence:
#
# PCOD8203289 Si02
#       8
#     8   8   8   8   8   8   8   8
#     4  10  20  35  62  86 112 156 199 237 287 345
#     4   9  20  39  55  76 110 147 191 236 286 340
#     4  10  20  37  58  87 126 158 185 235 291 344
#     4  10  21  36  55  77 105 140 181 235 287 339
#     4  10  21  35  51  77 110 140 175 230 290 349
#     4  11  21  34  54  80 106 139 182 230 289 345
#     4  10  19  34  59  92 122 154 199 241 282 338
#     4  10  21  36  54  75 104 143 183 230 277 335
#
# _framework density 19.662120000000002
#
# number of rings (size 3 to 8) (size 9 to 14) (size 15 to 20)
#    0.000    2.000    1.250    3.375    0.000    7.000 
#    0.000    7.500    0.000    1.500    0.000    0.000 
#    0.000    0.000    0.000    0.000    0.000    0.000 
#
# Total GULP energy -793187.704847 kJ/mol
# GULP energy per Si atom -12393.557888 kJ/mol
# Density = 1.961737 g / cm^3
# Si number density = 19.662120 Si / 1000 Ang^3
#
#
#
# Elastic Constant Matrix: (Units=GPa)
#
#
# Indices 1 2 3 4 5 6 
#
# 1 83.1916 3.9125 34.4563 0.0000 0.0000 0.0000
# 2 3.9125 58.8161 25.8939 0.0000 0.0000 0.0000
# 3 34.4563 25.8939 68.1455 0.0000 0.0000 0.0000
# 4 0.0000 0.0000 0.0000 29.9075 0.0000 0.0000
# 5 0.0000 0.0000 0.0000 0.0000 13.3282 0.0000
# 6 0.0000 0.0000 0.0000 0.0000 0.0000 29.7044
#
#
#
# Elastic Compliance Matrix: (Units=1/GPa)
#
#
# Indices 1 2 3 4 5 6 
#
# 1 0.015613 0.002927 -0.009006 0.000000 0.000000 0.000000
# 2 0.002927 0.020966 -0.009447 0.000000 0.000000 0.000000
# 3 -0.009006 -0.009447 0.022818 0.000000 0.000000 0.000000
# 4 0.000000 0.000000 0.000000 0.033436 0.000000 0.000000
# 5 0.000000 0.000000 0.000000 0.000000 0.075029 0.000000
# 6 0.000000 0.000000 0.000000 0.000000 0.000000 0.033665
#
#
# Mechanical properties :
#
#
# Convention : Reuss Voigt Hill
#
# Bulk Modulus (GPa) = 35.28029 37.63095 36.45562
# Shear Modulus (GPa) = 20.65872 24.31405 22.48638
#
# Velocity S-wave (km/s) = 3.24495 3.52034 3.38544
# Velocity P-wave (km/s) = 5.65878 5.97529 5.81919
#
# Compressibility (1/GPa) = 0.02834444
#
# Stress axis : x y z
#
# Youngs Moduli (GPa) = 64.04872 47.69553 43.82526
#
# Poissons Ratio (x) = -0.13958 0.39471
# Poissons Ratio (y) = -0.18744 0.41400
# Poissons Ratio (z) = 0.57685 0.45056
#
# Static dielectric constant tensor:
#      x y z
#    x 3.915950 0.000000 0.000000 
#    y 0.000000 3.523230 0.000000 
#    z 0.000000 0.000000 3.477170 
# 
# 
# High freq. dielectric constant tensor:
#      x y z
#    x 1.767470 0.000000 0.000000 
#    y 0.000000 1.748450 0.000000 
#    z 0.000000 0.000000 1.767540 
# 
# From -- ./inp_files/16549.got.cif
#   From: 2010.03.12/outbox.cif.g09.slc.cpg/sg49_9_cif.got.tgz:16549.got - 2010.04.14 03:58:27.
