data_PCOD8203634
_publ_section_title
;
Structure prediction by ZEFSAII (Michael W. Deem and Ramdas Pophale) SiO2 
 PCOD8203634
Probable space group: P C C M
;
_chemical_formula_sum "Si O2"
_cell_formula_units_Z 48
_cell_length_a 18.438798
_cell_length_b 14.708536
_cell_length_c 8.864453
_cell_angle_alpha 90.000000
_cell_angle_beta 90.000000
_cell_angle_gamma 90.000000
_cell_volume 2404.108124
_symmetry_space_group_name_H-M "P C C M"
_symmetry_group_IT_number 49
_symmetry_cell_setting 'orthorhombic'
loop_
_space_group_symop_operation_xyz
x,y,z
-x,-y,z
x,-y,1/2-z
-x,y,1/2-z
-x,-y,-z
x,y,-z
-x,y,1/2+z
x,-y,1/2+z
loop_
_atom_site_type_symbol
_atom_site_label
_atom_site_fract_x
_atom_site_fract_y
_atom_site_fract_z
Si Si1 0.924792 0.852811 0.678558
Si Si2 0.928980 0.357086 0.174542
Si Si3 0.227012 0.092631 0.819575
Si Si4 0.578325 0.404883 0.180129
Si Si5 0.317743 0.734937 0.331819
Si Si6 0.792073 0.578936 0.165533
O O1 0.924840 0.871745 0.500000
O O2 0.918973 0.747540 0.720494
O O3 0.853742 0.897211 0.752441
O O4 0.000000 0.892317 0.750000
O O5 0.862306 0.414260 0.232189
O O6 0.000000 0.398441 0.250000
O O7 0.937784 0.369357 0.000000
O O8 0.285959 0.169672 0.769022
O O9 0.259424 0.000000 0.750000
O O10 0.221620 0.089848 0.000000
O O11 0.608732 0.500000 0.250000
O O12 0.500000 0.386099 0.250000
O O13 0.625854 0.315828 0.221885
O O14 0.574648 0.414666 0.000000
O O15 0.352083 0.746469 0.500000
O O16 0.247192 0.673751 0.343071
O O17 0.744703 0.500000 0.250000
O O18 0.813188 0.545263 0.000000
#
# Coordination Sequence:
#
# PCOD8203634 Si02
#       6
#     8   8   8   8   8   8
#     4  10  20  35  57  82 110 146 192 247 307 364
#     4  10  20  34  53  75 103 141 186 236 289 346
#     4  11  23  40  61  87 118 153 197 248 301 359
#     4  11  22  38  64  96 132 166 201 238 281 337
#     4  10  22  40  61  86 120 157 193 238 291 345
#     4  11  22  36  54  79 110 146 189 234 285 342
#
# _framework density 19.965824000000001
#
# number of rings (size 3 to 8) (size 9 to 14) (size 15 to 20)
#    0.000    1.500    1.667    4.500    0.000    6.000 
#    0.000    3.333    0.000    0.500    0.000    3.500 
#    0.000    0.000    0.000    0.000    0.000    0.000 
#
# Total GULP energy -594922.950663 kJ/mol
# GULP energy per Si atom -12394.228139 kJ/mol
# Density = 1.992038 g / cm^3
# Si number density = 19.965824 Si / 1000 Ang^3
#
#
#
# Elastic Constant Matrix: (Units=GPa)
#
#
# Indices 1 2 3 4 5 6 
#
# 1 89.3574 45.1935 38.0612 0.0000 0.0000 0.0000
# 2 45.1935 123.2865 53.5517 0.0000 0.0000 0.0000
# 3 38.0612 53.5517 89.2563 0.0000 0.0000 0.0000
# 4 0.0000 0.0000 0.0000 32.0072 0.0000 0.0000
# 5 0.0000 0.0000 0.0000 0.0000 29.3307 0.0000
# 6 0.0000 0.0000 0.0000 0.0000 0.0000 -42.4536
#
#
#
# Elastic Compliance Matrix: (Units=1/GPa)
#
#
# Indices 1 2 3 4 5 6 
#
# 1 0.014783 -0.003626 -0.004129 0.000000 0.000000 0.000000
# 2 -0.003626 0.011859 -0.005569 0.000000 0.000000 0.000000
# 3 -0.004129 -0.005569 0.016306 0.000000 0.000000 0.000000
# 4 0.000000 0.000000 0.000000 0.031243 0.000000 0.000000
# 5 0.000000 0.000000 0.000000 0.000000 0.034094 0.000000
# 6 0.000000 0.000000 0.000000 0.000000 0.000000 -0.023555
#
#
# Mechanical properties :
#
#
# Convention : Reuss Voigt Hill
#
# Bulk Modulus (GPa) = 61.34553 63.94588 62.64571
# Shear Modulus (GPa) = 42.80411 14.78311 28.79361
#
# Velocity S-wave (km/s) = 4.63522 2.72402 3.80168
# Velocity P-wave (km/s) = 7.70967 6.48004 7.12144
#
# Compressibility (1/GPa) = 0.01630111
#
# Stress axis : x y z
#
# Youngs Moduli (GPa) = 67.64348 84.32122 61.32854
#
# Poissons Ratio (x) = 0.30574 0.25320
# Poissons Ratio (y) = 0.24527 0.34155
# Poissons Ratio (z) = 0.27927 0.46960
#
# Static dielectric constant tensor:
#      x y z
#    x 3.426950 0.000000 0.000000 
#    y 0.000000 3.282660 0.000000 
#    z 0.000000 0.000000 3.718340 
# 
# 
# High freq. dielectric constant tensor:
#      x y z
#    x 1.760770 0.000000 0.000000 
#    y 0.000000 1.780940 0.000000 
#    z 0.000000 0.000000 1.790830 
# 
# From -- ./inp_files/3681.got.cif
#   From: 2010.03.12/outbox.cif.g09.slc.cpg/sg49_2_cif.got.tgz:3681.got - 2010.04.14 03:58:27.
