data_PCOD8203737
_publ_section_title
;
Structure prediction by ZEFSAII (Michael W. Deem and Ramdas Pophale) SiO2 
 PCOD8203737
Probable space group: P C C M
;
_chemical_formula_sum "Si O2"
_cell_formula_units_Z 40
_cell_length_a 25.641377
_cell_length_b 9.970349
_cell_length_c 8.755902
_cell_angle_alpha 90.000000
_cell_angle_beta 90.000000
_cell_angle_gamma 90.000000
_cell_volume 2238.476795
_symmetry_space_group_name_H-M "P C C M"
_symmetry_group_IT_number 49
_symmetry_cell_setting 'orthorhombic'
loop_
_space_group_symop_operation_xyz
x,y,z
-x,-y,z
x,-y,1/2-z
-x,y,1/2-z
-x,-y,-z
x,y,-z
-x,y,1/2+z
x,-y,1/2+z
loop_
_atom_site_type_symbol
_atom_site_label
_atom_site_fract_x
_atom_site_fract_y
_atom_site_fract_z
Si Si1 0.749094 0.143063 0.818067
Si Si2 0.054828 0.641244 0.319993
Si Si3 0.664498 0.645091 0.678896
Si Si4 0.450102 0.353940 0.678299
Si Si5 0.140861 0.858650 0.680461
O O1 0.707034 0.250705 0.758628
O O2 0.805071 0.189015 0.755050
O O3 0.732903 0.000000 0.750000
O O4 0.750894 0.133393 0.000000
O O5 0.072813 0.500000 0.250000
O O6 0.048473 0.625079 0.500000
O O7 0.097608 0.750504 0.275374
O O8 0.000000 0.688498 0.250000
O O9 0.674155 0.500000 0.750000
O O10 0.670714 0.625059 0.500000
O O11 0.606948 0.707280 0.717023
O O12 0.449872 0.500000 0.750000
O O13 0.500000 0.273052 0.750000
O O14 0.459408 0.363395 0.500000
O O15 0.148352 0.873796 0.500000
O O16 0.122729 0.000000 0.750000
#
# Coordination Sequence:
#
# PCOD8203737 Si02
#       5
#     8   8   8   8   8
#     4  10  20  35  53  73  98 131 166 203 246 293
#     4  10  21  36  55  78 105 135 167 201 244 292
#     4   9  19  32  48  72 100 127 161 203 245 290
#     4   9  15  25  41  64  93 123 155 194 239 287
#     4  10  21  36  54  77 101 130 167 206 245 290
#
# _framework density 17.869295000000001
#
# number of rings (size 3 to 8) (size 9 to 14) (size 15 to 20)
#    0.000    2.400    0.000    4.800    0.000    6.800 
#    0.000    6.000    0.000    0.600    0.000    4.200 
#    0.000    0.000    0.000    0.000    0.000    0.000 
#
# Total GULP energy -495799.644884 kJ/mol
# GULP energy per Si atom -12394.991122 kJ/mol
# Density = 1.782862 g / cm^3
# Si number density = 17.869295 Si / 1000 Ang^3
#
#
#
# Elastic Constant Matrix: (Units=GPa)
#
#
# Indices 1 2 3 4 5 6 
#
# 1 173.5650 106.0101 64.9768 0.0000 0.0000 0.0000
# 2 106.0101 101.8666 46.8747 0.0000 0.0000 0.0000
# 3 64.9768 46.8747 87.6311 0.0000 0.0000 0.0000
# 4 0.0000 0.0000 0.0000 16.3790 0.0000 0.0000
# 5 0.0000 0.0000 0.0000 0.0000 49.0417 0.0000
# 6 0.0000 0.0000 0.0000 0.0000 0.0000 11.2142
#
#
#
# Elastic Compliance Matrix: (Units=1/GPa)
#
#
# Indices 1 2 3 4 5 6 
#
# 1 0.016871 -0.015654 -0.004136 0.000000 0.000000 0.000000
# 2 -0.015654 0.027547 -0.003128 0.000000 0.000000 0.000000
# 3 -0.004136 -0.003128 0.016151 0.000000 0.000000 0.000000
# 4 0.000000 0.000000 0.000000 0.061054 0.000000 0.000000
# 5 0.000000 0.000000 0.000000 0.000000 0.020391 0.000000
# 6 0.000000 0.000000 0.000000 0.000000 0.000000 0.089173
#
#
# Mechanical properties :
#
#
# Convention : Reuss Voigt Hill
#
# Bulk Modulus (GPa) = 67.87329 88.75398 78.31363
# Shear Modulus (GPa) = 17.73461 25.00704 21.37082
#
# Velocity S-wave (km/s) = 3.15376 3.74497 3.46201
# Velocity P-wave (km/s) = 7.16430 8.27502 7.73961
#
# Compressibility (1/GPa) = 0.01473334
#
# Stress axis : x y z
#
# Youngs Moduli (GPa) = 59.27241 36.30154 61.91393
#
# Poissons Ratio (x) = 0.56827 0.25608
# Poissons Ratio (y) = 0.92786 0.19366
# Poissons Ratio (z) = 0.24516 0.11355
#
# Static dielectric constant tensor:
#      x y z
#    x 4.128020 0.000000 0.000000 
#    y 0.000000 3.138650 0.000000 
#    z 0.000000 0.000000 3.425690 
# 
# 
# High freq. dielectric constant tensor:
#      x y z
#    x 1.710430 0.000000 0.000000 
#    y 0.000000 1.660590 0.000000 
#    z 0.000000 0.000000 1.706050 
# 
# From -- ./inp_files/6677.got.cif
#   From: 2010.03.12/outbox.cif.g09.slc.cpg/sg49_4_cif.got.tgz:6677.got - 2010.04.14 03:58:27.
