data_PCOD8203061
_publ_section_title
;
Structure prediction by ZEFSAII (Michael W. Deem and Ramdas Pophale) SiO2 
 PCOD8203061
Probable space group: P C C M
;
_chemical_formula_sum "Si O2"
_cell_formula_units_Z 56
_cell_length_a 7.755043
_cell_length_b 16.918673
_cell_length_c 17.811786
_cell_angle_alpha 90.000000
_cell_angle_beta 90.000000
_cell_angle_gamma 90.000000
_cell_volume 2336.996034
_symmetry_space_group_name_H-M "P C C M"
_symmetry_group_IT_number 49
_symmetry_cell_setting 'orthorhombic'
loop_
_space_group_symop_operation_xyz
x,y,z
-x,-y,z
x,-y,1/2-z
-x,y,1/2-z
-x,-y,-z
x,y,-z
-x,y,1/2+z
x,-y,1/2+z
loop_
_atom_site_type_symbol
_atom_site_label
_atom_site_fract_x
_atom_site_fract_y
_atom_site_fract_z
Si Si1 0.683803 0.283689 0.214806
Si Si2 0.888595 0.418181 0.175300
Si Si3 0.294813 0.996838 0.165113
Si Si4 0.164241 0.694835 0.633401
Si Si5 0.320125 0.541165 0.587956
Si Si6 0.677363 0.837508 0.411560
Si Si7 0.278331 0.146435 0.918074
O O1 0.500000 0.261993 0.250000
O O2 0.704431 0.376373 0.193255
O O3 0.819447 0.271005 0.282357
O O4 0.744798 0.231388 0.143632
O O5 0.839768 0.500348 0.133627
O O6 0.000000 0.435725 0.250000
O O7 0.989392 0.355308 0.122076
O O8 0.237856 0.919360 0.118112
O O9 0.500000 0.000000 0.159323
O O10 0.229828 0.000000 0.250000
O O11 0.206328 0.075926 0.132968
O O12 0.321699 0.634237 0.610933
O O13 0.165291 0.773296 0.582550
O O14 0.500000 0.500000 0.609495
O O15 0.283024 0.531371 0.500000
O O16 0.723868 0.824378 0.500000
O O17 0.473880 0.833287 0.396996
O O18 0.271345 0.109464 0.000000
#
# Coordination Sequence:
#
# PCOD8203061 Si02
#       7
#     8   8   8   8   8   8   8
#     4  11  21  38  63  90 123 163 213 265 323 384
#     4  10  25  44  65  94 128 172 217 266 325 406
#     4   9  17  29  51  84 124 167 211 265 322 382
#     4  11  22  39  62  90 127 169 211 260 324 401
#     4  11  25  44  68  99 131 166 216 276 339 399
#     4  10  20  33  55  88 129 167 213 272 328 383
#     4  10  19  32  54  85 125 166 208 260 321 382
#
# _framework density 23.962388000000001
#
# number of rings (size 3 to 8) (size 9 to 14) (size 15 to 20)
#    0.000    1.714    1.429    3.000    2.000    8.000 
#    0.000    3.571    0.000    0.857    0.000    6.000 
#    0.000    0.000    0.000    0.000    0.000    0.000 
#
# Total GULP energy -693909.831687 kJ/mol
# GULP energy per Si atom -12391.246994 kJ/mol
# Density = 2.390785 g / cm^3
# Si number density = 23.962388 Si / 1000 Ang^3
#
#
#
# Elastic Constant Matrix: (Units=GPa)
#
#
# Indices 1 2 3 4 5 6 
#
# 1 49.9991 31.2141 23.9408 0.0000 0.0000 0.0000
# 2 31.2141 188.4186 73.2382 0.0000 0.0000 0.0000
# 3 23.9408 73.2382 143.2937 0.0000 0.0000 0.0000
# 4 0.0000 0.0000 0.0000 45.4373 0.0000 0.0000
# 5 0.0000 0.0000 0.0000 0.0000 20.8294 0.0000
# 6 0.0000 0.0000 0.0000 0.0000 0.0000 15.2318
#
#
#
# Elastic Compliance Matrix: (Units=1/GPa)
#
#
# Indices 1 2 3 4 5 6 
#
# 1 0.022929 -0.002882 -0.002358 0.000000 0.000000 0.000000
# 2 -0.002882 0.006985 -0.003089 0.000000 0.000000 0.000000
# 3 -0.002358 -0.003089 0.008951 0.000000 0.000000 0.000000
# 4 0.000000 0.000000 0.000000 0.022008 0.000000 0.000000
# 5 0.000000 0.000000 0.000000 0.000000 0.048009 0.000000
# 6 0.000000 0.000000 0.000000 0.000000 0.000000 0.065652
#
#
# Mechanical properties :
#
#
# Convention : Reuss Voigt Hill
#
# Bulk Modulus (GPa) = 45.02851 70.94418 57.98634
# Shear Modulus (GPa) = 25.17697 33.18760 29.18228
#
# Velocity S-wave (km/s) = 3.24495 3.72558 3.49354
# Velocity P-wave (km/s) = 5.73338 6.94099 6.36589
#
# Compressibility (1/GPa) = 0.02220815
#
# Stress axis : x y z
#
# Youngs Moduli (GPa) = 43.61383 143.15643 111.71585
#
# Poissons Ratio (x) = 0.41257 0.26340
# Poissons Ratio (y) = 0.12569 0.34506
# Poissons Ratio (z) = 0.10283 0.44218
#
# Static dielectric constant tensor:
#      x y z
#    x 4.112800 0.000000 0.000000 
#    y 0.000000 4.531540 0.000000 
#    z 0.000000 0.000000 4.327650 
# 
# 
# High freq. dielectric constant tensor:
#      x y z
#    x 1.918520 0.000000 0.000000 
#    y 0.000000 1.964730 0.000000 
#    z 0.000000 0.000000 1.953370 
# 
# From -- ./inp_files/19887.got.cif
#   From: 2010.03.12/outbox.cif.g09.slc.cpg/sg49_10_cif.got.tgz:19887.got - 2010.04.14 03:58:27.
