data_PCOD8203469
_publ_section_title
;
Structure prediction by ZEFSAII (Michael W. Deem and Ramdas Pophale) SiO2 
 PCOD8203469
Probable space group: P C C M
;
_chemical_formula_sum "Si O2"
_cell_formula_units_Z 48
_cell_length_a 23.486813
_cell_length_b 13.677315
_cell_length_c 8.801321
_cell_angle_alpha 90.000000
_cell_angle_beta 90.000000
_cell_angle_gamma 90.000000
_cell_volume 2827.305903
_symmetry_space_group_name_H-M "P C C M"
_symmetry_group_IT_number 49
_symmetry_cell_setting 'orthorhombic'
loop_
_space_group_symop_operation_xyz
x,y,z
-x,-y,z
x,-y,1/2-z
-x,y,1/2-z
-x,-y,-z
x,y,-z
-x,y,1/2+z
x,-y,1/2+z
loop_
_atom_site_type_symbol
_atom_site_label
_atom_site_fract_x
_atom_site_fract_y
_atom_site_fract_z
Si Si1 0.723662 0.603995 0.321593
Si Si2 0.671881 0.787083 0.177237
Si Si3 0.558187 0.103212 0.677412
Si Si4 0.940464 0.603505 0.179248
Si Si5 0.227093 0.899345 0.177252
Si Si6 0.160223 0.707494 0.174689
O O1 0.710312 0.500000 0.250000
O O2 0.713821 0.599946 0.500000
O O3 0.679670 0.681555 0.252894
O O4 0.787893 0.635978 0.282138
O O5 0.607467 0.818850 0.210410
O O6 0.713737 0.867406 0.248131
O O7 0.685466 0.779707 0.000000
O O8 0.500000 0.144376 0.750000
O O9 0.548821 0.086665 0.500000
O O10 0.575407 0.000000 0.750000
O O11 0.921809 0.500000 0.250000
O O12 0.892853 0.683568 0.217824
O O13 0.000000 0.638926 0.250000
O O14 0.947142 0.592165 0.000000
O O15 0.178314 0.818930 0.206575
O O16 0.205317 0.000000 0.250000
O O17 0.238545 0.913247 0.000000
O O18 0.142354 0.692516 0.000000
#
# Coordination Sequence:
#
# PCOD8203469 Si02
#       6
#     8   8   8   8   8   8
#     4  10  20  33  51  74 101 132 163 200 244 290
#     4  10  20  33  50  73 100 130 165 202 243 291
#     4  10  20  32  49  72  98 129 162 200 243 289
#     4  11  21  33  51  73  99 130 162 199 242 287
#     4  10  20  33  51  74 101 132 164 201 244 290
#     4   9  19  34  50  72 100 129 162 198 239 287
#
# _framework density 16.977291999999998
#
# number of rings (size 3 to 8) (size 9 to 14) (size 15 to 20)
#    0.000    2.000    0.000    6.500    0.000    9.333 
#    0.000    0.000    0.000    1.000    0.000    7.000 
#    0.000    0.000    0.000    0.000    0.000    0.000 
#
# Total GULP energy -595372.167943 kJ/mol
# GULP energy per Si atom -12403.586832 kJ/mol
# Density = 1.693865 g / cm^3
# Si number density = 16.977292 Si / 1000 Ang^3
#
#
#
# Elastic Constant Matrix: (Units=GPa)
#
#
# Indices 1 2 3 4 5 6 
#
# 1 107.6272 62.1200 68.1331 0.0000 0.0000 0.0000
# 2 62.1200 120.5253 60.9452 0.0000 0.0000 0.0000
# 3 68.1331 60.9452 130.4015 0.0000 0.0000 0.0000
# 4 0.0000 0.0000 0.0000 32.2301 0.0000 0.0000
# 5 0.0000 0.0000 0.0000 0.0000 26.8009 0.0000
# 6 0.0000 0.0000 0.0000 0.0000 0.0000 22.1782
#
#
#
# Elastic Compliance Matrix: (Units=1/GPa)
#
#
# Indices 1 2 3 4 5 6 
#
# 1 0.016111 -0.005300 -0.005941 0.000000 0.000000 0.000000
# 2 -0.005300 0.012608 -0.003124 0.000000 0.000000 0.000000
# 3 -0.005941 -0.003124 0.012232 0.000000 0.000000 0.000000
# 4 0.000000 0.000000 0.000000 0.031027 0.000000 0.000000
# 5 0.000000 0.000000 0.000000 0.000000 0.037312 0.000000
# 6 0.000000 0.000000 0.000000 0.000000 0.000000 0.045089
#
#
# Mechanical properties :
#
#
# Convention : Reuss Voigt Hill
#
# Bulk Modulus (GPa) = 81.81117 82.32785 82.06951
# Shear Modulus (GPa) = 26.71188 27.39889 27.05538
#
# Velocity S-wave (km/s) = 3.97090 4.02164 3.99635
# Velocity P-wave (km/s) = 8.32570 8.37633 8.35106
#
# Compressibility (1/GPa) = 0.01222327
#
# Stress axis : x y z
#
# Youngs Moduli (GPa) = 62.06901 79.31481 81.74945
#
# Poissons Ratio (x) = 0.42035 0.48567
# Poissons Ratio (y) = 0.32895 0.25534
# Poissons Ratio (z) = 0.36875 0.24774
#
# Static dielectric constant tensor:
#      x y z
#    x 3.091430 0.000000 0.000000 
#    y 0.000000 3.128480 0.000000 
#    z 0.000000 0.000000 3.315130 
# 
# 
# High freq. dielectric constant tensor:
#      x y z
#    x 1.643420 0.000000 0.000000 
#    y 0.000000 1.645770 0.000000 
#    z 0.000000 0.000000 1.674510 
# 
# From -- ./inp_files/4157.got.cif
#   From: 2010.03.12/outbox.cif.g09.slc.cpg/sg49_3_cif.got.tgz:4157.got - 2010.04.14 03:58:27.
