data_PCOD8203393
_publ_section_title
;
Structure prediction by ZEFSAII (Michael W. Deem and Ramdas Pophale) SiO2 
 PCOD8203393
Probable space group: P C C M
;
_chemical_formula_sum "Si O2"
_cell_formula_units_Z 56
_cell_length_a 11.442898
_cell_length_b 15.652026
_cell_length_c 15.235700
_cell_angle_alpha 90.000000
_cell_angle_beta 90.000000
_cell_angle_gamma 90.000000
_cell_volume 2728.782995
_symmetry_space_group_name_H-M "P C C M"
_symmetry_group_IT_number 49
_symmetry_cell_setting 'orthorhombic'
loop_
_space_group_symop_operation_xyz
x,y,z
-x,-y,z
x,-y,1/2-z
-x,y,1/2-z
-x,-y,-z
x,y,-z
-x,y,1/2+z
x,-y,1/2+z
loop_
_atom_site_type_symbol
_atom_site_label
_atom_site_fract_x
_atom_site_fract_y
_atom_site_fract_z
Si Si1 0.669073 0.233730 0.101492
Si Si2 0.449165 0.337748 0.102953
Si Si3 0.740112 0.801452 0.098910
Si Si4 0.893559 0.657981 0.136753
Si Si5 0.364096 0.899588 0.752919
Si Si6 0.153488 0.361931 0.339156
Si Si7 0.286020 0.478495 0.097001
O O1 0.572270 0.301750 0.139945
O O2 0.678718 0.146625 0.157775
O O3 0.791113 0.282177 0.110036
O O4 0.642934 0.208941 0.000000
O O5 0.352900 0.269151 0.128185
O O6 0.402862 0.431216 0.137639
O O7 0.461133 0.348102 0.000000
O O8 0.867550 0.755656 0.104784
O O9 0.716510 0.874733 0.169594
O O10 0.719992 0.836943 0.000000
O O11 0.861364 0.657435 0.238229
O O12 0.812981 0.593103 0.083517
O O13 0.025780 0.627872 0.117628
O O14 0.500000 0.874849 0.750000
O O15 0.346585 0.000000 0.750000
O O16 0.235458 0.445730 0.343848
O O17 0.314122 0.516272 0.000000
#
# Coordination Sequence:
#
# PCOD8203393 Si02
#       7
#     8   8   8   8   8   8   8
#     4  11  22  38  60  87 125 162 199 246 299 366
#     4   8  17  33  54  81 116 158 195 236 289 348
#     4  10  19  37  63  85 114 155 197 238 293 364
#     4  10  21  37  56  82 116 158 209 257 300 345
#     4  11  23  39  63  94 124 151 188 243 308 374
#     4  11  22  35  56  84 118 161 208 256 297 345
#     4  10  20  34  53  81 118 159 206 252 293 341
#
# _framework density 20.521968999999999
#
# number of rings (size 3 to 8) (size 9 to 14) (size 15 to 20)
#    0.000    1.857    2.857    2.571    0.000    5.143 
#    0.000    3.571    0.000    3.429    0.000    2.000 
#    0.000    0.000    0.000    0.000    0.000    0.000 
#
# Total GULP energy -693771.781352 kJ/mol
# GULP energy per Si atom -12388.781810 kJ/mol
# Density = 2.047526 g / cm^3
# Si number density = 20.521969 Si / 1000 Ang^3
#
#
#
# Elastic Constant Matrix: (Units=GPa)
#
#
# Indices 1 2 3 4 5 6 
#
# 1 48.9050 39.1838 21.9904 0.0000 0.0000 0.0000
# 2 39.1838 103.1360 37.8383 0.0000 0.0000 0.0000
# 3 21.9904 37.8383 76.6465 0.0000 0.0000 0.0000
# 4 0.0000 0.0000 0.0000 -28.8074 0.0000 0.0000
# 5 0.0000 0.0000 0.0000 0.0000 19.3000 0.0000
# 6 0.0000 0.0000 0.0000 0.0000 0.0000 20.4154
#
#
#
# Elastic Compliance Matrix: (Units=1/GPa)
#
#
# Indices 1 2 3 4 5 6 
#
# 1 0.030217 -0.010135 -0.003666 0.000000 0.000000 0.000000
# 2 -0.010135 0.015240 -0.004616 0.000000 0.000000 0.000000
# 3 -0.003666 -0.004616 0.016377 0.000000 0.000000 0.000000
# 4 0.000000 0.000000 0.000000 -0.034713 0.000000 0.000000
# 5 0.000000 0.000000 0.000000 0.000000 0.051814 0.000000
# 6 0.000000 0.000000 0.000000 0.000000 0.000000 0.048983
#
#
# Mechanical properties :
#
#
# Convention : Reuss Voigt Hill
#
# Bulk Modulus (GPa) = 39.99929 47.41250 43.70589
# Shear Modulus (GPa) = 28.88776 10.82660 19.85718
#
# Velocity S-wave (km/s) = 3.75594 2.29936 3.11401
# Velocity P-wave (km/s) = 6.19215 5.49571 5.85430
#
# Compressibility (1/GPa) = 0.02500045
#
# Stress axis : x y z
#
# Youngs Moduli (GPa) = 33.09430 65.61731 61.06001
#
# Poissons Ratio (x) = 0.66504 0.22384
# Poissons Ratio (y) = 0.33541 0.28183
# Poissons Ratio (z) = 0.12132 0.30287
#
# Static dielectric constant tensor:
#      x y z
#    x 4.035060 0.000000 0.000000 
#    y 0.000000 3.630460 0.000000 
#    z 0.000000 0.000000 3.618130 
# 
# 
# High freq. dielectric constant tensor:
#      x y z
#    x 1.796260 0.000000 0.000000 
#    y 0.000000 1.774590 0.000000 
#    z 0.000000 0.000000 1.802900 
# 
# From -- ./inp_files/12922.got.cif
#   From: 2010.03.12/outbox.cif.g09.slc.cpg/sg49_7_cif.got.tgz:12922.got - 2010.04.14 03:58:27.
