data_PCOD8203053
_publ_section_title
;
Structure prediction by ZEFSAII (Michael W. Deem and Ramdas Pophale) SiO2 
 PCOD8203053
Probable space group: P C C M
;
_chemical_formula_sum "Si O2"
_cell_formula_units_Z 64
_cell_length_a 15.181625
_cell_length_b 24.538572
_cell_length_c 8.681518
_cell_angle_alpha 90.000000
_cell_angle_beta 90.000000
_cell_angle_gamma 90.000000
_cell_volume 3234.172765
_symmetry_space_group_name_H-M "P C C M"
_symmetry_group_IT_number 49
_symmetry_cell_setting 'orthorhombic'
loop_
_space_group_symop_operation_xyz
x,y,z
-x,-y,z
x,-y,1/2-z
-x,y,1/2-z
-x,-y,-z
x,y,-z
-x,y,1/2+z
x,-y,1/2+z
loop_
_atom_site_type_symbol
_atom_site_label
_atom_site_fract_x
_atom_site_fract_y
_atom_site_fract_z
Si Si1 0.323316 0.736182 0.678204
Si Si2 0.274730 0.143418 0.181629
Si Si3 0.409359 0.360020 0.320012
Si Si4 0.090956 0.830594 0.177441
Si Si5 0.408101 0.940742 0.817585
Si Si6 0.914029 0.397639 0.680499
Si Si7 0.145435 0.709738 0.823427
Si Si8 0.273990 0.442790 0.180031
O O1 0.346044 0.728776 0.500000
O O2 0.321033 0.799441 0.726801
O O3 0.396736 0.703675 0.775259
O O4 0.229099 0.709498 0.711508
O O5 0.173271 0.142462 0.234371
O O6 0.327179 0.097198 0.271150
O O7 0.278575 0.133089 0.000000
O O8 0.500000 0.382392 0.250000
O O9 0.413528 0.367209 0.500000
O O10 0.328539 0.394280 0.254701
O O11 0.091505 0.765446 0.196094
O O12 0.000000 0.852814 0.250000
O O13 0.095976 0.848349 0.000000
O O14 0.500000 0.917476 0.750000
O O15 0.388634 0.000000 0.750000
O O16 0.416082 0.944223 0.000000
O O17 0.923585 0.387246 0.500000
O O18 0.914044 0.340133 0.769891
O O19 0.828490 0.433406 0.719087
O O20 0.000000 0.428533 0.750000
O O21 0.176820 0.702451 0.000000
O O22 0.304669 0.500000 0.250000
O O23 0.292784 0.443131 0.000000
#
# Coordination Sequence:
#
# PCOD8203053 Si02
#       8
#     8   8   8   8   8   8   8   8
#     4  10  20  36  58  86 122 158 195 238 291 350
#     4  10  21  37  59  88 123 163 204 250 300 353
#     4  12  25  42  66  91 119 153 192 239 293 355
#     4  10  20  33  51  81 119 161 205 249 295 349
#     4  11  22  39  63  90 122 159 204 254 304 358
#     4  11  23  37  58  85 117 151 191 238 288 348
#     4  10  19  32  54  82 115 154 196 237 288 346
#     4  11  25  45  66  88 115 149 191 242 295 351
#
# _framework density 19.788678000000001
#
# number of rings (size 3 to 8) (size 9 to 14) (size 15 to 20)
#    0.000    1.375    1.250    5.250    0.000    6.500 
#    0.000    2.500    0.000    0.375    0.000    2.625 
#    0.000    0.000    0.000    0.000    0.000    0.000 
#
# Total GULP energy -793834.981404 kJ/mol
# GULP energy per Si atom -12403.671584 kJ/mol
# Density = 1.974364 g / cm^3
# Si number density = 19.788678 Si / 1000 Ang^3
#
#
#
# Elastic Constant Matrix: (Units=GPa)
#
#
# Indices 1 2 3 4 5 6 
#
# 1 97.7332 43.8865 58.4032 0.0000 0.0000 0.0000
# 2 43.8865 76.4025 44.9549 0.0000 0.0000 0.0000
# 3 58.4032 44.9549 133.8637 0.0000 0.0000 0.0000
# 4 0.0000 0.0000 0.0000 15.9181 0.0000 0.0000
# 5 0.0000 0.0000 0.0000 0.0000 36.8141 0.0000
# 6 0.0000 0.0000 0.0000 0.0000 0.0000 16.9579
#
#
#
# Elastic Compliance Matrix: (Units=1/GPa)
#
#
# Indices 1 2 3 4 5 6 
#
# 1 0.015964 -0.006321 -0.004842 0.000000 0.000000 0.000000
# 2 -0.006321 0.018814 -0.003561 0.000000 0.000000 0.000000
# 3 -0.004842 -0.003561 0.010779 0.000000 0.000000 0.000000
# 4 0.000000 0.000000 0.000000 0.062822 0.000000 0.000000
# 5 0.000000 0.000000 0.000000 0.000000 0.027164 0.000000
# 6 0.000000 0.000000 0.000000 0.000000 0.000000 0.058970
#
#
# Mechanical properties :
#
#
# Convention : Reuss Voigt Hill
#
# Bulk Modulus (GPa) = 62.07452 66.94319 64.50885
# Shear Modulus (GPa) = 21.80280 24.65501 23.22890
#
# Velocity S-wave (km/s) = 3.32291 3.53358 3.42986
# Velocity P-wave (km/s) = 6.79405 7.10990 6.95377
#
# Compressibility (1/GPa) = 0.01610967
#
# Stress axis : x y z
#
# Youngs Moduli (GPa) = 62.64187 53.15094 92.77601
#
# Poissons Ratio (x) = 0.33595 0.44924
# Poissons Ratio (y) = 0.39594 0.33035
# Poissons Ratio (z) = 0.30332 0.18926
#
# Static dielectric constant tensor:
#      x y z
#    x 3.749000 0.000000 0.000000 
#    y 0.000000 3.435130 0.000000 
#    z 0.000000 0.000000 3.694310 
# 
# 
# High freq. dielectric constant tensor:
#      x y z
#    x 1.776530 0.000000 0.000000 
#    y 0.000000 1.748880 0.000000 
#    z 0.000000 0.000000 1.788460 
# 
# From -- ./inp_files/4340.got.cif
#   From: 2010.03.12/outbox.cif.g09.slc.cpg/sg49_3_cif.got.tgz:4340.got - 2010.04.14 03:58:27.
