data_PCOD8203060
_publ_section_title
;
Structure prediction by ZEFSAII (Michael W. Deem and Ramdas Pophale) SiO2 
 PCOD8203060
Probable space group: P C C M
;
_chemical_formula_sum "Si O2"
_cell_formula_units_Z 64
_cell_length_a 9.688234
_cell_length_b 15.028792
_cell_length_c 23.195823
_cell_angle_alpha 90.000000
_cell_angle_beta 90.000000
_cell_angle_gamma 90.000000
_cell_volume 3377.368743
_symmetry_space_group_name_H-M "P C C M"
_symmetry_group_IT_number 49
_symmetry_cell_setting 'orthorhombic'
loop_
_space_group_symop_operation_xyz
x,y,z
-x,-y,z
x,-y,1/2-z
-x,y,1/2-z
-x,-y,-z
x,y,-z
-x,y,1/2+z
x,-y,1/2+z
loop_
_atom_site_type_symbol
_atom_site_label
_atom_site_fract_x
_atom_site_fract_y
_atom_site_fract_z
Si Si1 0.849267 0.350588 0.733631
Si Si2 0.643475 0.967830 0.431287
Si Si3 0.347472 0.471646 0.161822
Si Si4 0.072186 0.738361 0.379117
Si Si5 0.211403 0.654649 0.142118
Si Si6 0.336496 0.670012 0.435388
Si Si7 0.603462 0.770484 0.434134
Si Si8 0.104926 0.079912 0.934792
O O1 0.737915 0.422909 0.712417
O O2 0.869138 0.273403 0.685855
O O3 0.787623 0.308120 0.792151
O O4 0.000000 0.393343 0.750000
O O5 0.645524 0.971203 0.500000
O O6 0.658096 0.865587 0.411525
O O7 0.500000 0.000000 0.405341
O O8 0.757842 0.035743 0.407438
O O9 0.500000 0.500000 0.184739
O O10 0.244268 0.549950 0.142082
O O11 0.376866 0.408690 0.107560
O O12 0.182061 0.703111 0.424954
O O13 0.047583 0.842393 0.393122
O O14 0.934822 0.679082 0.387439
O O15 0.332556 0.696958 0.106223
O O16 0.347646 0.631593 0.500000
O O17 0.438217 0.755691 0.428485
O O18 0.651068 0.756251 0.500000
O O19 0.128136 0.116966 0.000000
O O20 0.000000 0.000000 0.937150
#
# Coordination Sequence:
#
# PCOD8203060 Si02
#       8
#     8   8   8   8   8   8   8   8
#     4   9  22  40  60  81 110 147 190 241 287 330
#     4   9  17  30  52  78 105 141 181 222 271 331
#     4  11  22  39  60  88 113 148 198 241 291 338
#     4  10  21  37  56  81 112 152 191 234 291 340
#     4  11  22  37  57  81 112 144 189 240 285 339
#     4  10  21  37  56  81 119 156 187 231 285 352
#     4  10  20  35  55  83 115 147 181 226 289 346
#     4  10  19  32  54  85 117 145 185 237 283 342
#
# _framework density 18.949662
#
# number of rings (size 3 to 8) (size 9 to 14) (size 15 to 20)
#    0.000    2.000    1.250    2.250    0.000   11.750 
#    0.000    0.625    0.000    8.625    0.000    0.875 
#    0.000    0.000    0.000    0.000    0.000    0.000 
#
# Total GULP energy -793222.747966 kJ/mol
# GULP energy per Si atom -12394.105437 kJ/mol
# Density = 1.890653 g / cm^3
# Si number density = 18.949662 Si / 1000 Ang^3
#
#
#
# Elastic Constant Matrix: (Units=GPa)
#
#
# Indices 1 2 3 4 5 6 
#
# 1 123.8705 42.5454 40.6978 0.0000 0.0000 0.0000
# 2 42.5454 100.1471 39.4006 0.0000 0.0000 0.0000
# 3 40.6978 39.4006 76.7881 0.0000 0.0000 0.0000
# 4 0.0000 0.0000 0.0000 53.7537 0.0000 0.0000
# 5 0.0000 0.0000 0.0000 0.0000 50.1779 0.0000
# 6 0.0000 0.0000 0.0000 0.0000 0.0000 33.2857
#
#
#
# Elastic Compliance Matrix: (Units=1/GPa)
#
#
# Indices 1 2 3 4 5 6 
#
# 1 0.010370 -0.002811 -0.004054 0.000000 0.000000 0.000000
# 2 -0.002811 0.013273 -0.005321 0.000000 0.000000 0.000000
# 3 -0.004054 -0.005321 0.017902 0.000000 0.000000 0.000000
# 4 0.000000 0.000000 0.000000 0.018603 0.000000 0.000000
# 5 0.000000 0.000000 0.000000 0.000000 0.019929 0.000000
# 6 0.000000 0.000000 0.000000 0.000000 0.000000 0.030043
#
#
# Mechanical properties :
#
#
# Convention : Reuss Voigt Hill
#
# Bulk Modulus (GPa) = 58.22839 60.67701 59.45270
# Shear Modulus (GPa) = 35.65943 39.32090 37.49017
#
# Velocity S-wave (km/s) = 4.34268 4.56018 4.45276
# Velocity P-wave (km/s) = 7.47929 7.73412 7.60777
#
# Compressibility (1/GPa) = 0.01717375
#
# Stress axis : x y z
#
# Youngs Moduli (GPa) = 96.42943 75.34298 55.86085
#
# Poissons Ratio (x) = 0.21176 0.22647
# Poissons Ratio (y) = 0.27102 0.29722
# Poissons Ratio (z) = 0.39094 0.40088
#
# Static dielectric constant tensor:
#      x y z
#    x 3.448340 0.000000 0.000000 
#    y 0.000000 3.332860 0.000000 
#    z 0.000000 0.000000 3.411050 
# 
# 
# High freq. dielectric constant tensor:
#      x y z
#    x 1.754190 0.000000 0.000000 
#    y 0.000000 1.726740 0.000000 
#    z 0.000000 0.000000 1.714770 
# 
# From -- ./inp_files/22535.got.cif
#   From: 2010.03.12/outbox.cif.g09.slc.cpg/sg49_12_cif.got.tgz:22535.got - 2010.04.14 03:58:27.
