data_PCOD8203820
_publ_section_title
;
Structure prediction by ZEFSAII (Michael W. Deem and Ramdas Pophale) SiO2 
 PCOD8203820
Probable space group: P C C M
;
_chemical_formula_sum "Si O2"
_cell_formula_units_Z 64
_cell_length_a 19.455831
_cell_length_b 20.501320
_cell_length_c 8.564955
_cell_angle_alpha 90.000000
_cell_angle_beta 90.000000
_cell_angle_gamma 90.000000
_cell_volume 3416.305461
_symmetry_space_group_name_H-M "P C C M"
_symmetry_group_IT_number 49
_symmetry_cell_setting 'orthorhombic'
loop_
_space_group_symop_operation_xyz
x,y,z
-x,-y,z
x,-y,1/2-z
-x,y,1/2-z
-x,-y,-z
x,y,-z
-x,y,1/2+z
x,-y,1/2+z
loop_
_atom_site_type_symbol
_atom_site_label
_atom_site_fract_x
_atom_site_fract_y
_atom_site_fract_z
Si Si1 0.289233 0.931162 0.684049
Si Si2 0.427392 0.267581 0.681058
Si Si3 0.788536 0.809137 0.317090
Si Si4 0.927540 0.771873 0.183971
Si Si5 0.572806 0.885498 0.318470
Si Si6 0.289687 0.313246 0.817896
Si Si7 0.071882 0.621051 0.682909
Si Si8 0.791110 0.432317 0.817176
O O1 0.276603 0.926131 0.500000
O O2 0.246036 0.876978 0.773925
O O3 0.369720 0.923522 0.721741
O O4 0.263017 0.000000 0.750000
O O5 0.500000 0.290283 0.750000
O O6 0.423664 0.285911 0.500000
O O7 0.415867 0.191097 0.707855
O O8 0.369271 0.306320 0.774045
O O9 0.779840 0.795889 0.500000
O O10 0.868232 0.812888 0.268990
O O11 0.751821 0.751449 0.224412
O O12 0.916902 0.696389 0.229194
O O13 0.000000 0.797390 0.250000
O O14 0.924281 0.783607 0.000000
O O15 0.500000 0.908070 0.250000
O O16 0.577596 0.904193 0.500000
O O17 0.260103 0.374845 0.727967
O O18 0.281127 0.326104 0.000000
O O19 0.071565 0.611395 0.500000
O O20 0.132516 0.578817 0.753913
O O21 0.000000 0.595055 0.750000
O O22 0.761874 0.500000 0.750000
O O23 0.795165 0.437507 0.000000
#
# Coordination Sequence:
#
# PCOD8203820 Si02
#       8
#     8   8   8   8   8   8   8   8
#     4  12  25  41  60  84 118 157 199 245 296 351
#     4  10  20  35  58  88 121 154 193 242 294 345
#     4  12  23  38  61  89 119 155 198 244 294 347
#     4  10  20  35  58  88 121 154 193 242 294 345
#     4  10  20  35  56  83 118 156 198 240 288 346
#     4  12  23  38  61  89 119 155 198 244 294 347
#     4  10  20  35  56  83 118 156 198 240 288 346
#     4  12  25  41  60  84 118 157 199 245 296 351
#
# _framework density 18.733688000000001
#
# number of rings (size 3 to 8) (size 9 to 14) (size 15 to 20)
#    0.000    1.000    2.500    6.000    0.000    2.500 
#    0.000    2.500    0.000    0.750    0.000    5.250 
#    0.000    0.000    0.000    0.000    0.000    0.000 
#
# Total GULP energy -794049.854237 kJ/mol
# GULP energy per Si atom -12407.028972 kJ/mol
# Density = 1.869105 g / cm^3
# Si number density = 18.733688 Si / 1000 Ang^3
#
#
#
# Elastic Constant Matrix: (Units=GPa)
#
#
# Indices 1 2 3 4 5 6 
#
# 1 104.3507 31.0045 14.6898 0.0000 0.0000 0.0000
# 2 31.0045 72.5253 0.1759 0.0000 0.0000 0.0000
# 3 14.6898 0.1759 68.7392 0.0000 0.0000 0.0000
# 4 0.0000 0.0000 0.0000 34.1727 0.0000 0.0000
# 5 0.0000 0.0000 0.0000 0.0000 37.1985 0.0000
# 6 0.0000 0.0000 0.0000 0.0000 0.0000 23.8790
#
#
#
# Elastic Compliance Matrix: (Units=1/GPa)
#
#
# Indices 1 2 3 4 5 6 
#
# 1 0.011365 -0.004853 -0.002416 0.000000 0.000000 0.000000
# 2 -0.004853 0.015860 0.000996 0.000000 0.000000 0.000000
# 3 -0.002416 0.000996 0.015062 0.000000 0.000000 0.000000
# 4 0.000000 0.000000 0.000000 0.029263 0.000000 0.000000
# 5 0.000000 0.000000 0.000000 0.000000 0.026883 0.000000
# 6 0.000000 0.000000 0.000000 0.000000 0.000000 0.041878
#
#
# Mechanical properties :
#
#
# Convention : Reuss Voigt Hill
#
# Bulk Modulus (GPa) = 33.62262 37.48394 35.55328
# Shear Modulus (GPa) = 30.71821 32.36637 31.54229
#
# Velocity S-wave (km/s) = 4.05375 4.16108 4.10777
# Velocity P-wave (km/s) = 6.31642 6.56798 6.44343
#
# Compressibility (1/GPa) = 0.02974188
#
# Stress axis : x y z
#
# Youngs Moduli (GPa) = 87.98910 63.05011 66.39411
#
# Poissons Ratio (x) = 0.30596 0.16043
# Poissons Ratio (y) = 0.42698 -0.06616
# Poissons Ratio (z) = 0.21261 -0.06283
#
# Static dielectric constant tensor:
#      x y z
#    x 3.598110 0.000000 0.000000 
#    y 0.000000 3.299870 0.000000 
#    z 0.000000 0.000000 3.561230 
# 
# 
# High freq. dielectric constant tensor:
#      x y z
#    x 1.733540 0.000000 0.000000 
#    y 0.000000 1.703970 0.000000 
#    z 0.000000 0.000000 1.749030 
# 
# From -- ./inp_files/5328.got.cif
#   From: 2010.03.12/outbox.cif.g09.slc.cpg/sg49_3_cif.got.tgz:5328.got - 2010.04.14 03:58:27.
