data_PCOD8203739
_publ_section_title
;
Structure prediction by ZEFSAII (Michael W. Deem and Ramdas Pophale) SiO2 
 PCOD8203739
Probable space group: P C C M
;
_chemical_formula_sum "Si O2"
_cell_formula_units_Z 64
_cell_length_a 20.660235
_cell_length_b 19.681054
_cell_length_c 8.752690
_cell_angle_alpha 90.000000
_cell_angle_beta 90.000000
_cell_angle_gamma 90.000000
_cell_volume 3558.976801
_symmetry_space_group_name_H-M "P C C M"
_symmetry_group_IT_number 49
_symmetry_cell_setting 'orthorhombic'
loop_
_space_group_symop_operation_xyz
x,y,z
-x,-y,z
x,-y,1/2-z
-x,y,1/2-z
-x,-y,-z
x,y,-z
-x,y,1/2+z
x,-y,1/2+z
loop_
_atom_site_type_symbol
_atom_site_label
_atom_site_fract_x
_atom_site_fract_y
_atom_site_fract_z
Si Si1 0.930063 0.071089 0.317749
Si Si2 0.565202 0.666703 0.172744
Si Si3 0.689750 0.170230 0.168002
Si Si4 0.831975 0.177607 0.816855
Si Si5 0.172674 0.325789 0.818292
Si Si6 0.436219 0.171222 0.169207
Si Si7 0.931769 0.573588 0.317015
Si Si8 0.694183 0.668547 0.329170
O O1 0.933596 0.066885 0.500000
O O2 0.883070 0.130056 0.264503
O O3 0.000000 0.088149 0.250000
O O4 0.904393 0.000000 0.250000
O O5 0.500000 0.637990 0.250000
O O6 0.565208 0.747841 0.179831
O O7 0.628298 0.637338 0.259006
O O8 0.567236 0.640453 0.000000
O O9 0.760675 0.149540 0.230433
O O10 0.630760 0.140428 0.266265
O O11 0.686878 0.251098 0.163546
O O12 0.680067 0.139935 0.000000
O O13 0.842343 0.252439 0.751529
O O14 0.840193 0.178996 0.000000
O O15 0.123243 0.376302 0.739306
O O16 0.244985 0.350992 0.776613
O O17 0.164141 0.324769 0.000000
O O18 0.500000 0.141963 0.250000
O O19 0.441142 0.143956 0.000000
O O20 0.915338 0.500000 0.250000
O O21 0.934802 0.570909 0.500000
O O22 0.000000 0.599676 0.250000
O O23 0.704432 0.639274 0.500000
#
# Coordination Sequence:
#
# PCOD8203739 Si02
#       8
#     8   8   8   8   8   8   8   8
#     4  11  22  38  58  79 103 133 167 206 250 300
#     4   9  15  22  33  52  79 116 158 200 242 292
#     4   8  15  26  40  58  86 120 155 195 242 289
#     4  10  20  35  53  76 104 135 169 209 254 302
#     4  11  21  34  52  77 105 136 171 209 253 303
#     4   9  15  21  32  50  77 113 155 195 235 283
#     4  11  22  39  59  80 104 133 167 206 251 300
#     4   9  16  27  41  60  88 124 161 202 248 295
#
# _framework density 17.982697999999999
#
# number of rings (size 3 to 8) (size 9 to 14) (size 15 to 20)
#    0.000    2.250    0.000    6.375    0.000    7.000 
#    0.000    2.500    0.000    0.000    0.000    0.000 
#    0.000    1.000    0.000   10.250    0.000   13.500 
#
# Total GULP energy -793352.146110 kJ/mol
# GULP energy per Si atom -12396.127283 kJ/mol
# Density = 1.794177 g / cm^3
# Si number density = 17.982698 Si / 1000 Ang^3
#
#
#
# Elastic Constant Matrix: (Units=GPa)
#
#
# Indices 1 2 3 4 5 6 
#
# 1 149.8933 54.7865 72.2780 0.0000 0.0000 0.0000
# 2 54.7865 40.2928 34.4842 0.0000 0.0000 0.0000
# 3 72.2780 34.4842 160.7559 0.0000 0.0000 0.0000
# 4 0.0000 0.0000 0.0000 18.9638 0.0000 0.0000
# 5 0.0000 0.0000 0.0000 0.0000 38.0455 0.0000
# 6 0.0000 0.0000 0.0000 0.0000 0.0000 -12.0818
#
#
#
# Elastic Compliance Matrix: (Units=1/GPa)
#
#
# Indices 1 2 3 4 5 6 
#
# 1 0.014187 -0.016941 -0.002745 0.000000 0.000000 0.000000
# 2 -0.016941 0.050629 -0.003244 0.000000 0.000000 0.000000
# 3 -0.002745 -0.003244 0.008150 0.000000 0.000000 0.000000
# 4 0.000000 0.000000 0.000000 0.052732 0.000000 0.000000
# 5 0.000000 0.000000 0.000000 0.000000 0.026284 0.000000
# 6 0.000000 0.000000 0.000000 0.000000 0.000000 -0.082769
#
#
# Mechanical properties :
#
#
# Convention : Reuss Voigt Hill
#
# Bulk Modulus (GPa) = 36.88956 74.89328 55.89142
# Shear Modulus (GPa) = 40.28740 21.61173 30.94956
#
# Velocity S-wave (km/s) = 4.73836 3.47047 4.15308
# Velocity P-wave (km/s) = 7.10595 7.60241 7.35837
#
# Compressibility (1/GPa) = 0.02710794
#
# Stress axis : x y z
#
# Youngs Moduli (GPa) = 70.48803 19.75142 122.69346
#
# Poissons Ratio (x) = 0.33461 0.33673
# Poissons Ratio (y) = 1.19414 0.39798
# Poissons Ratio (z) = 0.19345 0.06407
#
# Static dielectric constant tensor:
#      x y z
#    x 3.669210 0.000000 0.000000 
#    y 0.000000 2.769520 0.000000 
#    z 0.000000 0.000000 3.584650 
# 
# 
# High freq. dielectric constant tensor:
#      x y z
#    x 1.717460 0.000000 0.000000 
#    y 0.000000 1.626830 0.000000 
#    z 0.000000 0.000000 1.716580 
# 
# From -- ./inp_files/5959.got.cif
#   From: 2010.03.12/outbox.cif.g09.slc.cpg/sg49_3_cif.got.tgz:5959.got - 2010.04.14 03:58:27.
