data_PCOD8203581
_publ_section_title
;
Structure prediction by ZEFSAII (Michael W. Deem and Ramdas Pophale) SiO2 
 PCOD8203581
Probable space group: P C C M
;
_chemical_formula_sum "Si O2"
_cell_formula_units_Z 64
_cell_length_a 9.285261
_cell_length_b 15.079149
_cell_length_c 23.337184
_cell_angle_alpha 90.000000
_cell_angle_beta 90.000000
_cell_angle_gamma 90.000000
_cell_volume 3267.528609
_symmetry_space_group_name_H-M "P C C M"
_symmetry_group_IT_number 49
_symmetry_cell_setting 'orthorhombic'
loop_
_space_group_symop_operation_xyz
x,y,z
-x,-y,z
x,-y,1/2-z
-x,y,1/2-z
-x,-y,-z
x,y,-z
-x,y,1/2+z
x,-y,1/2+z
loop_
_atom_site_type_symbol
_atom_site_label
_atom_site_fract_x
_atom_site_fract_y
_atom_site_fract_z
Si Si1 0.333724 0.666683 0.860747
Si Si2 0.329375 0.500295 0.064753
Si Si3 0.172930 0.725805 0.751166
Si Si4 0.153366 0.003838 0.564818
Si Si5 0.660190 0.098049 0.730140
Si Si6 0.343892 0.856669 0.399603
Si Si7 0.331093 0.665291 0.359977
Si Si8 0.656308 0.160031 0.065487
O O1 0.278261 0.586711 0.900618
O O2 0.231334 0.671434 0.805617
O O3 0.500813 0.654374 0.842078
O O4 0.313559 0.755300 0.896498
O O5 0.500000 0.500000 0.059800
O O6 0.276150 0.415150 0.100602
O O7 0.264092 0.499445 0.000000
O O8 0.230514 0.827153 0.753511
O O9 0.233495 0.672679 0.696392
O O10 0.000000 0.726376 0.750000
O O11 0.128312 0.034680 0.500000
O O12 0.222350 0.906478 0.564535
O O13 0.251434 0.079927 0.593114
O O14 0.000000 0.000000 0.597447
O O15 0.500000 0.123201 0.750000
O O16 0.656283 0.098106 0.662196
O O17 0.709034 0.000000 0.750000
O O18 0.308977 0.752783 0.398094
O O19 0.493047 0.872816 0.431532
O O20 0.695140 0.182504 0.000000
#
# Coordination Sequence:
#
# PCOD8203581 Si02
#       8
#     8   8   8   8   8   8   8   8
#     4  10  20  36  63  84 119 152 187 243 295 355
#     4   9  18  35  63  97 121 143 187 247 302 351
#     4  11  23  39  57  82 117 157 202 241 282 343
#     4  10  22  36  50  74 109 147 187 230 277 333
#     4  10  22  37  57  84 112 149 192 243 298 350
#     4  10  20  34  55  81 109 147 187 232 282 348
#     4   9  20  38  58  89 116 148 191 236 297 346
#     4  10  20  33  56  84 112 146 190 235 285 349
#
# _framework density 19.586670000000002
#
# number of rings (size 3 to 8) (size 9 to 14) (size 15 to 20)
#    0.000    2.125    0.000    3.750    5.250    7.250 
#    0.000    3.125    0.000    2.250    0.000    0.000 
#    0.000    0.000    0.000    0.000    0.000    0.000 
#
# Total GULP energy -793504.018521 kJ/mol
# GULP energy per Si atom -12398.500289 kJ/mol
# Density = 1.954209 g / cm^3
# Si number density = 19.586670 Si / 1000 Ang^3
#
#
#
# Elastic Constant Matrix: (Units=GPa)
#
#
# Indices 1 2 3 4 5 6 
#
# 1 117.4676 64.8590 48.1125 0.0000 0.0000 0.0000
# 2 64.8590 142.7098 58.0717 0.0000 0.0000 0.0000
# 3 48.1125 58.0717 101.7505 0.0000 0.0000 0.0000
# 4 0.0000 0.0000 0.0000 33.0299 0.0000 0.0000
# 5 0.0000 0.0000 0.0000 0.0000 26.5977 0.0000
# 6 0.0000 0.0000 0.0000 0.0000 0.0000 9.8496
#
#
#
# Elastic Compliance Matrix: (Units=1/GPa)
#
#
# Indices 1 2 3 4 5 6 
#
# 1 0.012202 -0.004165 -0.003393 0.000000 0.000000 0.000000
# 2 -0.004165 0.010549 -0.004051 0.000000 0.000000 0.000000
# 3 -0.003393 -0.004051 0.013744 0.000000 0.000000 0.000000
# 4 0.000000 0.000000 0.000000 0.030276 0.000000 0.000000
# 5 0.000000 0.000000 0.000000 0.000000 0.037597 0.000000
# 6 0.000000 0.000000 0.000000 0.000000 0.000000 0.101527
#
#
# Mechanical properties :
#
#
# Convention : Reuss Voigt Hill
#
# Bulk Modulus (GPa) = 75.31473 78.22382 76.76928
# Shear Modulus (GPa) = 21.40978 26.62109 24.01544
#
# Velocity S-wave (km/s) = 3.30976 3.69066 3.50539
# Velocity P-wave (km/s) = 7.28982 7.62792 7.46079
#
# Compressibility (1/GPa) = 0.01327761
#
# Stress axis : x y z
#
# Youngs Moduli (GPa) = 81.95151 94.79909 72.75839
#
# Poissons Ratio (x) = 0.39486 0.24684
# Poissons Ratio (y) = 0.34134 0.29474
# Poissons Ratio (z) = 0.27803 0.38402
#
# Static dielectric constant tensor:
#      x y z
#    x 3.886650 0.000000 0.000000 
#    y 0.000000 3.657860 0.000000 
#    z 0.000000 0.000000 3.604280 
# 
# 
# High freq. dielectric constant tensor:
#      x y z
#    x 1.735570 0.000000 0.000000 
#    y 0.000000 1.769010 0.000000 
#    z 0.000000 0.000000 1.767790 
# 
# From -- ./inp_files/22566.got.cif
#   From: 2010.03.12/outbox.cif.g09.slc.cpg/sg49_12_cif.got.tgz:22566.got - 2010.04.14 03:58:27.
