data_PCOD8203454
_publ_section_title
;
Structure prediction by ZEFSAII (Michael W. Deem and Ramdas Pophale) SiO2 
 PCOD8203454
Probable space group: P C C M
;
_chemical_formula_sum "Si O2"
_cell_formula_units_Z 64
_cell_length_a 28.578745
_cell_length_b 14.579446
_cell_length_c 8.671421
_cell_angle_alpha 90.000000
_cell_angle_beta 90.000000
_cell_angle_gamma 90.000000
_cell_volume 3613.053953
_symmetry_space_group_name_H-M "P C C M"
_symmetry_group_IT_number 49
_symmetry_cell_setting 'orthorhombic'
loop_
_space_group_symop_operation_xyz
x,y,z
-x,-y,z
x,-y,1/2-z
-x,y,1/2-z
-x,-y,-z
x,y,-z
-x,y,1/2+z
x,-y,1/2+z
loop_
_atom_site_type_symbol
_atom_site_label
_atom_site_fract_x
_atom_site_fract_y
_atom_site_fract_z
Si Si1 0.229733 0.404868 0.178398
Si Si2 0.809672 0.096574 0.818339
Si Si3 0.090841 0.097960 0.817234
Si Si4 0.952209 0.270197 0.817399
Si Si5 0.269737 0.785875 0.678678
Si Si6 0.130498 0.402880 0.682394
Si Si7 0.648493 0.101610 0.181059
Si Si8 0.544710 0.900369 0.322023
O O1 0.248881 0.500000 0.250000
O O2 0.267922 0.324335 0.202959
O O3 0.181078 0.373026 0.254692
O O4 0.219686 0.422982 0.000000
O O5 0.858061 0.127874 0.742160
O O6 0.770843 0.171311 0.782066
O O7 0.792338 0.000000 0.750000
O O8 0.817241 0.087351 0.000000
O O9 0.053090 0.169926 0.756490
O O10 0.076418 0.000000 0.750000
O O11 0.090953 0.093747 0.000000
O O12 0.908448 0.331018 0.762690
O O13 0.000000 0.313572 0.750000
O O14 0.955162 0.263391 0.000000
O O15 0.261930 0.811388 0.500000
O O16 0.319160 0.824341 0.735223
O O17 0.115116 0.500000 0.750000
O O18 0.133310 0.408648 0.500000
O O19 0.596057 0.141770 0.209916
O O20 0.655777 0.000000 0.250000
O O21 0.660225 0.096053 0.000000
O O22 0.500000 0.844690 0.250000
O O23 0.534701 0.909011 0.500000
O O24 0.545597 0.000000 0.250000
#
# Coordination Sequence:
#
# PCOD8203454 Si02
#       8
#     8   8   8   8   8   8   8   8
#     4  10  21  36  56  78 100 127 162 201 243 291
#     4  11  21  34  52  74 101 133 167 203 241 287
#     4  11  22  38  58  78 101 130 165 205 242 285
#     4  11  24  40  57  80 105 132 163 198 241 288
#     4  11  22  34  49  72 101 134 168 205 250 298
#     4  10  21  37  59  82 105 130 159 195 238 289
#     4  10  20  32  46  68 100 138 176 215 255 299
#     4   9  16  26  42  63  89 126 172 215 256 295
#
# _framework density 17.713546000000001
#
# number of rings (size 3 to 8) (size 9 to 14) (size 15 to 20)
#    0.000    1.625    0.000    7.500    0.000    8.000 
#    0.000    2.500    0.000    0.000    0.000    0.000 
#    0.000    0.500    0.000    5.500    0.000    4.000 
#
# Total GULP energy -793548.678368 kJ/mol
# GULP energy per Si atom -12399.198100 kJ/mol
# Density = 1.767323 g / cm^3
# Si number density = 17.713546 Si / 1000 Ang^3
#
#
#
# Elastic Constant Matrix: (Units=GPa)
#
#
# Indices 1 2 3 4 5 6 
#
# 1 91.5001 54.7241 42.2845 0.0000 0.0000 0.0000
# 2 54.7241 82.1311 37.7120 0.0000 0.0000 0.0000
# 3 42.2845 37.7120 113.3254 0.0000 0.0000 0.0000
# 4 0.0000 0.0000 0.0000 21.2383 0.0000 0.0000
# 5 0.0000 0.0000 0.0000 0.0000 32.3249 0.0000
# 6 0.0000 0.0000 0.0000 0.0000 0.0000 17.4940
#
#
#
# Elastic Compliance Matrix: (Units=1/GPa)
#
#
# Indices 1 2 3 4 5 6 
#
# 1 0.019241 -0.011242 -0.003438 0.000000 0.000000 0.000000
# 2 -0.011242 0.020940 -0.002774 0.000000 0.000000 0.000000
# 3 -0.003438 -0.002774 0.011030 0.000000 0.000000 0.000000
# 4 0.000000 0.000000 0.000000 0.047085 0.000000 0.000000
# 5 0.000000 0.000000 0.000000 0.000000 0.030936 0.000000
# 6 0.000000 0.000000 0.000000 0.000000 0.000000 0.057162
#
#
# Mechanical properties :
#
#
# Convention : Reuss Voigt Hill
#
# Bulk Modulus (GPa) = 61.33669 61.82200 61.57934
# Shear Modulus (GPa) = 22.05206 24.36052 23.20629
#
# Velocity S-wave (km/s) = 3.53218 3.71246 3.62344
# Velocity P-wave (km/s) = 7.16500 7.30433 7.23500
#
# Compressibility (1/GPa) = 0.01630346
#
# Stress axis : x y z
#
# Youngs Moduli (GPa) = 51.97139 47.75640 90.66093
#
# Poissons Ratio (x) = 0.53686 0.31173
# Poissons Ratio (y) = 0.58425 0.25146
# Poissons Ratio (z) = 0.17870 0.13246
#
# Static dielectric constant tensor:
#      x y z
#    x 3.909070 0.000000 0.000000 
#    y 0.000000 3.167810 0.000000 
#    z 0.000000 0.000000 3.452970 
# 
# 
# High freq. dielectric constant tensor:
#      x y z
#    x 1.677820 0.000000 0.000000 
#    y 0.000000 1.659890 0.000000 
#    z 0.000000 0.000000 1.708350 
# 
# From -- ./inp_files/7072.got.cif
#   From: 2010.03.12/outbox.cif.g09.slc.cpg/sg49_4_cif.got.tgz:7072.got - 2010.04.14 03:58:27.
