data_PCOD8203001
_publ_section_title
;
Structure prediction by ZEFSAII (Michael W. Deem and Ramdas Pophale) SiO2 
 PCOD8203001
Probable space group: P C C M
;
_chemical_formula_sum "Si O2"
_cell_formula_units_Z 64
_cell_length_a 19.975741
_cell_length_b 20.070356
_cell_length_c 8.968428
_cell_angle_alpha 90.000000
_cell_angle_beta 90.000000
_cell_angle_gamma 90.000000
_cell_volume 3595.624246
_symmetry_space_group_name_H-M "P C C M"
_symmetry_group_IT_number 49
_symmetry_cell_setting 'orthorhombic'
loop_
_space_group_symop_operation_xyz
x,y,z
-x,-y,z
x,-y,1/2-z
-x,y,1/2-z
-x,-y,-z
x,y,-z
-x,y,1/2+z
x,-y,1/2+z
loop_
_atom_site_type_symbol
_atom_site_label
_atom_site_fract_x
_atom_site_fract_y
_atom_site_fract_z
Si Si1 0.233221 0.600823 0.330489
Si Si2 0.430175 0.070872 0.178877
Si Si3 0.432972 0.294451 0.177216
Si Si4 0.895860 0.564890 0.673931
Si Si5 0.067139 0.288174 0.323527
Si Si6 0.801836 0.751888 0.170697
Si Si7 0.617656 0.434213 0.325833
Si Si8 0.331053 0.186184 0.176351
O O1 0.214288 0.580920 0.500000
O O2 0.182033 0.566147 0.217732
O O3 0.233425 0.680413 0.314570
O O4 0.304991 0.573864 0.282846
O O5 0.500000 0.097422 0.250000
O O6 0.367969 0.118198 0.225825
O O7 0.412498 0.000000 0.250000
O O8 0.438246 0.066195 0.000000
O O9 0.500000 0.266168 0.250000
O O10 0.421647 0.369780 0.233600
O O11 0.373278 0.248426 0.238364
O O12 0.438074 0.290115 0.000000
O O13 0.930439 0.500000 0.750000
O O14 0.904631 0.556649 0.500000
O O15 0.927562 0.634585 0.730028
O O16 0.062939 0.282506 0.500000
O O17 0.130734 0.245200 0.268781
O O18 0.000000 0.258276 0.250000
O O19 0.746632 0.806074 0.230505
O O20 0.822261 0.766539 0.000000
O O21 0.587464 0.500000 0.250000
O O22 0.607961 0.441432 0.500000
O O23 0.329482 0.190954 0.000000
#
# Coordination Sequence:
#
# PCOD8203001 Si02
#       8
#     8   8   8   8   8   8   8   8
#     4   9  16  29  48  66  85 113 147 191 246 299
#     4  10  19  32  51  77 111 148 181 211 246 293
#     4  10  20  35  50  67  90 119 159 204 249 297
#     4  10  20  31  44  64  89 115 150 194 241 297
#     4  10  21  35  49  69  96 126 158 198 247 300
#     4   9  16  31  54  74  93 122 160 201 246 292
#     4  10  20  32  46  62  84 113 150 198 250 303
#     4   9  17  32  55  77  99 131 170 207 246 293
#
# _framework density 17.799413999999999
#
# number of rings (size 3 to 8) (size 9 to 14) (size 15 to 20)
#    0.000    2.375    1.250    2.250    0.000    4.000 
#    0.000    5.000    0.000    0.000    0.000    0.000 
#    0.000    0.500    0.000    5.750    0.000    1.750 
#
# Total GULP energy -793326.075303 kJ/mol
# GULP energy per Si atom -12395.719927 kJ/mol
# Density = 1.775890 g / cm^3
# Si number density = 17.799414 Si / 1000 Ang^3
#
#
#
# Elastic Constant Matrix: (Units=GPa)
#
#
# Indices 1 2 3 4 5 6 
#
# 1 119.4266 51.1562 36.6370 0.0000 0.0000 0.0000
# 2 51.1562 74.0670 25.5804 0.0000 0.0000 0.0000
# 3 36.6370 25.5804 49.9812 0.0000 0.0000 0.0000
# 4 0.0000 0.0000 0.0000 17.0363 0.0000 0.0000
# 5 0.0000 0.0000 0.0000 0.0000 22.9861 0.0000
# 6 0.0000 0.0000 0.0000 0.0000 0.0000 14.7738
#
#
#
# Elastic Compliance Matrix: (Units=1/GPa)
#
#
# Indices 1 2 3 4 5 6 
#
# 1 0.013272 -0.007053 -0.006118 0.000000 0.000000 0.000000
# 2 -0.007053 0.020149 -0.005142 0.000000 0.000000 0.000000
# 3 -0.006118 -0.005142 0.027124 0.000000 0.000000 0.000000
# 4 0.000000 0.000000 0.000000 0.058698 0.000000 0.000000
# 5 0.000000 0.000000 0.000000 0.000000 0.043505 0.000000
# 6 0.000000 0.000000 0.000000 0.000000 0.000000 0.067687
#
#
# Mechanical properties :
#
#
# Convention : Reuss Voigt Hill
#
# Bulk Modulus (GPa) = 41.81115 52.24691 47.02903
# Shear Modulus (GPa) = 18.17958 19.63265 18.90611
#
# Velocity S-wave (km/s) = 3.19934 3.32474 3.26264
# Velocity P-wave (km/s) = 6.09827 6.64495 6.37747
#
# Compressibility (1/GPa) = 0.02391706
#
# Stress axis : x y z
#
# Youngs Moduli (GPa) = 75.34918 49.63117 36.86759
#
# Poissons Ratio (x) = 0.35006 0.22557
# Poissons Ratio (y) = 0.53145 0.18957
# Poissons Ratio (z) = 0.46102 0.25520
#
# Static dielectric constant tensor:
#      x y z
#    x 3.353470 0.000000 0.000000 
#    y 0.000000 3.188930 0.000000 
#    z 0.000000 0.000000 3.101450 
# 
# 
# High freq. dielectric constant tensor:
#      x y z
#    x 1.688460 0.000000 0.000000 
#    y 0.000000 1.653480 0.000000 
#    z 0.000000 0.000000 1.675300 
# 
# From -- ./inp_files/6059.got.cif
#   From: 2010.03.12/outbox.cif.g09.slc.cpg/sg49_4_cif.got.tgz:6059.got - 2010.04.14 03:58:27.
