data_PCOD8203101
_publ_section_title
;
Structure prediction by ZEFSAII (Michael W. Deem and Ramdas Pophale) SiO2 
 PCOD8203101
Probable space group: P C C M
;
_chemical_formula_sum "Si O2"
_cell_formula_units_Z 48
_cell_length_a 17.091790
_cell_length_b 8.977211
_cell_length_c 17.057422
_cell_angle_alpha 90.000000
_cell_angle_beta 90.000000
_cell_angle_gamma 90.000000
_cell_volume 2617.232925
_symmetry_space_group_name_H-M "P C C M"
_symmetry_group_IT_number 49
_symmetry_cell_setting 'orthorhombic'
loop_
_space_group_symop_operation_xyz
x,y,z
-x,-y,z
x,-y,1/2-z
-x,y,1/2-z
-x,-y,-z
x,y,-z
-x,y,1/2+z
x,-y,1/2+z
loop_
_atom_site_type_symbol
_atom_site_label
_atom_site_fract_x
_atom_site_fract_y
_atom_site_fract_z
Si Si1 0.915670 0.675229 0.264307
Si Si2 0.333200 0.144515 0.590711
Si Si3 0.225797 0.393479 0.823195
Si Si4 0.651168 0.199131 0.409488
Si Si5 0.491900 0.176305 0.663201
Si Si6 0.181157 0.328511 0.409666
O O1 0.924979 0.500000 0.250000
O O2 0.845775 0.718089 0.203219
O O3 0.891425 0.715268 0.353527
O O4 0.000000 0.754323 0.250000
O O5 0.349209 0.166962 0.500000
O O6 0.406459 0.223489 0.632951
O O7 0.253997 0.225874 0.616350
O O8 0.328056 0.970723 0.611899
O O9 0.248816 0.500000 0.750000
O O10 0.298388 0.296445 0.850043
O O11 0.201382 0.497936 0.896287
O O12 0.670399 0.234824 0.500000
O O13 0.560347 0.238103 0.393204
O O14 0.500000 0.243635 0.750000
O O15 0.500000 0.000000 0.664074
O O16 0.157447 0.302044 0.500000
#
# Coordination Sequence:
#
# PCOD8203101 Si02
#       6
#     8   8   8   8   8   8
#     4   8  16  32  50  71  99 125 157 202 246 289
#     4   9  18  32  51  74  98 129 168 209 243 282
#     4   9  19  32  50  73 101 130 159 201 248 293
#     4  10  19  33  52  73 100 132 166 203 247 291
#     4   9  18  29  47  73  98 127 169 209 238 277
#     4   9  17  31  52  74  98 127 163 202 246 293
#
# _framework density 18.339980000000001
#
# number of rings (size 3 to 8) (size 9 to 14) (size 15 to 20)
#    0.000    3.333    0.000    1.000    4.667    2.000 
#    0.000    8.333    0.000    5.000    0.000    3.500 
#    0.000    0.000    0.000    0.000    0.000    0.000 
#
# Total GULP energy -594773.892071 kJ/mol
# GULP energy per Si atom -12391.122751 kJ/mol
# Density = 1.829824 g / cm^3
# Si number density = 18.339980 Si / 1000 Ang^3
#
#
#
# Elastic Constant Matrix: (Units=GPa)
#
#
# Indices 1 2 3 4 5 6 
#
# 1 152.8500 37.6091 83.2222 0.0000 0.0000 0.0000
# 2 37.6091 28.7701 30.9077 0.0000 0.0000 0.0000
# 3 83.2222 30.9077 98.7949 0.0000 0.0000 0.0000
# 4 0.0000 0.0000 0.0000 19.7137 0.0000 0.0000
# 5 0.0000 0.0000 0.0000 0.0000 31.4083 0.0000
# 6 0.0000 0.0000 0.0000 0.0000 0.0000 8.7526
#
#
#
# Elastic Compliance Matrix: (Units=1/GPa)
#
#
# Indices 1 2 3 4 5 6 
#
# 1 0.013204 -0.008001 -0.008620 0.000000 0.000000 0.000000
# 2 -0.008001 0.057202 -0.011156 0.000000 0.000000 0.000000
# 3 -0.008620 -0.011156 0.020873 0.000000 0.000000 0.000000
# 4 0.000000 0.000000 0.000000 0.050726 0.000000 0.000000
# 5 0.000000 0.000000 0.000000 0.000000 0.031839 0.000000
# 6 0.000000 0.000000 0.000000 0.000000 0.000000 0.114252
#
#
# Mechanical properties :
#
#
# Convention : Reuss Voigt Hill
#
# Bulk Modulus (GPa) = 27.99050 64.87701 46.43375
# Shear Modulus (GPa) = 14.06243 20.55332 17.30788
#
# Velocity S-wave (km/s) = 2.77205 3.35129 3.07534
# Velocity P-wave (km/s) = 5.05380 7.10115 6.16308
#
# Compressibility (1/GPa) = 0.03572641
#
# Stress axis : x y z
#
# Youngs Moduli (GPa) = 75.73354 17.48194 47.90815
#
# Poissons Ratio (x) = 0.13987 0.41296
# Poissons Ratio (y) = 0.60591 0.53446
# Poissons Ratio (z) = 0.65282 0.19503
#
# Static dielectric constant tensor:
#      x y z
#    x 3.946230 0.000000 0.000000 
#    y 0.000000 3.138480 0.000000 
#    z 0.000000 0.000000 3.417720 
# 
# 
# High freq. dielectric constant tensor:
#      x y z
#    x 1.713340 0.000000 0.000000 
#    y 0.000000 1.663090 0.000000 
#    z 0.000000 0.000000 1.718030 
# 
# From -- ./inp_files/18116.got.cif
#   From: 2010.03.12/outbox.cif.g09.slc.cpg/sg49_10_cif.got.tgz:18116.got - 2010.04.14 03:58:27.
