data_PCOD8203249
_publ_section_title
;
Structure prediction by ZEFSAII (Michael W. Deem and Ramdas Pophale) SiO2 
 PCOD8203249
Probable space group: P C C M
;
_chemical_formula_sum "Si O2"
_cell_formula_units_Z 64
_cell_length_a 11.506882
_cell_length_b 16.664257
_cell_length_c 17.674171
_cell_angle_alpha 90.000000
_cell_angle_beta 90.000000
_cell_angle_gamma 90.000000
_cell_volume 3389.086604
_symmetry_space_group_name_H-M "P C C M"
_symmetry_group_IT_number 49
_symmetry_cell_setting 'orthorhombic'
loop_
_space_group_symop_operation_xyz
x,y,z
-x,-y,z
x,-y,1/2-z
-x,y,1/2-z
-x,-y,-z
x,y,-z
-x,y,1/2+z
x,-y,1/2+z
loop_
_atom_site_type_symbol
_atom_site_label
_atom_site_fract_x
_atom_site_fract_y
_atom_site_fract_z
Si Si1 0.117175 0.305133 0.913286
Si Si2 0.857428 0.259342 0.085510
Si Si3 0.683016 0.186599 0.811867
Si Si4 0.518147 0.336202 0.168716
Si Si5 0.121890 0.529326 0.336205
Si Si6 0.329099 0.211484 0.140003
Si Si7 0.708938 0.582496 0.414323
Si Si8 0.518019 0.093613 0.915155
O O1 0.133777 0.375408 0.850857
O O2 0.209011 0.233521 0.900826
O O3 0.993033 0.265477 0.898351
O O4 0.125271 0.337772 0.000000
O O5 0.806151 0.195378 0.145270
O O6 0.797213 0.344765 0.098875
O O7 0.832252 0.229733 0.000000
O O8 0.610409 0.266282 0.822014
O O9 0.698300 0.173853 0.722547
O O10 0.612081 0.115117 0.851263
O O11 0.500000 0.378454 0.250000
O O12 0.400072 0.295879 0.138648
O O13 0.576618 0.400519 0.112887
O O14 0.120261 0.500000 0.250000
O O15 0.237686 0.493195 0.371981
O O16 0.000000 0.500000 0.374309
O O17 0.397883 0.142562 0.095214
O O18 0.697741 0.557189 0.500000
O O19 0.500000 0.000000 0.905673
O O20 0.563873 0.113559 0.000000
#
# Coordination Sequence:
#
# PCOD8203249 Si02
#       8
#     8   8   8   8   8   8   8   8
#     4  11  23  37  56  80 112 152 191 240 296 343
#     4   9  18  32  54  81 110 144 187 235 281 337
#     4   9  18  32  55  84 112 144 185 232 276 328
#     4   8  17  32  53  75 104 140 179 225 276 330
#     4  11  24  36  55  80 109 145 190 246 294 346
#     4  10  21  35  56  83 116 148 187 235 282 342
#     4  10  19  34  56  78 101 137 187 236 285 337
#     4  10  20  36  60  89 120 153 187 226 277 339
#
# _framework density 18.884143999999999
#
# number of rings (size 3 to 8) (size 9 to 14) (size 15 to 20)
#    0.000    2.250    1.250    2.250    5.250    5.500 
#    0.000    0.625    0.000    2.250    0.000    5.250 
#    0.000    0.000    0.000    0.000    0.000    0.000 
#
# Total GULP energy -793289.547197 kJ/mol
# GULP energy per Si atom -12395.149175 kJ/mol
# Density = 1.884116 g / cm^3
# Si number density = 18.884144 Si / 1000 Ang^3
#
#
#
# Elastic Constant Matrix: (Units=GPa)
#
#
# Indices 1 2 3 4 5 6 
#
# 1 105.2411 34.4591 42.6799 0.0000 0.0000 0.0000
# 2 34.4591 62.5351 33.8417 0.0000 0.0000 0.0000
# 3 42.6799 33.8417 100.5255 0.0000 0.0000 0.0000
# 4 0.0000 0.0000 0.0000 23.5817 0.0000 0.0000
# 5 0.0000 0.0000 0.0000 0.0000 28.6317 0.0000
# 6 0.0000 0.0000 0.0000 0.0000 0.0000 10.2730
#
#
#
# Elastic Compliance Matrix: (Units=1/GPa)
#
#
# Indices 1 2 3 4 5 6 
#
# 1 0.012622 -0.004958 -0.003690 0.000000 0.000000 0.000000
# 2 -0.004958 0.021501 -0.005133 0.000000 0.000000 0.000000
# 3 -0.003690 -0.005133 0.013242 0.000000 0.000000 0.000000
# 4 0.000000 0.000000 0.000000 0.042406 0.000000 0.000000
# 5 0.000000 0.000000 0.000000 0.000000 0.034926 0.000000
# 6 0.000000 0.000000 0.000000 0.000000 0.000000 0.097343
#
#
# Mechanical properties :
#
#
# Convention : Reuss Voigt Hill
#
# Bulk Modulus (GPa) = 50.49747 54.47368 52.48558
# Shear Modulus (GPa) = 19.51576 22.98536 21.25056
#
# Velocity S-wave (km/s) = 3.21821 3.49259 3.35821
# Velocity P-wave (km/s) = 6.37244 6.72110 6.54909
#
# Compressibility (1/GPa) = 0.01980297
#
# Stress axis : x y z
#
# Youngs Moduli (GPa) = 79.22798 46.50916 75.51578
#
# Poissons Ratio (x) = 0.23061 0.27862
# Poissons Ratio (y) = 0.39284 0.38763
# Poissons Ratio (z) = 0.29232 0.23874
#
# Static dielectric constant tensor:
#      x y z
#    x 3.930990 0.000000 0.000000 
#    y 0.000000 3.057840 0.000000 
#    z 0.000000 0.000000 3.898020 
# 
# 
# High freq. dielectric constant tensor:
#      x y z
#    x 1.733910 0.000000 0.000000 
#    y 0.000000 1.691010 0.000000 
#    z 0.000000 0.000000 1.744530 
# 
# From -- ./inp_files/17287.got.cif
#   From: 2010.03.12/outbox.cif.g09.slc.cpg/sg49_9_cif.got.tgz:17287.got - 2010.04.14 03:58:27.
