data_PCOD8203968
_publ_section_title
;
Structure prediction by ZEFSAII (Michael W. Deem and Ramdas Pophale) SiO2 
 PCOD8203968
Probable space group: P C C M
;
_chemical_formula_sum "Si O2"
_cell_formula_units_Z 48
_cell_length_a 30.313173
_cell_length_b 9.440578
_cell_length_c 8.701893
_cell_angle_alpha 90.000000
_cell_angle_beta 90.000000
_cell_angle_gamma 90.000000
_cell_volume 2490.254432
_symmetry_space_group_name_H-M "P C C M"
_symmetry_group_IT_number 49
_symmetry_cell_setting 'orthorhombic'
loop_
_space_group_symop_operation_xyz
x,y,z
-x,-y,z
x,-y,1/2-z
-x,y,1/2-z
-x,-y,-z
x,y,-z
-x,y,1/2+z
x,-y,1/2+z
loop_
_atom_site_type_symbol
_atom_site_label
_atom_site_fract_x
_atom_site_fract_y
_atom_site_fract_z
Si Si1 0.382485 0.350281 0.682107
Si Si2 0.282259 0.352466 0.679776
Si Si3 0.204303 0.844707 0.181618
Si Si4 0.127680 0.344491 0.180574
Si Si5 0.544509 0.844656 0.817573
Si Si6 0.046587 0.851233 0.320020
O O1 0.397252 0.500000 0.750000
O O2 0.389387 0.348257 0.500000
O O3 0.332124 0.316526 0.730433
O O4 0.412115 0.234551 0.763265
O O5 0.265572 0.500000 0.750000
O O6 0.279416 0.374129 0.500000
O O7 0.250730 0.224887 0.733846
O O8 0.165586 0.747319 0.243145
O O9 0.200762 0.000000 0.250000
O O10 0.200418 0.855634 0.000000
O O11 0.127360 0.500000 0.250000
O O12 0.081239 0.271091 0.219597
O O13 0.136365 0.353049 0.000000
O O14 0.500000 0.771566 0.750000
O O15 0.548120 0.000000 0.750000
O O16 0.541858 0.848457 0.000000
O O17 0.040983 0.873629 0.500000
O O18 0.000000 0.803695 0.250000
O O19 0.063066 0.000000 0.250000
#
# Coordination Sequence:
#
# PCOD8203968 Si02
#       6
#     8   8   8   8   8   8
#     4  10  20  37  58  84 115 148 186 230 278 331
#     4   9  20  37  58  83 113 147 185 228 278 332
#     4  11  23  39  59  85 115 150 190 234 280 333
#     4  11  24  40  59  85 115 151 190 234 284 337
#     4  11  22  38  58  82 111 147 187 231 281 334
#     4  10  21  37  59  85 114 148 188 231 281 334
#
# _framework density 19.275138999999999
#
# number of rings (size 3 to 8) (size 9 to 14) (size 15 to 20)
#    0.000    1.667    0.000    5.500    0.000    8.667 
#    0.000    5.000    0.000    0.000    0.000    0.000 
#    0.000    0.000    0.000    0.000    0.000    0.000 
#
# Total GULP energy -595331.156826 kJ/mol
# GULP energy per Si atom -12402.732434 kJ/mol
# Density = 1.923127 g / cm^3
# Si number density = 19.275139 Si / 1000 Ang^3
#
#
#
# Elastic Constant Matrix: (Units=GPa)
#
#
# Indices 1 2 3 4 5 6 
#
# 1 127.6983 90.3973 64.7991 0.0000 0.0000 0.0000
# 2 90.3973 150.1990 62.1845 0.0000 0.0000 0.0000
# 3 64.7991 62.1845 116.6972 0.0000 0.0000 0.0000
# 4 0.0000 0.0000 0.0000 38.7940 0.0000 0.0000
# 5 0.0000 0.0000 0.0000 0.0000 30.5341 0.0000
# 6 0.0000 0.0000 0.0000 0.0000 0.0000 44.8458
#
#
#
# Elastic Compliance Matrix: (Units=1/GPa)
#
#
# Indices 1 2 3 4 5 6 
#
# 1 0.015372 -0.007336 -0.004626 0.000000 0.000000 0.000000
# 2 -0.007336 0.012044 -0.002344 0.000000 0.000000 0.000000
# 3 -0.004626 -0.002344 0.012387 0.000000 0.000000 0.000000
# 4 0.000000 0.000000 0.000000 0.025777 0.000000 0.000000
# 5 0.000000 0.000000 0.000000 0.000000 0.032750 0.000000
# 6 0.000000 0.000000 0.000000 0.000000 0.000000 0.022299
#
#
# Mechanical properties :
#
#
# Convention : Reuss Voigt Hill
#
# Bulk Modulus (GPa) = 89.37054 92.15070 90.76062
# Shear Modulus (GPa) = 32.68582 34.64904 33.66743
#
# Velocity S-wave (km/s) = 4.12242 4.24441 4.18386
# Velocity P-wave (km/s) = 8.31417 8.48127 8.39814
#
# Compressibility (1/GPa) = 0.01118937
#
# Stress axis : x y z
#
# Youngs Moduli (GPa) = 65.05423 83.03181 80.72856
#
# Poissons Ratio (x) = 0.60913 0.37348
# Poissons Ratio (y) = 0.47725 0.18923
# Poissons Ratio (z) = 0.30096 0.19463
#
# Static dielectric constant tensor:
#      x y z
#    x 4.073210 0.000000 0.000000 
#    y 0.000000 3.574840 0.000000 
#    z 0.000000 0.000000 3.560970 
# 
# 
# High freq. dielectric constant tensor:
#      x y z
#    x 1.765120 0.000000 0.000000 
#    y 0.000000 1.750860 0.000000 
#    z 0.000000 0.000000 1.765600 
# 
# From -- ./inp_files/2051.got.cif
#   From: 2010.03.12/outbox.cif.g09.slc.cpg/sg49_2_cif.got.tgz:2051.got - 2010.04.14 03:58:27.
