data_PCOD8203929
_publ_section_title
;
Structure prediction by ZEFSAII (Michael W. Deem and Ramdas Pophale) SiO2 
 PCOD8203929
Probable space group: P C C M
;
_chemical_formula_sum "Si O2"
_cell_formula_units_Z 64
_cell_length_a 8.624362
_cell_length_b 23.775730
_cell_length_c 15.684952
_cell_angle_alpha 90.000000
_cell_angle_beta 90.000000
_cell_angle_gamma 90.000000
_cell_volume 3216.207287
_symmetry_space_group_name_H-M "P C C M"
_symmetry_group_IT_number 49
_symmetry_cell_setting 'orthorhombic'
loop_
_space_group_symop_operation_xyz
x,y,z
-x,-y,z
x,-y,1/2-z
-x,y,1/2-z
-x,-y,-z
x,y,-z
-x,y,1/2+z
x,-y,1/2+z
loop_
_atom_site_type_symbol
_atom_site_label
_atom_site_fract_x
_atom_site_fract_y
_atom_site_fract_z
Si Si1 0.816564 0.694683 0.753724
Si Si2 0.328732 0.004906 0.650392
Si Si3 0.671987 0.496749 0.899079
Si Si4 0.811489 0.380715 0.096503
Si Si5 0.890764 0.093996 0.330804
Si Si6 0.318116 0.814843 0.755387
Si Si7 0.823540 0.611715 0.903615
Si Si8 0.193160 0.877076 0.905246
O O1 0.762271 0.667347 0.663860
O O2 0.724727 0.751886 0.769775
O O3 0.766190 0.657224 0.834905
O O4 0.000000 0.706075 0.750000
O O5 0.203393 0.957155 0.624721
O O6 0.500000 0.000000 0.606959
O O7 0.351085 0.000000 0.750000
O O8 0.262032 0.064733 0.627306
O O9 0.500000 0.500000 0.860565
O O10 0.746332 0.439045 0.866107
O O11 0.768663 0.551004 0.869446
O O12 0.669492 0.494867 0.000000
O O13 0.993494 0.388357 0.093744
O O14 0.750505 0.366478 0.000000
O O15 0.766913 0.141358 0.306464
O O16 0.000000 0.075384 0.250000
O O17 0.006203 0.120094 0.400817
O O18 0.500000 0.825605 0.750000
O O19 0.259824 0.825410 0.851275
O O20 0.758981 0.624484 0.000000
O O21 0.247383 0.864725 0.000000
#
# Coordination Sequence:
#
# PCOD8203929 Si02
#       8
#     8   8   8   8   8   8   8   8
#     4  10  21  37  57  83 108 144 194 240 285 342
#     4  11  20  34  60  91 123 163 191 225 290 353
#     4   9  17  30  50  77 110 145 178 222 282 340
#     4   9  18  33  54  78 107 145 185 227 279 339
#     4  10  20  36  60  84 113 156 196 230 277 342
#     4  11  23  42  63  83 112 158 197 233 294 362
#     4   9  18  34  55  78 107 141 183 232 281 338
#     4  11  24  39  62  93 120 150 197 248 286 332
#
# _framework density 19.899215000000002
#
# number of rings (size 3 to 8) (size 9 to 14) (size 15 to 20)
#    0.000    2.000    2.500    2.625    0.000    4.750 
#    0.000    8.125    0.000    0.000    0.000    0.000 
#    0.000    0.000    0.000    0.000    0.000    0.000 
#
# Total GULP energy -793343.994801 kJ/mol
# GULP energy per Si atom -12395.999919 kJ/mol
# Density = 1.985392 g / cm^3
# Si number density = 19.899215 Si / 1000 Ang^3
#
#
#
# Elastic Constant Matrix: (Units=GPa)
#
#
# Indices 1 2 3 4 5 6 
#
# 1 83.1001 30.9117 15.2700 0.0000 0.0000 0.0000
# 2 30.9117 92.8203 20.1264 0.0000 0.0000 0.0000
# 3 15.2700 20.1264 73.3958 0.0000 0.0000 0.0000
# 4 0.0000 0.0000 0.0000 13.6962 0.0000 0.0000
# 5 0.0000 0.0000 0.0000 0.0000 111.7000 0.0000
# 6 0.0000 0.0000 0.0000 0.0000 0.0000 19.2484
#
#
#
# Elastic Compliance Matrix: (Units=1/GPa)
#
#
# Indices 1 2 3 4 5 6 
#
# 1 0.013939 -0.004267 -0.001730 0.000000 0.000000 0.000000
# 2 -0.004267 0.012761 -0.002611 0.000000 0.000000 0.000000
# 3 -0.001730 -0.002611 0.014701 0.000000 0.000000 0.000000
# 4 0.000000 0.000000 0.000000 0.073013 0.000000 0.000000
# 5 0.000000 0.000000 0.000000 0.000000 0.008953 0.000000
# 6 0.000000 0.000000 0.000000 0.000000 0.000000 0.051952
#
#
# Mechanical properties :
#
#
# Convention : Reuss Voigt Hill
#
# Bulk Modulus (GPa) = 41.35014 42.43694 41.89354
# Shear Modulus (GPa) = 24.92573 41.12946 33.02759
#
# Velocity S-wave (km/s) = 3.54305 4.55124 4.07841
# Velocity P-wave (km/s) = 6.12882 6.99933 6.57849
#
# Compressibility (1/GPa) = 0.02418372
#
# Stress axis : x y z
#
# Youngs Moduli (GPa) = 71.74239 78.36532 68.02359
#
# Poissons Ratio (x) = 0.33438 0.11767
# Poissons Ratio (y) = 0.30612 0.17764
# Poissons Ratio (z) = 0.12411 0.20465
#
# Static dielectric constant tensor:
#      x y z
#    x 3.877960 0.000000 0.000000 
#    y 0.000000 3.564200 0.000000 
#    z 0.000000 0.000000 3.505790 
# 
# 
# High freq. dielectric constant tensor:
#      x y z
#    x 1.779270 0.000000 0.000000 
#    y 0.000000 1.771950 0.000000 
#    z 0.000000 0.000000 1.757390 
# 
# From -- ./inp_files/16583.got.cif
#   From: 2010.03.12/outbox.cif.g09.slc.cpg/sg49_9_cif.got.tgz:16583.got - 2010.04.14 03:58:27.
