data_PCOD8203234
_publ_section_title
;
Structure prediction by ZEFSAII (Michael W. Deem and Ramdas Pophale) SiO2 
 PCOD8203234
Probable space group: P C C M
;
_chemical_formula_sum "Si O2"
_cell_formula_units_Z 64
_cell_length_a 21.016244
_cell_length_b 17.085361
_cell_length_c 8.831957
_cell_angle_alpha 90.000000
_cell_angle_beta 90.000000
_cell_angle_gamma 90.000000
_cell_volume 3171.291821
_symmetry_space_group_name_H-M "P C C M"
_symmetry_group_IT_number 49
_symmetry_cell_setting 'orthorhombic'
loop_
_space_group_symop_operation_xyz
x,y,z
-x,-y,z
x,-y,1/2-z
-x,y,1/2-z
-x,-y,-z
x,y,-z
-x,y,1/2+z
x,-y,1/2+z
loop_
_atom_site_type_symbol
_atom_site_label
_atom_site_fract_x
_atom_site_fract_y
_atom_site_fract_z
Si Si1 0.703291 0.581299 0.680803
Si Si2 0.806651 0.708204 0.674767
Si Si3 0.346883 0.075459 0.179202
Si Si4 0.435730 0.626148 0.829245
Si Si5 0.563353 0.811311 0.327314
Si Si6 0.936011 0.250954 0.679613
Si Si7 0.217964 0.886350 0.175192
Si Si8 0.909051 0.076959 0.323518
O O1 0.727621 0.500000 0.750000
O O2 0.702053 0.579446 0.500000
O O3 0.753903 0.646816 0.736511
O O4 0.631130 0.596661 0.743180
O O5 0.821952 0.691450 0.500000
O O6 0.873767 0.702075 0.763509
O O7 0.776516 0.793263 0.699186
O O8 0.380124 0.155833 0.225791
O O9 0.280640 0.073190 0.265903
O O10 0.384135 0.000000 0.250000
O O11 0.339580 0.070379 0.000000
O O12 0.500000 0.593385 0.750000
O O13 0.433667 0.718853 0.819429
O O14 0.440304 0.596309 0.000000
O O15 0.500000 0.843991 0.250000
O O16 0.568066 0.841118 0.500000
O O17 0.937693 0.256709 0.500000
O O18 0.935857 0.160168 0.736528
O O19 0.000000 0.289295 0.750000
O O20 0.164429 0.924313 0.279185
O O21 0.204992 0.906768 0.000000
O O22 0.918729 0.069928 0.500000
O O23 0.942695 0.000000 0.250000
#
# Coordination Sequence:
#
# PCOD8203234 Si02
#       8
#     8   8   8   8   8   8   8   8
#     4  10  21  37  57  85 118 151 183 220 267 322
#     4   9  19  37  60  82 109 145 184 226 276 329
#     4  12  24  36  50  71  99 133 174 223 275 326
#     4   9  19  36  58  83 114 149 186 223 265 318
#     4  10  20  37  57  76  98 129 171 219 269 322
#     4  10  21  36  56  82 111 144 187 233 279 330
#     4  10  19  34  55  76 100 135 177 223 271 322
#     4  10  20  33  49  74 108 145 183 225 271 323
#
# _framework density 20.181051
#
# number of rings (size 3 to 8) (size 9 to 14) (size 15 to 20)
#    0.000    2.000    0.000    3.750    0.000    6.250 
#    0.000    5.000    0.000    0.375    0.000    2.625 
#    0.000    0.000    0.000    0.000    0.000    0.000 
#
# Total GULP energy -793378.919603 kJ/mol
# GULP energy per Si atom -12396.545619 kJ/mol
# Density = 2.013512 g / cm^3
# Si number density = 20.181051 Si / 1000 Ang^3
#
#
#
# Elastic Constant Matrix: (Units=GPa)
#
#
# Indices 1 2 3 4 5 6 
#
# 1 123.3692 37.6141 28.8658 0.0000 0.0000 0.0000
# 2 37.6141 65.5320 22.3616 0.0000 0.0000 0.0000
# 3 28.8658 22.3616 36.9144 0.0000 0.0000 0.0000
# 4 0.0000 0.0000 0.0000 28.9320 0.0000 0.0000
# 5 0.0000 0.0000 0.0000 0.0000 32.0409 0.0000
# 6 0.0000 0.0000 0.0000 0.0000 0.0000 0.4336
#
#
#
# Elastic Compliance Matrix: (Units=1/GPa)
#
#
# Indices 1 2 3 4 5 6 
#
# 1 0.010752 -0.004163 -0.005886 0.000000 0.000000 0.000000
# 2 -0.004163 0.020848 -0.009374 0.000000 0.000000 0.000000
# 3 -0.005886 -0.009374 0.037371 0.000000 0.000000 0.000000
# 4 0.000000 0.000000 0.000000 0.034564 0.000000 0.000000
# 5 0.000000 0.000000 0.000000 0.000000 0.031210 0.000000
# 6 0.000000 0.000000 0.000000 0.000000 0.000000 2.306201
#
#
# Mechanical properties :
#
#
# Convention : Reuss Voigt Hill
#
# Bulk Modulus (GPa) = 33.19470 44.83317 39.01394
# Shear Modulus (GPa) = 2.00817 21.41292 11.71054
#
# Velocity S-wave (km/s) = 0.99862 3.26090 2.41150
# Velocity P-wave (km/s) = 4.22064 6.03669 5.20843
#
# Compressibility (1/GPa) = 0.03012529
#
# Stress axis : x y z
#
# Youngs Moduli (GPa) = 93.00387 47.96673 26.75904
#
# Poissons Ratio (x) = 0.19969 0.15750
# Poissons Ratio (y) = 0.38718 0.25083
# Poissons Ratio (z) = 0.54742 0.44962
#
# Static dielectric constant tensor:
#      x y z
#    x 2.022450 0.000000 0.000000 
#    y 0.000000 3.670400 0.000000 
#    z 0.000000 0.000000 3.611740 
# 
# 
# High freq. dielectric constant tensor:
#      x y z
#    x 1.793270 0.000000 0.000000 
#    y 0.000000 1.771770 0.000000 
#    z 0.000000 0.000000 1.785260 
# 
# From -- ./inp_files/5307.got.cif
#   From: 2010.03.12/outbox.cif.g09.slc.cpg/sg49_3_cif.got.tgz:5307.got - 2010.04.14 03:58:27.
