data_PCOD8203136
_publ_section_title
;
Structure prediction by ZEFSAII (Michael W. Deem and Ramdas Pophale) SiO2 
 PCOD8203136
Probable space group: P C C M
;
_chemical_formula_sum "Si O2"
_cell_formula_units_Z 64
_cell_length_a 17.376061
_cell_length_b 20.838211
_cell_length_c 8.833815
_cell_angle_alpha 90.000000
_cell_angle_beta 90.000000
_cell_angle_gamma 90.000000
_cell_volume 3198.600963
_symmetry_space_group_name_H-M "P C C M"
_symmetry_group_IT_number 49
_symmetry_cell_setting 'orthorhombic'
loop_
_space_group_symop_operation_xyz
x,y,z
-x,-y,z
x,-y,1/2-z
-x,y,1/2-z
-x,-y,-z
x,y,-z
-x,y,1/2+z
x,-y,1/2+z
loop_
_atom_site_type_symbol
_atom_site_label
_atom_site_fract_x
_atom_site_fract_y
_atom_site_fract_z
Si Si1 0.209355 0.305476 0.824282
Si Si2 0.423796 0.406456 0.676117
Si Si3 0.252878 0.435255 0.679747
Si Si4 0.616479 0.280375 0.674154
Si Si5 0.920903 0.205887 0.679772
Si Si6 0.429207 0.845638 0.827485
Si Si7 0.870157 0.933762 0.178671
Si Si8 0.291771 0.060475 0.672390
O O1 0.204749 0.373620 0.737257
O O2 0.292430 0.274389 0.794695
O O3 0.146755 0.253853 0.762966
O O4 0.195046 0.320104 0.000000
O O5 0.500000 0.439297 0.750000
O O6 0.431057 0.417264 0.500000
O O7 0.342193 0.433879 0.736847
O O8 0.423306 0.331799 0.717360
O O9 0.216025 0.500000 0.750000
O O10 0.247747 0.436754 0.500000
O O11 0.600179 0.298511 0.500000
O O12 0.576871 0.214724 0.717712
O O13 0.924379 0.207594 0.500000
O O14 0.910520 0.131905 0.735967
O O15 0.000000 0.232136 0.750000
O O16 0.500000 0.885323 0.750000
O O17 0.349067 0.881194 0.819351
O O18 0.448021 0.827315 0.000000
O O19 0.782329 0.924912 0.227184
O O20 0.905226 0.000000 0.250000
O O21 0.876854 0.940306 0.000000
O O22 0.266993 0.045462 0.500000
O O23 0.334174 0.000000 0.750000
#
# Coordination Sequence:
#
# PCOD8203136 Si02
#       8
#     8   8   8   8   8   8   8   8
#     4   9  19  37  59  82 109 143 182 224 271 324
#     4  10  20  33  49  73 107 144 182 223 270 321
#     4  10  21  36  56  82 110 144 186 231 277 327
#     4  10  19  33  54  75  99 134 175 220 267 316
#     4  10  22  38  58  86 118 150 182 219 266 321
#     4  11  23  35  48  69  97 130 171 220 273 325
#     4  10  20  36  58  84 114 148 186 223 264 317
#     4  10  21  36  54  74  96 128 171 218 267 319
#
# _framework density 20.008748000000001
#
# number of rings (size 3 to 8) (size 9 to 14) (size 15 to 20)
#    0.000    2.000    0.000    4.125    0.000    7.250 
#    0.000    3.750    0.000    0.375    0.000    2.625 
#    0.000    0.000    0.000    0.000    0.000    0.000 
#
# Total GULP energy -793301.251961 kJ/mol
# GULP energy per Si atom -12395.332062 kJ/mol
# Density = 1.996321 g / cm^3
# Si number density = 20.008748 Si / 1000 Ang^3
#
#
#
# Elastic Constant Matrix: (Units=GPa)
#
#
# Indices 1 2 3 4 5 6 
#
# 1 77.6360 36.6037 22.6402 0.0000 0.0000 0.0000
# 2 36.6037 108.6937 36.7592 0.0000 0.0000 0.0000
# 3 22.6402 36.7592 60.3787 0.0000 0.0000 0.0000
# 4 0.0000 0.0000 0.0000 29.2339 0.0000 0.0000
# 5 0.0000 0.0000 0.0000 0.0000 28.0328 0.0000
# 6 0.0000 0.0000 0.0000 0.0000 0.0000 -15.8207
#
#
#
# Elastic Compliance Matrix: (Units=1/GPa)
#
#
# Indices 1 2 3 4 5 6 
#
# 1 0.015845 -0.004189 -0.003391 0.000000 0.000000 0.000000
# 2 -0.004189 0.012693 -0.006157 0.000000 0.000000 0.000000
# 3 -0.003391 -0.006157 0.021582 0.000000 0.000000 0.000000
# 4 0.000000 0.000000 0.000000 0.034207 0.000000 0.000000
# 5 0.000000 0.000000 0.000000 0.000000 0.035672 0.000000
# 6 0.000000 0.000000 0.000000 0.000000 0.000000 -0.063208
#
#
# Mechanical properties :
#
#
# Convention : Reuss Voigt Hill
#
# Bulk Modulus (GPa) = 44.15807 48.74607 46.45207
# Shear Modulus (GPa) = 54.45856 18.33622 36.39739
#
# Velocity S-wave (km/s) = 5.22269 3.03051 4.26969
# Velocity P-wave (km/s) = 7.64761 6.05480 6.89734
#
# Compressibility (1/GPa) = 0.02264591
#
# Stress axis : x y z
#
# Youngs Moduli (GPa) = 63.11336 78.78309 46.33485
#
# Poissons Ratio (x) = 0.33002 0.15712
# Poissons Ratio (y) = 0.26438 0.28528
# Poissons Ratio (z) = 0.21401 0.48506
#
# Static dielectric constant tensor:
#      x y z
#    x 3.630280 0.000000 0.000000 
#    y 0.000000 3.782290 0.000000 
#    z 0.000000 0.000000 3.643540 
# 
# 
# High freq. dielectric constant tensor:
#      x y z
#    x 1.764950 0.000000 0.000000 
#    y 0.000000 1.779700 0.000000 
#    z 0.000000 0.000000 1.784660 
# 
# From -- ./inp_files/5315.got.cif
#   From: 2010.03.12/outbox.cif.g09.slc.cpg/sg49_3_cif.got.tgz:5315.got - 2010.04.14 03:58:27.
