data_PCOD8203450
_publ_section_title
;
Structure prediction by ZEFSAII (Michael W. Deem and Ramdas Pophale) SiO2 
 PCOD8203450
Probable space group: P C C M
;
_chemical_formula_sum "Si O2"
_cell_formula_units_Z 64
_cell_length_a 14.314869
_cell_length_b 30.872535
_cell_length_c 8.713197
_cell_angle_alpha 90.000000
_cell_angle_beta 90.000000
_cell_angle_gamma 90.000000
_cell_volume 3850.677993
_symmetry_space_group_name_H-M "P C C M"
_symmetry_group_IT_number 49
_symmetry_cell_setting 'orthorhombic'
loop_
_space_group_symop_operation_xyz
x,y,z
-x,-y,z
x,-y,1/2-z
-x,y,1/2-z
-x,-y,-z
x,y,-z
-x,y,1/2+z
x,-y,1/2+z
loop_
_atom_site_type_symbol
_atom_site_label
_atom_site_fract_x
_atom_site_fract_y
_atom_site_fract_z
Si Si1 0.901777 0.046683 0.182224
Si Si2 0.102539 0.362942 0.679623
Si Si3 0.401850 0.845246 0.181251
Si Si4 0.898018 0.204438 0.318889
Si Si5 0.782140 0.120857 0.318381
Si Si6 0.101320 0.541258 0.822845
Si Si7 0.402580 0.254823 0.679982
Si Si8 0.782345 0.286746 0.318351
O O1 0.820828 0.079110 0.231694
O O2 0.000000 0.063580 0.250000
O O3 0.876567 0.000000 0.250000
O O4 0.909527 0.043835 0.000000
O O5 0.095656 0.352079 0.500000
O O6 0.145363 0.411269 0.707223
O O7 0.173601 0.331285 0.762576
O O8 0.000000 0.357401 0.750000
O O9 0.500000 0.860964 0.250000
O O10 0.323969 0.873629 0.265211
O O11 0.384697 0.795143 0.223812
O O12 0.399595 0.853186 0.000000
O O13 0.906687 0.205984 0.500000
O O14 0.841364 0.162403 0.264321
O O15 0.844774 0.246851 0.256486
O O16 0.000000 0.202782 0.250000
O O17 0.787130 0.113968 0.500000
O O18 0.157863 0.500000 0.750000
O O19 0.000000 0.542534 0.750000
O O20 0.091733 0.531678 0.000000
O O21 0.500000 0.271045 0.750000
O O22 0.405854 0.261954 0.500000
O O23 0.321177 0.283821 0.750940
O O24 0.776087 0.285910 0.500000
#
# Coordination Sequence:
#
# PCOD8203450 Si02
#       8
#     8   8   8   8   8   8   8   8
#     4  11  22  38  58  82 108 138 173 209 253 301
#     4  10  20  32  45  66  95 132 171 209 251 300
#     4  10  20  34  54  79 104 134 168 209 254 300
#     4  10  22  34  47  68  98 133 169 205 243 286
#     4  11  21  36  55  78 106 136 170 212 252 297
#     4   9  16  26  42  62  87 118 160 207 252 296
#     4  10  20  34  53  74  98 129 166 210 254 298
#     4  11  21  34  49  69  97 134 171 207 248 298
#
# _framework density 16.620449000000001
#
# number of rings (size 3 to 8) (size 9 to 14) (size 15 to 20)
#    0.000    1.750    1.250    4.875    0.000    6.500 
#    0.000    0.000    0.000    0.375    0.000    2.625 
#    0.000    0.500    0.000    5.250    0.000    2.875 
#
# Total GULP energy -793657.047249 kJ/mol
# GULP energy per Si atom -12400.891363 kJ/mol
# Density = 1.658262 g / cm^3
# Si number density = 16.620449 Si / 1000 Ang^3
#
#
#
# Elastic Constant Matrix: (Units=GPa)
#
#
# Indices 1 2 3 4 5 6 
#
# 1 118.5116 58.3259 43.3022 0.0000 0.0000 0.0000
# 2 58.3259 101.2424 45.4205 0.0000 0.0000 0.0000
# 3 43.3022 45.4205 93.5685 0.0000 0.0000 0.0000
# 4 0.0000 0.0000 0.0000 27.8284 0.0000 0.0000
# 5 0.0000 0.0000 0.0000 0.0000 31.1745 0.0000
# 6 0.0000 0.0000 0.0000 0.0000 0.0000 16.6966
#
#
#
# Elastic Compliance Matrix: (Units=1/GPa)
#
#
# Indices 1 2 3 4 5 6 
#
# 1 0.012361 -0.005823 -0.002894 0.000000 0.000000 0.000000
# 2 -0.005823 0.015370 -0.004766 0.000000 0.000000 0.000000
# 3 -0.002894 -0.004766 0.014340 0.000000 0.000000 0.000000
# 4 0.000000 0.000000 0.000000 0.035935 0.000000 0.000000
# 5 0.000000 0.000000 0.000000 0.000000 0.032077 0.000000
# 6 0.000000 0.000000 0.000000 0.000000 0.000000 0.059893
#
#
# Mechanical properties :
#
#
# Convention : Reuss Voigt Hill
#
# Bulk Modulus (GPa) = 66.20214 67.49108 66.84661
# Shear Modulus (GPa) = 24.75518 26.22482 25.49000
#
# Velocity S-wave (km/s) = 3.86351 3.97654 3.92044
# Velocity P-wave (km/s) = 7.73437 7.85998 7.79743
#
# Compressibility (1/GPa) = 0.01510525
#
# Stress axis : x y z
#
# Youngs Moduli (GPa) = 80.89829 65.06083 69.73339
#
# Poissons Ratio (x) = 0.37885 0.20181
# Poissons Ratio (y) = 0.47107 0.33237
# Poissons Ratio (z) = 0.23412 0.31010
#
# Static dielectric constant tensor:
#      x y z
#    x 2.858580 0.000000 0.000000 
#    y 0.000000 3.533370 0.000000 
#    z 0.000000 0.000000 3.242500 
# 
# 
# High freq. dielectric constant tensor:
#      x y z
#    x 1.619150 0.000000 0.000000 
#    y 0.000000 1.633770 0.000000 
#    z 0.000000 0.000000 1.659130 
# 
# From -- ./inp_files/3094.got.cif
#   From: 2010.03.12/outbox.cif.g09.slc.cpg/sg49_2_cif.got.tgz:3094.got - 2010.04.14 03:58:27.
