data_PCOD8203678
_publ_section_title
;
Structure prediction by ZEFSAII (Michael W. Deem and Ramdas Pophale) SiO2 
 PCOD8203678
Probable space group: P C C M
;
_chemical_formula_sum "Si O2"
_cell_formula_units_Z 48
_cell_length_a 9.114178
_cell_length_b 30.629809
_cell_length_c 8.876436
_cell_angle_alpha 90.000000
_cell_angle_beta 90.000000
_cell_angle_gamma 90.000000
_cell_volume 2477.994972
_symmetry_space_group_name_H-M "P C C M"
_symmetry_group_IT_number 49
_symmetry_cell_setting 'orthorhombic'
loop_
_space_group_symop_operation_xyz
x,y,z
-x,-y,z
x,-y,1/2-z
-x,y,1/2-z
-x,-y,-z
x,y,-z
-x,y,1/2+z
x,-y,1/2+z
loop_
_atom_site_type_symbol
_atom_site_label
_atom_site_fract_x
_atom_site_fract_y
_atom_site_fract_z
Si Si1 0.657521 0.459141 0.825920
Si Si2 0.658671 0.362415 0.175640
Si Si3 0.655307 0.796762 0.825261
Si Si4 0.842384 0.128256 0.824055
Si Si5 0.153719 0.711339 0.674430
Si Si6 0.652440 0.954830 0.676361
O O1 0.747078 0.500000 0.750000
O O2 0.500000 0.457486 0.750000
O O3 0.726614 0.411159 0.799955
O O4 0.640947 0.469783 0.000000
O O5 0.500000 0.356438 0.250000
O O6 0.775280 0.330500 0.248616
O O7 0.639814 0.351767 0.000000
O O8 0.500000 0.788814 0.750000
O O9 0.734201 0.836799 0.746313
O O10 0.745486 0.752983 0.799709
O O11 0.635013 0.808035 0.000000
O O12 0.777736 0.080461 0.791662
O O13 0.000000 0.132112 0.750000
O O14 0.857686 0.137866 0.000000
O O15 0.129712 0.700872 0.500000
O O16 0.000000 0.722253 0.750000
O O17 0.500000 0.939021 0.750000
O O18 0.625655 0.961774 0.500000
O O19 0.706109 0.000000 0.750000
#
# Coordination Sequence:
#
# PCOD8203678 Si02
#       6
#     8   8   8   8   8   8
#     4   9  16  26  44  72 105 140 178 223 273 323
#     4  10  20  34  54  81 112 146 186 230 277 330
#     4  11  24  41  63  89 116 148 187 231 279 333
#     4  11  24  40  60  87 119 155 193 235 285 339
#     4  11  24  40  59  83 112 147 185 228 279 334
#     4  10  21  37  59  86 115 151 194 239 286 336
#
# _framework density 19.370498999999999
#
# number of rings (size 3 to 8) (size 9 to 14) (size 15 to 20)
#    0.000    1.667    0.000    5.500    0.000   11.667 
#    0.000    1.667    0.000    0.500    0.000    3.500 
#    0.000    0.000    0.000    0.000    0.000    0.000 
#
# Total GULP energy -595200.032036 kJ/mol
# GULP energy per Si atom -12400.000667 kJ/mol
# Density = 1.932641 g / cm^3
# Si number density = 19.370499 Si / 1000 Ang^3
#
#
#
# Elastic Constant Matrix: (Units=GPa)
#
#
# Indices 1 2 3 4 5 6 
#
# 1 107.1013 46.2851 69.3507 0.0000 0.0000 0.0000
# 2 46.2851 112.9218 85.1554 0.0000 0.0000 0.0000
# 3 69.3507 85.1554 164.1225 0.0000 0.0000 0.0000
# 4 0.0000 0.0000 0.0000 35.2237 0.0000 0.0000
# 5 0.0000 0.0000 0.0000 0.0000 31.0811 0.0000
# 6 0.0000 0.0000 0.0000 0.0000 0.0000 -57.0678
#
#
#
# Elastic Compliance Matrix: (Units=1/GPa)
#
#
# Indices 1 2 3 4 5 6 
#
# 1 0.013114 -0.001966 -0.004522 0.000000 0.000000 0.000000
# 2 -0.001966 0.014842 -0.006870 0.000000 0.000000 0.000000
# 3 -0.004522 -0.006870 0.011568 0.000000 0.000000 0.000000
# 4 0.000000 0.000000 0.000000 0.028390 0.000000 0.000000
# 5 0.000000 0.000000 0.000000 0.000000 0.032174 0.000000
# 6 0.000000 0.000000 0.000000 0.000000 0.000000 -0.017523
#
#
# Mechanical properties :
#
#
# Convention : Reuss Voigt Hill
#
# Bulk Modulus (GPa) = 78.06552 87.30312 82.68432
# Shear Modulus (GPa) = 44.03295 14.07102 29.05199
#
# Velocity S-wave (km/s) = 4.77298 2.69813 3.87693
# Velocity P-wave (km/s) = 8.41212 7.40774 7.92586
#
# Compressibility (1/GPa) = 0.01280975
#
# Stress axis : x y z
#
# Youngs Moduli (GPa) = 76.25284 67.37443 86.44203
#
# Poissons Ratio (x) = 0.13243 0.39086
# Poissons Ratio (y) = 0.14988 0.59390
# Poissons Ratio (z) = 0.34479 0.46290
#
# Static dielectric constant tensor:
#      x y z
#    x 3.312810 0.000000 0.000000 
#    y 0.000000 4.238220 0.000000 
#    z 0.000000 0.000000 4.081010 
# 
# 
# High freq. dielectric constant tensor:
#      x y z
#    x 1.731350 0.000000 0.000000 
#    y 0.000000 1.777480 0.000000 
#    z 0.000000 0.000000 1.776480 
# 
# From -- ./inp_files/2046.got.cif
#   From: 2010.03.12/outbox.cif.g09.slc.cpg/sg49_2_cif.got.tgz:2046.got - 2010.04.14 03:58:27.
