data_PCOD8203645
_publ_section_title
;
Structure prediction by ZEFSAII (Michael W. Deem and Ramdas Pophale) SiO2 
 PCOD8203645
Probable space group: P C C M
;
_chemical_formula_sum "Si O2"
_cell_formula_units_Z 48
_cell_length_a 30.557394
_cell_length_b 9.608819
_cell_length_c 8.749941
_cell_angle_alpha 90.000000
_cell_angle_beta 90.000000
_cell_angle_gamma 90.000000
_cell_volume 2569.161772
_symmetry_space_group_name_H-M "P C C M"
_symmetry_group_IT_number 49
_symmetry_cell_setting 'orthorhombic'
loop_
_space_group_symop_operation_xyz
x,y,z
-x,-y,z
x,-y,1/2-z
-x,y,1/2-z
-x,-y,-z
x,y,-z
-x,y,1/2+z
x,-y,1/2+z
loop_
_atom_site_type_symbol
_atom_site_label
_atom_site_fract_x
_atom_site_fract_y
_atom_site_fract_z
Si Si1 0.041475 0.849530 0.676355
Si Si2 0.138512 0.847289 0.678883
Si Si3 0.455441 0.652113 0.681963
Si Si4 0.614304 0.146742 0.181127
Si Si5 0.210734 0.652333 0.819189
Si Si6 0.285805 0.144084 0.321491
O O1 0.031451 0.863854 0.500000
O O2 0.089503 0.784692 0.705569
O O3 0.000000 0.764805 0.750000
O O4 0.042688 0.000000 0.750000
O O5 0.149408 0.858498 0.500000
O O6 0.169515 0.737400 0.759516
O O7 0.144726 0.000000 0.750000
O O8 0.449546 0.500000 0.750000
O O9 0.500000 0.719523 0.750000
O O10 0.458239 0.646596 0.500000
O O11 0.413812 0.737642 0.735424
O O12 0.664499 0.178242 0.226127
O O13 0.599467 0.000000 0.250000
O O14 0.606513 0.148728 0.000000
O O15 0.211190 0.500000 0.750000
O O16 0.255034 0.730373 0.765499
O O17 0.207793 0.640724 0.000000
O O18 0.281878 0.122646 0.500000
O O19 0.269171 0.000000 0.250000
#
# Coordination Sequence:
#
# PCOD8203645 Si02
#       6
#     8   8   8   8   8   8
#     4   9  16  26  44  71 103 134 169 212 260 308
#     4  10  20  34  53  79 108 141 178 219 265 317
#     4  11  22  38  58  82 111 147 186 226 270 319
#     4  10  20  37  58  84 114 144 179 222 269 319
#     4  11  23  38  55  78 107 142 180 222 268 318
#     4   9  20  37  58  82 109 140 177 219 267 319
#
# _framework density 18.683136000000001
#
# number of rings (size 3 to 8) (size 9 to 14) (size 15 to 20)
#    0.000    2.000    0.000    5.000    0.000    6.333 
#    0.000    3.333    0.000    0.500    0.000    3.500 
#    0.000    0.000    0.000    0.000    0.000    0.000 
#
# Total GULP energy -595064.768133 kJ/mol
# GULP energy per Si atom -12397.182669 kJ/mol
# Density = 1.864061 g / cm^3
# Si number density = 18.683136 Si / 1000 Ang^3
#
#
#
# Elastic Constant Matrix: (Units=GPa)
#
#
# Indices 1 2 3 4 5 6 
#
# 1 135.5877 77.7237 65.1156 0.0000 0.0000 0.0000
# 2 77.7237 110.8495 52.8182 0.0000 0.0000 0.0000
# 3 65.1156 52.8182 119.5316 0.0000 0.0000 0.0000
# 4 0.0000 0.0000 0.0000 31.9198 0.0000 0.0000
# 5 0.0000 0.0000 0.0000 0.0000 30.2114 0.0000
# 6 0.0000 0.0000 0.0000 0.0000 0.0000 -8.7889
#
#
#
# Elastic Compliance Matrix: (Units=1/GPa)
#
#
# Indices 1 2 3 4 5 6 
#
# 1 0.013749 -0.007691 -0.004091 0.000000 0.000000 0.000000
# 2 -0.007691 0.015729 -0.002761 0.000000 0.000000 0.000000
# 3 -0.004091 -0.002761 0.011815 0.000000 0.000000 0.000000
# 4 0.000000 0.000000 0.000000 0.031329 0.000000 0.000000
# 5 0.000000 0.000000 0.000000 0.000000 0.033100 0.000000
# 6 0.000000 0.000000 0.000000 0.000000 0.000000 -0.113780
#
#
# Mechanical properties :
#
#
# Convention : Reuss Voigt Hill
#
# Bulk Modulus (GPa) = 81.92075 84.14264 83.03169
# Shear Modulus (GPa) = 199.23423 22.02255 110.62839
#
# Velocity S-wave (km/s) = 10.33780 3.43700 7.70334
# Velocity P-wave (km/s) = 13.65416 7.80289 11.12028
#
# Compressibility (1/GPa) = 0.01220692
#
# Stress axis : x y z
#
# Youngs Moduli (GPa) = 72.73403 63.57637 84.64003
#
# Poissons Ratio (x) = 0.48894 0.34630
# Poissons Ratio (y) = 0.55937 0.23367
# Poissons Ratio (z) = 0.29758 0.17552
#
# Static dielectric constant tensor:
#      x y z
#    x 4.300080 0.000000 0.000000 
#    y 0.000000 3.226240 0.000000 
#    z 0.000000 0.000000 3.594460 
# 
# 
# High freq. dielectric constant tensor:
#      x y z
#    x 1.747320 0.000000 0.000000 
#    y 0.000000 1.695540 0.000000 
#    z 0.000000 0.000000 1.742470 
# 
# From -- ./inp_files/2014.got.cif
#   From: 2010.03.12/outbox.cif.g09.slc.cpg/sg49_2_cif.got.tgz:2014.got - 2010.04.14 03:58:27.
