data_PCOD8203117
_publ_section_title
;
Structure prediction by ZEFSAII (Michael W. Deem and Ramdas Pophale) SiO2 
 PCOD8203117
Probable space group: P C C M
;
_chemical_formula_sum "Si O2"
_cell_formula_units_Z 64
_cell_length_a 10.308356
_cell_length_b 17.839221
_cell_length_c 17.494781
_cell_angle_alpha 90.000000
_cell_angle_beta 90.000000
_cell_angle_gamma 90.000000
_cell_volume 3217.168477
_symmetry_space_group_name_H-M "P C C M"
_symmetry_group_IT_number 49
_symmetry_cell_setting 'orthorhombic'
loop_
_space_group_symop_operation_xyz
x,y,z
-x,-y,z
x,-y,1/2-z
-x,y,1/2-z
-x,-y,-z
x,y,-z
-x,y,1/2+z
x,-y,1/2+z
loop_
_atom_site_type_symbol
_atom_site_label
_atom_site_fract_x
_atom_site_fract_y
_atom_site_fract_z
Si Si1 0.757386 0.926951 0.909134
Si Si2 0.992673 0.824433 0.090606
Si Si3 0.743895 0.401824 0.090080
Si Si4 0.528255 0.663765 0.090865
Si Si5 0.748796 0.904760 0.591031
Si Si6 0.777586 0.425673 0.590136
Si Si7 0.515501 0.832610 0.091186
Si Si8 0.005081 0.665462 0.840092
O O1 0.631849 0.883643 0.876898
O O2 0.885701 0.884021 0.881968
O O3 0.759692 0.011088 0.875744
O O4 0.751171 0.929688 0.000000
O O5 0.130699 0.855222 0.119511
O O6 0.959896 0.745762 0.129102
O O7 0.989045 0.813102 0.000000
O O8 0.602903 0.375971 0.119618
O O9 0.760556 0.488066 0.112328
O O10 0.849926 0.351497 0.132189
O O11 0.759328 0.388231 0.000000
O O12 0.653207 0.619343 0.122432
O O13 0.533106 0.748442 0.122467
O O14 0.531036 0.662368 0.000000
O O15 0.748023 0.908052 0.500000
O O16 0.618679 0.866421 0.622807
O O17 0.791648 0.414602 0.500000
O O18 0.908577 0.397701 0.628937
O O19 0.514763 0.832145 0.000000
O O20 0.000000 0.665515 0.750000
#
# Coordination Sequence:
#
# PCOD8203117 Si02
#       8
#     8   8   8   8   8   8   8   8
#     4   9  16  26  44  73 105 134 166 208 259 311
#     4  10  19  33  53  74  99 133 175 222 266 310
#     4  10  20  36  59  84 109 139 177 221 268 319
#     4   9  17  31  54  85 114 139 172 216 266 317
#     4   9  16  26  44  73 105 134 166 208 259 311
#     4  10  20  36  59  84 109 139 177 221 268 319
#     4   9  15  23  39  68 108 141 160 194 254 317
#     4  12  25  38  53  76 109 146 183 224 268 318
#
# _framework density 19.893270000000001
#
# number of rings (size 3 to 8) (size 9 to 14) (size 15 to 20)
#    0.000    2.250    0.000    4.125    0.000   10.500 
#    0.000    0.625    0.000    3.000    0.000    0.000 
#    0.000    4.000    0.000    0.000    0.000    0.000 
#
# Total GULP energy -793746.224803 kJ/mol
# GULP energy per Si atom -12402.284763 kJ/mol
# Density = 1.984799 g / cm^3
# Si number density = 19.893270 Si / 1000 Ang^3
#
#
#
# Elastic Constant Matrix: (Units=GPa)
#
#
# Indices 1 2 3 4 5 6 
#
# 1 111.4674 19.8251 9.5975 0.0000 0.0000 0.0000
# 2 19.8251 113.3543 17.9460 0.0000 0.0000 0.0000
# 3 9.5975 17.9460 22.5143 0.0000 0.0000 0.0000
# 4 0.0000 0.0000 0.0000 5.7110 0.0000 0.0000
# 5 0.0000 0.0000 0.0000 0.0000 -0.0861 0.0000
# 6 0.0000 0.0000 0.0000 0.0000 0.0000 45.9484
#
#
#
# Elastic Compliance Matrix: (Units=1/GPa)
#
#
# Indices 1 2 3 4 5 6 
#
# 1 0.009445 -0.001161 -0.003101 0.000000 0.000000 0.000000
# 2 -0.001161 0.010239 -0.007666 0.000000 0.000000 0.000000
# 3 -0.003101 -0.007666 0.051849 0.000000 0.000000 0.000000
# 4 0.000000 0.000000 0.000000 0.175099 0.000000 0.000000
# 5 0.000000 0.000000 0.000000 0.000000-11.614524 0.000000
# 6 0.000000 0.000000 0.000000 0.000000 0.000000 0.021764
#
#
# Mechanical properties :
#
#
# Convention : Reuss Voigt Hill
#
# Bulk Modulus (GPa) = 20.97483 38.00815 29.49149
# Shear Modulus (GPa) = -0.44223 23.64583 11.60180
#
# Velocity S-wave (km/s) = -0.47200 3.45140 2.41758
# Velocity P-wave (km/s) = 3.20461 5.91865 4.75920
#
# Compressibility (1/GPa) = 0.04767620
#
# Stress axis : x y z
#
# Youngs Moduli (GPa) = 105.87958 97.66917 19.28683
#
# Poissons Ratio (x) = 0.11339 0.05980
# Poissons Ratio (y) = 0.12292 0.14786
# Poissons Ratio (z) = 0.32831 0.74876
#
# Static dielectric constant tensor:
#      x y z
#    x 3.860910 0.000000 0.000000 
#    y 0.000000 3.853360 0.000000 
#    z 0.000000 0.000000 2.911770 
# 
# 
# High freq. dielectric constant tensor:
#      x y z
#    x 1.796030 0.000000 0.000000 
#    y 0.000000 1.796270 0.000000 
#    z 0.000000 0.000000 1.701200 
# 
# From -- ./inp_files/19988.got.cif
#   From: 2010.03.12/outbox.cif.g09.slc.cpg/sg49_10_cif.got.tgz:19988.got - 2010.04.14 03:58:27.
