data_PCOD8203041
_publ_section_title
;
Structure prediction by ZEFSAII (Michael W. Deem and Ramdas Pophale) SiO2 
 PCOD8203041
Probable space group: P C C M
;
_chemical_formula_sum "Si O2"
_cell_formula_units_Z 38
_cell_length_a 11.846490
_cell_length_b 11.820439
_cell_length_c 13.644006
_cell_angle_alpha 90.000000
_cell_angle_beta 90.000000
_cell_angle_gamma 90.000000
_cell_volume 1910.579880
_symmetry_space_group_name_H-M "P C C M"
_symmetry_group_IT_number 49
_symmetry_cell_setting 'orthorhombic'
loop_
_space_group_symop_operation_xyz
x,y,z
-x,-y,z
x,-y,1/2-z
-x,y,1/2-z
-x,-y,-z
x,y,-z
-x,y,1/2+z
x,-y,1/2+z
loop_
_atom_site_type_symbol
_atom_site_label
_atom_site_fract_x
_atom_site_fract_y
_atom_site_fract_z
Si Si1 0.811360 0.082716 0.114900
Si Si2 0.557524 0.321135 0.389078
Si Si3 0.000000 0.000000 0.750000
Si Si4 0.671799 0.500000 0.750000
Si Si5 0.395122 0.927818 0.383970
Si Si6 0.710433 0.678042 0.391196
O O1 0.924168 0.076406 0.178814
O O2 0.757775 0.202256 0.141465
O O3 0.722948 0.985186 0.146839
O O4 0.840804 0.072253 0.000000
O O5 0.600824 0.343382 0.500000
O O6 0.595058 0.423515 0.320848
O O7 0.604677 0.201945 0.346471
O O8 0.423734 0.314938 0.387044
O O9 0.751622 0.580366 0.683653
O O10 0.409540 0.925665 0.500000
O O11 0.500000 0.000000 0.339778
O O12 0.752673 0.646721 0.500000
#
# Coordination Sequence:
#
# PCOD8203041 Si02
#       6
#     8   8   2   4   8   8
#     4  10  22  41  63  88 120 156 195 249 310 359
#     4  10  19  32  53  84 124 162 194 232 285 356
#     4  12  26  40  62  92 116 152 210 254 298 358
#     4  12  23  32  50  87 130 163 202 232 279 360
#     4   9  16  33  60  88 119 153 189 237 303 367
#     4  10  20  36  56  80 120 164 194 234 292 350
#
# _framework density 19.889249
#
# number of rings (size 3 to 8) (size 9 to 14) (size 15 to 20)
#    0.000    1.895    2.105    2.842    2.947    1.684 
#    0.000    0.526    0.000    0.632    0.000    2.947 
#    0.000    0.000    0.000    0.000    0.000    0.000 
#
# Total GULP energy -471137.788481 kJ/mol
# GULP energy per Si atom -12398.362855 kJ/mol
# Density = 1.984398 g / cm^3
# Si number density = 19.889249 Si / 1000 Ang^3
#
#
#
# Elastic Constant Matrix: (Units=GPa)
#
#
# Indices 1 2 3 4 5 6 
#
# 1 41.5729 26.2053 16.5280 0.0000 0.0000 0.0000
# 2 26.2053 158.9247 65.0687 0.0000 0.0000 0.0000
# 3 16.5280 65.0687 86.7003 0.0000 0.0000 0.0000
# 4 0.0000 0.0000 0.0000 16.7785 0.0000 0.0000
# 5 0.0000 0.0000 0.0000 0.0000 16.8256 0.0000
# 6 0.0000 0.0000 0.0000 0.0000 0.0000 7.9937
#
#
#
# Elastic Compliance Matrix: (Units=1/GPa)
#
#
# Indices 1 2 3 4 5 6 
#
# 1 0.027254 -0.003417 -0.002631 0.000000 0.000000 0.000000
# 2 -0.003417 0.009512 -0.006487 0.000000 0.000000 0.000000
# 3 -0.002631 -0.006487 0.016904 0.000000 0.000000 0.000000
# 4 0.000000 0.000000 0.000000 0.059600 0.000000 0.000000
# 5 0.000000 0.000000 0.000000 0.000000 0.059433 0.000000
# 6 0.000000 0.000000 0.000000 0.000000 0.000000 0.125098
#
#
# Mechanical properties :
#
#
# Convention : Reuss Voigt Hill
#
# Bulk Modulus (GPa) = 34.96563 55.86691 45.41627
# Shear Modulus (GPa) = 15.04190 20.27929 17.66059
#
# Velocity S-wave (km/s) = 2.75304 3.19660 2.98308
# Velocity P-wave (km/s) = 5.26536 6.46330 5.89484
#
# Compressibility (1/GPa) = 0.02859951
#
# Stress axis : x y z
#
# Youngs Moduli (GPa) = 36.69204 105.13323 59.15651
#
# Poissons Ratio (x) = 0.35919 0.15566
# Poissons Ratio (y) = 0.12536 0.38376
# Poissons Ratio (z) = 0.09655 0.68203
#
# Static dielectric constant tensor:
#      x y z
#    x 3.148330 0.000000 0.000000 
#    y 0.000000 4.062720 0.000000 
#    z 0.000000 0.000000 4.192430 
# 
# 
# High freq. dielectric constant tensor:
#      x y z
#    x 1.709860 0.000000 0.000000 
#    y 0.000000 1.788010 0.000000 
#    z 0.000000 0.000000 1.803430 
# 
# From -- ./inp_files/12653.got.cif
#   From: 2010.03.12/outbox.cif.g09.slc.cpg/sg49_7_cif.got.tgz:12653.got - 2010.04.14 03:58:27.
