data_PCOD8203243
_publ_section_title
;
Structure prediction by ZEFSAII (Michael W. Deem and Ramdas Pophale) SiO2 
 PCOD8203243
Probable space group: P C C M
;
_chemical_formula_sum "Si O2"
_cell_formula_units_Z 48
_cell_length_a 9.485358
_cell_length_b 31.027506
_cell_length_c 8.560203
_cell_angle_alpha 90.000000
_cell_angle_beta 90.000000
_cell_angle_gamma 90.000000
_cell_volume 2519.327684
_symmetry_space_group_name_H-M "P C C M"
_symmetry_group_IT_number 49
_symmetry_cell_setting 'orthorhombic'
loop_
_space_group_symop_operation_xyz
x,y,z
-x,-y,z
x,-y,1/2-z
-x,y,1/2-z
-x,-y,-z
x,y,-z
-x,y,1/2+z
x,-y,1/2+z
loop_
_atom_site_type_symbol
_atom_site_label
_atom_site_fract_x
_atom_site_fract_y
_atom_site_fract_z
Si Si1 0.341969 0.694512 0.814819
Si Si2 0.649177 0.452942 0.184825
Si Si3 0.155542 0.619358 0.315792
Si Si4 0.342959 0.881039 0.184836
Si Si5 0.152637 0.044962 0.816828
Si Si6 0.652030 0.788070 0.319194
O O1 0.500000 0.690132 0.750000
O O2 0.243157 0.661686 0.725066
O O3 0.274943 0.742289 0.776108
O O4 0.342119 0.684849 0.000000
O O5 0.683125 0.500000 0.250000
O O6 0.500000 0.435473 0.250000
O O7 0.774384 0.422025 0.236639
O O8 0.639339 0.454871 0.000000
O O9 0.151021 0.612540 0.500000
O O10 0.000000 0.625009 0.250000
O O11 0.500000 0.883425 0.250000
O O12 0.254986 0.916649 0.273204
O O13 0.274100 0.833630 0.227674
O O14 0.341341 0.889845 0.000000
O O15 0.000000 0.055672 0.750000
O O16 0.212404 0.000000 0.750000
O O17 0.140702 0.040320 0.000000
O O18 0.500000 0.787097 0.250000
O O19 0.625677 0.789380 0.500000
#
# Coordination Sequence:
#
# PCOD8203243 Si02
#       6
#     8   8   8   8   8   8
#     4  10  19  35  58  85 112 146 187 229 272 323
#     4  11  22  40  64  91 118 149 187 231 275 325
#     4  12  25  41  58  82 114 151 189 232 281 332
#     4  10  19  34  55  83 113 143 178 223 272 324
#     4  11  22  38  57  78 104 140 180 223 270 325
#     4   8  16  30  52  79 110 142 178 221 270 321
#
# _framework density 19.052702
#
# number of rings (size 3 to 8) (size 9 to 14) (size 15 to 20)
#    0.000    1.667    0.000    7.000    0.000    2.000 
#    0.000    4.167    0.000    0.000    0.000    0.000 
#    0.000    0.000    0.000    0.000    0.000    0.000 
#
# Total GULP energy -594864.348516 kJ/mol
# GULP energy per Si atom -12393.007261 kJ/mol
# Density = 1.900934 g / cm^3
# Si number density = 19.052702 Si / 1000 Ang^3
#
#
#
# Elastic Constant Matrix: (Units=GPa)
#
#
# Indices 1 2 3 4 5 6 
#
# 1 82.1140 58.7021 36.0143 0.0000 0.0000 0.0000
# 2 58.7021 136.9213 52.0388 0.0000 0.0000 0.0000
# 3 36.0143 52.0388 135.3334 0.0000 0.0000 0.0000
# 4 0.0000 0.0000 0.0000 26.2957 0.0000 0.0000
# 5 0.0000 0.0000 0.0000 0.0000 31.5169 0.0000
# 6 0.0000 0.0000 0.0000 0.0000 0.0000 -19.9883
#
#
#
# Elastic Compliance Matrix: (Units=1/GPa)
#
#
# Indices 1 2 3 4 5 6 
#
# 1 0.018076 -0.006935 -0.002144 0.000000 0.000000 0.000000
# 2 -0.006935 0.011214 -0.002467 0.000000 0.000000 0.000000
# 3 -0.002144 -0.002467 0.008908 0.000000 0.000000 0.000000
# 4 0.000000 0.000000 0.000000 0.038029 0.000000 0.000000
# 5 0.000000 0.000000 0.000000 0.000000 0.031729 0.000000
# 6 0.000000 0.000000 0.000000 0.000000 0.000000 -0.050029
#
#
# Mechanical properties :
#
#
# Convention : Reuss Voigt Hill
#
# Bulk Modulus (GPa) = 66.19084 71.98655 69.08869
# Shear Modulus (GPa) = 58.10329 21.40576 39.75453
#
# Velocity S-wave (km/s) = 5.52832 3.35551 4.57284
# Velocity P-wave (km/s) = 8.69287 7.27169 8.01385
#
# Compressibility (1/GPa) = 0.01510783
#
# Stress axis : x y z
#
# Youngs Moduli (GPa) = 55.32157 89.17293 112.25759
#
# Poissons Ratio (x) = 0.61842 0.24064
# Poissons Ratio (y) = 0.38366 0.27689
# Poissons Ratio (z) = 0.11859 0.21995
#
# Static dielectric constant tensor:
#      x y z
#    x 3.243130 0.000000 0.000000 
#    y 0.000000 4.209800 0.000000 
#    z 0.000000 0.000000 3.762860 
# 
# 
# High freq. dielectric constant tensor:
#      x y z
#    x 1.709860 0.000000 0.000000 
#    y 0.000000 1.768900 0.000000 
#    z 0.000000 0.000000 1.761380 
# 
# From -- ./inp_files/2125.got.cif
#   From: 2010.03.12/outbox.cif.g09.slc.cpg/sg49_2_cif.got.tgz:2125.got - 2010.04.14 03:58:27.
