data_PCOD8203819
_publ_section_title
;
Structure prediction by ZEFSAII (Michael W. Deem and Ramdas Pophale) SiO2 
 PCOD8203819
Probable space group: P C C M
;
_chemical_formula_sum "Si O2"
_cell_formula_units_Z 32
_cell_length_a 11.657366
_cell_length_b 8.441410
_cell_length_c 16.880124
_cell_angle_alpha 90.000000
_cell_angle_beta 90.000000
_cell_angle_gamma 90.000000
_cell_volume 1661.081950
_symmetry_space_group_name_H-M "P C C M"
_symmetry_group_IT_number 49
_symmetry_cell_setting 'orthorhombic'
loop_
_space_group_symop_operation_xyz
x,y,z
-x,-y,z
x,-y,1/2-z
-x,y,1/2-z
-x,-y,-z
x,y,-z
-x,y,1/2+z
x,-y,1/2+z
loop_
_atom_site_type_symbol
_atom_site_label
_atom_site_fract_x
_atom_site_fract_y
_atom_site_fract_z
Si Si1 0.370872 0.184361 0.765121
Si Si2 0.000239 0.180857 0.591065
Si Si3 0.250891 0.317408 0.910751
Si Si4 0.813259 0.611512 0.677941
O O1 0.500000 0.241866 0.750000
O O2 0.341239 0.226393 0.855707
O O3 0.287443 0.273586 0.705361
O O4 0.356329 0.000000 0.750000
O O5 0.042113 0.193810 0.500000
O O6 0.081182 0.286026 0.646287
O O7 0.872889 0.241899 0.601936
O O8 0.000000 0.000000 0.620454
O O9 0.240479 0.503400 0.891127
O O10 0.295220 0.297175 0.000000
O O11 0.856093 0.500000 0.750000
#
# Coordination Sequence:
#
# PCOD8203819 Si02
#       4
#     8   8   8   8
#     4  10  22  41  60  80 109 146 189 234 276 324
#     4  10  20  35  56  83 115 147 182 226 274 327
#     4  10  21  37  58  84 115 147 182 226 277 332
#     4  10  21  35  55  82 112 148 185 226 276 329
#
# _framework density 19.264551999999998
#
# number of rings (size 3 to 8) (size 9 to 14) (size 15 to 20)
#    0.000    2.000    0.000    3.000    0.000   13.500 
#    0.000   13.750    0.000    0.000    0.000    0.000 
#    0.000    0.000    0.000    0.000    0.000    0.000 
#
# Total GULP energy -396890.612353 kJ/mol
# GULP energy per Si atom -12402.831636 kJ/mol
# Density = 1.922070 g / cm^3
# Si number density = 19.264552 Si / 1000 Ang^3
#
#
#
# Elastic Constant Matrix: (Units=GPa)
#
#
# Indices 1 2 3 4 5 6 
#
# 1 104.0956 52.9819 86.2603 0.0000 0.0000 0.0000
# 2 52.9819 115.2846 64.6615 0.0000 0.0000 0.0000
# 3 86.2603 64.6615 134.0688 0.0000 0.0000 0.0000
# 4 0.0000 0.0000 0.0000 27.3811 0.0000 0.0000
# 5 0.0000 0.0000 0.0000 0.0000 31.2440 0.0000
# 6 0.0000 0.0000 0.0000 0.0000 0.0000 67.3664
#
#
#
# Elastic Compliance Matrix: (Units=1/GPa)
#
#
# Indices 1 2 3 4 5 6 
#
# 1 0.021251 -0.002875 -0.012286 0.000000 0.000000 0.000000
# 2 -0.002875 0.012280 -0.004073 0.000000 0.000000 0.000000
# 3 -0.012286 -0.004073 0.017328 0.000000 0.000000 0.000000
# 4 0.000000 0.000000 0.000000 0.036521 0.000000 0.000000
# 5 0.000000 0.000000 0.000000 0.000000 0.032006 0.000000
# 6 0.000000 0.000000 0.000000 0.000000 0.000000 0.014844
#
#
# Mechanical properties :
#
#
# Convention : Reuss Voigt Hill
#
# Bulk Modulus (GPa) = 80.70543 84.58406 82.64475
# Shear Modulus (GPa) = 28.27571 35.16798 31.72184
#
# Velocity S-wave (km/s) = 3.83529 4.27725 4.06229
# Velocity P-wave (km/s) = 7.84836 8.27013 8.06201
#
# Compressibility (1/GPa) = 0.01239074
#
# Stress axis : x y z
#
# Youngs Moduli (GPa) = 47.05586 81.43405 57.70939
#
# Poissons Ratio (x) = 0.23415 0.70904
# Poissons Ratio (y) = 0.13530 0.23503
# Poissons Ratio (z) = 0.57815 0.33165
#
# Static dielectric constant tensor:
#      x y z
#    x 3.407220 0.000000 0.000000 
#    y 0.000000 3.855210 0.000000 
#    z 0.000000 0.000000 3.700520 
# 
# 
# High freq. dielectric constant tensor:
#      x y z
#    x 1.740510 0.000000 0.000000 
#    y 0.000000 1.767900 0.000000 
#    z 0.000000 0.000000 1.754960 
# 
# From -- ./inp_files/11158.got.cif
#   From: 2010.03.12/outbox.cif.g09.slc.cpg/sg49_6_cif.got.tgz:11158.got - 2010.04.14 03:58:27.
