data_PCOD8203582
_publ_section_title
;
Structure prediction by ZEFSAII (Michael W. Deem and Ramdas Pophale) SiO2 
 PCOD8203582
Probable space group: P C C M
;
_chemical_formula_sum "Si O2"
_cell_formula_units_Z 32
_cell_length_a 13.897533
_cell_length_b 13.492544
_cell_length_c 10.318110
_cell_angle_alpha 90.000000
_cell_angle_beta 90.000000
_cell_angle_gamma 90.000000
_cell_volume 1934.780539
_symmetry_space_group_name_H-M "P C C M"
_symmetry_group_IT_number 49
_symmetry_cell_setting 'orthorhombic'
loop_
_space_group_symop_operation_xyz
x,y,z
-x,-y,z
x,-y,1/2-z
-x,y,1/2-z
-x,-y,-z
x,y,-z
-x,y,1/2+z
x,-y,1/2+z
loop_
_atom_site_type_symbol
_atom_site_label
_atom_site_fract_x
_atom_site_fract_y
_atom_site_fract_z
Si Si1 0.898354 0.443619 0.362432
Si Si2 0.404593 0.115148 0.000000
Si Si3 0.619823 0.119790 0.000000
Si Si4 0.279181 0.117321 0.760372
Si Si5 0.081650 0.787295 0.652243
O O1 0.837311 0.500000 0.250000
O O2 0.843680 0.453676 0.500000
O O3 0.912771 0.329800 0.328382
O O4 0.000000 0.500000 0.371939
O O5 0.352868 0.153037 0.129436
O O6 0.511342 0.162204 0.000000
O O7 0.397521 0.997106 0.000000
O O8 0.679434 0.157405 0.875679
O O9 0.178060 0.164015 0.795968
O O10 0.266698 0.000000 0.750000
O O11 0.061811 0.814579 0.500000
O O12 0.000000 0.828678 0.750000
#
# Coordination Sequence:
#
# PCOD8203582 Si02
#       5
#     8   4   4   8   8
#     4   9  16  30  49  70  91 121 158 212 254 287
#     4   9  16  34  53  71  97 126 167 211 258 289
#     4   9  18  30  55  75  91 130 165 213 256 283
#     4  10  20  34  48  73 105 132 170 204 239 302
#     4  11  22  34  50  70 102 142 168 206 249 293
#
# _framework density 16.539344
#
# number of rings (size 3 to 8) (size 9 to 14) (size 15 to 20)
#    0.000    2.250    3.750    0.750    1.750    3.500 
#    0.000    1.250    0.000    0.000    0.000    0.000 
#    0.000    6.000    0.000    0.000    0.000    0.000 
#
# Total GULP energy -396421.892485 kJ/mol
# GULP energy per Si atom -12388.184140 kJ/mol
# Density = 1.650170 g / cm^3
# Si number density = 16.539344 Si / 1000 Ang^3
#
#
#
# Elastic Constant Matrix: (Units=GPa)
#
#
# Indices 1 2 3 4 5 6 
#
# 1 115.7158 29.4233 79.2606 0.0000 0.0000 0.0000
# 2 29.4233 33.5927 27.4360 0.0000 0.0000 0.0000
# 3 79.2606 27.4360 188.6761 0.0000 0.0000 0.0000
# 4 0.0000 0.0000 0.0000 13.5681 0.0000 0.0000
# 5 0.0000 0.0000 0.0000 0.0000 31.7656 0.0000
# 6 0.0000 0.0000 0.0000 0.0000 0.0000 -4.6821
#
#
#
# Elastic Compliance Matrix: (Units=1/GPa)
#
#
# Indices 1 2 3 4 5 6 
#
# 1 0.013967 -0.008444 -0.004639 0.000000 0.000000 0.000000
# 2 -0.008444 0.038885 -0.002107 0.000000 0.000000 0.000000
# 3 -0.004639 -0.002107 0.007555 0.000000 0.000000 0.000000
# 4 0.000000 0.000000 0.000000 0.073702 0.000000 0.000000
# 5 0.000000 0.000000 0.000000 0.000000 0.031481 0.000000
# 6 0.000000 0.000000 0.000000 0.000000 0.000000 -0.213579
#
#
# Mechanical properties :
#
#
# Convention : Reuss Voigt Hill
#
# Bulk Modulus (GPa) = 33.30418 67.80272 50.55345
# Shear Modulus (GPa) = -658.03465 21.58798 -318.22334
#
# Velocity S-wave (km/s) = -19.96807 3.61674 -13.88602
# Velocity P-wave (km/s) = 22.61530 7.65016 15.04870
#
# Compressibility (1/GPa) = 0.03002626
#
# Stress axis : x y z
#
# Youngs Moduli (GPa) = 71.59852 25.71653 132.35485
#
# Poissons Ratio (x) = 0.21715 0.61404
# Poissons Ratio (y) = 0.60459 0.27889
# Poissons Ratio (z) = 0.33217 0.05419
#
# Static dielectric constant tensor:
#      x y z
#    x 2.962590 0.000000 0.000000 
#    y 0.000000 3.028290 0.000000 
#    z 0.000000 0.000000 4.923710 
# 
# 
# High freq. dielectric constant tensor:
#      x y z
#    x 1.607670 0.000000 0.000000 
#    y 0.000000 1.596850 0.000000 
#    z 0.000000 0.000000 1.673240 
# 
# From -- ./inp_files/8553.got.cif
#   From: 2010.03.12/outbox.cif.g09.slc.cpg/sg49_5_cif.got.tgz:8553.got - 2010.04.14 03:58:27.
