data_PCOD8203382
_publ_section_title
;
Structure prediction by ZEFSAII (Michael W. Deem and Ramdas Pophale) SiO2 
 PCOD8203382
Probable space group: P C C M
;
_chemical_formula_sum "Si O2"
_cell_formula_units_Z 48
_cell_length_a 15.092793
_cell_length_b 9.220974
_cell_length_c 17.806872
_cell_angle_alpha 90.000000
_cell_angle_beta 90.000000
_cell_angle_gamma 90.000000
_cell_volume 2478.186861
_symmetry_space_group_name_H-M "P C C M"
_symmetry_group_IT_number 49
_symmetry_cell_setting 'orthorhombic'
loop_
_space_group_symop_operation_xyz
x,y,z
-x,-y,z
x,-y,1/2-z
-x,y,1/2-z
-x,-y,-z
x,y,-z
-x,y,1/2+z
x,-y,1/2+z
loop_
_atom_site_type_symbol
_atom_site_label
_atom_site_fract_x
_atom_site_fract_y
_atom_site_fract_z
Si Si1 0.166512 0.208015 0.912919
Si Si2 0.972754 0.834382 0.417322
Si Si3 0.504437 0.670792 0.084367
Si Si4 0.342292 0.303467 0.677992
Si Si5 0.815182 0.921206 0.329571
Si Si6 0.678755 0.624667 0.152636
O O1 0.223861 0.314192 0.861492
O O2 0.063852 0.247384 0.894262
O O3 0.192507 0.042832 0.893534
O O4 0.187497 0.233848 0.000000
O O5 0.939507 0.780114 0.500000
O O6 0.897861 0.816342 0.352861
O O7 0.000000 0.000000 0.425026
O O8 0.500000 0.500000 0.098469
O O9 0.435248 0.748926 0.140838
O O10 0.607259 0.708691 0.100430
O O11 0.479532 0.716846 0.000000
O O12 0.272638 0.174382 0.669166
O O13 0.355448 0.340431 0.764463
O O14 0.313003 0.452294 0.636487
O O15 0.832242 0.000000 0.250000
#
# Coordination Sequence:
#
# PCOD8203382 Si02
#       6
#     8   8   8   8   8   8
#     4  10  20  36  58  82 112 148 188 231 279 336
#     4   8  17  33  53  78 107 143 186 226 269 328
#     4   9  18  33  56  82 107 143 187 225 270 333
#     4  10  21  35  56  83 113 142 186 233 281 323
#     4  11  20  35  55  84 110 147 186 234 279 334
#     4  10  19  37  57  81 111 148 184 228 278 338
#
# _framework density 19.368998999999999
#
# number of rings (size 3 to 8) (size 9 to 14) (size 15 to 20)
#    0.000    2.333    1.667    2.500    0.000    7.000 
#    0.000    1.667    0.000    6.000    0.000    0.000 
#    0.000    0.000    0.000    0.000    0.000    0.000 
#
# Total GULP energy -594862.773850 kJ/mol
# GULP energy per Si atom -12392.974455 kJ/mol
# Density = 1.932491 g / cm^3
# Si number density = 19.368999 Si / 1000 Ang^3
#
#
#
# Elastic Constant Matrix: (Units=GPa)
#
#
# Indices 1 2 3 4 5 6 
#
# 1 130.6390 32.2227 55.4457 0.0000 0.0000 0.0000
# 2 32.2227 38.0056 15.3676 0.0000 0.0000 0.0000
# 3 55.4457 15.3676 98.1740 0.0000 0.0000 0.0000
# 4 0.0000 0.0000 0.0000 18.0486 0.0000 0.0000
# 5 0.0000 0.0000 0.0000 0.0000 37.7028 0.0000
# 6 0.0000 0.0000 0.0000 0.0000 0.0000 26.5255
#
#
#
# Elastic Compliance Matrix: (Units=1/GPa)
#
#
# Indices 1 2 3 4 5 6 
#
# 1 0.011940 -0.007896 -0.005507 0.000000 0.000000 0.000000
# 2 -0.007896 0.033312 -0.000755 0.000000 0.000000 0.000000
# 3 -0.005507 -0.000755 0.013414 0.000000 0.000000 0.000000
# 4 0.000000 0.000000 0.000000 0.055406 0.000000 0.000000
# 5 0.000000 0.000000 0.000000 0.000000 0.026523 0.000000
# 6 0.000000 0.000000 0.000000 0.000000 0.000000 0.037700
#
#
# Mechanical properties :
#
#
# Convention : Reuss Voigt Hill
#
# Bulk Modulus (GPa) = 32.94947 52.54340 42.74644
# Shear Modulus (GPa) = 23.07046 27.37423 25.22235
#
# Velocity S-wave (km/s) = 3.45498 3.76347 3.61252
# Velocity P-wave (km/s) = 5.74145 6.78759 6.28632
#
# Compressibility (1/GPa) = 0.03034950
#
# Stress axis : x y z
#
# Youngs Moduli (GPa) = 83.75476 30.01940 74.54656
#
# Poissons Ratio (x) = 0.23704 0.41054
# Poissons Ratio (y) = 0.66133 0.05628
# Poissons Ratio (z) = 0.46125 0.02266
#
# Static dielectric constant tensor:
#      x y z
#    x 3.913330 0.000000 0.000000 
#    y 0.000000 3.166720 0.000000 
#    z 0.000000 0.000000 3.589370 
# 
# 
# High freq. dielectric constant tensor:
#      x y z
#    x 1.762790 0.000000 0.000000 
#    y 0.000000 1.704390 0.000000 
#    z 0.000000 0.000000 1.760300 
# 
# From -- ./inp_files/17694.got.cif
#   From: 2010.03.12/outbox.cif.g09.slc.cpg/sg49_9_cif.got.tgz:17694.got - 2010.04.14 03:58:27.
