data_PCOD8203507
_publ_section_title
;
Structure prediction by ZEFSAII (Michael W. Deem and Ramdas Pophale) SiO2 
 PCOD8203507
Probable space group: P C C M
;
_chemical_formula_sum "Si O2"
_cell_formula_units_Z 56
_cell_length_a 14.786620
_cell_length_b 11.801078
_cell_length_c 17.709101
_cell_angle_alpha 90.000000
_cell_angle_beta 90.000000
_cell_angle_gamma 90.000000
_cell_volume 3090.203698
_symmetry_space_group_name_H-M "P C C M"
_symmetry_group_IT_number 49
_symmetry_cell_setting 'orthorhombic'
loop_
_space_group_symop_operation_xyz
x,y,z
-x,-y,z
x,-y,1/2-z
-x,y,1/2-z
-x,-y,-z
x,y,-z
-x,y,1/2+z
x,-y,1/2+z
loop_
_atom_site_type_symbol
_atom_site_label
_atom_site_fract_x
_atom_site_fract_y
_atom_site_fract_z
Si Si1 0.312967 0.406903 0.588916
Si Si2 0.101554 0.979767 0.162058
Si Si3 0.260249 0.886828 0.410494
Si Si4 0.342798 0.659353 0.588421
Si Si5 0.378811 0.085951 0.583704
Si Si6 0.808339 0.784016 0.417090
Si Si7 0.474294 0.724084 0.837137
O O1 0.340216 0.392477 0.500000
O O2 0.300333 0.538505 0.610605
O O3 0.215157 0.346539 0.604986
O O4 0.389160 0.355625 0.643888
O O5 0.165753 0.069898 0.121772
O O6 0.110781 0.000000 0.250000
O O7 0.128807 0.849650 0.142656
O O8 0.000000 0.000000 0.133488
O O9 0.251866 0.895936 0.500000
O O10 0.278316 0.759879 0.379985
O O11 0.345955 0.964107 0.383753
O O12 0.349387 0.674858 0.500000
O O13 0.443259 0.669948 0.618550
O O14 0.421735 0.073506 0.500000
O O15 0.290255 0.161943 0.578845
O O16 0.452996 0.146125 0.637143
O O17 0.854707 0.791132 0.500000
O O18 0.500000 0.723801 0.750000
#
# Coordination Sequence:
#
# PCOD8203507 Si02
#       7
#     8   8   8   8   8   8   8
#     4   9  18  34  53  70  94 130 169 206 245 287
#     4  10  20  33  52  78 104 126 150 188 241 299
#     4   9  19  34  52  74  97 125 162 201 244 292
#     4  10  20  33  49  70  98 131 166 207 249 283
#     4   8  15  31  50  66  91 126 162 200 243 287
#     4   8  15  30  53  75  92 121 163 198 232 281
#     4  11  21  30  44  69  98 129 171 213 243 280
#
# _framework density 18.121783000000001
#
# number of rings (size 3 to 8) (size 9 to 14) (size 15 to 20)
#    0.000    2.714    0.000    3.857    0.000    7.429 
#    0.000    2.857    0.000    0.857    0.000    6.000 
#    0.000    0.000    0.000    0.000    0.000    0.000 
#
# Total GULP energy -693957.305243 kJ/mol
# GULP energy per Si atom -12392.094736 kJ/mol
# Density = 1.808054 g / cm^3
# Si number density = 18.121783 Si / 1000 Ang^3
#
#
#
# Elastic Constant Matrix: (Units=GPa)
#
#
# Indices 1 2 3 4 5 6 
#
# 1 61.4797 71.3669 26.2752 0.0000 0.0000 0.0000
# 2 71.3669 158.8907 56.3126 0.0000 0.0000 0.0000
# 3 26.2752 56.3126 48.1711 0.0000 0.0000 0.0000
# 4 0.0000 0.0000 0.0000-2355.7513 0.0000 0.0000
# 5 0.0000 0.0000 0.0000 0.0000 19.6190 0.0000
# 6 0.0000 0.0000 0.0000 0.0000 0.0000 20.2228
#
#
#
# Elastic Compliance Matrix: (Units=1/GPa)
#
#
# Indices 1 2 3 4 5 6 
#
# 1 0.034025 -0.014863 -0.001184 0.000000 0.000000 0.000000
# 2 -0.014863 0.017238 -0.012045 0.000000 0.000000 0.000000
# 3 -0.001184 -0.012045 0.035486 0.000000 0.000000 0.000000
# 4 0.000000 0.000000 0.000000 -0.000424 0.000000 0.000000
# 5 0.000000 0.000000 0.000000 0.000000 0.050971 0.000000
# 6 0.000000 0.000000 0.000000 0.000000 0.000000 0.049449
#
#
# Mechanical properties :
#
#
# Convention : Reuss Voigt Hill
#
# Bulk Modulus (GPa) = 32.71697 64.05008 48.38352
# Shear Modulus (GPa) = 19.75388 -455.54277 -217.89445
#
# Velocity S-wave (km/s) = 3.30519 -15.87212 -10.97725
# Velocity P-wave (km/s) = 5.71479 17.33430 11.57193
#
# Compressibility (1/GPa) = 0.03056518
#
# Stress axis : x y z
#
# Youngs Moduli (GPa) = 29.39055 58.01137 28.18052
#
# Poissons Ratio (x) = 0.86220 0.03337
# Poissons Ratio (y) = 0.43682 0.33942
# Poissons Ratio (z) = 0.03481 0.69872
#
# Static dielectric constant tensor:
#      x y z
#    x 3.150780 0.000000 0.000000 
#    y 0.000000 3.995980 0.000000 
#    z 0.000000 0.000000 3.253850 
# 
# 
# High freq. dielectric constant tensor:
#      x y z
#    x 1.667500 0.000000 0.000000 
#    y 0.000000 1.710880 0.000000 
#    z 0.000000 0.000000 1.687310 
# 
# From -- ./inp_files/13580.got.cif
#   From: 2010.03.12/outbox.cif.g09.slc.cpg/sg49_7_cif.got.tgz:13580.got - 2010.04.14 03:58:27.
