data_PCOD8203375
_publ_section_title
;
Structure prediction by ZEFSAII (Michael W. Deem and Ramdas Pophale) SiO2 
 PCOD8203375
Probable space group: P C C M
;
_chemical_formula_sum "Si O2"
_cell_formula_units_Z 64
_cell_length_a 14.392694
_cell_length_b 25.269592
_cell_length_c 8.686666
_cell_angle_alpha 90.000000
_cell_angle_beta 90.000000
_cell_angle_gamma 90.000000
_cell_volume 3159.318752
_symmetry_space_group_name_H-M "P C C M"
_symmetry_group_IT_number 49
_symmetry_cell_setting 'orthorhombic'
loop_
_space_group_symop_operation_xyz
x,y,z
-x,-y,z
x,-y,1/2-z
-x,y,1/2-z
-x,-y,-z
x,y,-z
-x,y,1/2+z
x,-y,1/2+z
loop_
_atom_site_type_symbol
_atom_site_label
_atom_site_fract_x
_atom_site_fract_y
_atom_site_fract_z
Si Si1 0.910838 0.057625 0.178139
Si Si2 0.283714 0.753041 0.182367
Si Si3 0.399656 0.847238 0.682614
Si Si4 0.905083 0.600181 0.180632
Si Si5 0.398709 0.342827 0.182441
Si Si6 0.705525 0.058255 0.818932
Si Si7 0.712821 0.444732 0.682104
Si Si8 0.096335 0.722394 0.317811
O O1 0.809223 0.082904 0.210073
O O2 0.000000 0.089404 0.250000
O O3 0.908418 0.000000 0.250000
O O4 0.930012 0.052495 0.000000
O O5 0.328689 0.806182 0.244616
O O6 0.331668 0.702140 0.255515
O O7 0.176940 0.754946 0.234284
O O8 0.292445 0.750725 0.000000
O O9 0.500000 0.834232 0.750000
O O10 0.401671 0.841661 0.500000
O O11 0.369003 0.905867 0.731640
O O12 0.816238 0.568297 0.245550
O O13 0.892404 0.661047 0.228609
O O14 0.000000 0.576300 0.250000
O O15 0.911685 0.594320 0.000000
O O16 0.500000 0.334560 0.250000
O O17 0.358742 0.399493 0.235977
O O18 0.402233 0.338092 0.000000
O O19 0.696613 0.000000 0.750000
O O20 0.683022 0.056543 0.000000
O O21 0.677397 0.500000 0.750000
O O22 0.714672 0.448134 0.500000
O O23 0.100912 0.730987 0.500000
O O24 0.000000 0.744485 0.250000
#
# Coordination Sequence:
#
# PCOD8203375 Si02
#       8
#     8   8   8   8   8   8   8   8
#     4   9  16  27  49  80 117 156 198 244 289 341
#     4  12  24  41  66  95 124 159 201 248 304 365
#     4  12  26  45  67  92 123 160 202 256 313 366
#     4   9  18  34  55  82 116 155 195 241 293 352
#     4  11  23  42  63  87 117 152 199 253 308 369
#     4  10  21  39  62  92 127 166 210 255 304 364
#     4  10  22  39  57  81 118 157 198 250 303 360
#     4  10  19  36  61  92 127 162 202 246 299 360
#
# _framework density 20.257532000000001
#
# number of rings (size 3 to 8) (size 9 to 14) (size 15 to 20)
#    0.000    1.625    1.250    4.500    0.000    4.250 
#    0.000    4.375    0.000    1.500    0.000    0.000 
#    0.000    0.000    0.000    0.000    0.000    0.000 
#
# Total GULP energy -793626.839788 kJ/mol
# GULP energy per Si atom -12400.419372 kJ/mol
# Density = 2.021143 g / cm^3
# Si number density = 20.257532 Si / 1000 Ang^3
#
#
#
# Elastic Constant Matrix: (Units=GPa)
#
#
# Indices 1 2 3 4 5 6 
#
# 1 124.9606 41.3114 37.1598 0.0000 0.0000 0.0000
# 2 41.3114 84.7658 25.7010 0.0000 0.0000 0.0000
# 3 37.1598 25.7010 82.0184 0.0000 0.0000 0.0000
# 4 0.0000 0.0000 0.0000 30.0315 0.0000 0.0000
# 5 0.0000 0.0000 0.0000 0.0000 37.3789 0.0000
# 6 0.0000 0.0000 0.0000 0.0000 0.0000 12.6205
#
#
#
# Elastic Compliance Matrix: (Units=1/GPa)
#
#
# Indices 1 2 3 4 5 6 
#
# 1 0.010346 -0.004001 -0.003434 0.000000 0.000000 0.000000
# 2 -0.004001 0.014583 -0.002757 0.000000 0.000000 0.000000
# 3 -0.003434 -0.002757 0.014612 0.000000 0.000000 0.000000
# 4 0.000000 0.000000 0.000000 0.033298 0.000000 0.000000
# 5 0.000000 0.000000 0.000000 0.000000 0.026753 0.000000
# 6 0.000000 0.000000 0.000000 0.000000 0.000000 0.079236
#
#
# Mechanical properties :
#
#
# Convention : Reuss Voigt Hill
#
# Bulk Modulus (GPa) = 52.19840 55.56547 53.88193
# Shear Modulus (GPa) = 24.31921 28.51102 26.41511
#
# Velocity S-wave (km/s) = 3.46858 3.75564 3.61496
# Velocity P-wave (km/s) = 6.47030 6.80408 6.63929
#
# Compressibility (1/GPa) = 0.01915768
#
# Stress axis : x y z
#
# Youngs Moduli (GPa) = 96.65150 68.57221 68.43686
#
# Poissons Ratio (x) = 0.27438 0.23500
# Poissons Ratio (y) = 0.38673 0.18867
# Poissons Ratio (z) = 0.33188 0.18904
#
# Static dielectric constant tensor:
#      x y z
#    x 4.239640 0.000000 0.000000 
#    y 0.000000 3.540300 0.000000 
#    z 0.000000 0.000000 3.738660 
# 
# 
# High freq. dielectric constant tensor:
#      x y z
#    x 1.809790 0.000000 0.000000 
#    y 0.000000 1.770840 0.000000 
#    z 0.000000 0.000000 1.799100 
# 
# From -- ./inp_files/4338.got.cif
#   From: 2010.03.12/outbox.cif.g09.slc.cpg/sg49_3_cif.got.tgz:4338.got - 2010.04.14 03:58:27.
