data_PCOD8203265
_publ_section_title
;
Structure prediction by ZEFSAII (Michael W. Deem and Ramdas Pophale) SiO2 
 PCOD8203265
Probable space group: P C C M
;
_chemical_formula_sum "Si O2"
_cell_formula_units_Z 40
_cell_length_a 15.549188
_cell_length_b 14.377645
_cell_length_c 8.800591
_cell_angle_alpha 90.000000
_cell_angle_beta 90.000000
_cell_angle_gamma 90.000000
_cell_volume 1967.466329
_symmetry_space_group_name_H-M "P C C M"
_symmetry_group_IT_number 49
_symmetry_cell_setting 'orthorhombic'
loop_
_space_group_symop_operation_xyz
x,y,z
-x,-y,z
x,-y,1/2-z
-x,y,1/2-z
-x,-y,-z
x,y,-z
-x,y,1/2+z
x,-y,1/2+z
loop_
_atom_site_type_symbol
_atom_site_label
_atom_site_fract_x
_atom_site_fract_y
_atom_site_fract_z
Si Si1 0.411819 0.711203 0.821104
Si Si2 0.155835 0.908748 0.675473
Si Si3 0.088403 0.709830 0.675915
Si Si4 0.755172 0.398910 0.819624
Si Si5 0.659646 0.094256 0.820334
O O1 0.500000 0.673296 0.750000
O O2 0.333397 0.647711 0.762264
O O3 0.397362 0.817872 0.769197
O O4 0.419013 0.703639 0.000000
O O5 0.176060 0.928701 0.500000
O O6 0.093576 0.821075 0.695886
O O7 0.244750 0.888685 0.760347
O O8 0.111357 0.000000 0.750000
O O9 0.090928 0.680482 0.500000
O O10 0.166454 0.662878 0.762823
O O11 0.000000 0.674519 0.750000
O O12 0.762712 0.500000 0.750000
O O13 0.758961 0.404480 0.000000
O O14 0.619322 0.000000 0.750000
O O15 0.662980 0.084970 0.000000
#
# Coordination Sequence:
#
# PCOD8203265 Si02
#       5
#     8   8   8   8   8
#     4  10  23  40  62  90 124 162 202 250 303 360
#     4  10  20  34  57  88 122 163 206 247 297 354
#     4  11  24  41  64  94 125 163 205 251 304 362
#     4  11  24  45  68  92 122 157 200 254 311 368
#     4  10  19  34  56  86 121 162 205 247 298 353
#
# _framework density 20.330717
#
# number of rings (size 3 to 8) (size 9 to 14) (size 15 to 20)
#    0.000    1.600    2.000    3.600    0.000    7.200 
#    0.000    8.000    0.000    0.000    0.000    0.000 
#    0.000    0.000    0.000    0.000    0.000    0.000 
#
# Total GULP energy -496090.086101 kJ/mol
# GULP energy per Si atom -12402.252153 kJ/mol
# Density = 2.028444 g / cm^3
# Si number density = 20.330717 Si / 1000 Ang^3
#
#
#
# Elastic Constant Matrix: (Units=GPa)
#
#
# Indices 1 2 3 4 5 6 
#
# 1 117.2550 35.2652 36.0686 0.0000 0.0000 0.0000
# 2 35.2652 94.3380 40.9223 0.0000 0.0000 0.0000
# 3 36.0686 40.9223 93.7558 0.0000 0.0000 0.0000
# 4 0.0000 0.0000 0.0000 31.4452 0.0000 0.0000
# 5 0.0000 0.0000 0.0000 0.0000 27.2251 0.0000
# 6 0.0000 0.0000 0.0000 0.0000 0.0000 7.7988
#
#
#
# Elastic Compliance Matrix: (Units=1/GPa)
#
#
# Indices 1 2 3 4 5 6 
#
# 1 0.010163 -0.002594 -0.002777 0.000000 0.000000 0.000000
# 2 -0.002594 0.013738 -0.004998 0.000000 0.000000 0.000000
# 3 -0.002777 -0.004998 0.013916 0.000000 0.000000 0.000000
# 4 0.000000 0.000000 0.000000 0.031801 0.000000 0.000000
# 5 0.000000 0.000000 0.000000 0.000000 0.036731 0.000000
# 6 0.000000 0.000000 0.000000 0.000000 0.000000 0.128225
#
#
# Mechanical properties :
#
#
# Convention : Reuss Voigt Hill
#
# Bulk Modulus (GPa) = 58.55767 58.87345 58.71556
# Shear Modulus (GPa) = 19.15653 26.16666 22.66159
#
# Velocity S-wave (km/s) = 3.07293 3.59144 3.34226
# Velocity P-wave (km/s) = 6.43861 6.79843 6.62096
#
# Compressibility (1/GPa) = 0.01707718
#
# Stress axis : x y z
#
# Youngs Moduli (GPa) = 98.39581 72.78977 71.85883
#
# Poissons Ratio (x) = 0.18884 0.19958
# Poissons Ratio (y) = 0.25527 0.35918
# Poissons Ratio (z) = 0.27329 0.36383
#
# Static dielectric constant tensor:
#      x y z
#    x 3.623670 0.000000 0.000000 
#    y 0.000000 3.823280 0.000000 
#    z 0.000000 0.000000 3.732540 
# 
# 
# High freq. dielectric constant tensor:
#      x y z
#    x 1.788630 0.000000 0.000000 
#    y 0.000000 1.799240 0.000000 
#    z 0.000000 0.000000 1.803060 
# 
# From -- ./inp_files/3432.got.cif
#   From: 2010.03.12/outbox.cif.g09.slc.cpg/sg49_2_cif.got.tgz:3432.got - 2010.04.14 03:58:27.
