data_PCOD8203076
_publ_section_title
;
Structure prediction by ZEFSAII (Michael W. Deem and Ramdas Pophale) SiO2 
 PCOD8203076
Probable space group: P C C M
;
_chemical_formula_sum "Si O2"
_cell_formula_units_Z 64
_cell_length_a 23.650028
_cell_length_b 18.871225
_cell_length_c 8.673766
_cell_angle_alpha 90.000000
_cell_angle_beta 90.000000
_cell_angle_gamma 90.000000
_cell_volume 3871.145132
_symmetry_space_group_name_H-M "P C C M"
_symmetry_group_IT_number 49
_symmetry_cell_setting 'orthorhombic'
loop_
_space_group_symop_operation_xyz
x,y,z
-x,-y,z
x,-y,1/2-z
-x,y,1/2-z
-x,-y,-z
x,y,-z
-x,y,1/2+z
x,-y,1/2+z
loop_
_atom_site_type_symbol
_atom_site_label
_atom_site_fract_x
_atom_site_fract_y
_atom_site_fract_z
Si Si1 0.165912 0.302989 0.321378
Si Si2 0.560304 0.424486 0.317611
Si Si3 0.242102 0.928131 0.680700
Si Si4 0.940116 0.214240 0.818308
Si Si5 0.336963 0.651337 0.818289
Si Si6 0.769095 0.574642 0.818870
Si Si7 0.881590 0.927109 0.316844
Si Si8 0.273373 0.790495 0.176503
O O1 0.166728 0.326388 0.500000
O O2 0.105221 0.273601 0.268010
O O3 0.180547 0.370446 0.216804
O O4 0.211205 0.240955 0.294517
O O5 0.579830 0.500000 0.250000
O O6 0.500000 0.401625 0.250000
O O7 0.555983 0.430556 0.500000
O O8 0.605025 0.364868 0.269305
O O9 0.235281 0.937108 0.500000
O O10 0.181357 0.915001 0.756252
O O11 0.281660 0.860697 0.720102
O O12 0.269415 0.000000 0.750000
O O13 0.920913 0.137018 0.757404
O O14 0.000000 0.236335 0.750000
O O15 0.944566 0.211861 0.000000
O O16 0.288683 0.597871 0.762873
O O17 0.319993 0.731963 0.776610
O O18 0.344731 0.641125 0.000000
O O19 0.788353 0.500000 0.750000
O O20 0.758668 0.569361 0.000000
O O21 0.879203 0.930468 0.500000
O O22 0.907400 0.000000 0.250000
O O23 0.280942 0.813027 0.000000
#
# Coordination Sequence:
#
# PCOD8203076 Si02
#       8
#     8   8   8   8   8   8   8   8
#     4   9  18  35  52  68  94 124 151 190 240 290
#     4  11  21  34  51  72 102 140 181 216 247 287
#     4  11  20  29  46  69  95 126 161 197 237 289
#     4  10  21  35  51  68  92 121 154 193 237 286
#     4  10  20  34  51  73 103 136 167 205 247 286
#     4  11  21  33  51  76 100 125 157 195 239 289
#     4  10  19  33  48  66  91 122 156 193 235 280
#     4   9  17  32  51  69  96 127 159 197 245 291
#
# _framework density 16.532575999999999
#
# number of rings (size 3 to 8) (size 9 to 14) (size 15 to 20)
#    0.000    1.875    1.250    6.375    0.000    4.250 
#    0.000    1.250    0.000    0.375    0.000    2.625 
#    0.000    0.500    0.000    5.250    0.000    2.250 
#
# Total GULP energy -793701.536151 kJ/mol
# GULP energy per Si atom -12401.586502 kJ/mol
# Density = 1.649495 g / cm^3
# Si number density = 16.532576 Si / 1000 Ang^3
#
#
#
# Elastic Constant Matrix: (Units=GPa)
#
#
# Indices 1 2 3 4 5 6 
#
# 1 90.2994 51.0412 31.5284 0.0000 0.0000 0.0000
# 2 51.0412 104.8163 40.6508 0.0000 0.0000 0.0000
# 3 31.5284 40.6508 91.3416 0.0000 0.0000 0.0000
# 4 0.0000 0.0000 0.0000 29.1852 0.0000 0.0000
# 5 0.0000 0.0000 0.0000 0.0000 25.4656 0.0000
# 6 0.0000 0.0000 0.0000 0.0000 0.0000 23.4775
#
#
#
# Elastic Compliance Matrix: (Units=1/GPa)
#
#
# Indices 1 2 3 4 5 6 
#
# 1 0.015718 -0.006707 -0.002440 0.000000 0.000000 0.000000
# 2 -0.006707 0.014393 -0.004090 0.000000 0.000000 0.000000
# 3 -0.002440 -0.004090 0.013611 0.000000 0.000000 0.000000
# 4 0.000000 0.000000 0.000000 0.034264 0.000000 0.000000
# 5 0.000000 0.000000 0.000000 0.000000 0.039269 0.000000
# 6 0.000000 0.000000 0.000000 0.000000 0.000000 0.042594
#
#
# Mechanical properties :
#
#
# Convention : Reuss Voigt Hill
#
# Bulk Modulus (GPa) = 57.98647 59.21089 58.59868
# Shear Modulus (GPa) = 26.03191 26.50814 26.27002
#
# Velocity S-wave (km/s) = 3.97241 4.00858 3.99053
# Velocity P-wave (km/s) = 7.49601 7.57082 7.53351
#
# Compressibility (1/GPa) = 0.01724540
#
# Stress axis : x y z
#
# Youngs Moduli (GPa) = 63.62286 69.47773 73.47251
#
# Poissons Ratio (x) = 0.46602 0.17928
# Poissons Ratio (y) = 0.42675 0.30052
# Poissons Ratio (z) = 0.15525 0.28419
#
# Static dielectric constant tensor:
#      x y z
#    x 3.080030 0.000000 0.000000 
#    y 0.000000 3.339090 0.000000 
#    z 0.000000 0.000000 3.132750 
# 
# 
# High freq. dielectric constant tensor:
#      x y z
#    x 1.602190 0.000000 0.000000 
#    y 0.000000 1.636360 0.000000 
#    z 0.000000 0.000000 1.647130 
# 
# From -- ./inp_files/6626.got.cif
#   From: 2010.03.12/outbox.cif.g09.slc.cpg/sg49_4_cif.got.tgz:6626.got - 2010.04.14 03:58:27.
