data_PCOD8203175
_publ_section_title
;
Structure prediction by ZEFSAII (Michael W. Deem and Ramdas Pophale) SiO2 
 PCOD8203175
Probable space group: P C C M
;
_chemical_formula_sum "Si O2"
_cell_formula_units_Z 48
_cell_length_a 14.393789
_cell_length_b 20.493006
_cell_length_c 8.816094
_cell_angle_alpha 90.000000
_cell_angle_beta 90.000000
_cell_angle_gamma 90.000000
_cell_volume 2600.500918
_symmetry_space_group_name_H-M "P C C M"
_symmetry_group_IT_number 49
_symmetry_cell_setting 'orthorhombic'
loop_
_space_group_symop_operation_xyz
x,y,z
-x,-y,z
x,-y,1/2-z
-x,y,1/2-z
-x,-y,-z
x,y,-z
-x,y,1/2+z
x,-y,1/2+z
loop_
_atom_site_type_symbol
_atom_site_label
_atom_site_fract_x
_atom_site_fract_y
_atom_site_fract_z
Si Si1 0.710582 0.931379 0.180555
Si Si2 0.906194 0.271693 0.678394
Si Si3 0.722593 0.689577 0.677095
Si Si4 0.906442 0.877078 0.178152
Si Si5 0.600041 0.813189 0.319961
Si Si6 0.599018 0.432978 0.179193
O O1 0.816474 0.917144 0.232307
O O2 0.641676 0.878245 0.248284
O O3 0.679675 0.000000 0.250000
O O4 0.700871 0.931713 0.000000
O O5 0.913841 0.276533 0.500000
O O6 0.819305 0.313493 0.734438
O O7 0.893123 0.197154 0.734394
O O8 0.000000 0.301193 0.750000
O O9 0.743900 0.692335 0.500000
O O10 0.663938 0.752449 0.728091
O O11 0.668519 0.624526 0.723476
O O12 0.000000 0.907702 0.250000
O O13 0.918175 0.880256 0.000000
O O14 0.500000 0.799654 0.250000
O O15 0.592405 0.820755 0.500000
O O16 0.638237 0.500000 0.250000
O O17 0.500000 0.415364 0.250000
O O18 0.587704 0.440767 0.000000
#
# Coordination Sequence:
#
# PCOD8203175 Si02
#       6
#     8   8   8   8   8   8
#     4  11  23  40  57  79 108 142 184 227 277 332
#     4  10  19  33  55  83 113 146 182 225 275 327
#     4  10  21  36  57  85 115 147 185 227 274 325
#     4   9  19  34  54  79 108 140 176 221 271 326
#     4  11  23  39  59  82 108 141 180 229 278 326
#     4  10  20  35  55  83 118 154 190 228 272 325
#
# _framework density 18.457982000000001
#
# number of rings (size 3 to 8) (size 9 to 14) (size 15 to 20)
#    0.000    1.833    1.667    3.000    0.000    4.667 
#    0.000    3.333    0.000    0.500    0.000    3.500 
#    0.000    0.000    0.000    0.000    0.000    0.000 
#
# Total GULP energy -595387.746022 kJ/mol
# GULP energy per Si atom -12403.911375 kJ/mol
# Density = 1.841597 g / cm^3
# Si number density = 18.457982 Si / 1000 Ang^3
#
#
#
# Elastic Constant Matrix: (Units=GPa)
#
#
# Indices 1 2 3 4 5 6 
#
# 1 134.5844 65.6575 53.9562 0.0000 0.0000 0.0000
# 2 65.6575 117.6912 47.1202 0.0000 0.0000 0.0000
# 3 53.9562 47.1202 74.5835 0.0000 0.0000 0.0000
# 4 0.0000 0.0000 0.0000 22.1826 0.0000 0.0000
# 5 0.0000 0.0000 0.0000 0.0000 38.0799 0.0000
# 6 0.0000 0.0000 0.0000 0.0000 0.0000 24.8411
#
#
#
# Elastic Compliance Matrix: (Units=1/GPa)
#
#
# Indices 1 2 3 4 5 6 
#
# 1 0.011874 -0.004264 -0.005897 0.000000 0.000000 0.000000
# 2 -0.004264 0.012905 -0.005068 0.000000 0.000000 0.000000
# 3 -0.005897 -0.005068 0.020876 0.000000 0.000000 0.000000
# 4 0.000000 0.000000 0.000000 0.045080 0.000000 0.000000
# 5 0.000000 0.000000 0.000000 0.000000 0.026261 0.000000
# 6 0.000000 0.000000 0.000000 0.000000 0.000000 0.040256
#
#
# Mechanical properties :
#
#
# Convention : Reuss Voigt Hill
#
# Bulk Modulus (GPa) = 65.80088 73.36966 69.58527
# Shear Modulus (GPa) = 25.93700 27.69571 26.81635
#
# Velocity S-wave (km/s) = 3.75266 3.87780 3.81574
# Velocity P-wave (km/s) = 7.38261 7.73858 7.56269
#
# Compressibility (1/GPa) = 0.01519737
#
# Stress axis : x y z
#
# Youngs Moduli (GPa) = 84.21545 77.49139 47.90246
#
# Poissons Ratio (x) = 0.33039 0.28246
# Poissons Ratio (y) = 0.35906 0.24279
# Poissons Ratio (z) = 0.49659 0.39276
#
# Static dielectric constant tensor:
#      x y z
#    x 3.491840 0.000000 0.000000 
#    y 0.000000 3.351360 0.000000 
#    z 0.000000 0.000000 3.391620 
# 
# 
# High freq. dielectric constant tensor:
#      x y z
#    x 1.722320 0.000000 0.000000 
#    y 0.000000 1.701380 0.000000 
#    z 0.000000 0.000000 1.724600 
# 
# From -- ./inp_files/2894.got.cif
#   From: 2010.03.12/outbox.cif.g09.slc.cpg/sg49_2_cif.got.tgz:2894.got - 2010.04.14 03:58:27.
