data_PCOD8203666
_publ_section_title
;
Structure prediction by ZEFSAII (Michael W. Deem and Ramdas Pophale) SiO2 
 PCOD8203666
Probable space group: P C C M
;
_chemical_formula_sum "Si O2"
_cell_formula_units_Z 64
_cell_length_a 8.737948
_cell_length_b 21.870959
_cell_length_c 16.992847
_cell_angle_alpha 90.000000
_cell_angle_beta 90.000000
_cell_angle_gamma 90.000000
_cell_volume 3247.457151
_symmetry_space_group_name_H-M "P C C M"
_symmetry_group_IT_number 49
_symmetry_cell_setting 'orthorhombic'
loop_
_space_group_symop_operation_xyz
x,y,z
-x,-y,z
x,-y,1/2-z
-x,y,1/2-z
-x,-y,-z
x,y,-z
-x,y,1/2+z
x,-y,1/2+z
loop_
_atom_site_type_symbol
_atom_site_label
_atom_site_fract_x
_atom_site_fract_y
_atom_site_fract_z
Si Si1 0.659945 0.745631 0.151113
Si Si2 0.825089 0.373750 0.908643
Si Si3 0.194606 0.866064 0.409958
Si Si4 0.817427 0.626815 0.091088
Si Si5 0.328011 0.928667 0.264702
Si Si6 0.317140 0.741703 0.835257
Si Si7 0.818206 0.500374 0.838513
Si Si8 0.098820 0.155858 0.675427
O O1 0.755058 0.795918 0.103507
O O2 0.723694 0.678479 0.135531
O O3 0.482756 0.750826 0.125039
O O4 0.674876 0.757013 0.243326
O O5 0.736343 0.326571 0.853568
O O6 0.762106 0.440815 0.886114
O O7 0.003831 0.366968 0.889227
O O8 0.790913 0.360875 0.000000
O O9 0.222485 0.885091 0.500000
O O10 0.289463 0.912335 0.355000
O O11 0.014672 0.871934 0.389834
O O12 0.755529 0.560891 0.118822
O O13 0.784023 0.633899 0.000000
O O14 0.500000 0.905345 0.250000
O O15 0.214314 0.896389 0.203981
O O16 0.311592 0.000000 0.250000
O O17 0.192390 0.789836 0.867774
O O18 0.753178 0.500000 0.750000
O O19 0.000000 0.500000 0.838435
O O20 0.000000 0.180654 0.750000
#
# Coordination Sequence:
#
# PCOD8203666 Si02
#       8
#     8   8   8   8   8   8   8   8
#     4  11  22  37  57  84 119 154 201 243 301 362
#     4  10  21  34  53  81 113 145 191 250 301 353
#     4  11  23  39  63  96 129 159 206 262 307 347
#     4  10  20  34  54  78 110 149 187 239 303 357
#     4  10  21  42  69  95 126 172 210 241 294 367
#     4  11  22  36  57  84 115 158 201 242 295 368
#     4   9  17  32  53  78 103 140 191 244 296 359
#     4  10  20  37  62  89 121 161 201 246 294 358
#
# _framework density 19.707726999999998
#
# number of rings (size 3 to 8) (size 9 to 14) (size 15 to 20)
#    0.000    1.750    2.500    3.000    0.000    7.250 
#    0.000    5.000    0.000    3.750    0.000    0.000 
#    0.000    0.000    0.000    0.000    0.000    0.000 
#
# Total GULP energy -793730.596913 kJ/mol
# GULP energy per Si atom -12402.040577 kJ/mol
# Density = 1.966287 g / cm^3
# Si number density = 19.707727 Si / 1000 Ang^3
#
#
#
# Elastic Constant Matrix: (Units=GPa)
#
#
# Indices 1 2 3 4 5 6 
#
# 1 110.9234 49.1247 38.5344 0.0000 0.0000 0.0000
# 2 49.1247 106.7730 30.8281 0.0000 0.0000 0.0000
# 3 38.5344 30.8281 86.3047 0.0000 0.0000 0.0000
# 4 0.0000 0.0000 0.0000 24.5566 0.0000 0.0000
# 5 0.0000 0.0000 0.0000 0.0000 18.0105 0.0000
# 6 0.0000 0.0000 0.0000 0.0000 0.0000 2.5686
#
#
#
# Elastic Compliance Matrix: (Units=1/GPa)
#
#
# Indices 1 2 3 4 5 6 
#
# 1 0.012398 -0.004578 -0.003900 0.000000 0.000000 0.000000
# 2 -0.004578 0.012133 -0.002290 0.000000 0.000000 0.000000
# 3 -0.003900 -0.002290 0.014146 0.000000 0.000000 0.000000
# 4 0.000000 0.000000 0.000000 0.040722 0.000000 0.000000
# 5 0.000000 0.000000 0.000000 0.000000 0.055523 0.000000
# 6 0.000000 0.000000 0.000000 0.000000 0.000000 0.389324
#
#
# Mechanical properties :
#
#
# Convention : Reuss Voigt Hill
#
# Bulk Modulus (GPa) = 58.34029 60.10839 59.22434
# Shear Modulus (GPa) = 9.06625 21.39472 15.23049
#
# Velocity S-wave (km/s) = 2.14717 3.29842 2.78298
# Velocity P-wave (km/s) = 5.98449 6.71358 6.35950
#
# Compressibility (1/GPa) = 0.01714081
#
# Stress axis : x y z
#
# Youngs Moduli (GPa) = 80.66115 82.41964 70.69016
#
# Poissons Ratio (x) = 0.37730 0.27571
# Poissons Ratio (y) = 0.36925 0.16188
# Poissons Ratio (z) = 0.31459 0.18874
#
# Static dielectric constant tensor:
#      x y z
#    x 3.747900 0.000000 0.000000 
#    y 0.000000 3.579220 0.000000 
#    z 0.000000 0.000000 3.466030 
# 
# 
# High freq. dielectric constant tensor:
#      x y z
#    x 1.763560 0.000000 0.000000 
#    y 0.000000 1.771320 0.000000 
#    z 0.000000 0.000000 1.755780 
# 
# From -- ./inp_files/16550.got.cif
#   From: 2010.03.12/outbox.cif.g09.slc.cpg/sg49_9_cif.got.tgz:16550.got - 2010.04.14 03:58:27.
