data_PCOD8203295
_publ_section_title
;
Structure prediction by ZEFSAII (Michael W. Deem and Ramdas Pophale) SiO2 
 PCOD8203295
Probable space group: P C C M
;
_chemical_formula_sum "Si O2"
_cell_formula_units_Z 64
_cell_length_a 29.859017
_cell_length_b 14.614120
_cell_length_c 8.670340
_cell_angle_alpha 90.000000
_cell_angle_beta 90.000000
_cell_angle_gamma 90.000000
_cell_volume 3783.417806
_symmetry_space_group_name_H-M "P C C M"
_symmetry_group_IT_number 49
_symmetry_cell_setting 'orthorhombic'
loop_
_space_group_symop_operation_xyz
x,y,z
-x,-y,z
x,-y,1/2-z
-x,y,1/2-z
-x,-y,-z
x,y,-z
-x,y,1/2+z
x,-y,1/2+z
loop_
_atom_site_type_symbol
_atom_site_label
_atom_site_fract_x
_atom_site_fract_y
_atom_site_fract_z
Si Si1 0.859920 0.599898 0.819078
Si Si2 0.642372 0.903775 0.183376
Si Si3 0.545243 0.372522 0.677282
Si Si4 0.545795 0.844115 0.825182
Si Si5 0.769845 0.601907 0.681134
Si Si6 0.633956 0.590187 0.320401
Si Si7 0.956642 0.600538 0.820187
Si Si8 0.305453 0.271822 0.179043
O O1 0.863625 0.500000 0.750000
O O2 0.817134 0.646337 0.737628
O O3 0.908242 0.649331 0.785832
O O4 0.850311 0.594633 0.000000
O O5 0.592373 0.881446 0.250598
O O6 0.681422 0.831212 0.231928
O O7 0.658869 0.000000 0.250000
O O8 0.639493 0.904698 0.000000
O O9 0.500000 0.411192 0.750000
O O10 0.551982 0.403890 0.500000
O O11 0.546836 0.264012 0.690999
O O12 0.581296 0.417111 0.791763
O O13 0.500000 0.883776 0.750000
O O14 0.543914 0.876816 0.000000
O O15 0.761086 0.500000 0.750000
O O16 0.770022 0.589383 0.500000
O O17 0.733409 0.678523 0.724403
O O18 0.657983 0.500000 0.250000
O O19 0.646346 0.601670 0.500000
O O20 0.649176 0.674170 0.214849
O O21 0.955570 0.500000 0.750000
O O22 0.000000 0.654551 0.750000
O O23 0.964163 0.591805 0.000000
O O24 0.292584 0.276061 0.000000
#
# Coordination Sequence:
#
# PCOD8203295 Si02
#       8
#     8   8   8   8   8   8   8   8
#     4   9  16  26  39  58  84 118 157 201 246 288
#     4  10  22  39  58  79 102 126 152 185 226 274
#     4  10  19  35  54  74  99 125 155 185 222 265
#     4   9  18  34  54  77 101 126 150 178 218 262
#     4  11  21  33  50  73  96 125 163 203 246 291
#     4  12  24  37  54  76  98 125 157 190 228 271
#     4   9  15  21  32  50  76 111 154 198 244 287
#     4  11  22  40  57  72  98 126 153 193 237 279
#
# _framework density 16.915921000000001
#
# number of rings (size 3 to 8) (size 9 to 14) (size 15 to 20)
#    0.000    1.875    1.250    5.250    0.000    4.000 
#    0.000    2.500    0.000    0.000    0.000    0.000 
#    0.000    0.000    0.000    0.000    0.000    0.625 
#
# Total GULP energy -792861.051265 kJ/mol
# GULP energy per Si atom -12388.453926 kJ/mol
# Density = 1.687742 g / cm^3
# Si number density = 16.915921 Si / 1000 Ang^3
#
#
#
# Elastic Constant Matrix: (Units=GPa)
#
#
# Indices 1 2 3 4 5 6 
#
# 1 133.3159 34.0811 40.5140 0.0000 0.0000 0.0000
# 2 34.0811 66.0132 26.0089 0.0000 0.0000 0.0000
# 3 40.5140 26.0089 82.6533 0.0000 0.0000 0.0000
# 4 0.0000 0.0000 0.0000 18.9430 0.0000 0.0000
# 5 0.0000 0.0000 0.0000 0.0000 33.4067 0.0000
# 6 0.0000 0.0000 0.0000 0.0000 0.0000 -6.3990
#
#
#
# Elastic Compliance Matrix: (Units=1/GPa)
#
#
# Indices 1 2 3 4 5 6 
#
# 1 0.009471 -0.003494 -0.003543 0.000000 0.000000 0.000000
# 2 -0.003494 0.018581 -0.004135 0.000000 0.000000 0.000000
# 3 -0.003543 -0.004135 0.015136 0.000000 0.000000 0.000000
# 4 0.000000 0.000000 0.000000 0.052790 0.000000 0.000000
# 5 0.000000 0.000000 0.000000 0.000000 0.029934 0.000000
# 6 0.000000 0.000000 0.000000 0.000000 0.000000 -0.156274
#
#
# Mechanical properties :
#
#
# Convention : Reuss Voigt Hill
#
# Bulk Modulus (GPa) = 47.97056 53.68782 50.82919
# Shear Modulus (GPa) = -4668.91752 21.28203 -2323.81774
#
# Velocity S-wave (km/s) = -52.59339 3.55083 -37.10429
# Velocity P-wave (km/s) = 60.49518 6.97267 42.49146
#
# Compressibility (1/GPa) = 0.02084612
#
# Stress axis : x y z
#
# Youngs Moduli (GPa) = 105.58806 53.81795 66.06601
#
# Poissons Ratio (x) = 0.18802 0.23407
# Poissons Ratio (y) = 0.36889 0.27315
# Poissons Ratio (z) = 0.37409 0.22251
#
# Static dielectric constant tensor:
#      x y z
#    x 3.941320 0.000000 0.000000 
#    y 0.000000 2.891790 0.000000 
#    z 0.000000 0.000000 3.220370 
# 
# 
# High freq. dielectric constant tensor:
#      x y z
#    x 1.655820 0.000000 0.000000 
#    y 0.000000 1.597140 0.000000 
#    z 0.000000 0.000000 1.662630 
# 
# From -- ./inp_files/7038.got.cif
#   From: 2010.03.12/outbox.cif.g09.slc.cpg/sg49_4_cif.got.tgz:7038.got - 2010.04.14 03:58:27.
