data_PCOD8203577
_publ_section_title
;
Structure prediction by ZEFSAII (Michael W. Deem and Ramdas Pophale) SiO2 
 PCOD8203577
Probable space group: P C C M
;
_chemical_formula_sum "Si O2"
_cell_formula_units_Z 64
_cell_length_a 19.419467
_cell_length_b 9.460043
_cell_length_c 18.720517
_cell_angle_alpha 90.000000
_cell_angle_beta 90.000000
_cell_angle_gamma 90.000000
_cell_volume 3439.127324
_symmetry_space_group_name_H-M "P C C M"
_symmetry_group_IT_number 49
_symmetry_cell_setting 'orthorhombic'
loop_
_space_group_symop_operation_xyz
x,y,z
-x,-y,z
x,-y,1/2-z
-x,y,1/2-z
-x,-y,-z
x,y,-z
-x,y,1/2+z
x,-y,1/2+z
loop_
_atom_site_type_symbol
_atom_site_label
_atom_site_fract_x
_atom_site_fract_y
_atom_site_fract_z
Si Si1 0.061266 0.916826 0.175131
Si Si2 0.939442 0.584059 0.324447
Si Si3 0.211260 0.911204 0.178537
Si Si4 0.788284 0.585420 0.677957
Si Si5 0.435003 0.799509 0.916124
Si Si6 0.590942 0.741507 0.918724
Si Si7 0.337934 0.550826 0.080881
Si Si8 0.647637 0.982023 0.835198
O O1 0.042517 0.750770 0.184865
O O2 0.137178 0.930879 0.137948
O O3 0.065748 0.000000 0.250000
O O4 0.000000 0.000000 0.131464
O O5 0.935678 0.500000 0.250000
O O6 0.863720 0.566558 0.359172
O O7 0.000000 0.500000 0.368746
O O8 0.222885 0.748362 0.198116
O O9 0.278076 0.963786 0.134320
O O10 0.209174 0.000000 0.250000
O O11 0.780806 0.500000 0.750000
O O12 0.731887 0.527442 0.623869
O O13 0.511571 0.752780 0.896008
O O14 0.381223 0.682163 0.889337
O O15 0.416124 0.939784 0.872877
O O16 0.428413 0.829332 0.000000
O O17 0.610985 0.579552 0.912729
O O18 0.639035 0.821620 0.861396
O O19 0.602398 0.797370 0.000000
O O20 0.315140 0.578155 0.000000
O O21 0.643046 0.000000 0.750000
#
# Coordination Sequence:
#
# PCOD8203577 Si02
#       8
#     8   8   8   8   8   8   8   8
#     4   9  15  25  42  64  97 135 171 202 242 296
#     4   9  16  27  43  72 104 132 169 208 249 297
#     4   9  19  32  46  73 107 139 172 204 255 307
#     4  10  20  33  54  77 107 142 172 210 261 309
#     4  10  20  38  60  76  99 135 176 217 259 309
#     4  10  22  38  56  78 101 133 175 220 262 305
#     4  10  21  37  56  78 103 132 175 219 262 309
#     4  11  22  35  52  79 112 139 168 210 261 313
#
# _framework density 18.609372
#
# number of rings (size 3 to 8) (size 9 to 14) (size 15 to 20)
#    0.000    2.250    1.250    2.625    3.500    4.500 
#    0.000    0.000    0.000    2.625    0.000    0.000 
#    0.000    4.500    0.000    0.000    0.000    0.000 
#
# Total GULP energy -792865.286064 kJ/mol
# GULP energy per Si atom -12388.520095 kJ/mol
# Density = 1.856702 g / cm^3
# Si number density = 18.609372 Si / 1000 Ang^3
#
#
#
# Elastic Constant Matrix: (Units=GPa)
#
#
# Indices 1 2 3 4 5 6 
#
# 1 151.6154 38.5121 28.9168 0.0000 0.0000 0.0000
# 2 38.5121 82.4373 12.8506 0.0000 0.0000 0.0000
# 3 28.9168 12.8506 33.5885 0.0000 0.0000 0.0000
# 4 0.0000 0.0000 0.0000 21.6577 0.0000 0.0000
# 5 0.0000 0.0000 0.0000 0.0000 -26.6469 0.0000
# 6 0.0000 0.0000 0.0000 0.0000 0.0000 31.4320
#
#
#
# Elastic Compliance Matrix: (Units=1/GPa)
#
#
# Indices 1 2 3 4 5 6 
#
# 1 0.008547 -0.003026 -0.006200 0.000000 0.000000 0.000000
# 2 -0.003026 0.013971 -0.002740 0.000000 0.000000 0.000000
# 3 -0.006200 -0.002740 0.036158 0.000000 0.000000 0.000000
# 4 0.000000 0.000000 0.000000 0.046173 0.000000 0.000000
# 5 0.000000 0.000000 0.000000 0.000000 -0.037528 0.000000
# 6 0.000000 0.000000 0.000000 0.000000 0.000000 0.031815
#
#
# Mechanical properties :
#
#
# Convention : Reuss Voigt Hill
#
# Bulk Modulus (GPa) = 28.78238 47.57783 38.18011
# Shear Modulus (GPa) = 37.13314 17.77934 27.45624
#
# Velocity S-wave (km/s) = 4.47184 3.09430 3.84526
# Velocity P-wave (km/s) = 6.49332 6.19584 6.34632
#
# Compressibility (1/GPa) = 0.03474348
#
# Stress axis : x y z
#
# Youngs Moduli (GPa) = 117.00130 71.57513 27.65616
#
# Poissons Ratio (x) = 0.21661 0.17148
# Poissons Ratio (y) = 0.35408 0.07578
# Poissons Ratio (z) = 0.72545 0.19611
#
# Static dielectric constant tensor:
#      x y z
#    x 4.537900 0.000000 0.000000 
#    y 0.000000 3.581130 0.000000 
#    z 0.000000 0.000000 2.890930 
# 
# 
# High freq. dielectric constant tensor:
#      x y z
#    x 1.752390 0.000000 0.000000 
#    y 0.000000 1.739410 0.000000 
#    z 0.000000 0.000000 1.653820 
# 
# From -- ./inp_files/21214.got.cif
#   From: 2010.03.12/outbox.cif.g09.slc.cpg/sg49_11_cif.got.tgz:21214.got - 2010.04.14 03:58:27.
