data_PCOD8203579
_publ_section_title
;
Structure prediction by ZEFSAII (Michael W. Deem and Ramdas Pophale) SiO2 
 PCOD8203579
Probable space group: P C C M
;
_chemical_formula_sum "Si O2"
_cell_formula_units_Z 64
_cell_length_a 9.133181
_cell_length_b 16.404498
_cell_length_c 22.834082
_cell_angle_alpha 90.000000
_cell_angle_beta 90.000000
_cell_angle_gamma 90.000000
_cell_volume 3421.122032
_symmetry_space_group_name_H-M "P C C M"
_symmetry_group_IT_number 49
_symmetry_cell_setting 'orthorhombic'
loop_
_space_group_symop_operation_xyz
x,y,z
-x,-y,z
x,-y,1/2-z
-x,y,1/2-z
-x,-y,-z
x,y,-z
-x,y,1/2+z
x,-y,1/2+z
loop_
_atom_site_type_symbol
_atom_site_label
_atom_site_fract_x
_atom_site_fract_y
_atom_site_fract_z
Si Si1 0.333059 0.503560 0.568712
Si Si2 0.543595 0.086693 0.568292
Si Si3 0.180256 0.642883 0.871394
Si Si4 0.828996 0.354082 0.364965
Si Si5 0.294900 0.196533 0.569134
Si Si6 0.671054 0.403241 0.248527
Si Si7 0.937849 0.920372 0.433719
Si Si8 0.802296 0.807034 0.933847
O O1 0.500000 0.500000 0.594440
O O2 0.340912 0.515981 0.500000
O O3 0.243032 0.422450 0.582961
O O4 0.245693 0.578693 0.594869
O O5 0.513194 0.075014 0.500000
O O6 0.458452 0.170190 0.587176
O O7 0.709525 0.111785 0.582899
O O8 0.500000 0.000000 0.599040
O O9 0.232620 0.729993 0.893524
O O10 0.254194 0.629805 0.809335
O O11 0.004702 0.635603 0.866242
O O12 0.763342 0.362243 0.300387
O O13 0.780293 0.266514 0.389148
O O14 0.274601 0.216340 0.500000
O O15 0.216453 0.111814 0.589410
O O16 0.688798 0.500000 0.250000
O O17 0.500000 0.378108 0.250000
O O18 0.913474 0.949245 0.500000
O O19 0.033576 0.838558 0.429798
O O20 0.000000 0.000000 0.398984
O O21 0.764305 0.777312 0.000000
#
# Coordination Sequence:
#
# PCOD8203579 Si02
#       8
#     8   8   8   8   8   8   8   8
#     4  11  25  40  59  86 121 161 195 231 288 353
#     4   9  18  32  52  82 121 164 202 236 281 341
#     4  12  24  40  62  88 118 153 196 246 299 348
#     4  12  24  40  62  88 118 153 196 246 299 348
#     4  10  20  33  54  87 125 157 192 238 286 346
#     4  11  25  45  67  85 107 148 201 256 299 352
#     4   9  16  30  52  80 119 160 190 224 281 347
#     4  10  20  33  54  87 125 157 192 238 286 346
#
# _framework density 18.707312999999999
#
# number of rings (size 3 to 8) (size 9 to 14) (size 15 to 20)
#    0.000    1.500    2.500    3.000    3.500    5.500 
#    0.000    0.000    0.000    0.000    0.000    5.250 
#    0.000    0.000    0.000    0.000    0.000    0.000 
#
# Total GULP energy -793035.872229 kJ/mol
# GULP energy per Si atom -12391.185504 kJ/mol
# Density = 1.866473 g / cm^3
# Si number density = 18.707313 Si / 1000 Ang^3
#
#
#
# Elastic Constant Matrix: (Units=GPa)
#
#
# Indices 1 2 3 4 5 6 
#
# 1 105.9449 26.4364 30.2462 0.0000 0.0000 0.0000
# 2 26.4364 93.9500 28.4172 0.0000 0.0000 0.0000
# 3 30.2462 28.4172 67.1148 0.0000 0.0000 0.0000
# 4 0.0000 0.0000 0.0000 -44.0462 0.0000 0.0000
# 5 0.0000 0.0000 0.0000 0.0000 27.6565 0.0000
# 6 0.0000 0.0000 0.0000 0.0000 0.0000 13.3195
#
#
#
# Elastic Compliance Matrix: (Units=1/GPa)
#
#
# Indices 1 2 3 4 5 6 
#
# 1 0.011105 -0.001848 -0.004222 0.000000 0.000000 0.000000
# 2 -0.001848 0.012515 -0.004466 0.000000 0.000000 0.000000
# 3 -0.004222 -0.004466 0.018694 0.000000 0.000000 0.000000
# 4 0.000000 0.000000 0.000000 -0.022703 0.000000 0.000000
# 5 0.000000 0.000000 0.000000 0.000000 0.036158 0.000000
# 6 0.000000 0.000000 0.000000 0.000000 0.000000 0.075078
#
#
# Mechanical properties :
#
#
# Convention : Reuss Voigt Hill
#
# Bulk Modulus (GPa) = 47.07833 48.57882 47.82858
# Shear Modulus (GPa) = 31.44658 11.51327 21.47992
#
# Velocity S-wave (km/s) = 4.10442 2.48350 3.39220
# Velocity P-wave (km/s) = 6.90522 5.85217 6.40039
#
# Compressibility (1/GPa) = 0.02124119
#
# Stress axis : x y z
#
# Youngs Moduli (GPa) = 90.04617 79.90542 53.49368
#
# Poissons Ratio (x) = 0.14765 0.22587
# Poissons Ratio (y) = 0.16638 0.23891
# Poissons Ratio (z) = 0.38022 0.35687
#
# Static dielectric constant tensor:
#      x y z
#    x 3.778330 0.000000 0.000000 
#    y 0.000000 3.747430 0.000000 
#    z 0.000000 0.000000 3.113270 
# 
# 
# High freq. dielectric constant tensor:
#      x y z
#    x 1.753680 0.000000 0.000000 
#    y 0.000000 1.739010 0.000000 
#    z 0.000000 0.000000 1.675880 
# 
# From -- ./inp_files/21100.got.cif
#   From: 2010.03.12/outbox.cif.g09.slc.cpg/sg49_11_cif.got.tgz:21100.got - 2010.04.14 03:58:27.
