data_PCOD8203887
_publ_section_title
;
Structure prediction by ZEFSAII (Michael W. Deem and Ramdas Pophale) SiO2 
 PCOD8203887
Probable space group: P C C M
;
_chemical_formula_sum "Si O2"
_cell_formula_units_Z 40
_cell_length_a 25.569247
_cell_length_b 9.564290
_cell_length_c 8.539300
_cell_angle_alpha 90.000000
_cell_angle_beta 90.000000
_cell_angle_gamma 90.000000
_cell_volume 2088.300275
_symmetry_space_group_name_H-M "P C C M"
_symmetry_group_IT_number 49
_symmetry_cell_setting 'orthorhombic'
loop_
_space_group_symop_operation_xyz
x,y,z
-x,-y,z
x,-y,1/2-z
-x,y,1/2-z
-x,-y,-z
x,y,-z
-x,y,1/2+z
x,-y,1/2+z
loop_
_atom_site_type_symbol
_atom_site_label
_atom_site_fract_x
_atom_site_fract_y
_atom_site_fract_z
Si Si1 0.850473 0.154799 0.684655
Si Si2 0.244335 0.348370 0.186099
Si Si3 0.445616 0.153868 0.814812
Si Si4 0.055903 0.651725 0.314224
Si Si5 0.644187 0.652777 0.685562
O O1 0.851798 0.146719 0.500000
O O2 0.799119 0.237699 0.740786
O O3 0.901553 0.236797 0.746180
O O4 0.849684 0.000000 0.750000
O O5 0.228001 0.500000 0.250000
O O6 0.298591 0.296881 0.260831
O O7 0.250153 0.357305 0.000000
O O8 0.500000 0.217369 0.750000
O O9 0.397781 0.245255 0.758412
O O10 0.436782 0.000000 0.750000
O O11 0.448051 0.149903 0.000000
O O12 0.071516 0.500000 0.250000
O O13 0.053836 0.642953 0.500000
O O14 0.000000 0.701440 0.250000
O O15 0.632164 0.500000 0.750000
O O16 0.640408 0.653672 0.500000
#
# Coordination Sequence:
#
# PCOD8203887 Si02
#       5
#     8   8   8   8   8
#     4  10  23  38  55  80 112 145 183 225 274 328
#     4  10  20  37  58  82 109 143 184 229 276 331
#     4  11  22  39  60  85 115 151 190 231 278 334
#     4  10  20  36  57  83 109 142 183 226 271 325
#     4  11  22  38  59  86 115 148 187 233 282 332
#
# _framework density 19.154333000000001
#
# number of rings (size 3 to 8) (size 9 to 14) (size 15 to 20)
#    0.000    1.600    0.000    7.800    0.000    4.800 
#    0.000    6.000    0.000    0.000    0.000    0.000 
#    0.000    0.000    0.000    0.000    0.000    0.000 
#
# Total GULP energy -496122.072760 kJ/mol
# GULP energy per Si atom -12403.051819 kJ/mol
# Density = 1.911074 g / cm^3
# Si number density = 19.154333 Si / 1000 Ang^3
#
#
#
# Elastic Constant Matrix: (Units=GPa)
#
#
# Indices 1 2 3 4 5 6 
#
# 1 172.6625 114.4268 61.1920 0.0000 0.0000 0.0000
# 2 114.4268 132.6115 48.3846 0.0000 0.0000 0.0000
# 3 61.1920 48.3846 133.2680 0.0000 0.0000 0.0000
# 4 0.0000 0.0000 0.0000 36.0053 0.0000 0.0000
# 5 0.0000 0.0000 0.0000 0.0000 32.5990 0.0000
# 6 0.0000 0.0000 0.0000 0.0000 0.0000 63.8275
#
#
#
# Elastic Compliance Matrix: (Units=1/GPa)
#
#
# Indices 1 2 3 4 5 6 
#
# 1 0.014153 -0.011344 -0.002380 0.000000 0.000000 0.000000
# 2 -0.011344 0.017784 -0.001248 0.000000 0.000000 0.000000
# 3 -0.002380 -0.001248 0.009050 0.000000 0.000000 0.000000
# 4 0.000000 0.000000 0.000000 0.027774 0.000000 0.000000
# 5 0.000000 0.000000 0.000000 0.000000 0.030676 0.000000
# 6 0.000000 0.000000 0.000000 0.000000 0.000000 0.015667
#
#
# Mechanical properties :
#
#
# Convention : Reuss Voigt Hill
#
# Bulk Modulus (GPa) = 90.55471 98.50543 94.53007
# Shear Modulus (GPa) = 33.61829 40.78893 37.20361
#
# Velocity S-wave (km/s) = 4.19397 4.61964 4.41194
# Velocity P-wave (km/s) = 8.41614 8.94392 8.68404
#
# Compressibility (1/GPa) = 0.01104305
#
# Stress axis : x y z
#
# Youngs Moduli (GPa) = 70.65721 56.22892 110.50125
#
# Poissons Ratio (x) = 0.63785 0.26299
# Poissons Ratio (y) = 0.80152 0.13793
# Poissons Ratio (z) = 0.16817 0.07019
#
# Static dielectric constant tensor:
#      x y z
#    x 3.864300 0.000000 0.000000 
#    y 0.000000 1.464450 0.000000 
#    z 0.000000 0.000000 3.625850 
# 
# 
# High freq. dielectric constant tensor:
#      x y z
#    x 1.762550 0.000000 0.000000 
#    y 0.000000 1.741400 0.000000 
#    z 0.000000 0.000000 1.760840 
# 
# From -- ./inp_files/1912.got.cif
#   From: 2010.03.12/outbox.cif.g09.slc.cpg/sg49_1_cif.got.tgz:1912.got - 2010.04.14 03:58:27.
