data_PCOD8203831
_publ_section_title
;
Structure prediction by ZEFSAII (Michael W. Deem and Ramdas Pophale) SiO2 
 PCOD8203831
Probable space group: P C C M
;
_chemical_formula_sum "Si O2"
_cell_formula_units_Z 48
_cell_length_a 14.739459
_cell_length_b 18.796575
_cell_length_c 8.413993
_cell_angle_alpha 90.000000
_cell_angle_beta 90.000000
_cell_angle_gamma 90.000000
_cell_volume 2331.108091
_symmetry_space_group_name_H-M "P C C M"
_symmetry_group_IT_number 49
_symmetry_cell_setting 'orthorhombic'
loop_
_space_group_symop_operation_xyz
x,y,z
-x,-y,z
x,-y,1/2-z
-x,y,1/2-z
-x,-y,-z
x,y,-z
-x,y,1/2+z
x,-y,1/2+z
loop_
_atom_site_type_symbol
_atom_site_label
_atom_site_fract_x
_atom_site_fract_y
_atom_site_fract_z
Si Si1 0.097679 0.272560 0.686918
Si Si2 0.167996 0.426844 0.689124
Si Si3 0.368136 0.573097 0.685447
Si Si4 0.401942 0.922686 0.185998
Si Si5 0.409642 0.714745 0.817754
Si Si6 0.265925 0.807342 0.317321
O O1 0.102324 0.266674 0.500000
O O2 0.115340 0.354712 0.738991
O O3 0.166584 0.212919 0.753849
O O4 0.000000 0.249643 0.750000
O O5 0.117528 0.500000 0.750000
O O6 0.184325 0.429678 0.500000
O O7 0.261253 0.424191 0.784181
O O8 0.409580 0.500000 0.750000
O O9 0.388879 0.585075 0.500000
O O10 0.418454 0.630715 0.795212
O O11 0.500000 0.896292 0.250000
O O12 0.318418 0.870720 0.227560
O O13 0.376282 0.000000 0.250000
O O14 0.411885 0.926972 0.000000
O O15 0.500000 0.752647 0.750000
O O16 0.324895 0.736734 0.709903
O O17 0.394431 0.737090 0.000000
O O18 0.258520 0.828421 0.500000
#
# Coordination Sequence:
#
# PCOD8203831 Si02
#       6
#     8   8   8   8   8   8
#     4  11  24  41  62  89 121 160 207 261 315 373
#     4  10  20  35  57  82 113 151 199 255 317 374
#     4  11  21  35  55  78 107 148 194 244 302 360
#     4  11  22  40  66 100 138 173 210 250 294 352
#     4  12  24  39  57  83 115 152 199 247 299 360
#     4  12  24  41  64  91 124 164 203 248 306 362
#
# _framework density 20.591066000000001
#
# number of rings (size 3 to 8) (size 9 to 14) (size 15 to 20)
#    0.000    0.833    1.667    9.000    0.000    2.667 
#    0.000    3.333    0.000    0.500    0.000    3.500 
#    0.000    0.000    0.000    0.000    0.000    0.000 
#
# Total GULP energy -595051.658601 kJ/mol
# GULP energy per Si atom -12396.909554 kJ/mol
# Density = 2.054420 g / cm^3
# Si number density = 20.591066 Si / 1000 Ang^3
#
#
#
# Elastic Constant Matrix: (Units=GPa)
#
#
# Indices 1 2 3 4 5 6 
#
# 1 125.4154 46.3122 32.6850 0.0000 0.0000 0.0000
# 2 46.3122 119.1102 34.0482 0.0000 0.0000 0.0000
# 3 32.6850 34.0482 134.3233 0.0000 0.0000 0.0000
# 4 0.0000 0.0000 0.0000 32.2625 0.0000 0.0000
# 5 0.0000 0.0000 0.0000 0.0000 31.5172 0.0000
# 6 0.0000 0.0000 0.0000 0.0000 0.0000 38.5516
#
#
#
# Elastic Compliance Matrix: (Units=1/GPa)
#
#
# Indices 1 2 3 4 5 6 
#
# 1 0.009581 -0.003298 -0.001495 0.000000 0.000000 0.000000
# 2 -0.003298 0.010187 -0.001780 0.000000 0.000000 0.000000
# 3 -0.001495 -0.001780 0.008260 0.000000 0.000000 0.000000
# 4 0.000000 0.000000 0.000000 0.030996 0.000000 0.000000
# 5 0.000000 0.000000 0.000000 0.000000 0.031729 0.000000
# 6 0.000000 0.000000 0.000000 0.000000 0.000000 0.025939
#
#
# Mechanical properties :
#
#
# Convention : Reuss Voigt Hill
#
# Bulk Modulus (GPa) = 67.19726 67.21552 67.20639
# Shear Modulus (GPa) = 37.09278 38.18651 37.63964
#
# Velocity S-wave (km/s) = 4.24890 4.31108 4.28010
# Velocity P-wave (km/s) = 7.53498 7.58251 7.55878
#
# Compressibility (1/GPa) = 0.01488156
#
# Stress axis : x y z
#
# Youngs Moduli (GPa) = 104.37311 98.16878 121.06963
#
# Poissons Ratio (x) = 0.32374 0.18105
# Poissons Ratio (y) = 0.34420 0.21546
# Poissons Ratio (z) = 0.15608 0.17470
#
# Static dielectric constant tensor:
#      x y z
#    x 3.585680 0.000000 0.000000 
#    y 0.000000 3.960230 0.000000 
#    z 0.000000 0.000000 3.777730 
# 
# 
# High freq. dielectric constant tensor:
#      x y z
#    x 1.792920 0.000000 0.000000 
#    y 0.000000 1.799910 0.000000 
#    z 0.000000 0.000000 1.819500 
# 
# From -- ./inp_files/3709.got.cif
#   From: 2010.03.12/outbox.cif.g09.slc.cpg/sg49_2_cif.got.tgz:3709.got - 2010.04.14 03:58:27.
