data_PCOD8203102
_publ_section_title
;
Structure prediction by ZEFSAII (Michael W. Deem and Ramdas Pophale) SiO2 
 PCOD8203102
Probable space group: P C C M
;
_chemical_formula_sum "Si O2"
_cell_formula_units_Z 40
_cell_length_a 5.147600
_cell_length_b 22.240190
_cell_length_c 16.444783
_cell_angle_alpha 90.000000
_cell_angle_beta 90.000000
_cell_angle_gamma 90.000000
_cell_volume 1882.657993
_symmetry_space_group_name_H-M "P C C M"
_symmetry_group_IT_number 49
_symmetry_cell_setting 'orthorhombic'
loop_
_space_group_symop_operation_xyz
x,y,z
-x,-y,z
x,-y,1/2-z
-x,y,1/2-z
-x,-y,-z
x,y,-z
-x,y,1/2+z
x,-y,1/2+z
loop_
_atom_site_type_symbol
_atom_site_label
_atom_site_fract_x
_atom_site_fract_y
_atom_site_fract_z
Si Si1 0.352059 0.263008 0.904913
Si Si2 0.442444 0.132153 0.842485
Si Si3 0.846945 0.330540 0.902709
Si Si4 0.037851 0.070770 0.592112
Si Si5 0.250060 0.464494 0.403401
O O1 0.366979 0.192539 0.889257
O O2 0.611761 0.291206 0.868097
O O3 0.105140 0.298402 0.866586
O O4 0.339959 0.274498 0.000000
O O5 0.500000 0.147993 0.750000
O O6 0.678209 0.094494 0.881954
O O7 0.180358 0.093926 0.846563
O O8 0.792229 0.397411 0.868858
O O9 0.859850 0.331540 0.000000
O O10 0.988663 0.093487 0.500000
O O11 0.000000 0.000000 0.596230
O O12 0.500000 0.500000 0.367429
O O13 0.276270 0.461791 0.500000
O O14 0.000000 0.500000 0.374082
#
# Coordination Sequence:
#
# PCOD8203102 Si02
#       5
#     8   8   8   8   8
#     4  10  19  33  52  73 104 145 189 231 274 335
#     4  12  25  40  61  90 122 154 193 245 300 348
#     4   9  17  28  45  70  99 139 186 227 274 334
#     4  11  24  43  66  90 118 155 197 237 286 355
#     4   9  15  23  37  61  97 135 170 217 279 336
#
# _framework density 21.246559000000001
#
# number of rings (size 3 to 8) (size 9 to 14) (size 15 to 20)
#    0.000    1.800    0.000    5.400    0.000   10.400 
#    0.000    0.000    0.000    0.000    0.000    0.000 
#    0.000   12.000    0.000    0.000    0.000    0.000 
#
# Total GULP energy -495801.817864 kJ/mol
# GULP energy per Si atom -12395.045447 kJ/mol
# Density = 2.119820 g / cm^3
# Si number density = 21.246559 Si / 1000 Ang^3
#
#
#
# Elastic Constant Matrix: (Units=GPa)
#
#
# Indices 1 2 3 4 5 6 
#
# 1 183.5315 80.4405 14.3348 0.0000 0.0000 0.0000
# 2 80.4405 140.5423 6.5449 0.0000 0.0000 0.0000
# 3 14.3348 6.5449 13.3420 0.0000 0.0000 0.0000
# 4 0.0000 0.0000 0.0000 0.5584 0.0000 0.0000
# 5 0.0000 0.0000 0.0000 0.0000 14.8906 0.0000
# 6 0.0000 0.0000 0.0000 0.0000 0.0000 48.2570
#
#
#
# Elastic Compliance Matrix: (Units=1/GPa)
#
#
# Indices 1 2 3 4 5 6 
#
# 1 0.007759 -0.004147 -0.006301 0.000000 0.000000 0.000000
# 2 -0.004147 0.009498 -0.000204 0.000000 0.000000 0.000000
# 3 -0.006301 -0.000204 0.081822 0.000000 0.000000 0.000000
# 4 0.000000 0.000000 0.000000 1.790949 0.000000 0.000000
# 5 0.000000 0.000000 0.000000 0.000000 0.067157 0.000000
# 6 0.000000 0.000000 0.000000 0.000000 0.000000 0.020722
#
#
# Mechanical properties :
#
#
# Convention : Reuss Voigt Hill
#
# Bulk Modulus (GPa) = 12.85775 60.00625 36.43200
# Shear Modulus (GPa) = 2.46897 28.48089 15.47493
#
# Velocity S-wave (km/s) = 1.07916 3.66525 2.70172
# Velocity P-wave (km/s) = 2.76000 6.79825 5.18815
#
# Compressibility (1/GPa) = 0.07777409
#
# Stress axis : x y z
#
# Youngs Moduli (GPa) = 128.89051 105.28013 12.22168
#
# Poissons Ratio (x) = 0.43662 0.07701
# Poissons Ratio (y) = 0.53453 0.00249
# Poissons Ratio (z) = 0.81220 0.02144
#
# Static dielectric constant tensor:
#      x y z
#    x 3.979690 0.000000 0.000000 
#    y 0.000000 3.372660 0.000000 
#    z 0.000000 0.000000 3.330020 
# 
# 
# High freq. dielectric constant tensor:
#      x y z
#    x 1.854920 0.000000 0.000000 
#    y 0.000000 1.851580 0.000000 
#    z 0.000000 0.000000 1.780740 
# 
# From -- ./inp_files/15269.got.cif
#   From: 2010.03.12/outbox.cif.g09.slc.cpg/sg49_8_cif.got.tgz:15269.got - 2010.04.14 03:58:27.
