data_PCOD8203894
_publ_section_title
;
Structure prediction by ZEFSAII (Michael W. Deem and Ramdas Pophale) SiO2 
 PCOD8203894
Probable space group: P C C M
;
_chemical_formula_sum "Si O2"
_cell_formula_units_Z 64
_cell_length_a 16.711901
_cell_length_b 11.122566
_cell_length_c 17.315987
_cell_angle_alpha 90.000000
_cell_angle_beta 90.000000
_cell_angle_gamma 90.000000
_cell_volume 3218.682189
_symmetry_space_group_name_H-M "P C C M"
_symmetry_group_IT_number 49
_symmetry_cell_setting 'orthorhombic'
loop_
_space_group_symop_operation_xyz
x,y,z
-x,-y,z
x,-y,1/2-z
-x,y,1/2-z
-x,-y,-z
x,y,-z
-x,y,1/2+z
x,-y,1/2+z
loop_
_atom_site_type_symbol
_atom_site_label
_atom_site_fract_x
_atom_site_fract_y
_atom_site_fract_z
Si Si1 0.757215 0.840237 0.674474
Si Si2 0.576440 0.836100 0.088328
Si Si3 0.146448 0.438230 0.831962
Si Si4 0.400256 0.883618 0.911638
Si Si5 0.167330 0.056951 0.913706
Si Si6 0.867541 0.676204 0.412810
Si Si7 0.043905 0.753486 0.588521
Si Si8 0.270499 0.244134 0.158533
O O1 0.668577 0.830489 0.640886
O O2 0.802030 0.721086 0.647313
O O3 0.749272 0.835726 0.766126
O O4 0.808434 0.955208 0.647339
O O5 0.484639 0.827929 0.117254
O O6 0.634228 0.752475 0.140831
O O7 0.603469 0.973411 0.096310
O O8 0.582055 0.792935 0.000000
O O9 0.129838 0.500000 0.750000
O O10 0.128199 0.533637 0.899355
O O11 0.084148 0.331399 0.847310
O O12 0.236039 0.380168 0.835569
O O13 0.385696 0.846620 0.000000
O O14 0.077976 0.110625 0.898470
O O15 0.227608 0.170959 0.910407
O O16 0.173192 0.001232 0.000000
O O17 0.839691 0.700273 0.500000
O O18 0.949483 0.748214 0.396556
O O19 0.062673 0.712586 0.500000
#
# Coordination Sequence:
#
# PCOD8203894 Si02
#       8
#     8   8   8   8   8   8   8   8
#     4  12  22  35  55  87 126 158 188 234 294 358
#     4   9  18  34  58  88 118 151 190 231 283 347
#     4  11  22  41  58  83 114 150 198 252 302 335
#     4   9  18  33  56  87 121 153 186 229 284 350
#     4  10  20  36  57  83 117 157 192 235 292 350
#     4  11  23  39  60  86 113 154 202 247 297 351
#     4   9  21  39  61  86 111 147 203 251 289 347
#     4  11  22  36  57  85 119 153 195 242 293 353
#
# _framework density 19.883914000000001
#
# number of rings (size 3 to 8) (size 9 to 14) (size 15 to 20)
#    0.000    1.750    2.500    3.375    0.000    4.500 
#    0.000    3.125    0.000    2.250    0.000    2.625 
#    0.000    0.000    0.000    0.000    0.000    0.000 
#
# Total GULP energy -793441.768785 kJ/mol
# GULP energy per Si atom -12397.527637 kJ/mol
# Density = 1.983866 g / cm^3
# Si number density = 19.883914 Si / 1000 Ang^3
#
#
#
# Elastic Constant Matrix: (Units=GPa)
#
#
# Indices 1 2 3 4 5 6 
#
# 1 121.8530 32.9417 52.0278 0.0000 0.0000 0.0000
# 2 32.9417 48.2982 27.2838 0.0000 0.0000 0.0000
# 3 52.0278 27.2838 85.4130 0.0000 0.0000 0.0000
# 4 0.0000 0.0000 0.0000 21.7177 0.0000 0.0000
# 5 0.0000 0.0000 0.0000 0.0000 25.1687 0.0000
# 6 0.0000 0.0000 0.0000 0.0000 0.0000 31.8699
#
#
#
# Elastic Compliance Matrix: (Units=1/GPa)
#
#
# Indices 1 2 3 4 5 6 
#
# 1 0.011986 -0.004942 -0.005722 0.000000 0.000000 0.000000
# 2 -0.004942 0.027302 -0.005710 0.000000 0.000000 0.000000
# 3 -0.005722 -0.005710 0.017018 0.000000 0.000000 0.000000
# 4 0.000000 0.000000 0.000000 0.046045 0.000000 0.000000
# 5 0.000000 0.000000 0.000000 0.000000 0.039732 0.000000
# 6 0.000000 0.000000 0.000000 0.000000 0.000000 0.031378
#
#
# Mechanical properties :
#
#
# Convention : Reuss Voigt Hill
#
# Bulk Modulus (GPa) = 42.45428 53.34119 47.89774
# Shear Modulus (GPa) = 23.35773 25.30532 24.33152
#
# Velocity S-wave (km/s) = 3.43112 3.57130 3.50191
# Velocity P-wave (km/s) = 6.09050 6.62496 6.36334
#
# Compressibility (1/GPa) = 0.02355475
#
# Stress axis : x y z
#
# Youngs Moduli (GPa) = 83.43072 36.62796 58.76294
#
# Poissons Ratio (x) = 0.18103 0.33626
# Poissons Ratio (y) = 0.41236 0.33556
# Poissons Ratio (z) = 0.47741 0.20916
#
# Static dielectric constant tensor:
#      x y z
#    x 3.778630 0.000000 0.000000 
#    y 0.000000 3.414900 0.000000 
#    z 0.000000 0.000000 3.532770 
# 
# 
# High freq. dielectric constant tensor:
#      x y z
#    x 1.775990 0.000000 0.000000 
#    y 0.000000 1.746450 0.000000 
#    z 0.000000 0.000000 1.776520 
# 
# From -- ./inp_files/17973.got.cif
#   From: 2010.03.12/outbox.cif.g09.slc.cpg/sg49_9_cif.got.tgz:17973.got - 2010.04.14 03:58:27.
