data_PCOD8203040
_publ_section_title
;
Structure prediction by ZEFSAII (Michael W. Deem and Ramdas Pophale) SiO2 
 PCOD8203040
Probable space group: P C C M
;
_chemical_formula_sum "Si O2"
_cell_formula_units_Z 64
_cell_length_a 12.962967
_cell_length_b 27.320734
_cell_length_c 9.248439
_cell_angle_alpha 90.000000
_cell_angle_beta 90.000000
_cell_angle_gamma 90.000000
_cell_volume 3275.406562
_symmetry_space_group_name_H-M "P C C M"
_symmetry_group_IT_number 49
_symmetry_cell_setting 'orthorhombic'
loop_
_space_group_symop_operation_xyz
x,y,z
-x,-y,z
x,-y,1/2-z
-x,y,1/2-z
-x,-y,-z
x,y,-z
-x,y,1/2+z
x,-y,1/2+z
loop_
_atom_site_type_symbol
_atom_site_label
_atom_site_fract_x
_atom_site_fract_y
_atom_site_fract_z
Si Si1 0.092666 0.772376 0.655736
Si Si2 0.096826 0.635550 0.842789
Si Si3 0.737978 0.294169 0.253364
Si Si4 0.766518 0.856869 0.169162
Si Si5 0.397417 0.381643 0.164869
Si Si6 0.894959 0.049872 0.327833
Si Si7 0.244174 0.550944 0.826883
Si Si8 0.605810 0.203866 0.165728
O O1 0.043702 0.782116 0.500000
O O2 0.186048 0.734066 0.638058
O O3 0.137614 0.822977 0.719349
O O4 0.000000 0.751217 0.750000
O O5 0.187766 0.675790 0.854539
O O6 0.145789 0.584567 0.788006
O O7 0.000000 0.652803 0.750000
O O8 0.049679 0.627862 0.000000
O O9 0.669453 0.332198 0.342864
O O10 0.668982 0.254721 0.168477
O O11 0.801347 0.912358 0.199167
O O12 0.666604 0.841761 0.261999
O O13 0.741756 0.847858 0.000000
O O14 0.500000 0.367729 0.250000
O O15 0.345182 0.425575 0.253929
O O16 0.419284 0.398547 0.000000
O O17 0.914362 0.042654 0.500000
O O18 0.000000 0.068221 0.250000
O O19 0.859510 0.000000 0.250000
O O20 0.221685 0.500000 0.750000
O O21 0.260641 0.545894 0.000000
O O22 0.500000 0.211913 0.250000
O O23 0.582865 0.190192 0.000000
#
# Coordination Sequence:
#
# PCOD8203040 Si02
#       8
#     8   8   8   8   8   8   8   8
#     4  10  20  33  50  75 107 144 183 223 266 316
#     4  10  22  38  57  82 113 146 181 220 263 314
#     4  10  22  37  56  80 110 146 185 224 266 318
#     4   9  20  37  54  76 110 148 188 232 280 332
#     4  11  23  39  60  84 110 142 178 221 273 326
#     4  10  19  32  53  82 116 153 191 235 283 337
#     4  10  22  41  62  85 112 141 178 223 268 321
#     4  11  23  38  59  83 110 145 187 234 283 333
#
# _framework density 19.539558
#
# number of rings (size 3 to 8) (size 9 to 14) (size 15 to 20)
#    0.000    1.875    0.000    3.750    0.000   12.000 
#    0.000    2.500    0.000    0.375    0.000    2.625 
#    0.000    0.000    0.000    0.000    0.000    0.000 
#
# Total GULP energy -793312.147390 kJ/mol
# GULP energy per Si atom -12395.502303 kJ/mol
# Density = 1.949509 g / cm^3
# Si number density = 19.539558 Si / 1000 Ang^3
#
#
#
# Elastic Constant Matrix: (Units=GPa)
#
#
# Indices 1 2 3 4 5 6 
#
# 1 124.2217 51.5428 60.8601 0.0000 0.0000 0.0000
# 2 51.5428 115.5385 42.8056 0.0000 0.0000 0.0000
# 3 60.8601 42.8056 124.9803 0.0000 0.0000 0.0000
# 4 0.0000 0.0000 0.0000 -5.4191 0.0000 0.0000
# 5 0.0000 0.0000 0.0000 0.0000 28.8311 0.0000
# 6 0.0000 0.0000 0.0000 0.0000 0.0000 19.6043
#
#
#
# Elastic Compliance Matrix: (Units=1/GPa)
#
#
# Indices 1 2 3 4 5 6 
#
# 1 0.011731 -0.003570 -0.004490 0.000000 0.000000 0.000000
# 2 -0.003570 0.010999 -0.002029 0.000000 0.000000 0.000000
# 3 -0.004490 -0.002029 0.010883 0.000000 0.000000 0.000000
# 4 0.000000 0.000000 0.000000 -0.184532 0.000000 0.000000
# 5 0.000000 0.000000 0.000000 0.000000 0.034685 0.000000
# 6 0.000000 0.000000 0.000000 0.000000 0.000000 0.051009
#
#
# Mechanical properties :
#
#
# Convention : Reuss Voigt Hill
#
# Bulk Modulus (GPa) = 74.42860 75.01750 74.72305
# Shear Modulus (GPa) = -123.24466 22.57206 -50.33630
#
# Velocity S-wave (km/s) = -7.95056 3.40251 -5.08106
# Velocity P-wave (km/s) = 6.79028 7.34248 1.97537
#
# Compressibility (1/GPa) = 0.01343570
#
# Stress axis : x y z
#
# Youngs Moduli (GPa) = 85.24353 90.91425 91.89047
#
# Poissons Ratio (x) = 0.32456 0.41257
# Poissons Ratio (y) = 0.30431 0.18643
# Poissons Ratio (z) = 0.38273 0.18445
#
# Static dielectric constant tensor:
#      x y z
#    x 3.485600 0.000000 0.000000 
#    y 0.000000 3.577980 0.000000 
#    z 0.000000 0.000000 3.501620 
# 
# 
# High freq. dielectric constant tensor:
#      x y z
#    x 1.753070 0.000000 0.000000 
#    y 0.000000 1.756890 0.000000 
#    z 0.000000 0.000000 1.765730 
# 
# From -- ./inp_files/3100.got.cif
#   From: 2010.03.12/outbox.cif.g09.slc.cpg/sg49_2_cif.got.tgz:3100.got - 2010.04.14 03:58:27.
