data_PCOD8203169
_publ_section_title
;
Structure prediction by ZEFSAII (Michael W. Deem and Ramdas Pophale) SiO2 
 PCOD8203169
Probable space group: P C C M
;
_chemical_formula_sum "Si O2"
_cell_formula_units_Z 40
_cell_length_a 5.039642
_cell_length_b 22.197326
_cell_length_c 16.340133
_cell_angle_alpha 90.000000
_cell_angle_beta 90.000000
_cell_angle_gamma 90.000000
_cell_volume 1827.914737
_symmetry_space_group_name_H-M "P C C M"
_symmetry_group_IT_number 49
_symmetry_cell_setting 'orthorhombic'
loop_
_space_group_symop_operation_xyz
x,y,z
-x,-y,z
x,-y,1/2-z
-x,y,1/2-z
-x,-y,-z
x,y,-z
-x,y,1/2+z
x,-y,1/2+z
loop_
_atom_site_type_symbol
_atom_site_label
_atom_site_fract_x
_atom_site_fract_y
_atom_site_fract_z
Si Si1 0.505747 0.858038 0.406251
Si Si2 0.979199 0.065841 0.593467
Si Si3 0.895997 0.332886 0.593616
Si Si4 0.260882 0.461781 0.906484
Si Si5 0.413932 0.730528 0.841117
O O1 0.460421 0.836765 0.500000
O O2 0.731071 0.907495 0.400175
O O3 0.607431 0.802090 0.352430
O O4 0.240029 0.888684 0.367651
O O5 0.884201 0.056803 0.500000
O O6 0.000000 0.000000 0.636391
O O7 0.990150 0.341614 0.500000
O O8 0.803851 0.396836 0.633703
O O9 0.640947 0.290183 0.596108
O O10 0.136655 0.303026 0.643087
O O11 0.500000 0.500000 0.863667
O O12 0.000000 0.500000 0.898700
O O13 0.346431 0.449420 0.000000
O O14 0.500000 0.713860 0.750000
#
# Coordination Sequence:
#
# PCOD8203169 Si02
#       5
#     8   8   8   8   8
#     4  10  19  33  55  80 109 148 195 240 286 351
#     4   9  17  30  52  82 110 138 182 243 299 345
#     4  11  22  39  64  90 118 156 204 249 293 356
#     4   9  17  31  55  88 118 143 182 239 291 334
#     4  12  25  40  58  85 124 163 200 247 303 355
#
# _framework density 21.882857999999999
#
# number of rings (size 3 to 8) (size 9 to 14) (size 15 to 20)
#    0.000    1.800    0.000    5.400    0.000    7.200 
#    0.000    0.000    0.000   12.600    0.000    0.000 
#    0.000    0.000    0.000    0.000    0.000    0.800 
#
# Total GULP energy -495910.354219 kJ/mol
# GULP energy per Si atom -12397.758855 kJ/mol
# Density = 2.183305 g / cm^3
# Si number density = 21.882858 Si / 1000 Ang^3
#
#
#
# Elastic Constant Matrix: (Units=GPa)
#
#
# Indices 1 2 3 4 5 6 
#
# 1 131.3848 54.5124 8.3663 0.0000 0.0000 0.0000
# 2 54.5124 156.6135 24.8236 0.0000 0.0000 0.0000
# 3 8.3663 24.8236 27.9353 0.0000 0.0000 0.0000
# 4 0.0000 0.0000 0.0000 1.9127 0.0000 0.0000
# 5 0.0000 0.0000 0.0000 0.0000 15.4450 0.0000
# 6 0.0000 0.0000 0.0000 0.0000 0.0000 48.3668
#
#
#
# Elastic Compliance Matrix: (Units=1/GPa)
#
#
# Indices 1 2 3 4 5 6 
#
# 1 0.008896 -0.003113 0.000102 0.000000 0.000000 0.000000
# 2 -0.003113 0.008521 -0.006640 0.000000 0.000000 0.000000
# 3 0.000102 -0.006640 0.041667 0.000000 0.000000 0.000000
# 4 0.000000 0.000000 0.000000 0.522812 0.000000 0.000000
# 5 0.000000 0.000000 0.000000 0.000000 0.064746 0.000000
# 6 0.000000 0.000000 0.000000 0.000000 0.000000 0.020675
#
#
# Mechanical properties :
#
#
# Convention : Reuss Voigt Hill
#
# Bulk Modulus (GPa) = 25.13667 54.59313 39.86490
# Shear Modulus (GPa) = 7.14409 28.36033 17.75221
#
# Velocity S-wave (km/s) = 1.80881 3.60391 2.85131
# Velocity P-wave (km/s) = 3.98425 6.50536 5.39416
#
# Compressibility (1/GPa) = 0.03978252
#
# Stress axis : x y z
#
# Youngs Moduli (GPa) = 112.40757 117.35798 24.00003
#
# Poissons Ratio (x) = 0.36529 -0.00244
# Poissons Ratio (y) = 0.34988 0.15935
# Poissons Ratio (z) = -0.01142 0.77921
#
# Static dielectric constant tensor:
#      x y z
#    x 3.971540 0.000000 0.000000 
#    y 0.000000 4.121840 0.000000 
#    z 0.000000 0.000000 3.451050 
# 
# 
# High freq. dielectric constant tensor:
#      x y z
#    x 1.876190 0.000000 0.000000 
#    y 0.000000 1.881270 0.000000 
#    z 0.000000 0.000000 1.799110 
# 
# From -- ./inp_files/15252.got.cif
#   From: 2010.03.12/outbox.cif.g09.slc.cpg/sg49_8_cif.got.tgz:15252.got - 2010.04.14 03:58:27.
