data_PCOD8203187
_publ_section_title
;
Structure prediction by ZEFSAII (Michael W. Deem and Ramdas Pophale) SiO2 
 PCOD8203187
Probable space group: P C C M
;
_chemical_formula_sum "Si O2"
_cell_formula_units_Z 48
_cell_length_a 9.991399
_cell_length_b 13.904199
_cell_length_c 14.313408
_cell_angle_alpha 90.000000
_cell_angle_beta 90.000000
_cell_angle_gamma 90.000000
_cell_volume 1988.452991
_symmetry_space_group_name_H-M "P C C M"
_symmetry_group_IT_number 49
_symmetry_cell_setting 'orthorhombic'
loop_
_space_group_symop_operation_xyz
x,y,z
-x,-y,z
x,-y,1/2-z
-x,y,1/2-z
-x,-y,-z
x,y,-z
-x,y,1/2+z
x,-y,1/2+z
loop_
_atom_site_type_symbol
_atom_site_label
_atom_site_fract_x
_atom_site_fract_y
_atom_site_fract_z
Si Si1 0.969544 0.205678 0.605433
Si Si2 0.478442 0.778732 0.389185
Si Si3 0.618784 0.572688 0.888532
Si Si4 0.738579 0.926091 0.888380
Si Si5 0.751512 0.857488 0.611806
Si Si6 0.917086 0.582686 0.846352
O O1 0.985122 0.169875 0.500000
O O2 0.114989 0.193246 0.653092
O O3 0.863931 0.133799 0.653478
O O4 0.918858 0.314949 0.603187
O O5 0.477252 0.775511 0.500000
O O6 0.423664 0.677761 0.351765
O O7 0.392147 0.869270 0.353209
O O8 0.628023 0.794611 0.350019
O O9 0.500000 0.500000 0.857601
O O10 0.761542 0.548513 0.839099
O O11 0.639822 0.568189 0.000000
O O12 0.740844 0.034054 0.848424
O O13 0.741771 0.927655 0.000000
O O14 0.748092 0.858971 0.500000
O O15 0.000000 0.500000 0.903063
O O16 0.000000 0.593748 0.750000
#
# Coordination Sequence:
#
# PCOD8203187 Si02
#       6
#     8   8   8   8   8   8
#     4  10  19  33  56  84 117 152 197 251 297 350
#     4   9  16  28  47  80 120 152 184 233 296 356
#     4  10  21  38  64  95 124 153 197 260 318 364
#     4   9  15  27  47  77 118 157 188 233 297 353
#     4   9  17  26  46  82 120 153 190 238 294 355
#     4  11  25  43  60  82 117 158 205 249 303 376
#
# _framework density 24.139368000000001
#
# number of rings (size 3 to 8) (size 9 to 14) (size 15 to 20)
#    0.000    2.333    1.667    1.500    2.333    5.333 
#    0.000    1.667    0.000    2.000    0.000    0.000 
#    5.000    0.000    0.000    0.000    0.000    0.000 
#
# Total GULP energy -594838.011500 kJ/mol
# GULP energy per Si atom -12392.458573 kJ/mol
# Density = 2.408443 g / cm^3
# Si number density = 24.139368 Si / 1000 Ang^3
#
#
#
# Elastic Constant Matrix: (Units=GPa)
#
#
# Indices 1 2 3 4 5 6 
#
# 1 236.9405 75.1490 -2.6153 0.0000 0.0000 0.0000
# 2 75.1490 153.5945 -15.4002 0.0000 0.0000 0.0000
# 3 -2.6153 -15.4002 27.4386 0.0000 0.0000 0.0000
# 4 0.0000 0.0000 0.0000 3.6158 0.0000 0.0000
# 5 0.0000 0.0000 0.0000 0.0000 4.8645 0.0000
# 6 0.0000 0.0000 0.0000 0.0000 0.0000 55.4225
#
#
#
# Elastic Compliance Matrix: (Units=1/GPa)
#
#
# Indices 1 2 3 4 5 6 
#
# 1 0.005019 -0.002551 -0.000954 0.000000 0.000000 0.000000
# 2 -0.002551 0.008196 0.004357 0.000000 0.000000 0.000000
# 3 -0.000954 0.004357 0.038799 0.000000 0.000000 0.000000
# 4 0.000000 0.000000 0.000000 0.276562 0.000000 0.000000
# 5 0.000000 0.000000 0.000000 0.000000 0.205569 0.000000
# 6 0.000000 0.000000 0.000000 0.000000 0.000000 0.018043
#
#
# Mechanical properties :
#
#
# Convention : Reuss Voigt Hill
#
# Bulk Modulus (GPa) = 18.61567 59.13786 38.87676
# Shear Modulus (GPa) = 8.79677 36.83658 22.81667
#
# Velocity S-wave (km/s) = 1.91104 3.91064 3.07776
# Velocity P-wave (km/s) = 3.54935 6.70392 5.36379
#
# Compressibility (1/GPa) = 0.05371819
#
# Stress axis : x y z
#
# Youngs Moduli (GPa) = 199.23782 122.01430 25.77355
#
# Poissons Ratio (x) = 0.31130 0.02458
# Poissons Ratio (y) = 0.50832 -0.11229
# Poissons Ratio (z) = 0.18999 -0.53159
#
# Static dielectric constant tensor:
#      x y z
#    x 4.750940 0.000000 0.000000 
#    y 0.000000 4.733890 0.000000 
#    z 0.000000 0.000000 3.667810 
# 
# 
# High freq. dielectric constant tensor:
#      x y z
#    x 1.975370 0.000000 0.000000 
#    y 0.000000 1.962540 0.000000 
#    z 0.000000 0.000000 1.921600 
# 
# From -- ./inp_files/16271.got.cif
#   From: 2010.03.12/outbox.cif.g09.slc.cpg/sg49_9_cif.got.tgz:16271.got - 2010.04.14 03:58:27.
