data_PCOD8203757
_publ_section_title
;
Structure prediction by ZEFSAII (Michael W. Deem and Ramdas Pophale) SiO2 
 PCOD8203757
Probable space group: P C C M
;
_chemical_formula_sum "Si O2"
_cell_formula_units_Z 64
_cell_length_a 23.493784
_cell_length_b 15.065990
_cell_length_c 9.077449
_cell_angle_alpha 90.000000
_cell_angle_beta 90.000000
_cell_angle_gamma 90.000000
_cell_volume 3213.027658
_symmetry_space_group_name_H-M "P C C M"
_symmetry_group_IT_number 49
_symmetry_cell_setting 'orthorhombic'
loop_
_space_group_symop_operation_xyz
x,y,z
-x,-y,z
x,-y,1/2-z
-x,y,1/2-z
-x,-y,-z
x,y,-z
-x,y,1/2+z
x,-y,1/2+z
loop_
_atom_site_type_symbol
_atom_site_label
_atom_site_fract_x
_atom_site_fract_y
_atom_site_fract_z
Si Si1 0.765126 0.588854 0.671066
Si Si2 0.103417 0.408607 0.674189
Si Si3 0.722606 0.908132 0.173955
Si Si4 0.557703 0.276717 0.163505
Si Si5 0.057031 0.763099 0.675624
Si Si6 0.321773 0.736215 0.175248
Si Si7 0.441181 0.923892 0.164495
Si Si8 0.853160 0.089100 0.670960
O O1 0.744085 0.500000 0.750000
O O2 0.754834 0.573316 0.500000
O O3 0.830437 0.609712 0.707672
O O4 0.728386 0.671634 0.729255
O O5 0.084116 0.500000 0.750000
O O6 0.090709 0.411837 0.500000
O O7 0.067680 0.332170 0.751854
O O8 0.684427 0.829342 0.239823
O O9 0.788357 0.887347 0.212674
O O10 0.704272 0.000000 0.250000
O O11 0.711951 0.915704 0.000000
O O12 0.500000 0.299046 0.250000
O O13 0.618247 0.316994 0.216742
O O14 0.581491 0.175460 0.167749
O O15 0.541326 0.306799 0.000000
O O16 0.050509 0.754012 0.500000
O O17 0.108049 0.828709 0.720543
O O18 0.000000 0.802080 0.750000
O O19 0.319170 0.753973 0.000000
O O20 0.500000 0.917826 0.250000
O O21 0.403612 0.000000 0.250000
O O22 0.449578 0.958488 0.000000
O O23 0.859762 0.069831 0.500000
O O24 0.874230 0.000000 0.750000
#
# Coordination Sequence:
#
# PCOD8203757 Si02
#       8
#     8   8   8   8   8   8   8   8
#     4   9  19  35  58  85 112 138 171 217 271 326
#     4  10  20  36  58  84 111 143 177 216 268 326
#     4  10  20  35  55  81 110 143 181 223 269 322
#     4   9  19  33  48  67  96 132 172 212 256 310
#     4  11  23  38  55  80 112 147 187 230 269 315
#     4  10  20  35  54  79 109 141 174 218 271 321
#     4   9  15  24  38  56  78 110 150 194 235 277
#     4   9  20  37  57  79 107 143 184 229 276 319
#
# _framework density 19.918908999999999
#
# number of rings (size 3 to 8) (size 9 to 14) (size 15 to 20)
#    0.000    2.375    0.000    2.625    0.000    4.500 
#    0.000    3.750    0.000    0.375    0.000    2.625 
#    0.000    0.000    0.000    0.000    0.000    0.000 
#
# Total GULP energy -793100.602299 kJ/mol
# GULP energy per Si atom -12392.196911 kJ/mol
# Density = 1.987357 g / cm^3
# Si number density = 19.918909 Si / 1000 Ang^3
#
#
#
# Elastic Constant Matrix: (Units=GPa)
#
#
# Indices 1 2 3 4 5 6 
#
# 1 93.6044 28.0973 41.1656 0.0000 0.0000 0.0000
# 2 28.0973 67.0035 31.7185 0.0000 0.0000 0.0000
# 3 41.1656 31.7185 92.3472 0.0000 0.0000 0.0000
# 4 0.0000 0.0000 0.0000 30.4412 0.0000 0.0000
# 5 0.0000 0.0000 0.0000 0.0000 27.9862 0.0000
# 6 0.0000 0.0000 0.0000 0.0000 0.0000 6.2879
#
#
#
# Elastic Compliance Matrix: (Units=1/GPa)
#
#
# Indices 1 2 3 4 5 6 
#
# 1 0.013931 -0.003466 -0.005020 0.000000 0.000000 0.000000
# 2 -0.003466 0.018685 -0.004873 0.000000 0.000000 0.000000
# 3 -0.005020 -0.004873 0.014740 0.000000 0.000000 0.000000
# 4 0.000000 0.000000 0.000000 0.032850 0.000000 0.000000
# 5 0.000000 0.000000 0.000000 0.000000 0.035732 0.000000
# 6 0.000000 0.000000 0.000000 0.000000 0.000000 0.159036
#
#
# Mechanical properties :
#
#
# Convention : Reuss Voigt Hill
#
# Bulk Modulus (GPa) = 48.45077 50.54642 49.49860
# Shear Modulus (GPa) = 16.20378 23.07465 19.63921
#
# Velocity S-wave (km/s) = 2.85526 3.40726 3.14340
# Velocity P-wave (km/s) = 5.93691 6.39613 6.17079
#
# Compressibility (1/GPa) = 0.02063951
#
# Stress axis : x y z
#
# Youngs Moduli (GPa) = 71.78170 53.52017 67.84272
#
# Poissons Ratio (x) = 0.18548 0.34055
# Poissons Ratio (y) = 0.24877 0.33058
# Poissons Ratio (z) = 0.36032 0.26079
#
# Static dielectric constant tensor:
#      x y z
#    x 3.737300 0.000000 0.000000 
#    y 0.000000 1.603490 0.000000 
#    z 0.000000 0.000000 3.606420 
# 
# 
# High freq. dielectric constant tensor:
#      x y z
#    x 1.787450 0.000000 0.000000 
#    y 0.000000 1.758450 0.000000 
#    z 0.000000 0.000000 1.777410 
# 
# From -- ./inp_files/6554.got.cif
#   From: 2010.03.12/outbox.cif.g09.slc.cpg/sg49_4_cif.got.tgz:6554.got - 2010.04.14 03:58:27.
