data_PCOD8203201
_publ_section_title
;
Structure prediction by ZEFSAII (Michael W. Deem and Ramdas Pophale) SiO2 
 PCOD8203201
Probable space group: P C C M
;
_chemical_formula_sum "Si O2"
_cell_formula_units_Z 64
_cell_length_a 23.272386
_cell_length_b 19.021880
_cell_length_c 8.708088
_cell_angle_alpha 90.000000
_cell_angle_beta 90.000000
_cell_angle_gamma 90.000000
_cell_volume 3854.935877
_symmetry_space_group_name_H-M "P C C M"
_symmetry_group_IT_number 49
_symmetry_cell_setting 'orthorhombic'
loop_
_space_group_symop_operation_xyz
x,y,z
-x,-y,z
x,-y,1/2-z
-x,y,1/2-z
-x,-y,-z
x,y,-z
-x,y,1/2+z
x,-y,1/2+z
loop_
_atom_site_type_symbol
_atom_site_label
_atom_site_fract_x
_atom_site_fract_y
_atom_site_fract_z
Si Si1 0.060985 0.574318 0.819055
Si Si2 0.222073 0.779812 0.822927
Si Si3 0.559962 0.788495 0.818667
Si Si4 0.838690 0.656529 0.822170
Si Si5 0.659908 0.298421 0.822135
Si Si6 0.722793 0.576531 0.180704
Si Si7 0.258755 0.928953 0.819434
Si Si8 0.389525 0.072522 0.317626
O O1 0.081527 0.500000 0.750000
O O2 0.106991 0.633699 0.778025
O O3 0.000000 0.597255 0.750000
O O4 0.055138 0.566345 0.000000
O O5 0.177137 0.736786 0.719579
O O6 0.286530 0.753053 0.796324
O O7 0.220659 0.861454 0.770720
O O8 0.204272 0.770587 0.000000
O O9 0.500000 0.761583 0.750000
O O10 0.607219 0.731040 0.774517
O O11 0.573408 0.864245 0.747945
O O12 0.556028 0.795168 0.000000
O O13 0.785677 0.606267 0.779024
O O14 0.854909 0.651621 0.000000
O O15 0.674515 0.375790 0.760237
O O16 0.642646 0.302464 0.000000
O O17 0.717167 0.500000 0.250000
O O18 0.712093 0.575371 0.000000
O O19 0.323830 0.918657 0.759998
O O20 0.231243 0.000000 0.750000
O O21 0.259312 0.936570 0.000000
O O22 0.394157 0.072769 0.500000
O O23 0.414789 0.000000 0.250000
#
# Coordination Sequence:
#
# PCOD8203201 Si02
#       8
#     8   8   8   8   8   8   8   8
#     4  11  21  34  51  71 100 139 178 214 249 289
#     4   9  17  31  49  70  98 131 163 201 248 293
#     4  12  24  37  53  72  94 124 160 200 242 293
#     4  10  20  32  48  74 104 134 171 210 246 288
#     4  10  19  35  54  72  97 125 156 198 245 294
#     4  10  20  33  51  77 103 130 162 199 244 292
#     4   9  17  29  46  69  97 129 162 197 240 293
#     4  10  19  34  51  72  97 126 160 199 241 288
#
# _framework density 16.602091999999999
#
# number of rings (size 3 to 8) (size 9 to 14) (size 15 to 20)
#    0.000    1.875    1.250    4.500    0.000    4.250 
#    0.000    1.250    0.000    0.375    0.000    2.625 
#    0.000    0.500    0.000    5.250    0.000    2.875 
#
# Total GULP energy -793790.900536 kJ/mol
# GULP energy per Si atom -12402.982821 kJ/mol
# Density = 1.656431 g / cm^3
# Si number density = 16.602092 Si / 1000 Ang^3
#
#
#
# Elastic Constant Matrix: (Units=GPa)
#
#
# Indices 1 2 3 4 5 6 
#
# 1 70.3259 42.7767 37.1358 0.0000 0.0000 0.0000
# 2 42.7767 119.4160 39.7694 0.0000 0.0000 0.0000
# 3 37.1358 39.7694 94.7285 0.0000 0.0000 0.0000
# 4 0.0000 0.0000 0.0000 32.5977 0.0000 0.0000
# 5 0.0000 0.0000 0.0000 0.0000 24.1926 0.0000
# 6 0.0000 0.0000 0.0000 0.0000 0.0000 22.6155
#
#
#
# Elastic Compliance Matrix: (Units=1/GPa)
#
#
# Indices 1 2 3 4 5 6 
#
# 1 0.020588 -0.005449 -0.005783 0.000000 0.000000 0.000000
# 2 -0.005449 0.011177 -0.002556 0.000000 0.000000 0.000000
# 3 -0.005783 -0.002556 0.013897 0.000000 0.000000 0.000000
# 4 0.000000 0.000000 0.000000 0.030677 0.000000 0.000000
# 5 0.000000 0.000000 0.000000 0.000000 0.041335 0.000000
# 6 0.000000 0.000000 0.000000 0.000000 0.000000 0.044218
#
#
# Mechanical properties :
#
#
# Convention : Reuss Voigt Hill
#
# Bulk Modulus (GPa) = 55.29501 58.20378 56.74940
# Shear Modulus (GPa) = 25.57583 26.86704 26.22143
#
# Velocity S-wave (km/s) = 3.92920 4.02716 3.97848
# Velocity P-wave (km/s) = 7.34596 7.53381 7.44048
#
# Compressibility (1/GPa) = 0.01808481
#
# Stress axis : x y z
#
# Youngs Moduli (GPa) = 48.57259 89.46690 71.95826
#
# Poissons Ratio (x) = 0.48749 0.41616
# Poissons Ratio (y) = 0.26466 0.18396
# Poissons Ratio (z) = 0.28091 0.22872
#
# Static dielectric constant tensor:
#      x y z
#    x 2.911060 0.000000 0.000000 
#    y 0.000000 3.211880 0.000000 
#    z 0.000000 0.000000 3.199960 
# 
# 
# High freq. dielectric constant tensor:
#      x y z
#    x 1.605570 0.000000 0.000000 
#    y 0.000000 1.638430 0.000000 
#    z 0.000000 0.000000 1.654020 
# 
# From -- ./inp_files/5332.got.cif
#   From: 2010.03.12/outbox.cif.g09.slc.cpg/sg49_3_cif.got.tgz:5332.got - 2010.04.14 03:58:27.
