data_PCOD8203256
_publ_section_title
;
Structure prediction by ZEFSAII (Michael W. Deem and Ramdas Pophale) SiO2 
 PCOD8203256
Probable space group: P C C M
;
_chemical_formula_sum "Si O2"
_cell_formula_units_Z 48
_cell_length_a 14.436442
_cell_length_b 20.354503
_cell_length_c 8.844888
_cell_angle_alpha 90.000000
_cell_angle_beta 90.000000
_cell_angle_gamma 90.000000
_cell_volume 2599.040284
_symmetry_space_group_name_H-M "P C C M"
_symmetry_group_IT_number 49
_symmetry_cell_setting 'orthorhombic'
loop_
_space_group_symop_operation_xyz
x,y,z
-x,-y,z
x,-y,1/2-z
-x,y,1/2-z
-x,-y,-z
x,y,-z
-x,y,1/2+z
x,-y,1/2+z
loop_
_atom_site_type_symbol
_atom_site_label
_atom_site_fract_x
_atom_site_fract_y
_atom_site_fract_z
Si Si1 0.903470 0.932371 0.823456
Si Si2 0.219580 0.192208 0.176718
Si Si3 0.786352 0.567821 0.321157
Si Si4 0.899936 0.306035 0.820996
Si Si5 0.406451 0.377000 0.323387
Si Si6 0.405039 0.224529 0.678229
O O1 0.828123 0.877095 0.790632
O O2 0.000000 0.909720 0.750000
O O3 0.867649 0.000000 0.750000
O O4 0.919847 0.943467 0.000000
O O5 0.166670 0.249012 0.264916
O O6 0.322562 0.185206 0.242118
O O7 0.221184 0.209475 0.000000
O O8 0.821362 0.500000 0.250000
O O9 0.785144 0.561658 0.500000
O O10 0.857490 0.624257 0.269824
O O11 0.683068 0.584409 0.260497
O O12 0.000000 0.296999 0.750000
O O13 0.907634 0.300936 0.000000
O O14 0.500000 0.405796 0.250000
O O15 0.416459 0.386797 0.500000
O O16 0.392685 0.301027 0.281453
O O17 0.500000 0.197748 0.750000
O O18 0.404313 0.211665 0.500000
#
# Coordination Sequence:
#
# PCOD8203256 Si02
#       6
#     8   8   8   8   8   8
#     4  10  21  36  56  84 118 153 190 228 272 328
#     4  11  22  36  58  88 116 148 188 228 276 330
#     4  10  22  39  55  75 106 141 182 227 279 335
#     4  11  23  40  58  80 109 141 184 234 281 335
#     4   9  18  34  53  77 106 138 175 220 272 328
#     4  10  19  34  56  83 115 148 184 229 278 330
#
# _framework density 18.468354999999999
#
# number of rings (size 3 to 8) (size 9 to 14) (size 15 to 20)
#    0.000    1.833    1.667    3.000    0.000    7.333 
#    0.000    3.333    0.000    0.500    0.000    3.500 
#    0.000    0.000    0.000    0.000    0.000    0.000 
#
# Total GULP energy -595364.448092 kJ/mol
# GULP energy per Si atom -12403.426002 kJ/mol
# Density = 1.842632 g / cm^3
# Si number density = 18.468355 Si / 1000 Ang^3
#
#
#
# Elastic Constant Matrix: (Units=GPa)
#
#
# Indices 1 2 3 4 5 6 
#
# 1 134.5736 57.1581 46.4191 0.0000 0.0000 0.0000
# 2 57.1581 94.6707 48.5256 0.0000 0.0000 0.0000
# 3 46.4191 48.5256 76.5682 0.0000 0.0000 0.0000
# 4 0.0000 0.0000 0.0000 20.3343 0.0000 0.0000
# 5 0.0000 0.0000 0.0000 0.0000 33.2759 0.0000
# 6 0.0000 0.0000 0.0000 0.0000 0.0000 25.0747
#
#
#
# Elastic Compliance Matrix: (Units=1/GPa)
#
#
# Indices 1 2 3 4 5 6 
#
# 1 0.010594 -0.004598 -0.003509 0.000000 0.000000 0.000000
# 2 -0.004598 0.017641 -0.008393 0.000000 0.000000 0.000000
# 3 -0.003509 -0.008393 0.020506 0.000000 0.000000 0.000000
# 4 0.000000 0.000000 0.000000 0.049178 0.000000 0.000000
# 5 0.000000 0.000000 0.000000 0.000000 0.030052 0.000000
# 6 0.000000 0.000000 0.000000 0.000000 0.000000 0.039881
#
#
# Mechanical properties :
#
#
# Convention : Reuss Voigt Hill
#
# Bulk Modulus (GPa) = 63.52069 67.77980 65.65025
# Shear Modulus (GPa) = 24.26043 25.98429 25.12236
#
# Velocity S-wave (km/s) = 3.62832 3.75502 3.69222
# Velocity P-wave (km/s) = 7.21263 7.45523 7.33493
#
# Compressibility (1/GPa) = 0.01574290
#
# Stress axis : x y z
#
# Youngs Moduli (GPa) = 94.39345 56.68738 48.76571
#
# Poissons Ratio (x) = 0.26063 0.17110
# Poissons Ratio (y) = 0.43399 0.40927
# Poissons Ratio (z) = 0.33120 0.47575
#
# Static dielectric constant tensor:
#      x y z
#    x 3.591300 0.000000 0.000000 
#    y 0.000000 3.355410 0.000000 
#    z 0.000000 0.000000 3.466360 
# 
# 
# High freq. dielectric constant tensor:
#      x y z
#    x 1.725080 0.000000 0.000000 
#    y 0.000000 1.700300 0.000000 
#    z 0.000000 0.000000 1.724830 
# 
# From -- ./inp_files/3698.got.cif
#   From: 2010.03.12/outbox.cif.g09.slc.cpg/sg49_2_cif.got.tgz:3698.got - 2010.04.14 03:58:27.
