data_PCOD8203074
_publ_section_title
;
Structure prediction by ZEFSAII (Michael W. Deem and Ramdas Pophale) SiO2 
 PCOD8203074
Probable space group: P C C M
;
_chemical_formula_sum "Si O2"
_cell_formula_units_Z 64
_cell_length_a 14.416931
_cell_length_b 12.233385
_cell_length_c 17.613605
_cell_angle_alpha 90.000000
_cell_angle_beta 90.000000
_cell_angle_gamma 90.000000
_cell_volume 3106.473952
_symmetry_space_group_name_H-M "P C C M"
_symmetry_group_IT_number 49
_symmetry_cell_setting 'orthorhombic'
loop_
_space_group_symop_operation_xyz
x,y,z
-x,-y,z
x,-y,1/2-z
-x,y,1/2-z
-x,-y,-z
x,y,-z
-x,y,1/2+z
x,-y,1/2+z
loop_
_atom_site_type_symbol
_atom_site_label
_atom_site_fract_x
_atom_site_fract_y
_atom_site_fract_z
Si Si1 0.260539 0.005220 0.338381
Si Si2 0.789000 0.376617 0.086141
Si Si3 0.077621 0.089194 0.413632
Si Si4 0.251179 0.225905 0.799943
Si Si5 0.354140 0.775698 0.846069
Si Si6 0.283841 0.391387 0.083446
Si Si7 0.916037 0.724363 0.698438
Si Si8 0.505127 0.623161 0.086301
O O1 0.281725 0.876940 0.353640
O O2 0.232268 0.000000 0.250000
O O3 0.176330 0.040891 0.390583
O O4 0.347080 0.090333 0.352520
O O5 0.726116 0.269729 0.098519
O O6 0.722387 0.479993 0.101620
O O7 0.871111 0.375200 0.149196
O O8 0.828378 0.376772 0.000000
O O9 0.084291 0.130159 0.500000
O O10 0.045121 0.190068 0.362464
O O11 0.000000 0.000000 0.402497
O O12 0.334633 0.255517 0.741811
O O13 0.225507 0.326598 0.854324
O O14 0.159169 0.209505 0.748979
O O15 0.451555 0.719066 0.867915
O O16 0.387652 0.344697 0.087638
O O17 0.241819 0.369405 0.000000
O O18 0.000000 0.678822 0.750000
O O19 0.500000 0.500000 0.121398
O O20 0.465531 0.619969 0.000000
#
# Coordination Sequence:
#
# PCOD8203074 Si02
#       8
#     8   8   8   8   8   8   8   8
#     4  10  19  37  57  83 123 170 203 247 308 366
#     4  10  19  37  61  86 120 157 202 260 315 371
#     4  11  22  33  56  93 123 157 208 260 310 373
#     4  10  22  39  58  84 122 170 211 246 315 369
#     4  10  19  32  60  94 117 157 203 249 305 381
#     4  10  22  40  61  83 120 161 200 256 315 377
#     4  11  22  37  61  89 122 164 205 270 316 376
#     4  10  19  35  60  92 123 153 192 251 321 373
#
# _framework density 20.602135000000001
#
# number of rings (size 3 to 8) (size 9 to 14) (size 15 to 20)
#    0.000    1.750    5.000    1.500    0.000    3.500 
#    0.000    3.750    0.000    5.250    0.000    0.000 
#    0.000    0.000    0.000    0.000    0.000    0.000 
#
# Total GULP energy -792988.661805 kJ/mol
# GULP energy per Si atom -12390.447841 kJ/mol
# Density = 2.055524 g / cm^3
# Si number density = 20.602135 Si / 1000 Ang^3
#
#
#
# Elastic Constant Matrix: (Units=GPa)
#
#
# Indices 1 2 3 4 5 6 
#
# 1 79.9562 39.3324 47.2275 0.0000 0.0000 0.0000
# 2 39.3324 113.7108 55.5452 0.0000 0.0000 0.0000
# 3 47.2275 55.5452 93.5821 0.0000 0.0000 0.0000
# 4 0.0000 0.0000 0.0000 32.5433 0.0000 0.0000
# 5 0.0000 0.0000 0.0000 0.0000 28.6868 0.0000
# 6 0.0000 0.0000 0.0000 0.0000 0.0000 25.2396
#
#
#
# Elastic Compliance Matrix: (Units=1/GPa)
#
#
# Indices 1 2 3 4 5 6 
#
# 1 0.018335 -0.002566 -0.007730 0.000000 0.000000 0.000000
# 2 -0.002566 0.012744 -0.006269 0.000000 0.000000 0.000000
# 3 -0.007730 -0.006269 0.018308 0.000000 0.000000 0.000000
# 4 0.000000 0.000000 0.000000 0.030728 0.000000 0.000000
# 5 0.000000 0.000000 0.000000 0.000000 0.034859 0.000000
# 6 0.000000 0.000000 0.000000 0.000000 0.000000 0.039620
#
#
# Mechanical properties :
#
#
# Convention : Reuss Voigt Hill
#
# Bulk Modulus (GPa) = 61.51367 63.49549 62.50458
# Shear Modulus (GPa) = 25.88738 26.97020 26.42879
#
# Velocity S-wave (km/s) = 3.54861 3.62207 3.58553
# Velocity P-wave (km/s) = 6.83469 6.95552 6.89537
#
# Compressibility (1/GPa) = 0.01625655
#
# Stress axis : x y z
#
# Youngs Moduli (GPa) = 54.54057 78.46671 54.62135
#
# Poissons Ratio (x) = 0.20136 0.42222
# Poissons Ratio (y) = 0.13996 0.34243
# Poissons Ratio (z) = 0.42159 0.49193
#
# Static dielectric constant tensor:
#      x y z
#    x 3.492350 0.000000 0.000000 
#    y 0.000000 3.981040 0.000000 
#    z 0.000000 0.000000 3.867550 
# 
# 
# High freq. dielectric constant tensor:
#      x y z
#    x 1.774660 0.000000 0.000000 
#    y 0.000000 1.803250 0.000000 
#    z 0.000000 0.000000 1.808970 
# 
# From -- ./inp_files/17928.got.cif
#   From: 2010.03.12/outbox.cif.g09.slc.cpg/sg49_9_cif.got.tgz:17928.got - 2010.04.14 03:58:27.
