data_PCOD8203236
_publ_section_title
;
Structure prediction by ZEFSAII (Michael W. Deem and Ramdas Pophale) SiO2 
 PCOD8203236
Probable space group: P C C M
;
_chemical_formula_sum "Si O2"
_cell_formula_units_Z 64
_cell_length_a 12.356139
_cell_length_b 15.663294
_cell_length_c 17.613332
_cell_angle_alpha 90.000000
_cell_angle_beta 90.000000
_cell_angle_gamma 90.000000
_cell_volume 3408.846193
_symmetry_space_group_name_H-M "P C C M"
_symmetry_group_IT_number 49
_symmetry_cell_setting 'orthorhombic'
loop_
_space_group_symop_operation_xyz
x,y,z
-x,-y,z
x,-y,1/2-z
-x,y,1/2-z
-x,-y,-z
x,y,-z
-x,y,1/2+z
x,-y,1/2+z
loop_
_atom_site_type_symbol
_atom_site_label
_atom_site_fract_x
_atom_site_fract_y
_atom_site_fract_z
Si Si1 0.722490 0.337468 0.852387
Si Si2 0.827462 0.161417 0.851690
Si Si3 0.775641 0.843846 0.183258
Si Si4 0.877491 0.009523 0.413652
Si Si5 0.932361 0.581527 0.411634
Si Si6 0.497988 0.597621 0.087206
Si Si7 0.971658 0.268977 0.667397
Si Si8 0.608219 0.286181 0.294793
O O1 0.757912 0.242639 0.880158
O O2 0.821121 0.404332 0.864261
O O3 0.622224 0.365617 0.903461
O O4 0.691920 0.332724 0.763181
O O5 0.789209 0.127044 0.769994
O O6 0.953084 0.186889 0.846690
O O7 0.817714 0.082249 0.909225
O O8 0.801869 0.923665 0.130394
O O9 0.849984 0.762761 0.163101
O O10 0.655768 0.803280 0.172435
O O11 0.883419 0.040923 0.500000
O O12 0.000000 0.000000 0.380273
O O13 0.902526 0.573544 0.500000
O O14 0.000000 0.500000 0.382751
O O15 0.011281 0.661517 0.398053
O O16 0.500000 0.500000 0.115237
O O17 0.584722 0.649259 0.136722
O O18 0.533928 0.604937 0.000000
O O19 0.000000 0.309179 0.750000
O O20 0.500000 0.261888 0.250000
#
# Coordination Sequence:
#
# PCOD8203236 Si02
#       8
#     8   8   8   8   8   8   8   8
#     4   9  19  37  59  81 106 149 193 231 279 338
#     4   9  18  34  55  76 105 143 188 223 263 335
#     4  10  19  34  55  78 109 146 181 229 289 327
#     4  11  22  32  49  84 119 148 186 227 272 342
#     4  10  21  35  52  79 115 149 182 222 274 343
#     4  10  21  37  59  86 114 145 188 239 292 344
#     4   9  18  32  50  75 104 141 183 221 266 328
#     4   9  20  38  60  85 110 143 198 248 285 329
#
# _framework density 18.774681000000001
#
# number of rings (size 3 to 8) (size 9 to 14) (size 15 to 20)
#    0.000    2.375    1.250    1.500    0.000    7.500 
#    0.000    5.000    0.000   12.750    0.000    8.750 
#    0.000    0.500    0.000    0.000    0.000    0.000 
#
# Total GULP energy -793425.983234 kJ/mol
# GULP energy per Si atom -12397.280988 kJ/mol
# Density = 1.873195 g / cm^3
# Si number density = 18.774681 Si / 1000 Ang^3
#
#
#
# Elastic Constant Matrix: (Units=GPa)
#
#
# Indices 1 2 3 4 5 6 
#
# 1 91.2890 55.9660 36.3384 0.0000 0.0000 0.0000
# 2 55.9660 116.5072 49.4856 0.0000 0.0000 0.0000
# 3 36.3384 49.4856 65.7551 0.0000 0.0000 0.0000
# 4 0.0000 0.0000 0.0000 29.1351 0.0000 0.0000
# 5 0.0000 0.0000 0.0000 0.0000 22.7464 0.0000
# 6 0.0000 0.0000 0.0000 0.0000 0.0000 17.7268
#
#
#
# Elastic Compliance Matrix: (Units=1/GPa)
#
#
# Indices 1 2 3 4 5 6 
#
# 1 0.016427 -0.005931 -0.004615 0.000000 0.000000 0.000000
# 2 -0.005931 0.014757 -0.007828 0.000000 0.000000 0.000000
# 3 -0.004615 -0.007828 0.023649 0.000000 0.000000 0.000000
# 4 0.000000 0.000000 0.000000 0.034323 0.000000 0.000000
# 5 0.000000 0.000000 0.000000 0.000000 0.043963 0.000000
# 6 0.000000 0.000000 0.000000 0.000000 0.000000 0.056412
#
#
# Mechanical properties :
#
#
# Convention : Reuss Voigt Hill
#
# Bulk Modulus (GPa) = 55.29116 61.90346 58.59731
# Shear Modulus (GPa) = 21.52314 22.70574 22.11444
#
# Velocity S-wave (km/s) = 3.38951 3.48139 3.43576
# Velocity P-wave (km/s) = 6.69568 7.01452 6.85695
#
# Compressibility (1/GPa) = 0.01808607
#
# Stress axis : x y z
#
# Youngs Moduli (GPa) = 60.87456 67.76368 42.28427
#
# Poissons Ratio (x) = 0.40191 0.19513
# Poissons Ratio (y) = 0.36105 0.33101
# Poissons Ratio (z) = 0.28092 0.53047
#
# Static dielectric constant tensor:
#      x y z
#    x 3.440000 0.000000 0.000000 
#    y 0.000000 3.358570 0.000000 
#    z 0.000000 0.000000 3.329720 
# 
# 
# High freq. dielectric constant tensor:
#      x y z
#    x 1.718340 0.000000 0.000000 
#    y 0.000000 1.723330 0.000000 
#    z 0.000000 0.000000 1.720850 
# 
# From -- ./inp_files/17262.got.cif
#   From: 2010.03.12/outbox.cif.g09.slc.cpg/sg49_9_cif.got.tgz:17262.got - 2010.04.14 03:58:27.
