data_PCOD8203399
_publ_section_title
;
Structure prediction by ZEFSAII (Michael W. Deem and Ramdas Pophale) SiO2 
 PCOD8203399
Probable space group: P C C M
;
_chemical_formula_sum "Si O2"
_cell_formula_units_Z 48
_cell_length_a 13.673722
_cell_length_b 11.992422
_cell_length_c 14.478867
_cell_angle_alpha 90.000000
_cell_angle_beta 90.000000
_cell_angle_gamma 90.000000
_cell_volume 2374.259734
_symmetry_space_group_name_H-M "P C C M"
_symmetry_group_IT_number 49
_symmetry_cell_setting 'orthorhombic'
loop_
_space_group_symop_operation_xyz
x,y,z
-x,-y,z
x,-y,1/2-z
-x,y,1/2-z
-x,-y,-z
x,y,-z
-x,y,1/2+z
x,-y,1/2+z
loop_
_atom_site_type_symbol
_atom_site_label
_atom_site_fract_x
_atom_site_fract_y
_atom_site_fract_z
Si Si1 0.742957 0.802869 0.162409
Si Si2 0.000000 0.705955 0.750000
Si Si3 0.520419 0.290252 0.000000
Si Si4 0.795196 0.381345 0.793872
Si Si5 0.302849 0.351025 0.000000
Si Si6 0.467532 0.118148 0.147374
Si Si7 0.054600 0.885069 0.609521
Si Si8 0.269476 0.600180 0.000000
O O1 0.739888 0.729958 0.256304
O O2 0.649520 0.880458 0.146305
O O3 0.835400 0.885711 0.151503
O O4 0.744533 0.708112 0.086390
O O5 0.093102 0.626155 0.759829
O O6 0.999522 0.782625 0.658166
O O7 0.519656 0.214320 0.090398
O O8 0.616669 0.364933 0.000000
O O9 0.420914 0.361788 0.000000
O O10 0.754822 0.500000 0.750000
O O11 0.783681 0.365039 0.904621
O O12 0.258022 0.470371 0.000000
O O13 0.500000 0.136338 0.250000
O O14 0.500000 0.000000 0.105863
O O15 0.055383 0.866028 0.500000
O O16 0.000000 0.000000 0.635329
#
# Coordination Sequence:
#
# PCOD8203399 Si02
#       8
#     8   4   4   8   4   8   8   4
#     4  10  20  40  63  88 125 165 201 255 312 364
#     4  10  24  42  60  88 130 156 200 258 314 346
#     4  10  22  38  60  92 130 154 206 261 308 356
#     4  11  23  41  63  91 123 159 204 252 305 369
#     4  10  19  37  65  86 125 165 204 250 321 363
#     4  10  21  40  61  89 121 167 206 251 307 371
#     4  10  21  40  64  92 121 162 210 250 303 371
#     4  12  23  39  63  95 119 163 210 257 299 372
#
# _framework density 20.216829000000001
#
# number of rings (size 3 to 8) (size 9 to 14) (size 15 to 20)
#    0.000    1.667    2.500    2.000    1.167    0.000 
#   15.000    0.833    0.000    0.000    0.000    0.000 
#    0.000    0.000    0.000    0.000    0.000    0.000 
#
# Total GULP energy -594879.093411 kJ/mol
# GULP energy per Si atom -12393.314446 kJ/mol
# Density = 2.017081 g / cm^3
# Si number density = 20.216829 Si / 1000 Ang^3
#
#
#
# Elastic Constant Matrix: (Units=GPa)
#
#
# Indices 1 2 3 4 5 6 
#
# 1 89.5213 49.6542 14.2906 0.0000 0.0000 0.0000
# 2 49.6542 94.3222 37.3279 0.0000 0.0000 0.0000
# 3 14.2906 37.3279 120.0300 0.0000 0.0000 0.0000
# 4 0.0000 0.0000 0.0000 47.6483 0.0000 0.0000
# 5 0.0000 0.0000 0.0000 0.0000 31.0186 0.0000
# 6 0.0000 0.0000 0.0000 0.0000 0.0000 -70.0913
#
#
#
# Elastic Compliance Matrix: (Units=1/GPa)
#
#
# Indices 1 2 3 4 5 6 
#
# 1 0.015846 -0.008661 0.000807 0.000000 0.000000 0.000000
# 2 -0.008661 0.016824 -0.004201 0.000000 0.000000 0.000000
# 3 0.000807 -0.004201 0.009542 0.000000 0.000000 0.000000
# 4 0.000000 0.000000 0.000000 0.020987 0.000000 0.000000
# 5 0.000000 0.000000 0.000000 0.000000 0.032239 0.000000
# 6 0.000000 0.000000 0.000000 0.000000 0.000000 -0.014267
#
#
# Mechanical properties :
#
#
# Convention : Reuss Voigt Hill
#
# Bulk Modulus (GPa) = 55.24488 56.26879 55.75684
# Shear Modulus (GPa) = 44.91818 15.22183 30.07001
#
# Velocity S-wave (km/s) = 4.71873 2.74693 3.86083
# Velocity P-wave (km/s) = 7.55474 6.16068 6.89304
#
# Compressibility (1/GPa) = 0.01810123
#
# Stress axis : x y z
#
# Youngs Moduli (GPa) = 63.10882 59.43939 104.80422
#
# Poissons Ratio (x) = 0.51480 -0.08457
# Poissons Ratio (y) = 0.54658 0.44027
# Poissons Ratio (z) = -0.05092 0.24970
#
# Static dielectric constant tensor:
#      x y z
#    x 3.091770 0.000000 0.000000 
#    y 0.000000 3.644300 0.000000 
#    z 0.000000 0.000000 3.816130 
# 
# 
# High freq. dielectric constant tensor:
#      x y z
#    x 1.786250 0.000000 0.000000 
#    y 0.000000 1.787880 0.000000 
#    z 0.000000 0.000000 1.804720 
# 
# From -- ./inp_files/13536.got.cif
#   From: 2010.03.12/outbox.cif.g09.slc.cpg/sg49_7_cif.got.tgz:13536.got - 2010.04.14 03:58:27.
