data_PCOD8203268
_publ_section_title
;
Structure prediction by ZEFSAII (Michael W. Deem and Ramdas Pophale) SiO2 
 PCOD8203268
Probable space group: P C C M
;
_chemical_formula_sum "Si O2"
_cell_formula_units_Z 64
_cell_length_a 9.186116
_cell_length_b 12.728381
_cell_length_c 28.764851
_cell_angle_alpha 90.000000
_cell_angle_beta 90.000000
_cell_angle_gamma 90.000000
_cell_volume 3363.312494
_symmetry_space_group_name_H-M "P C C M"
_symmetry_group_IT_number 49
_symmetry_cell_setting 'orthorhombic'
loop_
_space_group_symop_operation_xyz
x,y,z
-x,-y,z
x,-y,1/2-z
-x,y,1/2-z
-x,-y,-z
x,y,-z
-x,y,1/2+z
x,-y,1/2+z
loop_
_atom_site_type_symbol
_atom_site_label
_atom_site_fract_x
_atom_site_fract_y
_atom_site_fract_z
Si Si1 0.175372 0.608878 0.866887
Si Si2 0.673774 0.987803 0.349684
Si Si3 0.842883 0.373844 0.369179
Si Si4 0.329395 0.727115 0.448572
Si Si5 0.161636 0.815874 0.694630
Si Si6 0.334002 0.030771 0.949176
Si Si7 0.599057 0.598113 0.552402
Si Si8 0.175705 0.799319 0.802265
O O1 0.192508 0.489315 0.848808
O O2 0.270241 0.623080 0.912959
O O3 0.217493 0.686954 0.824844
O O4 0.011842 0.635525 0.881836
O O5 0.713833 0.883193 0.322887
O O6 0.500000 0.000000 0.348638
O O7 0.750464 0.085569 0.324778
O O8 0.730353 0.973092 0.403471
O O9 0.758066 0.353170 0.416565
O O10 0.790287 0.289571 0.331556
O O11 0.268093 0.706535 0.500000
O O12 0.312563 0.847979 0.434989
O O13 0.500658 0.702261 0.446383
O O14 0.203242 0.794125 0.747630
O O15 0.989590 0.835516 0.687692
O O16 0.500000 0.000000 0.955282
O O17 0.258266 0.006602 0.000000
O O18 0.500000 0.500000 0.568803
O O19 0.658926 0.577635 0.500000
#
# Coordination Sequence:
#
# PCOD8203268 Si02
#       8
#     8   8   8   8   8   8   8   8
#     4  10  22  36  56  83 117 146 188 238 284 332
#     4  11  22  36  61  89 115 145 186 236 285 332
#     4  10  20  37  57  84 111 149 190 237 286 330
#     4  10  19  34  57  81 111 150 192 228 275 340
#     4  10  21  41  61  80 111 149 194 235 282 342
#     4   9  19  34  54  83 113 147 186 224 273 337
#     4  10  20  34  54  81 111 149 188 225 271 336
#     4  10  23  39  59  84 111 151 189 233 288 342
#
# _framework density 19.028859000000001
#
# number of rings (size 3 to 8) (size 9 to 14) (size 15 to 20)
#    0.000    2.000    2.500    0.750    3.500    3.000 
#    0.000    3.750    0.000    2.250    0.000    0.000 
#    0.000    0.000    0.000    0.000    0.000    0.000 
#
# Total GULP energy -793261.158725 kJ/mol
# GULP energy per Si atom -12394.705605 kJ/mol
# Density = 1.898555 g / cm^3
# Si number density = 19.028859 Si / 1000 Ang^3
#
#
#
# Elastic Constant Matrix: (Units=GPa)
#
#
# Indices 1 2 3 4 5 6 
#
# 1 53.9776 37.9261 47.8991 0.0000 0.0000 0.0000
# 2 37.9261 106.3167 59.4328 0.0000 0.0000 0.0000
# 3 47.8991 59.4328 142.0253 0.0000 0.0000 0.0000
# 4 0.0000 0.0000 0.0000 31.6147 0.0000 0.0000
# 5 0.0000 0.0000 0.0000 0.0000 35.1110 0.0000
# 6 0.0000 0.0000 0.0000 0.0000 0.0000 23.4500
#
#
#
# Elastic Compliance Matrix: (Units=1/GPa)
#
#
# Indices 1 2 3 4 5 6 
#
# 1 0.029501 -0.006477 -0.007239 0.000000 0.000000 0.000000
# 2 -0.006477 0.013700 -0.003549 0.000000 0.000000 0.000000
# 3 -0.007239 -0.003549 0.010967 0.000000 0.000000 0.000000
# 4 0.000000 0.000000 0.000000 0.031631 0.000000 0.000000
# 5 0.000000 0.000000 0.000000 0.000000 0.028481 0.000000
# 6 0.000000 0.000000 0.000000 0.000000 0.000000 0.042644
#
#
# Mechanical properties :
#
#
# Convention : Reuss Voigt Hill
#
# Bulk Modulus (GPa) = 50.91878 65.87064 58.39471
# Shear Modulus (GPa) = 25.25252 28.50591 26.87921
#
# Velocity S-wave (km/s) = 3.64684 3.87465 3.76247
# Velocity P-wave (km/s) = 6.67453 7.39652 7.04478
#
# Compressibility (1/GPa) = 0.01963912
#
# Stress axis : x y z
#
# Youngs Moduli (GPa) = 33.89720 72.99191 91.17964
#
# Poissons Ratio (x) = 0.47278 0.66005
# Poissons Ratio (y) = 0.21956 0.32356
# Poissons Ratio (z) = 0.24538 0.25902
#
# Static dielectric constant tensor:
#      x y z
#    x 3.295620 0.000000 0.000000 
#    y 0.000000 3.744080 0.000000 
#    z 0.000000 0.000000 3.713290 
# 
# 
# High freq. dielectric constant tensor:
#      x y z
#    x 1.715620 0.000000 0.000000 
#    y 0.000000 1.750010 0.000000 
#    z 0.000000 0.000000 1.749170 
# 
# From -- ./inp_files/26461.got.cif
#   From: 2010.03.12/outbox.cif.g09.slc.cpg/sg49_14_cif.got.tgz:26461.got - 2010.04.14 03:58:27.
