data_PCOD8203466
_publ_section_title
;
Structure prediction by ZEFSAII (Michael W. Deem and Ramdas Pophale) SiO2 
 PCOD8203466
Probable space group: P C C M
;
_chemical_formula_sum "Si O2"
_cell_formula_units_Z 58
_cell_length_a 22.509876
_cell_length_b 17.869072
_cell_length_c 9.032904
_cell_angle_alpha 90.000000
_cell_angle_beta 90.000000
_cell_angle_gamma 90.000000
_cell_volume 3633.310350
_symmetry_space_group_name_H-M "P C C M"
_symmetry_group_IT_number 49
_symmetry_cell_setting 'orthorhombic'
loop_
_space_group_symop_operation_xyz
x,y,z
-x,-y,z
x,-y,1/2-z
-x,y,1/2-z
-x,-y,-z
x,y,-z
-x,y,1/2+z
x,-y,1/2+z
loop_
_atom_site_type_symbol
_atom_site_label
_atom_site_fract_x
_atom_site_fract_y
_atom_site_fract_z
Si Si1 0.500000 0.500000 0.750000
Si Si2 0.445457 0.355629 0.662490
Si Si3 0.167013 0.921996 0.670326
Si Si4 0.786041 0.419408 0.322586
Si Si5 0.314961 0.323748 0.324187
Si Si6 0.060047 0.809740 0.673362
Si Si7 0.240447 0.189085 0.662875
Si Si8 0.134366 0.693599 0.167361
O O1 0.457057 0.445684 0.653895
O O2 0.500000 0.316448 0.750000
O O3 0.445495 0.320703 0.500000
O O4 0.381690 0.338098 0.734837
O O5 0.176421 0.938579 0.500000
O O6 0.108788 0.873305 0.702813
O O7 0.225979 0.878283 0.725495
O O8 0.158656 0.000000 0.750000
O O9 0.785145 0.500000 0.250000
O O10 0.788054 0.423681 0.500000
O O11 0.726684 0.377419 0.271112
O O12 0.844925 0.377884 0.262137
O O13 0.307607 0.341659 0.500000
O O14 0.299018 0.236453 0.291567
O O15 0.050174 0.796033 0.500000
O O16 0.078850 0.731653 0.749574
O O17 0.000000 0.838593 0.750000
O O18 0.248392 0.153582 0.500000
O O19 0.187670 0.248321 0.661190
O O20 0.116157 0.669924 0.000000
#
# Coordination Sequence:
#
# PCOD8203466 Si02
#       8
#     2   8   8   8   8   8   8   8
#     4   8  18  28  42  56  86 124 160 196 232 276
#     4   9  18  29  42  60  87 121 160 195 233 275
#     4  10  20  32  48  70  98 125 153 184 223 269
#     4  11  21  31  45  67  91 117 150 193 240 285
#     4   9  18  32  46  65  91 122 158 197 235 279
#     4  10  20  33  50  72  95 124 158 190 219 263
#     4   8  15  29  48  65  88 119 151 186 229 271
#     4   9  17  32  50  67  89 118 150 189 233 277
#
# _framework density 15.963403
#
# number of rings (size 3 to 8) (size 9 to 14) (size 15 to 20)
#    0.414    2.207    0.000    3.517    0.966    5.793 
#    0.000    1.379    0.000    0.414    0.000    2.897 
#    0.000    0.552    0.000    6.345    0.000    1.931 
#
# Total GULP energy -718797.894324 kJ/mol
# GULP energy per Si atom -12393.067144 kJ/mol
# Density = 1.592707 g / cm^3
# Si number density = 15.963403 Si / 1000 Ang^3
#
#
#
# Elastic Constant Matrix: (Units=GPa)
#
#
# Indices 1 2 3 4 5 6 
#
# 1 79.6938 51.4796 44.5251 0.0000 0.0000 0.0000
# 2 51.4796 73.8834 61.8609 0.0000 0.0000 0.0000
# 3 44.5251 61.8609 120.1478 0.0000 0.0000 0.0000
# 4 0.0000 0.0000 0.0000 25.7529 0.0000 0.0000
# 5 0.0000 0.0000 0.0000 0.0000 22.8828 0.0000
# 6 0.0000 0.0000 0.0000 0.0000 0.0000 14.2501
#
#
#
# Elastic Compliance Matrix: (Units=1/GPa)
#
#
# Indices 1 2 3 4 5 6 
#
# 1 0.022834 -0.015512 -0.000475 0.000000 0.000000 0.000000
# 2 -0.015512 0.034329 -0.011926 0.000000 0.000000 0.000000
# 3 -0.000475 -0.011926 0.014640 0.000000 0.000000 0.000000
# 4 0.000000 0.000000 0.000000 0.038831 0.000000 0.000000
# 5 0.000000 0.000000 0.000000 0.000000 0.043701 0.000000
# 6 0.000000 0.000000 0.000000 0.000000 0.000000 0.070175
#
#
# Mechanical properties :
#
#
# Convention : Reuss Voigt Hill
#
# Bulk Modulus (GPa) = 62.59726 65.49514 64.04620
# Shear Modulus (GPa) = 17.50324 20.30112 18.90218
#
# Velocity S-wave (km/s) = 3.31488 3.57000 3.44480
# Velocity P-wave (km/s) = 7.34502 7.62303 7.48532
#
# Compressibility (1/GPa) = 0.01597514
#
# Stress axis : x y z
#
# Youngs Moduli (GPa) = 43.79483 29.13001 68.30699
#
# Poissons Ratio (x) = 0.45186 0.03246
# Poissons Ratio (y) = 0.67934 0.81466
# Poissons Ratio (z) = 0.02081 0.34742
#
# Static dielectric constant tensor:
#      x y z
#    x 3.058090 0.000000 0.000000 
#    y 0.000000 2.922690 0.000000 
#    z 0.000000 0.000000 3.133340 
# 
# 
# High freq. dielectric constant tensor:
#      x y z
#    x 1.594670 0.000000 0.000000 
#    y 0.000000 1.587290 0.000000 
#    z 0.000000 0.000000 1.623770 
# 
# From -- ./inp_files/6428.got.cif
#   From: 2010.03.12/outbox.cif.g09.slc.cpg/sg49_4_cif.got.tgz:6428.got - 2010.04.14 03:58:27.
