data_PCOD8203545
_publ_section_title
;
Structure prediction by ZEFSAII (Michael W. Deem and Ramdas Pophale) SiO2 
 PCOD8203545
Probable space group: P C C M
;
_chemical_formula_sum "Si O2"
_cell_formula_units_Z 64
_cell_length_a 28.803836
_cell_length_b 13.970260
_cell_length_c 8.747959
_cell_angle_alpha 90.000000
_cell_angle_beta 90.000000
_cell_angle_gamma 90.000000
_cell_volume 3520.153139
_symmetry_space_group_name_H-M "P C C M"
_symmetry_group_IT_number 49
_symmetry_cell_setting 'orthorhombic'
loop_
_space_group_symop_operation_xyz
x,y,z
-x,-y,z
x,-y,1/2-z
-x,y,1/2-z
-x,-y,-z
x,y,-z
-x,y,1/2+z
x,-y,1/2+z
loop_
_atom_site_type_symbol
_atom_site_label
_atom_site_fract_x
_atom_site_fract_y
_atom_site_fract_z
Si Si1 0.950366 0.087445 0.172615
Si Si2 0.547610 0.220224 0.820705
Si Si3 0.638653 0.105045 0.819147
Si Si4 0.136530 0.603269 0.319079
Si Si5 0.771021 0.605535 0.318588
Si Si6 0.050621 0.298184 0.323434
Si Si7 0.312334 0.281345 0.178832
Si Si8 0.594954 0.604033 0.822161
O O1 0.927657 0.191400 0.190739
O O2 0.000000 0.094169 0.250000
O O3 0.921126 0.000000 0.250000
O O4 0.957522 0.058306 0.000000
O O5 0.500000 0.179970 0.750000
O O6 0.587487 0.144092 0.777560
O O7 0.557733 0.324859 0.752369
O O8 0.542325 0.231371 0.000000
O O9 0.676112 0.175996 0.743066
O O10 0.645114 0.000000 0.750000
O O11 0.646875 0.102145 0.000000
O O12 0.141749 0.500000 0.250000
O O13 0.139649 0.604218 0.500000
O O14 0.181600 0.655463 0.247092
O O15 0.086424 0.639323 0.269361
O O16 0.761493 0.500000 0.250000
O O17 0.774171 0.596130 0.500000
O O18 0.730810 0.678045 0.272142
O O19 0.047387 0.330088 0.500000
O O20 0.000000 0.309215 0.250000
O O21 0.354031 0.354848 0.209633
O O22 0.300535 0.273574 0.000000
O O23 0.590297 0.500000 0.750000
O O24 0.583910 0.596662 0.000000
#
# Coordination Sequence:
#
# PCOD8203545 Si02
#       8
#     8   8   8   8   8   8   8   8
#     4   9  16  26  44  68  96 125 159 202 247 294
#     4  10  21  36  53  74 103 138 180 224 267 314
#     4  10  21  37  57  81 108 140 177 221 268 317
#     4  11  22  37  55  76 104 139 177 218 261 309
#     4  11  21  35  56  82 111 141 173 211 257 312
#     4  10  20  34  51  75 104 138 178 220 264 311
#     4  10  20  35  56  82 109 137 171 214 262 315
#     4  10  20  33  51  75 105 138 173 214 261 313
#
# _framework density 18.181027
#
# number of rings (size 3 to 8) (size 9 to 14) (size 15 to 20)
#    0.000    1.875    0.000    6.000    0.000    6.250 
#    0.000    3.750    0.000    0.750    0.000    3.500 
#    0.000    0.000    0.000    0.000    0.000    0.000 
#
# Total GULP energy -793355.273952 kJ/mol
# GULP energy per Si atom -12396.176156 kJ/mol
# Density = 1.813965 g / cm^3
# Si number density = 18.181027 Si / 1000 Ang^3
#
#
#
# Elastic Constant Matrix: (Units=GPa)
#
#
# Indices 1 2 3 4 5 6 
#
# 1 103.9053 36.4714 53.2815 0.0000 0.0000 0.0000
# 2 36.4714 75.6337 38.5750 0.0000 0.0000 0.0000
# 3 53.2815 38.5750 144.2623 0.0000 0.0000 0.0000
# 4 0.0000 0.0000 0.0000 33.1466 0.0000 0.0000
# 5 0.0000 0.0000 0.0000 0.0000 42.9896 0.0000
# 6 0.0000 0.0000 0.0000 0.0000 0.0000 15.8805
#
#
#
# Elastic Compliance Matrix: (Units=1/GPa)
#
#
# Indices 1 2 3 4 5 6 
#
# 1 0.013044 -0.004438 -0.003631 0.000000 0.000000 0.000000
# 2 -0.004438 0.016819 -0.002858 0.000000 0.000000 0.000000
# 3 -0.003631 -0.002858 0.009037 0.000000 0.000000 0.000000
# 4 0.000000 0.000000 0.000000 0.030169 0.000000 0.000000
# 5 0.000000 0.000000 0.000000 0.000000 0.023261 0.000000
# 6 0.000000 0.000000 0.000000 0.000000 0.000000 0.062970
#
#
# Mechanical properties :
#
#
# Convention : Reuss Voigt Hill
#
# Bulk Modulus (GPa) = 58.66478 64.49525 61.58001
# Shear Modulus (GPa) = 27.34668 31.43490 29.39079
#
# Velocity S-wave (km/s) = 3.88252 4.16263 4.02501
# Velocity P-wave (km/s) = 7.24125 7.65861 7.45285
#
# Compressibility (1/GPa) = 0.01704600
#
# Stress axis : x y z
#
# Youngs Moduli (GPa) = 76.66479 59.45483 110.65452
#
# Poissons Ratio (x) = 0.26386 0.40177
# Poissons Ratio (y) = 0.34024 0.31629
# Poissons Ratio (z) = 0.27836 0.16994
#
# Static dielectric constant tensor:
#      x y z
#    x 3.231020 0.000000 0.000000 
#    y 0.000000 3.836340 0.000000 
#    z 0.000000 0.000000 3.572630 
# 
# 
# High freq. dielectric constant tensor:
#      x y z
#    x 1.687640 0.000000 0.000000 
#    y 0.000000 1.699740 0.000000 
#    z 0.000000 0.000000 1.728180 
# 
# From -- ./inp_files/7015.got.cif
#   From: 2010.03.12/outbox.cif.g09.slc.cpg/sg49_4_cif.got.tgz:7015.got - 2010.04.14 03:58:27.
