data_PCOD8203576
_publ_section_title
;
Structure prediction by ZEFSAII (Michael W. Deem and Ramdas Pophale) SiO2 
 PCOD8203576
Probable space group: P C C M
;
_chemical_formula_sum "Si O2"
_cell_formula_units_Z 64
_cell_length_a 11.731586
_cell_length_b 10.323095
_cell_length_c 27.733990
_cell_angle_alpha 90.000000
_cell_angle_beta 90.000000
_cell_angle_gamma 90.000000
_cell_volume 3358.760269
_symmetry_space_group_name_H-M "P C C M"
_symmetry_group_IT_number 49
_symmetry_cell_setting 'orthorhombic'
loop_
_space_group_symop_operation_xyz
x,y,z
-x,-y,z
x,-y,1/2-z
-x,y,1/2-z
-x,-y,-z
x,y,-z
-x,y,1/2+z
x,-y,1/2+z
loop_
_atom_site_type_symbol
_atom_site_label
_atom_site_fract_x
_atom_site_fract_y
_atom_site_fract_z
Si Si1 0.876089 0.535444 0.444248
Si Si2 0.563663 0.690209 0.614069
Si Si3 0.119718 0.145206 0.732216
Si Si4 0.678215 0.575049 0.114718
Si Si5 0.759543 0.802205 0.443989
Si Si6 0.489097 0.150271 0.197393
Si Si7 0.871773 0.024859 0.133013
Si Si8 0.243260 0.217852 0.819059
O O1 0.883476 0.504774 0.500000
O O2 0.771233 0.445441 0.427036
O O3 0.849145 0.686340 0.434100
O O4 0.000000 0.500000 0.420633
O O5 0.431934 0.661830 0.598192
O O6 0.627435 0.561138 0.632115
O O7 0.631425 0.755815 0.569711
O O8 0.576763 0.785622 0.659981
O O9 0.135211 0.138313 0.674453
O O10 0.213204 0.228591 0.761758
O O11 0.000000 0.204508 0.750000
O O12 0.131395 0.000000 0.750000
O O13 0.753370 0.639382 0.157503
O O14 0.758556 0.843101 0.500000
O O15 0.797366 0.926104 0.412189
O O16 0.500000 0.217278 0.250000
O O17 0.367888 0.165420 0.173927
O O18 0.500000 0.000000 0.203326
O O19 0.834945 0.883955 0.152279
O O20 0.000000 0.000000 0.115561
#
# Coordination Sequence:
#
# PCOD8203576 Si02
#       8
#     8   8   8   8   8   8   8   8
#     4   9  19  35  57  82 109 144 195 245 285 344
#     4   9  19  39  57  81 115 149 193 241 290 342
#     4   9  16  31  50  78 107 140 184 220 277 341
#     4   9  19  36  59  80 112 150 192 233 291 346
#     4  10  22  37  57  83 113 155 196 239 298 352
#     4  10  21  32  55  87 112 147 190 238 285 344
#     4  11  21  34  57  82 114 154 187 244 293 343
#     4  10  20  33  53  83 115 143 191 235 278 354
#
# _framework density 19.054648
#
# number of rings (size 3 to 8) (size 9 to 14) (size 15 to 20)
#    0.000    2.375    2.500    0.750    8.750    0.750 
#    0.000    8.125    0.000    7.125    0.000    2.625 
#    0.000    0.000    0.000    0.000    0.000    0.000 
#
# Total GULP energy -792836.637868 kJ/mol
# GULP energy per Si atom -12388.072467 kJ/mol
# Density = 1.901128 g / cm^3
# Si number density = 19.054648 Si / 1000 Ang^3
#
#
#
# Elastic Constant Matrix: (Units=GPa)
#
#
# Indices 1 2 3 4 5 6 
#
# 1 97.1374 30.6852 39.3719 0.0000 0.0000 0.0000
# 2 30.6852 52.7144 35.1621 0.0000 0.0000 0.0000
# 3 39.3719 35.1621 104.0378 0.0000 0.0000 0.0000
# 4 0.0000 0.0000 0.0000 26.1710 0.0000 0.0000
# 5 0.0000 0.0000 0.0000 0.0000 32.3396 0.0000
# 6 0.0000 0.0000 0.0000 0.0000 0.0000 22.5935
#
#
#
# Elastic Compliance Matrix: (Units=1/GPa)
#
#
# Indices 1 2 3 4 5 6 
#
# 1 0.013362 -0.005687 -0.003134 0.000000 0.000000 0.000000
# 2 -0.005687 0.026912 -0.006943 0.000000 0.000000 0.000000
# 3 -0.003134 -0.006943 0.013145 0.000000 0.000000 0.000000
# 4 0.000000 0.000000 0.000000 0.038210 0.000000 0.000000
# 5 0.000000 0.000000 0.000000 0.000000 0.030922 0.000000
# 6 0.000000 0.000000 0.000000 0.000000 0.000000 0.044261
#
#
# Mechanical properties :
#
#
# Convention : Reuss Voigt Hill
#
# Bulk Modulus (GPa) = 45.68579 51.59200 48.63890
# Shear Modulus (GPa) = 24.31468 26.13219 25.22344
#
# Velocity S-wave (km/s) = 3.57606 3.70731 3.64227
# Velocity P-wave (km/s) = 6.40930 6.74241 6.57797
#
# Compressibility (1/GPa) = 0.02188864
#
# Stress axis : x y z
#
# Youngs Moduli (GPa) = 74.84082 37.15814 76.07586
#
# Poissons Ratio (x) = 0.21132 0.23846
# Poissons Ratio (y) = 0.42562 0.52822
# Poissons Ratio (z) = 0.23459 0.25800
#
# Static dielectric constant tensor:
#      x y z
#    x 3.821080 0.000000 0.000000 
#    y 0.000000 3.192140 0.000000 
#    z 0.000000 0.000000 3.680750 
# 
# 
# High freq. dielectric constant tensor:
#      x y z
#    x 1.755570 0.000000 0.000000 
#    y 0.000000 1.713670 0.000000 
#    z 0.000000 0.000000 1.726060 
# 
# From -- ./inp_files/23023.got.cif
#   From: 2010.03.12/outbox.cif.g09.slc.cpg/sg49_12_cif.got.tgz:23023.got - 2010.04.14 03:58:27.
