data_PCOD8203778
_publ_section_title
;
Structure prediction by ZEFSAII (Michael W. Deem and Ramdas Pophale) SiO2 
 PCOD8203778
Probable space group: P C C M
;
_chemical_formula_sum "Si O2"
_cell_formula_units_Z 48
_cell_length_a 9.153993
_cell_length_b 30.717312
_cell_length_c 8.644364
_cell_angle_alpha 90.000000
_cell_angle_beta 90.000000
_cell_angle_gamma 90.000000
_cell_volume 2430.674646
_symmetry_space_group_name_H-M "P C C M"
_symmetry_group_IT_number 49
_symmetry_cell_setting 'orthorhombic'
loop_
_space_group_symop_operation_xyz
x,y,z
-x,-y,z
x,-y,1/2-z
-x,y,1/2-z
-x,-y,-z
x,y,-z
-x,y,1/2+z
x,-y,1/2+z
loop_
_atom_site_type_symbol
_atom_site_label
_atom_site_fract_x
_atom_site_fract_y
_atom_site_fract_z
Si Si1 0.341579 0.545550 0.683384
Si Si2 0.339387 0.289020 0.183452
Si Si3 0.154237 0.952682 0.183807
Si Si4 0.658277 0.877590 0.816460
Si Si5 0.839930 0.206276 0.317731
Si Si6 0.159623 0.628134 0.317308
O O1 0.281874 0.500000 0.750000
O O2 0.500000 0.556659 0.750000
O O3 0.353180 0.542501 0.500000
O O4 0.231288 0.583006 0.738719
O O5 0.500000 0.288141 0.250000
O O6 0.252099 0.247095 0.246399
O O7 0.257525 0.332069 0.244676
O O8 0.349324 0.288598 0.000000
O O9 0.282861 0.921263 0.237829
O O10 0.000000 0.935454 0.250000
O O11 0.190700 0.000000 0.250000
O O12 0.145160 0.954681 0.000000
O O13 0.500000 0.867207 0.750000
O O14 0.761617 0.837972 0.765388
O O15 0.651951 0.883516 0.000000
O O16 0.852224 0.209067 0.500000
O O17 0.000000 0.207640 0.250000
O O18 0.148887 0.629781 0.500000
O O19 0.000000 0.632635 0.250000
#
# Coordination Sequence:
#
# PCOD8203778 Si02
#       6
#     8   8   8   8   8   8
#     4  10  20  35  55  80 107 141 182 227 275 330
#     4  10  21  38  58  84 113 145 184 228 275 329
#     4  11  22  39  62  88 117 152 192 237 285 338
#     4  11  23  39  58  85 117 152 192 235 282 336
#     4  10  22  38  59  85 115 148 187 230 277 331
#     4  10  22  37  55  80 111 144 184 227 274 328
#
# _framework density 19.747603999999999
#
# number of rings (size 3 to 8) (size 9 to 14) (size 15 to 20)
#    0.000    1.667    0.000    5.500    0.000    6.000 
#    0.000    3.333    0.000    0.000    0.000    0.000 
#    0.000    0.000    0.000    0.000    0.000    0.000 
#
# Total GULP energy -595423.070850 kJ/mol
# GULP energy per Si atom -12404.647309 kJ/mol
# Density = 1.970266 g / cm^3
# Si number density = 19.747604 Si / 1000 Ang^3
#
#
#
# Elastic Constant Matrix: (Units=GPa)
#
#
# Indices 1 2 3 4 5 6 
#
# 1 174.3487 94.1265 42.2281 0.0000 0.0000 0.0000
# 2 94.1265 149.4732 47.3875 0.0000 0.0000 0.0000
# 3 42.2281 47.3875 75.4531 0.0000 0.0000 0.0000
# 4 0.0000 0.0000 0.0000 25.0556 0.0000 0.0000
# 5 0.0000 0.0000 0.0000 0.0000 39.3495 0.0000
# 6 0.0000 0.0000 0.0000 0.0000 0.0000 51.1024
#
#
#
# Elastic Compliance Matrix: (Units=1/GPa)
#
#
# Indices 1 2 3 4 5 6 
#
# 1 0.008886 -0.005018 -0.001821 0.000000 0.000000 0.000000
# 2 -0.005018 0.011187 -0.004218 0.000000 0.000000 0.000000
# 3 -0.001821 -0.004218 0.016921 0.000000 0.000000 0.000000
# 4 0.000000 0.000000 0.000000 0.039911 0.000000 0.000000
# 5 0.000000 0.000000 0.000000 0.000000 0.025413 0.000000
# 6 0.000000 0.000000 0.000000 0.000000 0.000000 0.019569
#
#
# Mechanical properties :
#
#
# Convention : Reuss Voigt Hill
#
# Bulk Modulus (GPa) = 67.20337 85.19549 76.19943
# Shear Modulus (GPa) = 33.56545 37.47037 35.51791
#
# Velocity S-wave (km/s) = 4.12724 4.36071 4.24558
# Velocity P-wave (km/s) = 7.53772 8.28193 7.91857
#
# Compressibility (1/GPa) = 0.01488021
#
# Stress axis : x y z
#
# Youngs Moduli (GPa) = 112.53603 89.38650 59.09646
#
# Poissons Ratio (x) = 0.44856 0.10764
# Poissons Ratio (y) = 0.56474 0.24924
# Poissons Ratio (z) = 0.20498 0.37700
#
# Static dielectric constant tensor:
#      x y z
#    x 3.571930 0.000000 0.000000 
#    y 0.000000 3.986070 0.000000 
#    z 0.000000 0.000000 3.550790 
# 
# 
# High freq. dielectric constant tensor:
#      x y z
#    x 1.777230 0.000000 0.000000 
#    y 0.000000 1.788930 0.000000 
#    z 0.000000 0.000000 1.769510 
# 
# From -- ./inp_files/2043.got.cif
#   From: 2010.03.12/outbox.cif.g09.slc.cpg/sg49_2_cif.got.tgz:2043.got - 2010.04.14 03:58:27.
