data_PCOD8203884
_publ_section_title
;
Structure prediction by ZEFSAII (Michael W. Deem and Ramdas Pophale) SiO2 
 PCOD8203884
Probable space group: P C C M
;
_chemical_formula_sum "Si O2"
_cell_formula_units_Z 48
_cell_length_a 30.458154
_cell_length_b 9.457100
_cell_length_c 8.629118
_cell_angle_alpha 90.000000
_cell_angle_beta 90.000000
_cell_angle_gamma 90.000000
_cell_volume 2485.581268
_symmetry_space_group_name_H-M "P C C M"
_symmetry_group_IT_number 49
_symmetry_cell_setting 'orthorhombic'
loop_
_space_group_symop_operation_xyz
x,y,z
-x,-y,z
x,-y,1/2-z
-x,y,1/2-z
-x,-y,-z
x,y,-z
-x,y,1/2+z
x,-y,1/2+z
loop_
_atom_site_type_symbol
_atom_site_label
_atom_site_fract_x
_atom_site_fract_y
_atom_site_fract_z
Si Si1 0.879683 0.154275 0.817877
Si Si2 0.626385 0.155141 0.682987
Si Si3 0.201923 0.349588 0.681417
Si Si4 0.546331 0.347139 0.316192
Si Si5 0.952349 0.351137 0.316592
Si Si6 0.705826 0.346946 0.683569
O O1 0.835448 0.237780 0.778301
O O2 0.920353 0.226340 0.732751
O O3 0.873496 0.000000 0.750000
O O4 0.889175 0.149574 0.000000
O O5 0.627050 0.145915 0.500000
O O6 0.583191 0.237610 0.740309
O O7 0.669471 0.236853 0.743734
O O8 0.625936 0.000000 0.750000
O O9 0.187479 0.500000 0.750000
O O10 0.209438 0.368070 0.500000
O O11 0.246928 0.294138 0.757055
O O12 0.558694 0.500000 0.250000
O O13 0.500000 0.292985 0.250000
O O14 0.543532 0.357983 0.500000
O O15 0.934716 0.500000 0.250000
O O16 0.955052 0.362616 0.500000
O O17 0.000000 0.315252 0.250000
O O18 0.694016 0.500000 0.750000
O O19 0.706411 0.357207 0.500000
#
# Coordination Sequence:
#
# PCOD8203884 Si02
#       6
#     8   8   8   8   8   8
#     4  11  24  40  58  84 117 153 191 232 283 337
#     4  10  23  38  54  79 111 146 182 222 271 327
#     4  10  21  37  59  85 112 145 186 231 278 329
#     4  10  20  36  57  82 108 139 181 225 272 323
#     4  11  22  39  63  89 117 150 191 236 282 333
#     4  10  20  36  58  83 109 141 183 228 274 325
#
# _framework density 19.31138
#
# number of rings (size 3 to 8) (size 9 to 14) (size 15 to 20)
#    0.000    1.667    0.000    6.500    0.000    8.000 
#    0.000    6.667    0.000    0.000    0.000    0.000 
#    0.000    0.000    0.000    0.000    0.000    0.000 
#
# Total GULP energy -595405.960575 kJ/mol
# GULP energy per Si atom -12404.290845 kJ/mol
# Density = 1.926743 g / cm^3
# Si number density = 19.311380 Si / 1000 Ang^3
#
#
#
# Elastic Constant Matrix: (Units=GPa)
#
#
# Indices 1 2 3 4 5 6 
#
# 1 145.4520 102.7420 64.7780 0.0000 0.0000 0.0000
# 2 102.7420 149.2249 56.5930 0.0000 0.0000 0.0000
# 3 64.7780 56.5930 111.5269 0.0000 0.0000 0.0000
# 4 0.0000 0.0000 0.0000 35.3571 0.0000 0.0000
# 5 0.0000 0.0000 0.0000 0.0000 34.5560 0.0000
# 6 0.0000 0.0000 0.0000 0.0000 0.0000 15.5250
#
#
#
# Elastic Compliance Matrix: (Units=1/GPa)
#
#
# Indices 1 2 3 4 5 6 
#
# 1 0.014855 -0.008613 -0.004258 0.000000 0.000000 0.000000
# 2 -0.008613 0.013292 -0.001742 0.000000 0.000000 0.000000
# 3 -0.004258 -0.001742 0.012324 0.000000 0.000000 0.000000
# 4 0.000000 0.000000 0.000000 0.028283 0.000000 0.000000
# 5 0.000000 0.000000 0.000000 0.000000 0.028939 0.000000
# 6 0.000000 0.000000 0.000000 0.000000 0.000000 0.064412
#
#
# Mechanical properties :
#
#
# Convention : Reuss Voigt Hill
#
# Bulk Modulus (GPa) = 88.92986 94.93665 91.93325
# Shear Modulus (GPa) = 25.63053 29.22699 27.42876
#
# Velocity S-wave (km/s) = 3.64706 3.89454 3.77283
# Velocity P-wave (km/s) = 7.99282 8.33612 8.16628
#
# Compressibility (1/GPa) = 0.01124482
#
# Stress axis : x y z
#
# Youngs Moduli (GPa) = 67.31526 75.23151 81.14571
#
# Poissons Ratio (x) = 0.64799 0.34550
# Poissons Ratio (y) = 0.57981 0.14137
# Poissons Ratio (z) = 0.28661 0.13107
#
# Static dielectric constant tensor:
#      x y z
#    x 3.828490 0.000000 0.000000 
#    y 0.000000 3.286720 0.000000 
#    z 0.000000 0.000000 3.622520 
# 
# 
# High freq. dielectric constant tensor:
#      x y z
#    x 1.767440 0.000000 0.000000 
#    y 0.000000 1.748810 0.000000 
#    z 0.000000 0.000000 1.765120 
# 
# From -- ./inp_files/6878.got.cif
#   From: 2010.03.12/outbox.cif.g09.slc.cpg/sg49_4_cif.got.tgz:6878.got - 2010.04.14 03:58:27.
