data_PCOD8203607
_publ_section_title
;
Structure prediction by ZEFSAII (Michael W. Deem and Ramdas Pophale) SiO2 
 PCOD8203607
Probable space group: P C C M
;
_chemical_formula_sum "Si O2"
_cell_formula_units_Z 64
_cell_length_a 24.872095
_cell_length_b 14.978361
_cell_length_c 9.122828
_cell_angle_alpha 90.000000
_cell_angle_beta 90.000000
_cell_angle_gamma 90.000000
_cell_volume 3398.647698
_symmetry_space_group_name_H-M "P C C M"
_symmetry_group_IT_number 49
_symmetry_cell_setting 'orthorhombic'
loop_
_space_group_symop_operation_xyz
x,y,z
-x,-y,z
x,-y,1/2-z
-x,y,1/2-z
-x,-y,-z
x,y,-z
-x,y,1/2+z
x,-y,1/2+z
loop_
_atom_site_type_symbol
_atom_site_label
_atom_site_fract_x
_atom_site_fract_y
_atom_site_fract_z
Si Si1 0.443860 0.720294 0.170424
Si Si2 0.137329 0.084980 0.164189
Si Si3 0.053536 0.592858 0.173402
Si Si4 0.734582 0.085963 0.665107
Si Si5 0.348571 0.405625 0.327414
Si Si6 0.557173 0.082188 0.828749
Si Si7 0.860609 0.258549 0.169122
Si Si8 0.737768 0.737679 0.329018
O O1 0.500000 0.704351 0.250000
O O2 0.401208 0.647703 0.227206
O O3 0.417836 0.819192 0.197372
O O4 0.455815 0.707743 0.000000
O O5 0.201362 0.082227 0.166532
O O6 0.116794 0.175185 0.239965
O O7 0.113594 0.000000 0.250000
O O8 0.114645 0.082325 0.000000
O O9 0.068222 0.500000 0.250000
O O10 0.103192 0.656922 0.206659
O O11 0.000000 0.632461 0.250000
O O12 0.043898 0.579967 0.000000
O O13 0.712095 0.084562 0.500000
O O14 0.715136 0.176147 0.743966
O O15 0.711125 0.000000 0.750000
O O16 0.345576 0.500000 0.250000
O O17 0.350630 0.421344 0.500000
O O18 0.296071 0.348945 0.282570
O O19 0.500000 0.085671 0.750000
O O20 0.589977 0.000000 0.750000
O O21 0.551308 0.060796 0.000000
O O22 0.799505 0.282556 0.212689
O O23 0.864036 0.231144 0.000000
O O24 0.730657 0.759090 0.500000
#
# Coordination Sequence:
#
# PCOD8203607 Si02
#       8
#     8   8   8   8   8   8   8   8
#     4   9  19  35  54  76 101 130 165 204 246 294
#     4   9  16  26  44  71 102 135 170 208 248 292
#     4  10  20  34  52  74 101 131 166 209 256 304
#     4   9  16  27  46  73 103 135 170 206 245 292
#     4  10  22  39  56  74  99 131 166 209 260 306
#     4   9  15  25  44  70  99 127 155 188 230 281
#     4   9  18  32  51  75 101 133 171 207 247 298
#     4   9  18  34  53  73 102 136 168 206 251 298
#
# _framework density 18.831018
#
# number of rings (size 3 to 8) (size 9 to 14) (size 15 to 20)
#    0.000    2.750    0.000    2.250    0.000    6.250 
#    0.000    1.875    0.000    1.875    0.000    2.625 
#    0.000    0.000    0.000    0.000    0.000    0.000 
#
# Total GULP energy -793367.989428 kJ/mol
# GULP energy per Si atom -12396.374835 kJ/mol
# Density = 1.878816 g / cm^3
# Si number density = 18.831018 Si / 1000 Ang^3
#
#
#
# Elastic Constant Matrix: (Units=GPa)
#
#
# Indices 1 2 3 4 5 6 
#
# 1 73.1837 66.9092 42.8834 0.0000 0.0000 0.0000
# 2 66.9092 174.0696 80.7256 0.0000 0.0000 0.0000
# 3 42.8834 80.7256 108.5811 0.0000 0.0000 0.0000
# 4 0.0000 0.0000 0.0000 39.8953 0.0000 0.0000
# 5 0.0000 0.0000 0.0000 0.0000 17.5469 0.0000
# 6 0.0000 0.0000 0.0000 0.0000 0.0000 -2.0308
#
#
#
# Elastic Compliance Matrix: (Units=1/GPa)
#
#
# Indices 1 2 3 4 5 6 
#
# 1 0.021983 -0.006751 -0.003663 0.000000 0.000000 0.000000
# 2 -0.006751 0.010841 -0.005394 0.000000 0.000000 0.000000
# 3 -0.003663 -0.005394 0.014666 0.000000 0.000000 0.000000
# 4 0.000000 0.000000 0.000000 0.025066 0.000000 0.000000
# 5 0.000000 0.000000 0.000000 0.000000 0.056990 0.000000
# 6 0.000000 0.000000 0.000000 0.000000 0.000000 -0.492407
#
#
# Mechanical properties :
#
#
# Convention : Reuss Voigt Hill
#
# Bulk Modulus (GPa) = 62.99164 81.87452 72.43308
# Shear Modulus (GPa) = -15.33957 22.10334 3.38189
#
# Velocity S-wave (km/s) = -2.85720 3.42975 1.34157
# Velocity P-wave (km/s) = 4.75803 7.69787 6.39906
#
# Compressibility (1/GPa) = 0.01587512
#
# Stress axis : x y z
#
# Youngs Moduli (GPa) = 45.48995 92.24073 68.18381
#
# Poissons Ratio (x) = 0.62274 0.24974
# Poissons Ratio (y) = 0.30711 0.36776
# Poissons Ratio (z) = 0.16662 0.49751
#
# Static dielectric constant tensor:
#      x y z
#    x 3.184590 0.000000 0.000000 
#    y 0.000000 3.811020 0.000000 
#    z 0.000000 0.000000 3.544120 
# 
# 
# High freq. dielectric constant tensor:
#      x y z
#    x 1.698780 0.000000 0.000000 
#    y 0.000000 1.739760 0.000000 
#    z 0.000000 0.000000 1.736090 
# 
# From -- ./inp_files/6540.got.cif
#   From: 2010.03.12/outbox.cif.g09.slc.cpg/sg49_4_cif.got.tgz:6540.got - 2010.04.14 03:58:27.
