data_PCOD8203183
_publ_section_title
;
Structure prediction by ZEFSAII (Michael W. Deem and Ramdas Pophale) SiO2 
 PCOD8203183
Probable space group: P C C M
;
_chemical_formula_sum "Si O2"
_cell_formula_units_Z 64
_cell_length_a 18.580815
_cell_length_b 17.308717
_cell_length_c 9.535312
_cell_angle_alpha 90.000000
_cell_angle_beta 90.000000
_cell_angle_gamma 90.000000
_cell_volume 3066.652345
_symmetry_space_group_name_H-M "P C C M"
_symmetry_group_IT_number 49
_symmetry_cell_setting 'orthorhombic'
loop_
_space_group_symop_operation_xyz
x,y,z
-x,-y,z
x,-y,1/2-z
-x,y,1/2-z
-x,-y,-z
x,y,-z
-x,y,1/2+z
x,-y,1/2+z
loop_
_atom_site_type_symbol
_atom_site_label
_atom_site_fract_x
_atom_site_fract_y
_atom_site_fract_z
Si Si1 0.061715 0.783047 0.651160
Si Si2 0.936580 0.399748 0.344281
Si Si3 0.809054 0.389377 0.151093
Si Si4 0.365401 0.274158 0.161754
Si Si5 0.717032 0.933535 0.652778
Si Si6 0.432083 0.862488 0.833104
Si Si7 0.783137 0.778088 0.257607
Si Si8 0.647657 0.573414 0.664120
O O1 0.043412 0.817742 0.500000
O O2 0.054302 0.691404 0.649510
O O3 0.143803 0.805878 0.683359
O O4 0.000000 0.819423 0.750000
O O5 0.938312 0.435700 0.500000
O O6 0.860272 0.420476 0.274020
O O7 0.000000 0.436164 0.250000
O O8 0.800025 0.296225 0.147429
O O9 0.733662 0.431663 0.167802
O O10 0.843731 0.410089 0.000000
O O11 0.414137 0.216047 0.250522
O O12 0.281666 0.247176 0.153619
O O13 0.377360 0.352891 0.247235
O O14 0.391927 0.282090 0.000000
O O15 0.725667 0.969044 0.500000
O O16 0.633201 0.921642 0.688334
O O17 0.757619 0.851676 0.654178
O O18 0.750660 0.000000 0.750000
O O19 0.500000 0.898802 0.750000
O O20 0.446404 0.847745 0.000000
O O21 0.616642 0.500000 0.750000
O O22 0.621323 0.575546 0.500000
#
# Coordination Sequence:
#
# PCOD8203183 Si02
#       8
#     8   8   8   8   8   8   8   8
#     4   9  17  27  42  68  98 129 166 212 265 319
#     4   9  16  25  39  61  90 121 157 202 255 313
#     4   9  17  29  47  69  94 125 164 210 261 312
#     4  10  19  33  56  83 109 141 180 222 267 315
#     4  10  22  37  55  80 110 144 181 219 262 312
#     4  10  21  38  59  85 115 146 180 217 258 307
#     4   9  18  32  52  75 102 136 177 222 267 319
#     4  10  20  33  50  74 105 139 174 216 262 310
#
# _framework density 20.869662999999999
#
# number of rings (size 3 to 8) (size 9 to 14) (size 15 to 20)
#    0.000    2.500    0.000    2.250    0.000   13.250 
#    0.000    1.250    0.000    1.125    0.000    7.000 
#    0.000    0.000    0.000    0.000    0.000    0.000 
#
# Total GULP energy -793042.012950 kJ/mol
# GULP energy per Si atom -12391.281452 kJ/mol
# Density = 2.082216 g / cm^3
# Si number density = 20.869663 Si / 1000 Ang^3
#
#
#
# Elastic Constant Matrix: (Units=GPa)
#
#
# Indices 1 2 3 4 5 6 
#
# 1 53.8781 -2.3647 20.3002 0.0000 0.0000 0.0000
# 2 -2.3647 66.9442 28.1315 0.0000 0.0000 0.0000
# 3 20.3002 28.1315 163.2518 0.0000 0.0000 0.0000
# 4 0.0000 0.0000 0.0000 19.9245 0.0000 0.0000
# 5 0.0000 0.0000 0.0000 0.0000 21.2805 0.0000
# 6 0.0000 0.0000 0.0000 0.0000 0.0000 1.9153
#
#
#
# Elastic Compliance Matrix: (Units=1/GPa)
#
#
# Indices 1 2 3 4 5 6 
#
# 1 0.019685 0.001859 -0.002768 0.000000 0.000000 0.000000
# 2 0.001859 0.016279 -0.003036 0.000000 0.000000 0.000000
# 3 -0.002768 -0.003036 0.006993 0.000000 0.000000 0.000000
# 4 0.000000 0.000000 0.000000 0.050190 0.000000 0.000000
# 5 0.000000 0.000000 0.000000 0.000000 0.046991 0.000000
# 6 0.000000 0.000000 0.000000 0.000000 0.000000 0.522104
#
#
# Mechanical properties :
#
#
# Convention : Reuss Voigt Hill
#
# Bulk Modulus (GPa) = 28.51806 41.80091 35.15948
# Shear Modulus (GPa) = 7.33329 24.49120 15.91224
#
# Velocity S-wave (km/s) = 1.87656 3.42940 2.76426
# Velocity P-wave (km/s) = 4.28833 5.97947 5.20307
#
# Compressibility (1/GPa) = 0.03506550
#
# Stress axis : x y z
#
# Youngs Moduli (GPa) = 50.80026 61.42727 143.00136
#
# Poissons Ratio (x) = -0.11417 0.39584
# Poissons Ratio (y) = -0.09441 0.43421
# Poissons Ratio (z) = 0.14062 0.18652
#
# Static dielectric constant tensor:
#      x y z
#    x 3.685600 0.000000 0.000000 
#    y 0.000000 3.362270 0.000000 
#    z 0.000000 0.000000 3.984530 
# 
# 
# High freq. dielectric constant tensor:
#      x y z
#    x 1.800350 0.000000 0.000000 
#    y 0.000000 1.790110 0.000000 
#    z 0.000000 0.000000 1.828080 
# 
# From -- ./inp_files/5935.got.cif
#   From: 2010.03.12/outbox.cif.g09.slc.cpg/sg49_3_cif.got.tgz:5935.got - 2010.04.14 03:58:27.
