data_PCOD8203776
_publ_section_title
;
Structure prediction by ZEFSAII (Michael W. Deem and Ramdas Pophale) SiO2 
 PCOD8203776
Probable space group: P C C M
;
_chemical_formula_sum "Si O2"
_cell_formula_units_Z 40
_cell_length_a 9.241395
_cell_length_b 25.990753
_cell_length_c 8.959539
_cell_angle_alpha 90.000000
_cell_angle_beta 90.000000
_cell_angle_gamma 90.000000
_cell_volume 2151.998973
_symmetry_space_group_name_H-M "P C C M"
_symmetry_group_IT_number 49
_symmetry_cell_setting 'orthorhombic'
loop_
_space_group_symop_operation_xyz
x,y,z
-x,-y,z
x,-y,1/2-z
-x,y,1/2-z
-x,-y,-z
x,y,-z
-x,y,1/2+z
x,-y,1/2+z
loop_
_atom_site_type_symbol
_atom_site_label
_atom_site_fract_x
_atom_site_fract_y
_atom_site_fract_z
Si Si1 0.346014 0.661301 0.673836
Si Si2 0.654164 0.850864 0.174714
Si Si3 0.344459 0.451860 0.174107
Si Si4 0.848033 0.052980 0.322874
Si Si5 0.154899 0.755313 0.323358
O O1 0.500000 0.669214 0.750000
O O2 0.375336 0.669274 0.500000
O O3 0.275840 0.604561 0.704383
O O4 0.232921 0.703314 0.733525
O O5 0.500000 0.848372 0.250000
O O6 0.731470 0.903965 0.218338
O O7 0.751241 0.803646 0.232311
O O8 0.629881 0.846393 0.000000
O O9 0.256681 0.500000 0.250000
O O10 0.500000 0.450292 0.250000
O O11 0.358896 0.463156 0.000000
O O12 0.868127 0.046507 0.500000
O O13 0.000000 0.069214 0.250000
O O14 0.792092 0.000000 0.250000
O O15 0.135066 0.755682 0.500000
O O16 0.000000 0.759064 0.250000
#
# Coordination Sequence:
#
# PCOD8203776 Si02
#       5
#     8   8   8   8   8
#     4   9  18  31  49  73 101 129 163 205 249 295
#     4  10  22  37  55  79 106 134 169 210 254 300
#     4   9  15  24  40  65  95 126 158 197 241 289
#     4  10  20  35  55  80 107 139 175 210 248 296
#     4  10  21  37  54  75 101 131 167 208 251 301
#
# _framework density 18.587368000000001
#
# number of rings (size 3 to 8) (size 9 to 14) (size 15 to 20)
#    0.000    2.400    0.000    3.600    0.000    4.400 
#    0.000    2.000    0.000    0.600    0.000    4.200 
#    0.000    0.000    0.000    0.000    0.000    0.000 
#
# Total GULP energy -495823.465679 kJ/mol
# GULP energy per Si atom -12395.586642 kJ/mol
# Density = 1.854506 g / cm^3
# Si number density = 18.587368 Si / 1000 Ang^3
#
#
#
# Elastic Constant Matrix: (Units=GPa)
#
#
# Indices 1 2 3 4 5 6 
#
# 1 127.2968 97.0311 45.4885 0.0000 0.0000 0.0000
# 2 97.0311 187.0439 61.3680 0.0000 0.0000 0.0000
# 3 45.4885 61.3680 68.5252 0.0000 0.0000 0.0000
# 4 0.0000 0.0000 0.0000 30.1788 0.0000 0.0000
# 5 0.0000 0.0000 0.0000 0.0000 28.2289 0.0000
# 6 0.0000 0.0000 0.0000 0.0000 0.0000 14.5634
#
#
#
# Elastic Compliance Matrix: (Units=1/GPa)
#
#
# Indices 1 2 3 4 5 6 
#
# 1 0.013678 -0.005830 -0.003859 0.000000 0.000000 0.000000
# 2 -0.005830 0.010055 -0.005135 0.000000 0.000000 0.000000
# 3 -0.003859 -0.005135 0.021754 0.000000 0.000000 0.000000
# 4 0.000000 0.000000 0.000000 0.033136 0.000000 0.000000
# 5 0.000000 0.000000 0.000000 0.000000 0.035425 0.000000
# 6 0.000000 0.000000 0.000000 0.000000 0.000000 0.068665
#
#
# Mechanical properties :
#
#
# Convention : Reuss Voigt Hill
#
# Bulk Modulus (GPa) = 63.13394 87.84901 75.49147
# Shear Modulus (GPa) = 22.97355 26.52609 24.74982
#
# Velocity S-wave (km/s) = 3.51946 3.78180 3.65299
# Velocity P-wave (km/s) = 7.11022 8.15075 7.64820
#
# Compressibility (1/GPa) = 0.01583934
#
# Stress axis : x y z
#
# Youngs Moduli (GPa) = 73.10859 99.44948 45.96859
#
# Poissons Ratio (x) = 0.57975 0.17740
# Poissons Ratio (y) = 0.42619 0.23606
# Poissons Ratio (z) = 0.28215 0.51070
#
# Static dielectric constant tensor:
#      x y z
#    x 3.089500 0.000000 0.000000 
#    y 0.000000 4.357310 0.000000 
#    z 0.000000 0.000000 3.495870 
# 
# 
# High freq. dielectric constant tensor:
#      x y z
#    x 1.687630 0.000000 0.000000 
#    y 0.000000 1.750930 0.000000 
#    z 0.000000 0.000000 1.722550 
# 
# From -- ./inp_files/1711.got.cif
#   From: 2010.03.12/outbox.cif.g09.slc.cpg/sg49_1_cif.got.tgz:1711.got - 2010.04.14 03:58:27.
