data_PCOD8203655
_publ_section_title
;
Structure prediction by ZEFSAII (Michael W. Deem and Ramdas Pophale) SiO2 
 PCOD8203655
Probable space group: P C C M
;
_chemical_formula_sum "Si O2"
_cell_formula_units_Z 64
_cell_length_a 24.696881
_cell_length_b 15.221078
_cell_length_c 8.655563
_cell_angle_alpha 90.000000
_cell_angle_beta 90.000000
_cell_angle_gamma 90.000000
_cell_volume 3253.739970
_symmetry_space_group_name_H-M "P C C M"
_symmetry_group_IT_number 49
_symmetry_cell_setting 'orthorhombic'
loop_
_space_group_symop_operation_xyz
x,y,z
-x,-y,z
x,-y,1/2-z
-x,y,1/2-z
-x,-y,-z
x,y,-z
-x,y,1/2+z
x,-y,1/2+z
loop_
_atom_site_type_symbol
_atom_site_label
_atom_site_fract_x
_atom_site_fract_y
_atom_site_fract_z
Si Si1 0.288085 0.629774 0.679618
Si Si2 0.443370 0.766884 0.682355
Si Si3 0.141985 0.219416 0.322079
Si Si4 0.174858 0.413130 0.681985
Si Si5 0.599677 0.589541 0.318172
Si Si6 0.634800 0.092278 0.823033
Si Si7 0.262947 0.805450 0.175336
Si Si8 0.941941 0.091846 0.319109
O O1 0.298235 0.610216 0.500000
O O2 0.232969 0.585968 0.736386
O O3 0.336808 0.590389 0.778600
O O4 0.285583 0.734116 0.705875
O O5 0.500000 0.801335 0.750000
O O6 0.446242 0.766901 0.500000
O O7 0.431882 0.669305 0.740495
O O8 0.395913 0.830764 0.735839
O O9 0.125141 0.207539 0.500000
O O10 0.143156 0.323060 0.277198
O O11 0.200206 0.173990 0.288870
O O12 0.098673 0.171218 0.215823
O O13 0.144076 0.500000 0.750000
O O14 0.182217 0.420964 0.500000
O O15 0.574290 0.500000 0.250000
O O16 0.590968 0.594452 0.500000
O O17 0.699682 0.108300 0.807617
O O18 0.619260 0.000000 0.750000
O O19 0.616282 0.092330 0.000000
O O20 0.266724 0.767124 0.000000
O O21 0.948027 0.079833 0.500000
O O22 0.000000 0.116489 0.250000
O O23 0.919976 0.000000 0.250000
#
# Coordination Sequence:
#
# PCOD8203655 Si02
#       8
#     8   8   8   8   8   8   8   8
#     4  11  20  32  54  83 116 155 197 239 287 345
#     4  12  26  46  68  91 116 150 192 242 298 355
#     4   9  19  36  57  86 122 161 199 244 294 349
#     4  10  20  34  53  80 119 161 201 246 293 344
#     4  12  24  40  61  88 119 153 193 239 291 350
#     4  11  23  41  65  92 122 157 195 242 293 353
#     4   9  19  36  58  84 121 160 194 236 292 347
#     4  11  22  38  61  87 117 155 199 251 301 355
#
# _framework density 19.669673
#
# number of rings (size 3 to 8) (size 9 to 14) (size 15 to 20)
#    0.000    1.375    1.250    6.750    0.000    4.000 
#    0.000    3.750    0.000    0.375    0.000    2.625 
#    0.000    0.000    0.000    0.000    0.000    0.000 
#
# Total GULP energy -793706.356028 kJ/mol
# GULP energy per Si atom -12401.661813 kJ/mol
# Density = 1.962490 g / cm^3
# Si number density = 19.669673 Si / 1000 Ang^3
#
#
#
# Elastic Constant Matrix: (Units=GPa)
#
#
# Indices 1 2 3 4 5 6 
#
# 1 82.4740 47.2001 40.1806 0.0000 0.0000 0.0000
# 2 47.2001 111.5953 49.9152 0.0000 0.0000 0.0000
# 3 40.1806 49.9152 148.5356 0.0000 0.0000 0.0000
# 4 0.0000 0.0000 0.0000 35.6609 0.0000 0.0000
# 5 0.0000 0.0000 0.0000 0.0000 23.7655 0.0000
# 6 0.0000 0.0000 0.0000 0.0000 0.0000 8.4407
#
#
#
# Elastic Compliance Matrix: (Units=1/GPa)
#
#
# Indices 1 2 3 4 5 6 
#
# 1 0.016770 -0.005960 -0.002534 0.000000 0.000000 0.000000
# 2 -0.005960 0.012664 -0.002644 0.000000 0.000000 0.000000
# 3 -0.002534 -0.002644 0.008306 0.000000 0.000000 0.000000
# 4 0.000000 0.000000 0.000000 0.028042 0.000000 0.000000
# 5 0.000000 0.000000 0.000000 0.000000 0.042078 0.000000
# 6 0.000000 0.000000 0.000000 0.000000 0.000000 0.118474
#
#
# Mechanical properties :
#
#
# Convention : Reuss Voigt Hill
#
# Bulk Modulus (GPa) = 64.65667 68.57740 66.61704
# Shear Modulus (GPa) = 19.70333 27.26068 23.48200
#
# Velocity S-wave (km/s) = 3.16842 3.72684 3.45892
# Velocity P-wave (km/s) = 6.80645 7.31159 7.06354
#
# Compressibility (1/GPa) = 0.01546631
#
# Stress axis : x y z
#
# Youngs Moduli (GPa) = 59.62933 78.96324 120.39236
#
# Poissons Ratio (x) = 0.47060 0.30505
# Poissons Ratio (y) = 0.35538 0.31827
# Poissons Ratio (z) = 0.15109 0.20874
#
# Static dielectric constant tensor:
#      x y z
#    x 3.432430 0.000000 0.000000 
#    y 0.000000 3.688720 0.000000 
#    z 0.000000 0.000000 3.652730 
# 
# 
# High freq. dielectric constant tensor:
#      x y z
#    x 1.744950 0.000000 0.000000 
#    y 0.000000 1.770360 0.000000 
#    z 0.000000 0.000000 1.778260 
# 
# From -- ./inp_files/6485.got.cif
#   From: 2010.03.12/outbox.cif.g09.slc.cpg/sg49_4_cif.got.tgz:6485.got - 2010.04.14 03:58:27.
