data_PCOD8203052
_publ_section_title
;
Structure prediction by ZEFSAII (Michael W. Deem and Ramdas Pophale) SiO2 
 PCOD8203052
Probable space group: P C C M
;
_chemical_formula_sum "Si O2"
_cell_formula_units_Z 56
_cell_length_a 20.036307
_cell_length_b 15.243539
_cell_length_c 8.757370
_cell_angle_alpha 90.000000
_cell_angle_beta 90.000000
_cell_angle_gamma 90.000000
_cell_volume 2674.712964
_symmetry_space_group_name_H-M "P C C M"
_symmetry_group_IT_number 49
_symmetry_cell_setting 'orthorhombic'
loop_
_space_group_symop_operation_xyz
x,y,z
-x,-y,z
x,-y,1/2-z
-x,y,1/2-z
-x,-y,-z
x,y,-z
-x,y,1/2+z
x,-y,1/2+z
loop_
_atom_site_type_symbol
_atom_site_label
_atom_site_fract_x
_atom_site_fract_y
_atom_site_fract_z
Si Si1 0.171295 0.409587 0.679742
Si Si2 0.930430 0.275531 0.678648
Si Si3 0.747290 0.852759 0.673925
Si Si4 0.433491 0.730064 0.320269
Si Si5 0.121936 0.085889 0.821204
Si Si6 0.398917 0.911203 0.826489
Si Si7 0.289949 0.675699 0.678575
O O1 0.143759 0.500000 0.750000
O O2 0.164302 0.413874 0.500000
O O3 0.129165 0.328439 0.743457
O O4 0.248878 0.397386 0.728098
O O5 0.930069 0.296163 0.500000
O O6 0.921199 0.172459 0.713109
O O7 0.000000 0.306978 0.750000
O O8 0.760010 0.820365 0.500000
O O9 0.807783 0.910757 0.733770
O O10 0.681132 0.911208 0.682148
O O11 0.741336 0.770036 0.785584
O O12 0.500000 0.685241 0.250000
O O13 0.439305 0.731332 0.500000
O O14 0.429413 0.829378 0.262596
O O15 0.367843 0.674847 0.270054
O O16 0.084909 0.000000 0.750000
O O17 0.134045 0.073523 0.000000
O O18 0.425941 0.000000 0.750000
O O19 0.424166 0.906440 0.000000
O O20 0.281829 0.656401 0.500000
#
# Coordination Sequence:
#
# PCOD8203052 Si02
#       7
#     8   8   8   8   8   8   8
#     4  12  25  43  71 102 132 165 205 255 311 377
#     4  11  25  45  67  94 130 171 213 262 316 373
#     4  10  19  32  54  82 114 155 203 254 312 369
#     4  10  21  36  56  81 114 156 201 250 304 368
#     4  11  23  37  58  86 123 166 214 266 313 368
#     4  10  20  32  47  72 107 148 199 255 309 367
#     4  10  20  37  61  90 124 160 201 251 308 366
#
# _framework density 20.936827999999998
#
# number of rings (size 3 to 8) (size 9 to 14) (size 15 to 20)
#    0.000    1.429    1.429    4.286    0.000    7.143 
#    0.000    4.286    0.000    0.429    0.000    3.000 
#    0.000    0.000    0.000    0.000    0.000    0.000 
#
# Total GULP energy -694556.616835 kJ/mol
# GULP energy per Si atom -12402.796729 kJ/mol
# Density = 2.088917 g / cm^3
# Si number density = 20.936828 Si / 1000 Ang^3
#
#
#
# Elastic Constant Matrix: (Units=GPa)
#
#
# Indices 1 2 3 4 5 6 
#
# 1 109.3488 25.4038 52.1257 0.0000 0.0000 0.0000
# 2 25.4038 74.2041 42.3726 0.0000 0.0000 0.0000
# 3 52.1257 42.3726 126.1282 0.0000 0.0000 0.0000
# 4 0.0000 0.0000 0.0000 33.0924 0.0000 0.0000
# 5 0.0000 0.0000 0.0000 0.0000 22.4746 0.0000
# 6 0.0000 0.0000 0.0000 0.0000 0.0000 10.2546
#
#
#
# Elastic Compliance Matrix: (Units=1/GPa)
#
#
# Indices 1 2 3 4 5 6 
#
# 1 0.011525 -0.001517 -0.004253 0.000000 0.000000 0.000000
# 2 -0.001517 0.016875 -0.005042 0.000000 0.000000 0.000000
# 3 -0.004253 -0.005042 0.011380 0.000000 0.000000 0.000000
# 4 0.000000 0.000000 0.000000 0.030218 0.000000 0.000000
# 5 0.000000 0.000000 0.000000 0.000000 0.044495 0.000000
# 6 0.000000 0.000000 0.000000 0.000000 0.000000 0.097518
#
#
# Mechanical properties :
#
#
# Convention : Reuss Voigt Hill
#
# Bulk Modulus (GPa) = 55.08067 61.05393 58.06730
# Shear Modulus (GPa) = 20.86051 25.81624 23.33837
#
# Velocity S-wave (km/s) = 3.15993 3.51530 3.34234
# Velocity P-wave (km/s) = 6.29910 6.76023 6.53374
#
# Compressibility (1/GPa) = 0.01815519
#
# Stress axis : x y z
#
# Youngs Moduli (GPa) = 86.76779 59.25969 87.87168
#
# Poissons Ratio (x) = 0.08988 0.37376
# Poissons Ratio (y) = 0.13161 0.44307
# Poissons Ratio (z) = 0.36906 0.29880
#
# Static dielectric constant tensor:
#      x y z
#    x 3.918600 0.000000 0.000000 
#    y 0.000000 3.579940 0.000000 
#    z 0.000000 0.000000 3.838820 
# 
# 
# High freq. dielectric constant tensor:
#      x y z
#    x 1.822320 0.000000 0.000000 
#    y 0.000000 1.796410 0.000000 
#    z 0.000000 0.000000 1.833250 
# 
# From -- ./inp_files/4092.got.cif
#   From: 2010.03.12/outbox.cif.g09.slc.cpg/sg49_3_cif.got.tgz:4092.got - 2010.04.14 03:58:27.
