data_PCOD8203796
_publ_section_title
;
Structure prediction by ZEFSAII (Michael W. Deem and Ramdas Pophale) SiO2 
 PCOD8203796
Probable space group: P C C M
;
_chemical_formula_sum "Si O2"
_cell_formula_units_Z 48
_cell_length_a 9.511506
_cell_length_b 30.171387
_cell_length_c 8.809540
_cell_angle_alpha 90.000000
_cell_angle_beta 90.000000
_cell_angle_gamma 90.000000
_cell_volume 2528.120635
_symmetry_space_group_name_H-M "P C C M"
_symmetry_group_IT_number 49
_symmetry_cell_setting 'orthorhombic'
loop_
_space_group_symop_operation_xyz
x,y,z
-x,-y,z
x,-y,1/2-z
-x,y,1/2-z
-x,-y,-z
x,y,-z
-x,y,1/2+z
x,-y,1/2+z
loop_
_atom_site_type_symbol
_atom_site_label
_atom_site_fract_x
_atom_site_fract_y
_atom_site_fract_z
Si Si1 0.352574 0.196735 0.679105
Si Si2 0.848415 0.126818 0.321557
Si Si3 0.151551 0.373707 0.678540
Si Si4 0.647592 0.046108 0.321637
Si Si5 0.649561 0.546196 0.680113
Si Si6 0.354933 0.298028 0.678074
O O1 0.500000 0.180713 0.750000
O O2 0.360514 0.189502 0.500000
O O3 0.225528 0.169124 0.748138
O O4 0.321421 0.247537 0.724230
O O5 0.861044 0.134642 0.500000
O O6 0.762064 0.082824 0.281571
O O7 0.000000 0.120736 0.250000
O O8 0.133782 0.371767 0.500000
O O9 0.239249 0.416650 0.728419
O O10 0.230108 0.329447 0.738179
O O11 0.000000 0.376382 0.750000
O O12 0.500000 0.061161 0.250000
O O13 0.626872 0.039889 0.500000
O O14 0.699893 0.000000 0.250000
O O15 0.703426 0.500000 0.750000
O O16 0.500000 0.559590 0.750000
O O17 0.634176 0.541760 0.500000
O O18 0.500000 0.314434 0.750000
O O19 0.373270 0.303175 0.500000
#
# Coordination Sequence:
#
# PCOD8203796 Si02
#       6
#     8   8   8   8   8   8
#     4  10  20  36  59  84 111 143 182 227 271 321
#     4  11  24  39  56  81 113 149 185 224 274 327
#     4  10  22  37  53  77 109 143 178 217 265 319
#     4  10  21  37  59  84 109 141 181 225 271 320
#     4  10  20  35  56  80 105 136 176 220 265 315
#     4   9  19  36  57  82 108 138 179 223 267 316
#
# _framework density 18.986436000000001
#
# number of rings (size 3 to 8) (size 9 to 14) (size 15 to 20)
#    0.000    2.000    0.000    4.000    0.000    8.000 
#    0.000    5.000    0.000    0.000    0.000    0.000 
#    0.000    0.000    0.000    0.000    0.000    0.000 
#
# Total GULP energy -595369.378475 kJ/mol
# GULP energy per Si atom -12403.528718 kJ/mol
# Density = 1.894322 g / cm^3
# Si number density = 18.986436 Si / 1000 Ang^3
#
#
#
# Elastic Constant Matrix: (Units=GPa)
#
#
# Indices 1 2 3 4 5 6 
#
# 1 164.7087 102.0580 59.6582 0.0000 0.0000 0.0000
# 2 102.0580 133.7813 58.9150 0.0000 0.0000 0.0000
# 3 59.6582 58.9150 78.0247 0.0000 0.0000 0.0000
# 4 0.0000 0.0000 0.0000 29.5712 0.0000 0.0000
# 5 0.0000 0.0000 0.0000 0.0000 37.6463 0.0000
# 6 0.0000 0.0000 0.0000 0.0000 0.0000 23.2065
#
#
#
# Elastic Compliance Matrix: (Units=1/GPa)
#
#
# Indices 1 2 3 4 5 6 
#
# 1 0.012093 -0.007721 -0.003416 0.000000 0.000000 0.000000
# 2 -0.007721 0.016128 -0.006275 0.000000 0.000000 0.000000
# 3 -0.003416 -0.006275 0.020167 0.000000 0.000000 0.000000
# 4 0.000000 0.000000 0.000000 0.033817 0.000000 0.000000
# 5 0.000000 0.000000 0.000000 0.000000 0.026563 0.000000
# 6 0.000000 0.000000 0.000000 0.000000 0.000000 0.043091
#
#
# Mechanical properties :
#
#
# Convention : Reuss Voigt Hill
#
# Bulk Modulus (GPa) = 73.72601 90.86411 82.29506
# Shear Modulus (GPa) = 26.15017 28.47702 27.31360
#
# Velocity S-wave (km/s) = 3.71524 3.87701 3.79698
# Velocity P-wave (km/s) = 7.57094 8.24638 7.91587
#
# Compressibility (1/GPa) = 0.01356373
#
# Stress axis : x y z
#
# Youngs Moduli (GPa) = 82.69461 62.00395 49.58684
#
# Poissons Ratio (x) = 0.47871 0.16941
# Poissons Ratio (y) = 0.63845 0.31114
# Poissons Ratio (z) = 0.28252 0.38906
#
# Static dielectric constant tensor:
#      x y z
#    x 4.329400 0.000000 0.000000 
#    y 0.000000 3.741020 0.000000 
#    z 0.000000 0.000000 3.530530 
# 
# 
# High freq. dielectric constant tensor:
#      x y z
#    x 1.735560 0.000000 0.000000 
#    y 0.000000 1.752410 0.000000 
#    z 0.000000 0.000000 1.746030 
# 
# From -- ./inp_files/2026.got.cif
#   From: 2010.03.12/outbox.cif.g09.slc.cpg/sg49_2_cif.got.tgz:2026.got - 2010.04.14 03:58:27.
