data_PCOD8203208
_publ_section_title
;
Structure prediction by ZEFSAII (Michael W. Deem and Ramdas Pophale) SiO2 
 PCOD8203208
Probable space group: P C C M
;
_chemical_formula_sum "Si O2"
_cell_formula_units_Z 56
_cell_length_a 19.576765
_cell_length_b 9.461632
_cell_length_c 15.617473
_cell_angle_alpha 90.000000
_cell_angle_beta 90.000000
_cell_angle_gamma 90.000000
_cell_volume 2892.795572
_symmetry_space_group_name_H-M "P C C M"
_symmetry_group_IT_number 49
_symmetry_cell_setting 'orthorhombic'
loop_
_space_group_symop_operation_xyz
x,y,z
-x,-y,z
x,-y,1/2-z
-x,y,1/2-z
-x,-y,-z
x,y,-z
-x,y,1/2+z
x,-y,1/2+z
loop_
_atom_site_type_symbol
_atom_site_label
_atom_site_fract_x
_atom_site_fract_y
_atom_site_fract_z
Si Si1 0.822397 0.623854 0.102014
Si Si2 0.577176 0.668756 0.752572
Si Si3 0.338707 0.675508 0.906973
Si Si4 0.944439 0.815397 0.095502
Si Si5 0.184071 0.694152 0.098498
Si Si6 0.919401 0.094289 0.835230
Si Si7 0.672210 0.659748 0.096019
O O1 0.885632 0.716305 0.137596
O O2 0.829685 0.463166 0.135174
O O3 0.749328 0.691487 0.130293
O O4 0.821880 0.622314 0.000000
O O5 0.578687 0.500000 0.750000
O O6 0.500000 0.726084 0.750000
O O7 0.613007 0.732764 0.668177
O O8 0.616844 0.723897 0.837514
O O9 0.263049 0.735777 0.893086
O O10 0.335671 0.507448 0.907306
O O11 0.366786 0.726318 0.000000
O O12 0.011906 0.810362 0.155139
O O13 0.917395 0.977287 0.089183
O O14 0.961861 0.761461 0.000000
O O15 0.144823 0.803052 0.159438
O O16 0.159176 0.706223 0.000000
O O17 0.919736 0.000000 0.750000
O O18 0.659739 0.722208 0.000000
#
# Coordination Sequence:
#
# PCOD8203208 Si02
#       7
#     8   8   8   8   8   8   8
#     4   8  16  30  52  77  96 120 164 209 246 293
#     4   9  16  24  37  61  92 128 166 196 235 297
#     4   8  15  27  43  63  91 124 162 206 247 286
#     4  10  19  34  53  71  94 127 160 199 248 295
#     4   9  17  33  54  74  95 127 167 205 245 293
#     4  11  22  34  47  68 100 132 161 198 244 295
#     4   8  14  26  41  62  94 127 157 199 249 294
#
# _framework density 19.358436999999999
#
# number of rings (size 3 to 8) (size 9 to 14) (size 15 to 20)
#    0.000    3.000    0.000    4.286    0.000    2.286 
#    0.000    7.143    0.000    3.429    0.000    0.000 
#    0.000    5.143    0.000   18.000    0.000   18.286 
#
# Total GULP energy -693901.891037 kJ/mol
# GULP energy per Si atom -12391.105197 kJ/mol
# Density = 1.931438 g / cm^3
# Si number density = 19.358437 Si / 1000 Ang^3
#
#
#
# Elastic Constant Matrix: (Units=GPa)
#
#
# Indices 1 2 3 4 5 6 
#
# 1 155.5828 43.4283 81.1663 0.0000 0.0000 0.0000
# 2 43.4283 35.2886 21.5705 0.0000 0.0000 0.0000
# 3 81.1663 21.5705 118.1355 0.0000 0.0000 0.0000
# 4 0.0000 0.0000 0.0000 15.9649 0.0000 0.0000
# 5 0.0000 0.0000 0.0000 0.0000 31.5314 0.0000
# 6 0.0000 0.0000 0.0000 0.0000 0.0000 5.1566
#
#
#
# Elastic Compliance Matrix: (Units=1/GPa)
#
#
# Indices 1 2 3 4 5 6 
#
# 1 0.013567 -0.012380 -0.007061 0.000000 0.000000 0.000000
# 2 -0.012380 0.043195 0.000619 0.000000 0.000000 0.000000
# 3 -0.007061 0.000619 0.013203 0.000000 0.000000 0.000000
# 4 0.000000 0.000000 0.000000 0.062638 0.000000 0.000000
# 5 0.000000 0.000000 0.000000 0.000000 0.031714 0.000000
# 6 0.000000 0.000000 0.000000 0.000000 0.000000 0.193927
#
#
# Mechanical properties :
#
#
# Convention : Reuss Voigt Hill
#
# Bulk Modulus (GPa) = 30.93962 66.81522 48.87742
# Shear Modulus (GPa) = 12.29527 21.38670 16.84098
#
# Velocity S-wave (km/s) = 2.52293 3.32742 2.95270
# Velocity P-wave (km/s) = 4.95016 7.02510 6.07684
#
# Compressibility (1/GPa) = 0.03232102
#
# Stress axis : x y z
#
# Youngs Moduli (GPa) = 73.71069 23.15074 75.74085
#
# Poissons Ratio (x) = 0.28661 0.53477
# Poissons Ratio (y) = 0.91254 -0.04687
# Poissons Ratio (z) = 0.52044 -0.01432
#
# Static dielectric constant tensor:
#      x y z
#    x 3.703500 0.000000 0.000000 
#    y 0.000000 3.183170 0.000000 
#    z 0.000000 0.000000 3.734510 
# 
# 
# High freq. dielectric constant tensor:
#      x y z
#    x 1.751310 0.000000 0.000000 
#    y 0.000000 1.689520 0.000000 
#    z 0.000000 0.000000 1.756440 
# 
# From -- ./inp_files/14390.got.cif
#   From: 2010.03.12/outbox.cif.g09.slc.cpg/sg49_8_cif.got.tgz:14390.got - 2010.04.14 03:58:27.
