data_PCOD8203996
_publ_section_title
;
Structure prediction by ZEFSAII (Michael W. Deem and Ramdas Pophale) SiO2 
 PCOD8203996
Probable space group: P C C M
;
_chemical_formula_sum "Si O2"
_cell_formula_units_Z 64
_cell_length_a 18.839741
_cell_length_b 11.628028
_cell_length_c 14.672344
_cell_angle_alpha 90.000000
_cell_angle_beta 90.000000
_cell_angle_gamma 90.000000
_cell_volume 3214.256254
_symmetry_space_group_name_H-M "P C C M"
_symmetry_group_IT_number 49
_symmetry_cell_setting 'orthorhombic'
loop_
_space_group_symop_operation_xyz
x,y,z
-x,-y,z
x,-y,1/2-z
-x,y,1/2-z
-x,-y,-z
x,y,-z
-x,y,1/2+z
x,-y,1/2+z
loop_
_atom_site_type_symbol
_atom_site_label
_atom_site_fract_x
_atom_site_fract_y
_atom_site_fract_z
Si Si1 0.499151 0.684582 0.393808
Si Si2 0.079353 0.001110 0.391673
Si Si3 0.189877 0.189770 0.397809
Si Si4 0.435097 0.066668 0.895833
Si Si5 0.822070 0.199591 0.601745
Si Si6 0.767517 0.361859 0.253458
Si Si7 0.281167 0.988967 0.351030
Si Si8 0.610677 0.372877 0.255214
O O1 0.513499 0.649627 0.500000
O O2 0.456246 0.802061 0.386668
O O3 0.441561 0.606665 0.342235
O O4 0.571784 0.681014 0.334486
O O5 0.079229 0.002894 0.500000
O O6 0.115789 0.882513 0.358696
O O7 0.124023 0.112875 0.358776
O O8 0.000000 0.000000 0.350932
O O9 0.174420 0.233430 0.500000
O O10 0.202028 0.304051 0.338378
O O11 0.259681 0.107307 0.401382
O O12 0.365067 0.030903 0.843018
O O13 0.500000 0.000000 0.849693
O O14 0.424472 0.027945 0.000000
O O15 0.838938 0.243120 0.500000
O O16 0.813397 0.313329 0.662553
O O17 0.750988 0.121913 0.598653
O O18 0.776446 0.500000 0.250000
O O19 0.686732 0.310652 0.267897
O O20 0.249495 0.000000 0.250000
O O21 0.640151 0.500000 0.250000
#
# Coordination Sequence:
#
# PCOD8203996 Si02
#       8
#     8   8   8   8   8   8   8   8
#     4  10  21  37  57  76 101 136 178 233 298 356
#     4   8  16  34  63  98 126 151 190 233 282 349
#     4  10  21  37  60  87 119 156 191 237 291 343
#     4  10  22  34  46  73 105 136 176 220 273 346
#     4  10  20  37  60  86 118 153 188 235 293 344
#     4  11  24  40  57  82 115 154 206 249 283 344
#     4  11  20  33  56  81 112 147 183 232 290 355
#     4  10  23  39  55  76 101 136 188 245 289 331
#
# _framework density 19.911293000000001
#
# number of rings (size 3 to 8) (size 9 to 14) (size 15 to 20)
#    0.000    2.000    1.250    3.375    1.750    4.750 
#    0.000    3.750    0.000    1.500    0.000    3.500 
#    0.000    0.000    0.000    0.000    0.000    0.000 
#
# Total GULP energy -792839.184825 kJ/mol
# GULP energy per Si atom -12388.112263 kJ/mol
# Density = 1.986597 g / cm^3
# Si number density = 19.911293 Si / 1000 Ang^3
#
#
#
# Elastic Constant Matrix: (Units=GPa)
#
#
# Indices 1 2 3 4 5 6 
#
# 1 135.1867 42.5707 27.0419 0.0000 0.0000 0.0000
# 2 42.5707 101.6165 33.7141 0.0000 0.0000 0.0000
# 3 27.0419 33.7141 108.4204 0.0000 0.0000 0.0000
# 4 0.0000 0.0000 0.0000 31.4119 0.0000 0.0000
# 5 0.0000 0.0000 0.0000 0.0000 6.9286 0.0000
# 6 0.0000 0.0000 0.0000 0.0000 0.0000 22.5190
#
#
#
# Elastic Compliance Matrix: (Units=1/GPa)
#
#
# Indices 1 2 3 4 5 6 
#
# 1 0.008648 -0.003242 -0.001149 0.000000 0.000000 0.000000
# 2 -0.003242 0.012188 -0.002981 0.000000 0.000000 0.000000
# 3 -0.001149 -0.002981 0.010437 0.000000 0.000000 0.000000
# 4 0.000000 0.000000 0.000000 0.031835 0.000000 0.000000
# 5 0.000000 0.000000 0.000000 0.000000 0.144330 0.000000
# 6 0.000000 0.000000 0.000000 0.000000 0.000000 0.044407
#
#
# Mechanical properties :
#
#
# Convention : Reuss Voigt Hill
#
# Bulk Modulus (GPa) = 60.50009 61.31968 60.90989
# Shear Modulus (GPa) = 18.37568 28.29835 23.33701
#
# Velocity S-wave (km/s) = 3.04119 3.77400 3.42723
# Velocity P-wave (km/s) = 6.54083 7.06074 6.80575
#
# Compressibility (1/GPa) = 0.01652890
#
# Stress axis : x y z
#
# Youngs Moduli (GPa) = 115.63620 82.04682 95.81287
#
# Poissons Ratio (x) = 0.26597 0.11008
# Poissons Ratio (y) = 0.37486 0.28566
# Poissons Ratio (z) = 0.13285 0.24462
#
# Static dielectric constant tensor:
#      x y z
#    x 3.677020 0.000000 0.000000 
#    y 0.000000 3.377480 0.000000 
#    z 0.000000 0.000000 3.694690 
# 
# 
# High freq. dielectric constant tensor:
#      x y z
#    x 1.765380 0.000000 0.000000 
#    y 0.000000 1.759100 0.000000 
#    z 0.000000 0.000000 1.780330 
# 
# From -- ./inp_files/14188.got.cif
#   From: 2010.03.12/outbox.cif.g09.slc.cpg/sg49_8_cif.got.tgz:14188.got - 2010.04.14 03:58:27.
