data_PCOD8203057
_publ_section_title
;
Structure prediction by ZEFSAII (Michael W. Deem and Ramdas Pophale) SiO2 
 PCOD8203057
Probable space group: P C C M
;
_chemical_formula_sum "Si O2"
_cell_formula_units_Z 64
_cell_length_a 24.544991
_cell_length_b 15.247117
_cell_length_c 8.660781
_cell_angle_alpha 90.000000
_cell_angle_beta 90.000000
_cell_angle_gamma 90.000000
_cell_volume 3241.213709
_symmetry_space_group_name_H-M "P C C M"
_symmetry_group_IT_number 49
_symmetry_cell_setting 'orthorhombic'
loop_
_space_group_symop_operation_xyz
x,y,z
-x,-y,z
x,-y,1/2-z
-x,y,1/2-z
-x,-y,-z
x,y,-z
-x,y,1/2+z
x,-y,1/2+z
loop_
_atom_site_type_symbol
_atom_site_label
_atom_site_fract_x
_atom_site_fract_y
_atom_site_fract_z
Si Si1 0.290701 0.628976 0.823768
Si Si2 0.058939 0.908324 0.181964
Si Si3 0.141389 0.225986 0.179305
Si Si4 0.263200 0.197959 0.174657
Si Si5 0.599527 0.588847 0.180338
Si Si6 0.557276 0.233256 0.181995
Si Si7 0.364233 0.907802 0.323286
Si Si8 0.167782 0.590087 0.180594
O O1 0.287302 0.732703 0.794805
O O2 0.335482 0.587333 0.711305
O O3 0.232307 0.587124 0.786747
O O4 0.308944 0.613347 0.000000
O O5 0.098207 0.828381 0.223155
O O6 0.000000 0.886634 0.250000
O O7 0.081637 0.000000 0.250000
O O8 0.054396 0.918048 0.000000
O O9 0.199872 0.180066 0.210481
O O10 0.140919 0.326850 0.234674
O O11 0.125463 0.223317 0.000000
O O12 0.299145 0.109905 0.192374
O O13 0.268790 0.235754 0.000000
O O14 0.573875 0.500000 0.250000
O O15 0.570440 0.669110 0.263366
O O16 0.587901 0.594801 0.000000
O O17 0.500000 0.201195 0.250000
O O18 0.604144 0.168583 0.237076
O O19 0.553931 0.231682 0.000000
O O20 0.382942 0.908600 0.500000
O O21 0.379240 0.000000 0.250000
O O22 0.142900 0.500000 0.250000
O O23 0.154636 0.596826 0.000000
#
# Coordination Sequence:
#
# PCOD8203057 Si02
#       8
#     8   8   8   8   8   8   8   8
#     4  10  19  32  54  83 116 155 197 239 289 345
#     4  11  22  39  62  89 120 158 203 255 305 359
#     4  10  20  36  58  88 123 163 203 249 299 354
#     4   9  19  35  57  84 121 160 196 237 291 349
#     4  12  24  39  60  88 119 153 193 238 289 350
#     4  12  26  46  68  90 115 149 190 242 297 355
#     4  11  23  41  64  92 121 156 195 241 293 353
#     4  10  20  33  51  81 119 162 206 250 296 349
#
# _framework density 19.74569
#
# number of rings (size 3 to 8) (size 9 to 14) (size 15 to 20)
#    0.000    1.375    1.250    5.625    0.000    4.500 
#    0.000    3.750    0.000    0.375    0.000    2.625 
#    0.000    0.000    0.000    0.000    0.000    0.000 
#
# Total GULP energy -793779.553096 kJ/mol
# GULP energy per Si atom -12402.805517 kJ/mol
# Density = 1.970075 g / cm^3
# Si number density = 19.745690 Si / 1000 Ang^3
#
#
#
# Elastic Constant Matrix: (Units=GPa)
#
#
# Indices 1 2 3 4 5 6 
#
# 1 77.4045 46.0682 40.2997 0.0000 0.0000 0.0000
# 2 46.0682 110.7472 51.3699 0.0000 0.0000 0.0000
# 3 40.2997 51.3699 147.2995 0.0000 0.0000 0.0000
# 4 0.0000 0.0000 0.0000 36.7000 0.0000 0.0000
# 5 0.0000 0.0000 0.0000 0.0000 25.6481 0.0000
# 6 0.0000 0.0000 0.0000 0.0000 0.0000 8.6494
#
#
#
# Elastic Compliance Matrix: (Units=1/GPa)
#
#
# Indices 1 2 3 4 5 6 
#
# 1 0.018071 -0.006232 -0.002771 0.000000 0.000000 0.000000
# 2 -0.006232 0.012921 -0.002801 0.000000 0.000000 0.000000
# 3 -0.002771 -0.002801 0.008524 0.000000 0.000000 0.000000
# 4 0.000000 0.000000 0.000000 0.027248 0.000000 0.000000
# 5 0.000000 0.000000 0.000000 0.000000 0.038989 0.000000
# 6 0.000000 0.000000 0.000000 0.000000 0.000000 0.115615
#
#
# Mechanical properties :
#
#
# Convention : Reuss Voigt Hill
#
# Bulk Modulus (GPa) = 62.86035 67.88076 65.37056
# Shear Modulus (GPa) = 19.97778 27.38040 23.67909
#
# Velocity S-wave (km/s) = 3.18426 3.72782 3.46671
# Velocity P-wave (km/s) = 6.73969 7.27880 7.01443
#
# Compressibility (1/GPa) = 0.01590828
#
# Stress axis : x y z
#
# Youngs Moduli (GPa) = 55.33865 77.39219 117.31818
#
# Poissons Ratio (x) = 0.48229 0.32505
# Poissons Ratio (y) = 0.34486 0.32864
# Poissons Ratio (z) = 0.15332 0.21679
#
# Static dielectric constant tensor:
#      x y z
#    x 3.489280 0.000000 0.000000 
#    y 0.000000 3.548020 0.000000 
#    z 0.000000 0.000000 3.704740 
# 
# 
# High freq. dielectric constant tensor:
#      x y z
#    x 1.749940 0.000000 0.000000 
#    y 0.000000 1.770420 0.000000 
#    z 0.000000 0.000000 1.786080 
# 
# From -- ./inp_files/6517.got.cif
#   From: 2010.03.12/outbox.cif.g09.slc.cpg/sg49_4_cif.got.tgz:6517.got - 2010.04.14 03:58:27.
