data_PCOD8203721
_publ_section_title
;
Structure prediction by ZEFSAII (Michael W. Deem and Ramdas Pophale) SiO2 
 PCOD8203721
Probable space group: P C C M
;
_chemical_formula_sum "Si O2"
_cell_formula_units_Z 64
_cell_length_a 11.697429
_cell_length_b 15.351982
_cell_length_c 18.643133
_cell_angle_alpha 90.000000
_cell_angle_beta 90.000000
_cell_angle_gamma 90.000000
_cell_volume 3347.909951
_symmetry_space_group_name_H-M "P C C M"
_symmetry_group_IT_number 49
_symmetry_cell_setting 'orthorhombic'
loop_
_space_group_symop_operation_xyz
x,y,z
-x,-y,z
x,-y,1/2-z
-x,y,1/2-z
-x,-y,-z
x,y,-z
-x,y,1/2+z
x,-y,1/2+z
loop_
_atom_site_type_symbol
_atom_site_label
_atom_site_fract_x
_atom_site_fract_y
_atom_site_fract_z
Si Si1 0.783346 0.647950 0.152097
Si Si2 0.992017 0.601966 0.578421
Si Si3 0.486480 0.218435 0.415341
Si Si4 0.564563 0.412102 0.416336
Si Si5 0.273484 0.841522 0.174501
Si Si6 0.702074 0.842798 0.164486
Si Si7 0.130407 0.996157 0.664901
Si Si8 0.115333 0.317001 0.709615
O O1 0.884879 0.640748 0.095659
O O2 0.681546 0.585665 0.127793
O O3 0.754239 0.748806 0.152859
O O4 0.816657 0.621864 0.233693
O O5 0.953353 0.636520 0.500000
O O6 0.000000 0.500000 0.578065
O O7 0.899925 0.627728 0.637815
O O8 0.484884 0.202427 0.500000
O O9 0.499176 0.321913 0.397767
O O10 0.367667 0.189194 0.381562
O O11 0.585777 0.156747 0.382219
O O12 0.500000 0.500000 0.392235
O O13 0.593649 0.415664 0.500000
O O14 0.330005 0.862740 0.252223
O O15 0.179266 0.768979 0.187031
O O16 0.206529 0.922313 0.139076
O O17 0.799154 0.911123 0.138194
O O18 0.121094 0.000000 0.750000
O O19 0.000000 0.000000 0.633029
O O20 0.000000 0.287105 0.750000
#
# Coordination Sequence:
#
# PCOD8203721 Si02
#       8
#     8   8   8   8   8   8   8   8
#     4   9  18  33  56  80 108 143 180 224 282 333
#     4  10  21  35  52  75 105 145 190 225 264 329
#     4  10  21  37  57  81 113 152 189 227 281 336
#     4   9  18  34  57  83 110 144 189 233 273 328
#     4  10  20  34  58  85 115 142 181 234 283 329
#     4   9  19  37  59  82 108 147 188 231 275 337
#     4   9  19  32  59  89 111 140 188 237 278 330
#     4   9  20  34  55  80 111 145 178 224 287 333
#
# _framework density 19.116403999999999
#
# number of rings (size 3 to 8) (size 9 to 14) (size 15 to 20)
#    0.000    2.625    0.000    0.750    7.000    4.750 
#    0.000    6.875    0.000    9.750    0.000    0.000 
#    0.000    0.500    0.000    0.000    0.000    0.000 
#
# Total GULP energy -793222.607055 kJ/mol
# GULP energy per Si atom -12394.103235 kJ/mol
# Density = 1.907289 g / cm^3
# Si number density = 19.116404 Si / 1000 Ang^3
#
#
#
# Elastic Constant Matrix: (Units=GPa)
#
#
# Indices 1 2 3 4 5 6 
#
# 1 108.0587 53.5346 49.6967 0.0000 0.0000 0.0000
# 2 53.5346 77.9368 40.4594 0.0000 0.0000 0.0000
# 3 49.6967 40.4594 102.8841 0.0000 0.0000 0.0000
# 4 0.0000 0.0000 0.0000 22.3763 0.0000 0.0000
# 5 0.0000 0.0000 0.0000 0.0000 25.7003 0.0000
# 6 0.0000 0.0000 0.0000 0.0000 0.0000 29.2088
#
#
#
# Elastic Compliance Matrix: (Units=1/GPa)
#
#
# Indices 1 2 3 4 5 6 
#
# 1 0.015285 -0.008376 -0.004089 0.000000 0.000000 0.000000
# 2 -0.008376 0.020713 -0.004099 0.000000 0.000000 0.000000
# 3 -0.004089 -0.004099 0.013307 0.000000 0.000000 0.000000
# 4 0.000000 0.000000 0.000000 0.044690 0.000000 0.000000
# 5 0.000000 0.000000 0.000000 0.000000 0.038910 0.000000
# 6 0.000000 0.000000 0.000000 0.000000 0.000000 0.034236
#
#
# Mechanical properties :
#
#
# Convention : Reuss Voigt Hill
#
# Bulk Modulus (GPa) = 61.82376 64.02902 62.92639
# Shear Modulus (GPa) = 24.31186 25.13634 24.72410
#
# Velocity S-wave (km/s) = 3.57007 3.63010 3.60021
# Velocity P-wave (km/s) = 7.02885 7.15103 7.09020
#
# Compressibility (1/GPa) = 0.01617501
#
# Stress axis : x y z
#
# Youngs Moduli (GPa) = 65.42562 48.27993 75.14912
#
# Poissons Ratio (x) = 0.40440 0.30729
# Poissons Ratio (y) = 0.54802 0.30806
# Poissons Ratio (z) = 0.26753 0.19791
#
# Static dielectric constant tensor:
#      x y z
#    x 3.669640 0.000000 0.000000 
#    y 0.000000 3.485320 0.000000 
#    z 0.000000 0.000000 3.850620 
# 
# 
# High freq. dielectric constant tensor:
#      x y z
#    x 1.746820 0.000000 0.000000 
#    y 0.000000 1.739300 0.000000 
#    z 0.000000 0.000000 1.730540 
# 
# From -- ./inp_files/17318.got.cif
#   From: 2010.03.12/outbox.cif.g09.slc.cpg/sg49_9_cif.got.tgz:17318.got - 2010.04.14 03:58:27.
