data_PCOD8203682
_publ_section_title
;
Structure prediction by ZEFSAII (Michael W. Deem and Ramdas Pophale) SiO2 
 PCOD8203682
Probable space group: P C C M
;
_chemical_formula_sum "Si O2"
_cell_formula_units_Z 48
_cell_length_a 9.126313
_cell_length_b 30.653287
_cell_length_c 8.666229
_cell_angle_alpha 90.000000
_cell_angle_beta 90.000000
_cell_angle_gamma 90.000000
_cell_volume 2424.390490
_symmetry_space_group_name_H-M "P C C M"
_symmetry_group_IT_number 49
_symmetry_cell_setting 'orthorhombic'
loop_
_space_group_symop_operation_xyz
x,y,z
-x,-y,z
x,-y,1/2-z
-x,y,1/2-z
-x,-y,-z
x,y,-z
-x,y,1/2+z
x,-y,1/2+z
loop_
_atom_site_type_symbol
_atom_site_label
_atom_site_fract_x
_atom_site_fract_y
_atom_site_fract_z
Si Si1 0.660032 0.958034 0.679410
Si Si2 0.158409 0.622721 0.182788
Si Si3 0.654549 0.547508 0.183793
Si Si4 0.660263 0.861916 0.319604
Si Si5 0.844609 0.214100 0.321962
Si Si6 0.341604 0.699994 0.319963
O O1 0.500000 0.957921 0.750000
O O2 0.649398 0.965834 0.500000
O O3 0.726548 0.910287 0.717681
O O4 0.748472 0.000000 0.750000
O O5 0.215489 0.578560 0.261122
O O6 0.265096 0.661999 0.224522
O O7 0.000000 0.633877 0.250000
O O8 0.150529 0.616668 0.000000
O O9 0.689053 0.500000 0.250000
O O10 0.500000 0.565124 0.250000
O O11 0.646153 0.545839 0.000000
O O12 0.500000 0.854207 0.250000
O O13 0.642466 0.854669 0.500000
O O14 0.776852 0.828390 0.254936
O O15 0.865901 0.203827 0.500000
O O16 0.741972 0.255180 0.292608
O O17 0.000000 0.225495 0.250000
O O18 0.500000 0.707171 0.250000
O O19 0.348466 0.687047 0.500000
#
# Coordination Sequence:
#
# PCOD8203682 Si02
#       6
#     8   8   8   8   8   8
#     4   9  16  26  44  72 105 141 179 226 277 329
#     4  12  25  42  63  90 123 160 199 243 294 349
#     4  11  22  40  64  92 124 161 204 250 297 347
#     4  10  20  34  54  81 113 147 188 233 282 336
#     4  11  24  40  60  84 114 150 189 233 286 342
#     4  11  24  42  64  91 119 152 192 237 286 340
#
# _framework density 19.798791000000001
#
# number of rings (size 3 to 8) (size 9 to 14) (size 15 to 20)
#    0.000    1.333    0.000    7.500    0.000    7.667 
#    0.000    1.667    0.000    0.500    0.000    3.500 
#    0.000    0.000    0.000    0.000    0.000    0.000 
#
# Total GULP energy -595224.270046 kJ/mol
# GULP energy per Si atom -12400.505626 kJ/mol
# Density = 1.975373 g / cm^3
# Si number density = 19.798791 Si / 1000 Ang^3
#
#
#
# Elastic Constant Matrix: (Units=GPa)
#
#
# Indices 1 2 3 4 5 6 
#
# 1 105.6282 41.1616 50.7724 0.0000 0.0000 0.0000
# 2 41.1616 107.8549 65.9218 0.0000 0.0000 0.0000
# 3 50.7724 65.9218 153.7329 0.0000 0.0000 0.0000
# 4 0.0000 0.0000 0.0000 32.3100 0.0000 0.0000
# 5 0.0000 0.0000 0.0000 0.0000 31.9076 0.0000
# 6 0.0000 0.0000 0.0000 0.0000 0.0000 -16.1629
#
#
#
# Elastic Compliance Matrix: (Units=1/GPa)
#
#
# Indices 1 2 3 4 5 6 
#
# 1 0.011886 -0.002896 -0.002684 0.000000 0.000000 0.000000
# 2 -0.002896 0.013270 -0.004734 0.000000 0.000000 0.000000
# 3 -0.002684 -0.004734 0.009421 0.000000 0.000000 0.000000
# 4 0.000000 0.000000 0.000000 0.030950 0.000000 0.000000
# 5 0.000000 0.000000 0.000000 0.000000 0.031341 0.000000
# 6 0.000000 0.000000 0.000000 0.000000 0.000000 -0.061870
#
#
# Mechanical properties :
#
#
# Convention : Reuss Voigt Hill
#
# Bulk Modulus (GPa) = 71.68406 75.88085 73.78246
# Shear Modulus (GPa) = 82.95403 23.56829 53.26116
#
# Velocity S-wave (km/s) = 6.47993 3.45395 5.19227
# Velocity P-wave (km/s) = 9.60577 7.36991 8.56115
#
# Compressibility (1/GPa) = 0.01395010
#
# Stress axis : x y z
#
# Youngs Moduli (GPa) = 84.13586 75.35605 106.14466
#
# Poissons Ratio (x) = 0.21821 0.28486
# Poissons Ratio (y) = 0.24363 0.50250
# Poissons Ratio (z) = 0.22579 0.35674
#
# Static dielectric constant tensor:
#      x y z
#    x 3.446760 0.000000 0.000000 
#    y 0.000000 4.481760 0.000000 
#    z 0.000000 0.000000 4.020650 
# 
# 
# High freq. dielectric constant tensor:
#      x y z
#    x 1.750610 0.000000 0.000000 
#    y 0.000000 1.796240 0.000000 
#    z 0.000000 0.000000 1.794210 
# 
# From -- ./inp_files/2059.got.cif
#   From: 2010.03.12/outbox.cif.g09.slc.cpg/sg49_2_cif.got.tgz:2059.got - 2010.04.14 03:58:27.
