data_PCOD8203290
_publ_section_title
;
Structure prediction by ZEFSAII (Michael W. Deem and Ramdas Pophale) SiO2 
 PCOD8203290
Probable space group: P C C M
;
_chemical_formula_sum "Si O2"
_cell_formula_units_Z 56
_cell_length_a 11.966024
_cell_length_b 13.272310
_cell_length_c 17.990715
_cell_angle_alpha 90.000000
_cell_angle_beta 90.000000
_cell_angle_gamma 90.000000
_cell_volume 2857.227426
_symmetry_space_group_name_H-M "P C C M"
_symmetry_group_IT_number 49
_symmetry_cell_setting 'orthorhombic'
loop_
_space_group_symop_operation_xyz
x,y,z
-x,-y,z
x,-y,1/2-z
-x,y,1/2-z
-x,-y,-z
x,y,-z
-x,y,1/2+z
x,-y,1/2+z
loop_
_atom_site_type_symbol
_atom_site_label
_atom_site_fract_x
_atom_site_fract_y
_atom_site_fract_z
Si Si1 0.754465 0.140289 0.414837
Si Si2 0.187970 0.453504 0.830464
Si Si3 0.379136 0.746935 0.831556
Si Si4 0.061613 0.714797 0.585674
Si Si5 0.622478 0.695190 0.166175
Si Si6 0.818892 0.649324 0.415617
Si Si7 0.377388 0.954391 0.915390
O O1 0.731815 0.119196 0.500000
O O2 0.883573 0.173868 0.399153
O O3 0.677883 0.235376 0.395577
O O4 0.712325 0.034493 0.379419
O O5 0.157734 0.500000 0.750000
O O6 0.109013 0.359946 0.851457
O O7 0.317110 0.414363 0.831352
O O8 0.159785 0.533659 0.894462
O O9 0.491256 0.684559 0.852872
O O10 0.364608 0.754451 0.743534
O O11 0.275850 0.684878 0.860910
O O12 0.376445 0.858201 0.863386
O O13 0.090407 0.681797 0.500000
O O14 0.928491 0.718721 0.595844
O O15 0.777424 0.655687 0.500000
O O16 0.500000 0.000000 0.912819
O O17 0.346424 0.922477 0.000000
#
# Coordination Sequence:
#
# PCOD8203290 Si02
#       7
#     8   8   8   8   8   8   8
#     4   9  18  36  59  86 116 148 190 244 293 342
#     4  11  21  39  59  84 113 155 204 248 294 352
#     4  11  22  38  55  83 122 157 190 243 300 354
#     4   9  20  38  61  86 118 154 196 247 294 347
#     4  10  22  38  56  83 116 155 195 242 301 356
#     4  11  23  39  58  87 120 156 199 244 294 353
#     4  10  19  34  60  89 115 149 198 244 288 355
#
# _framework density 19.599419999999999
#
# number of rings (size 3 to 8) (size 9 to 14) (size 15 to 20)
#    0.000    1.857    2.857    1.286    0.000    4.571 
#    0.000    1.429    0.000    3.429    0.000    2.000 
#    0.000    0.000    0.000    0.000    0.000    0.000 
#
# Total GULP energy -694066.552958 kJ/mol
# GULP energy per Si atom -12394.045589 kJ/mol
# Density = 1.955481 g / cm^3
# Si number density = 19.599420 Si / 1000 Ang^3
#
#
#
# Elastic Constant Matrix: (Units=GPa)
#
#
# Indices 1 2 3 4 5 6 
#
# 1 109.1109 30.1677 35.3224 0.0000 0.0000 0.0000
# 2 30.1677 55.6977 28.4179 0.0000 0.0000 0.0000
# 3 35.3224 28.4179 38.1393 0.0000 0.0000 0.0000
# 4 0.0000 0.0000 0.0000 33.4494 0.0000 0.0000
# 5 0.0000 0.0000 0.0000 0.0000 34.4361 0.0000
# 6 0.0000 0.0000 0.0000 0.0000 0.0000 29.6290
#
#
#
# Elastic Compliance Matrix: (Units=1/GPa)
#
#
# Indices 1 2 3 4 5 6 
#
# 1 0.013163 -0.001467 -0.011098 0.000000 0.000000 0.000000
# 2 -0.001467 0.029129 -0.020346 0.000000 0.000000 0.000000
# 3 -0.011098 -0.020346 0.051657 0.000000 0.000000 0.000000
# 4 0.000000 0.000000 0.000000 0.029896 0.000000 0.000000
# 5 0.000000 0.000000 0.000000 0.000000 0.029039 0.000000
# 6 0.000000 0.000000 0.000000 0.000000 0.000000 0.033751
#
#
# Mechanical properties :
#
#
# Convention : Reuss Voigt Hill
#
# Bulk Modulus (GPa) = 35.55080 43.41822 39.48451
# Shear Modulus (GPa) = 19.09606 26.77221 22.93414
#
# Velocity S-wave (km/s) = 3.12479 3.69991 3.42445
# Velocity P-wave (km/s) = 5.58544 6.36030 5.98542
#
# Compressibility (1/GPa) = 0.02812876
#
# Stress axis : x y z
#
# Youngs Moduli (GPa) = 75.96821 34.32948 19.35831
#
# Poissons Ratio (x) = 0.05038 0.21483
# Poissons Ratio (y) = 0.11148 0.39386
# Poissons Ratio (z) = 0.84308 0.69845
#
# Static dielectric constant tensor:
#      x y z
#    x 3.799030 0.000000 0.000000 
#    y 0.000000 4.040710 0.000000 
#    z 0.000000 0.000000 3.560590 
# 
# 
# High freq. dielectric constant tensor:
#      x y z
#    x 1.764180 0.000000 0.000000 
#    y 0.000000 1.751120 0.000000 
#    z 0.000000 0.000000 1.762250 
# 
# From -- ./inp_files/20485.got.cif
#   From: 2010.03.12/outbox.cif.g09.slc.cpg/sg49_11_cif.got.tgz:20485.got - 2010.04.14 03:58:27.
