data_PCOD8203691
_publ_section_title
;
Structure prediction by ZEFSAII (Michael W. Deem and Ramdas Pophale) SiO2 
 PCOD8203691
Probable space group: P C C M
;
_chemical_formula_sum "Si O2"
_cell_formula_units_Z 64
_cell_length_a 8.831445
_cell_length_b 19.883478
_cell_length_c 17.936875
_cell_angle_alpha 90.000000
_cell_angle_beta 90.000000
_cell_angle_gamma 90.000000
_cell_volume 3149.712423
_symmetry_space_group_name_H-M "P C C M"
_symmetry_group_IT_number 49
_symmetry_cell_setting 'orthorhombic'
loop_
_space_group_symop_operation_xyz
x,y,z
-x,-y,z
x,-y,1/2-z
-x,y,1/2-z
-x,-y,-z
x,y,-z
-x,y,1/2+z
x,-y,1/2+z
loop_
_atom_site_type_symbol
_atom_site_label
_atom_site_fract_x
_atom_site_fract_y
_atom_site_fract_z
Si Si1 0.639065 0.352683 0.910972
Si Si2 0.911140 0.186797 0.824531
Si Si3 0.154924 0.528804 0.087107
Si Si4 0.582890 0.220642 0.823664
Si Si5 0.684121 0.603999 0.086881
Si Si6 0.052144 0.927883 0.588222
Si Si7 0.107453 0.278938 0.084559
Si Si8 0.667600 0.154659 0.416186
O O1 0.779501 0.399881 0.881990
O O2 0.642714 0.278226 0.878880
O O3 0.481579 0.383177 0.879892
O O4 0.642166 0.349831 0.000000
O O5 0.737256 0.185156 0.799382
O O6 0.000000 0.171245 0.750000
O O7 0.934188 0.126665 0.882405
O O8 0.967361 0.256854 0.862958
O O9 0.282480 0.473510 0.103067
O O10 0.000000 0.500000 0.124704
O O11 0.123378 0.538602 0.000000
O O12 0.500000 0.249322 0.750000
O O13 0.477632 0.165103 0.863815
O O14 0.815712 0.653442 0.118961
O O15 0.681089 0.620969 0.000000
O O16 0.039406 0.926359 0.500000
O O17 0.224950 0.907229 0.611342
O O18 0.000000 0.000000 0.620472
O O19 0.235983 0.222613 0.085568
O O20 0.046241 0.290458 0.000000
O O21 0.609395 0.140653 0.500000
#
# Coordination Sequence:
#
# PCOD8203691 Si02
#       8
#     8   8   8   8   8   8   8   8
#     4  10  20  34  55  82 109 147 190 236 304 366
#     4  11  24  38  56  83 116 156 198 241 290 346
#     4   9  18  30  47  78 113 139 178 238 293 348
#     4  12  24  37  55  82 117 156 198 250 296 346
#     4   9  16  29  52  77 107 142 178 225 286 353
#     4   9  19  39  66  92 120 155 191 229 283 351
#     4   9  17  32  55  83 111 145 187 236 291 351
#     4   9  17  34  59  88 118 147 186 236 286 343
#
# _framework density 20.319316000000001
#
# number of rings (size 3 to 8) (size 9 to 14) (size 15 to 20)
#    0.000    2.250    1.250    3.375    1.750    3.750 
#    0.000    0.625    0.000    4.500    0.000    1.750 
#    0.000    0.000    0.000    0.000    0.000    0.000 
#
# Total GULP energy -793151.786609 kJ/mol
# GULP energy per Si atom -12392.996666 kJ/mol
# Density = 2.027307 g / cm^3
# Si number density = 20.319316 Si / 1000 Ang^3
#
#
#
# Elastic Constant Matrix: (Units=GPa)
#
#
# Indices 1 2 3 4 5 6 
#
# 1 133.5413 42.3558 28.5114 0.0000 0.0000 0.0000
# 2 42.3558 102.0101 14.8379 0.0000 0.0000 0.0000
# 3 28.5114 14.8379 32.8754 0.0000 0.0000 0.0000
# 4 0.0000 0.0000 0.0000 7.2530 0.0000 0.0000
# 5 0.0000 0.0000 0.0000 0.0000 27.5030 0.0000
# 6 0.0000 0.0000 0.0000 0.0000 0.0000 30.1102
#
#
#
# Elastic Compliance Matrix: (Units=1/GPa)
#
#
# Indices 1 2 3 4 5 6 
#
# 1 0.010031 -0.003103 -0.007299 0.000000 0.000000 0.000000
# 2 -0.003103 0.011452 -0.002477 0.000000 0.000000 0.000000
# 3 -0.007299 -0.002477 0.037866 0.000000 0.000000 0.000000
# 4 0.000000 0.000000 0.000000 0.137874 0.000000 0.000000
# 5 0.000000 0.000000 0.000000 0.000000 0.036360 0.000000
# 6 0.000000 0.000000 0.000000 0.000000 0.000000 0.033211
#
#
# Mechanical properties :
#
#
# Convention : Reuss Voigt Hill
#
# Bulk Modulus (GPa) = 29.77084 48.87078 39.32081
# Shear Modulus (GPa) = 16.46094 25.15467 20.80781
#
# Velocity S-wave (km/s) = 2.84934 3.52229 3.20354
# Velocity P-wave (km/s) = 5.05057 6.37540 5.75126
#
# Compressibility (1/GPa) = 0.03358992
#
# Stress axis : x y z
#
# Youngs Moduli (GPa) = 99.69183 87.32242 26.40906
#
# Poissons Ratio (x) = 0.27099 0.19275
# Poissons Ratio (y) = 0.30938 0.06542
# Poissons Ratio (z) = 0.72762 0.21632
#
# Static dielectric constant tensor:
#      x y z
#    x 3.931830 0.000000 0.000000 
#    y 0.000000 3.745020 0.000000 
#    z 0.000000 0.000000 3.361760 
# 
# 
# High freq. dielectric constant tensor:
#      x y z
#    x 1.801820 0.000000 0.000000 
#    y 0.000000 1.780010 0.000000 
#    z 0.000000 0.000000 1.752190 
# 
# From -- ./inp_files/16587.got.cif
#   From: 2010.03.12/outbox.cif.g09.slc.cpg/sg49_9_cif.got.tgz:16587.got - 2010.04.14 03:58:27.
