data_PCOD8203394
_publ_section_title
;
Structure prediction by ZEFSAII (Michael W. Deem and Ramdas Pophale) SiO2 
 PCOD8203394
Probable space group: P C C M
;
_chemical_formula_sum "Si O2"
_cell_formula_units_Z 64
_cell_length_a 15.643093
_cell_length_b 11.270302
_cell_length_c 18.004774
_cell_angle_alpha 90.000000
_cell_angle_beta 90.000000
_cell_angle_gamma 90.000000
_cell_volume 3174.284549
_symmetry_space_group_name_H-M "P C C M"
_symmetry_group_IT_number 49
_symmetry_cell_setting 'orthorhombic'
loop_
_space_group_symop_operation_xyz
x,y,z
-x,-y,z
x,-y,1/2-z
-x,y,1/2-z
-x,-y,-z
x,y,-z
-x,y,1/2+z
x,-y,1/2+z
loop_
_atom_site_type_symbol
_atom_site_label
_atom_site_fract_x
_atom_site_fract_y
_atom_site_fract_z
Si Si1 0.818394 0.798021 0.157697
Si Si2 0.010938 0.860689 0.582303
Si Si3 0.473110 0.368881 0.834305
Si Si4 0.589053 0.815205 0.583496
Si Si5 0.749403 0.645733 0.417523
Si Si6 0.715149 0.571156 0.172605
Si Si7 0.148313 0.188340 0.674767
Si Si8 0.705882 0.991409 0.336708
O O1 0.793634 0.660956 0.164502
O O2 0.855913 0.833722 0.237774
O O3 0.734781 0.877356 0.136098
O O4 0.892900 0.818034 0.098398
O O5 0.987309 0.813755 0.500000
O O6 0.946919 0.810782 0.643464
O O7 0.000000 0.000000 0.584978
O O8 0.500000 0.500000 0.865953
O O9 0.500000 0.358125 0.750000
O O10 0.511395 0.255365 0.877644
O O11 0.371503 0.354494 0.835774
O O12 0.561026 0.849250 0.500000
O O13 0.666483 0.725543 0.584026
O O14 0.620629 0.937382 0.624040
O O15 0.791085 0.649055 0.500000
O O16 0.720767 0.513862 0.398087
O O17 0.814071 0.685957 0.352647
O O18 0.717035 0.500000 0.250000
O O19 0.211067 0.087622 0.642116
O O20 0.684306 0.000000 0.250000
#
# Coordination Sequence:
#
# PCOD8203394 Si02
#       8
#     8   8   8   8   8   8   8   8
#     4  11  23  38  65  91 123 165 213 263 315 381
#     4  11  23  39  60  93 128 159 205 259 317 377
#     4  11  21  35  62  94 124 164 219 270 316 374
#     4  10  21  38  61  93 129 165 210 265 325 385
#     4  10  20  35  60  90 120 160 203 250 319 383
#     4  12  22  40  62  91 127 164 210 268 319 379
#     4  10  19  37  63  88 119 156 204 263 311 365
#     4   9  20  35  60  93 122 160 212 259 315 379
#
# _framework density 20.162023000000001
#
# number of rings (size 3 to 8) (size 9 to 14) (size 15 to 20)
#    0.000    1.500    5.000    0.750    3.500    2.750 
#    0.000    1.250    0.000    2.250    0.000    0.000 
#    0.000    0.000    0.000    0.000    0.000    0.000 
#
# Total GULP energy -793254.137914 kJ/mol
# GULP energy per Si atom -12394.595905 kJ/mol
# Density = 2.011613 g / cm^3
# Si number density = 20.162023 Si / 1000 Ang^3
#
#
#
# Elastic Constant Matrix: (Units=GPa)
#
#
# Indices 1 2 3 4 5 6 
#
# 1 77.1719 38.8886 36.1216 0.0000 0.0000 0.0000
# 2 38.8886 78.0622 45.8141 0.0000 0.0000 0.0000
# 3 36.1216 45.8141 84.8061 0.0000 0.0000 0.0000
# 4 0.0000 0.0000 0.0000 13.6384 0.0000 0.0000
# 5 0.0000 0.0000 0.0000 0.0000 15.2045 0.0000
# 6 0.0000 0.0000 0.0000 0.0000 0.0000 39.6182
#
#
#
# Elastic Compliance Matrix: (Units=1/GPa)
#
#
# Indices 1 2 3 4 5 6 
#
# 1 0.018266 -0.006638 -0.004194 0.000000 0.000000 0.000000
# 2 -0.006638 0.021170 -0.008609 0.000000 0.000000 0.000000
# 3 -0.004194 -0.008609 0.018229 0.000000 0.000000 0.000000
# 4 0.000000 0.000000 0.000000 0.073323 0.000000 0.000000
# 5 0.000000 0.000000 0.000000 0.000000 0.065770 0.000000
# 6 0.000000 0.000000 0.000000 0.000000 0.000000 0.025241
#
#
# Mechanical properties :
#
#
# Convention : Reuss Voigt Hill
#
# Bulk Modulus (GPa) = 53.24170 53.52098 53.38134
# Shear Modulus (GPa) = 18.71661 21.63992 20.17827
#
# Velocity S-wave (km/s) = 3.05012 3.27968 3.16698
# Velocity P-wave (km/s) = 6.23447 6.39881 6.31718
#
# Compressibility (1/GPa) = 0.01878227
#
# Stress axis : x y z
#
# Youngs Moduli (GPa) = 54.74526 47.23681 54.85844
#
# Poissons Ratio (x) = 0.31358 0.23008
# Poissons Ratio (y) = 0.36342 0.47227
# Poissons Ratio (z) = 0.22960 0.40666
#
# Static dielectric constant tensor:
#      x y z
#    x 4.277540 0.000000 0.000000 
#    y 0.000000 3.705200 0.000000 
#    z 0.000000 0.000000 3.705480 
# 
# 
# High freq. dielectric constant tensor:
#      x y z
#    x 1.773350 0.000000 0.000000 
#    y 0.000000 1.778350 0.000000 
#    z 0.000000 0.000000 1.782780 
# 
# From -- ./inp_files/17989.got.cif
#   From: 2010.03.12/outbox.cif.g09.slc.cpg/sg49_9_cif.got.tgz:17989.got - 2010.04.14 03:58:27.
