data_PCOD8203787
_publ_section_title
;
Structure prediction by ZEFSAII (Michael W. Deem and Ramdas Pophale) SiO2 
 PCOD8203787
Probable space group: P C C M
;
_chemical_formula_sum "Si O2"
_cell_formula_units_Z 48
_cell_length_a 9.126883
_cell_length_b 31.031878
_cell_length_c 8.699360
_cell_angle_alpha 90.000000
_cell_angle_beta 90.000000
_cell_angle_gamma 90.000000
_cell_volume 2463.870318
_symmetry_space_group_name_H-M "P C C M"
_symmetry_group_IT_number 49
_symmetry_cell_setting 'orthorhombic'
loop_
_space_group_symop_operation_xyz
x,y,z
-x,-y,z
x,-y,1/2-z
-x,y,1/2-z
-x,-y,-z
x,y,-z
-x,y,1/2+z
x,-y,1/2+z
loop_
_atom_site_type_symbol
_atom_site_label
_atom_site_fract_x
_atom_site_fract_y
_atom_site_fract_z
Si Si1 0.658919 0.458948 0.822707
Si Si2 0.661706 0.363432 0.180394
Si Si3 0.659974 0.790556 0.682602
Si Si4 0.841192 0.126434 0.819124
Si Si5 0.160067 0.712513 0.682297
Si Si6 0.659158 0.955314 0.682754
O O1 0.747856 0.500000 0.750000
O O2 0.500000 0.457826 0.750000
O O3 0.727172 0.411690 0.792352
O O4 0.644194 0.468526 0.000000
O O5 0.500000 0.357334 0.250000
O O6 0.777320 0.333261 0.264971
O O7 0.652857 0.352386 0.000000
O O8 0.500000 0.795673 0.750000
O O9 0.654323 0.785413 0.500000
O O10 0.748131 0.832679 0.735746
O O11 0.733059 0.748946 0.755642
O O12 0.765040 0.082720 0.760442
O O13 0.000000 0.130419 0.750000
O O14 0.855153 0.125749 0.000000
O O15 0.151553 0.714518 0.500000
O O16 0.000000 0.720099 0.750000
O O17 0.500000 0.945623 0.750000
O O18 0.648521 0.958241 0.500000
O O19 0.722337 0.000000 0.750000
#
# Coordination Sequence:
#
# PCOD8203787 Si02
#       6
#     8   8   8   8   8   8
#     4   9  16  26  45  73 107 142 180 225 274 323
#     4  10  20  35  55  82 113 148 188 231 277 330
#     4  11  23  41  63  88 115 147 186 230 278 332
#     4  10  23  39  58  84 116 151 189 230 279 334
#     4  12  25  41  60  83 112 147 184 229 280 335
#     4  10  20  36  57  84 113 148 191 235 281 331
#
# _framework density 19.481542999999999
#
# number of rings (size 3 to 8) (size 9 to 14) (size 15 to 20)
#    0.000    1.667    0.000    6.000    0.000    6.333 
#    0.000    1.667    0.000    0.500    0.000    3.500 
#    0.000    0.000    0.000    0.000    0.000    0.000 
#
# Total GULP energy -595150.182376 kJ/mol
# GULP energy per Si atom -12398.962133 kJ/mol
# Density = 1.943720 g / cm^3
# Si number density = 19.481543 Si / 1000 Ang^3
#
#
#
# Elastic Constant Matrix: (Units=GPa)
#
#
# Indices 1 2 3 4 5 6 
#
# 1 109.3892 68.9581 43.1279 0.0000 0.0000 0.0000
# 2 68.9581 168.1836 64.0357 0.0000 0.0000 0.0000
# 3 43.1279 64.0357 113.8271 0.0000 0.0000 0.0000
# 4 0.0000 0.0000 0.0000 33.8545 0.0000 0.0000
# 5 0.0000 0.0000 0.0000 0.0000 32.7328 0.0000
# 6 0.0000 0.0000 0.0000 0.0000 0.0000 10.5986
#
#
#
# Elastic Compliance Matrix: (Units=1/GPa)
#
#
# Indices 1 2 3 4 5 6 
#
# 1 0.012832 -0.004340 -0.002420 0.000000 0.000000 0.000000
# 2 -0.004340 0.009034 -0.003438 0.000000 0.000000 0.000000
# 3 -0.002420 -0.003438 0.011637 0.000000 0.000000 0.000000
# 4 0.000000 0.000000 0.000000 0.029538 0.000000 0.000000
# 5 0.000000 0.000000 0.000000 0.000000 0.030550 0.000000
# 6 0.000000 0.000000 0.000000 0.000000 0.000000 0.094352
#
#
# Mechanical properties :
#
#
# Convention : Reuss Voigt Hill
#
# Bulk Modulus (GPa) = 76.30092 82.62703 79.46398
# Shear Modulus (GPa) = 23.50642 29.78908 26.64775
#
# Velocity S-wave (km/s) = 3.47738 3.91460 3.70245
# Velocity P-wave (km/s) = 7.44135 7.93330 7.69126
#
# Compressibility (1/GPa) = 0.01310600
#
# Stress axis : x y z
#
# Youngs Moduli (GPa) = 77.93258 110.68956 85.93606
#
# Poissons Ratio (x) = 0.48035 0.20800
# Poissons Ratio (y) = 0.33820 0.29546
# Poissons Ratio (z) = 0.18863 0.38057
#
# Static dielectric constant tensor:
#      x y z
#    x 3.141840 0.000000 0.000000 
#    y 0.000000 4.477740 0.000000 
#    z 0.000000 0.000000 3.705580 
# 
# 
# High freq. dielectric constant tensor:
#      x y z
#    x 1.735540 0.000000 0.000000 
#    y 0.000000 1.786930 0.000000 
#    z 0.000000 0.000000 1.773220 
# 
# From -- ./inp_files/2099.got.cif
#   From: 2010.03.12/outbox.cif.g09.slc.cpg/sg49_2_cif.got.tgz:2099.got - 2010.04.14 03:58:27.
