data_PCOD8203799
_publ_section_title
;
Structure prediction by ZEFSAII (Michael W. Deem and Ramdas Pophale) SiO2 
 PCOD8203799
Probable space group: P C C M
;
_chemical_formula_sum "Si O2"
_cell_formula_units_Z 58
_cell_length_a 18.975792
_cell_length_b 18.975791
_cell_length_c 8.851383
_cell_angle_alpha 90.000000
_cell_angle_beta 90.000000
_cell_angle_gamma 90.000000
_cell_volume 3187.211860
_symmetry_space_group_name_H-M "P C C M"
_symmetry_group_IT_number 49
_symmetry_cell_setting 'orthorhombic'
loop_
_space_group_symop_operation_xyz
x,y,z
-x,-y,z
x,-y,1/2-z
-x,y,1/2-z
-x,-y,-z
x,y,-z
-x,y,1/2+z
x,-y,1/2+z
loop_
_atom_site_type_symbol
_atom_site_label
_atom_site_fract_x
_atom_site_fract_y
_atom_site_fract_z
Si Si1 0.793396 0.822730 0.823415
Si Si2 0.262244 0.571896 0.179525
Si Si3 0.071896 0.237756 0.320475
Si Si4 0.322730 0.706604 0.676585
Si Si5 0.309647 0.073983 0.324588
Si Si6 0.573983 0.190354 0.175412
Si Si7 0.000000 0.500000 0.250000
Si Si8 0.110776 0.389224 0.667513
O O1 0.866025 0.812607 0.735177
O O2 0.744380 0.755620 0.789768
O O3 0.757714 0.893051 0.759180
O O4 0.807921 0.832346 0.000000
O O5 0.291778 0.500000 0.250000
O O6 0.312606 0.633976 0.235176
O O7 0.182533 0.583387 0.245849
O O8 0.264027 0.566446 0.000000
O O9 0.066446 0.235972 0.500000
O O10 0.083387 0.317467 0.254153
O O11 0.000000 0.208222 0.250000
O O12 0.332345 0.692078 0.500000
O O13 0.393051 0.742286 0.740819
O O14 0.291343 0.064746 0.500000
O O15 0.377490 0.122510 0.299917
O O16 0.328242 0.000000 0.250000
O O17 0.500000 0.171758 0.250000
O O18 0.564747 0.208658 0.000000
O O19 0.949224 0.550776 0.345634
O O20 0.132995 0.367008 0.500000
#
# Coordination Sequence:
#
# PCOD8203799 Si02
#       8
#     8   8   8   8   8   8   2   8
#     4  10  20  35  56  81 108 144 188 235 281 333
#     4  11  21  35  51  74 103 139 185 236 289 338
#     4  11  21  35  51  74 103 139 185 236 289 338
#     4  10  20  35  56  81 108 144 188 235 281 333
#     4  10  21  37  59  88 121 156 188 224 267 319
#     4  10  21  37  59  88 121 156 188 224 267 319
#     4  12  18  36  44  66 100 148 186 224 290 352
#     4  10  21  31  45  66  97 137 179 227 280 339
#
# _framework density 18.197723
#
# number of rings (size 3 to 8) (size 9 to 14) (size 15 to 20)
#    0.000    1.655    2.759    2.690    0.000    3.034 
#    0.000    1.379    0.000    0.828    0.000    5.793 
#    0.000    0.000    0.000    0.000    0.000    0.000 
#
# Total GULP energy -719287.206765 kJ/mol
# GULP energy per Si atom -12401.503565 kJ/mol
# Density = 1.815630 g / cm^3
# Si number density = 18.197723 Si / 1000 Ang^3
#
#
#
# Elastic Constant Matrix: (Units=GPa)
#
#
# Indices 1 2 3 4 5 6 
#
# 1 97.7519 44.8404 44.7377 0.0000 0.0000 0.0000
# 2 44.8404 97.7510 44.7378 0.0000 0.0000 0.0000
# 3 44.7377 44.7378 107.7479 0.0000 0.0000 0.0000
# 4 0.0000 0.0000 0.0000 30.8274 0.0000 0.0000
# 5 0.0000 0.0000 0.0000 0.0000 30.8274 0.0000
# 6 0.0000 0.0000 0.0000 0.0000 0.0000 12.3868
#
#
#
# Elastic Compliance Matrix: (Units=1/GPa)
#
#
# Indices 1 2 3 4 5 6 
#
# 1 0.014192 -0.004708 -0.003938 0.000000 0.000000 0.000000
# 2 -0.004708 0.014192 -0.003938 0.000000 0.000000 0.000000
# 3 -0.003938 -0.003938 0.012551 0.000000 0.000000 0.000000
# 4 0.000000 0.000000 0.000000 0.032439 0.000000 0.000000
# 5 0.000000 0.000000 0.000000 0.000000 0.032439 0.000000
# 6 0.000000 0.000000 0.000000 0.000000 0.000000 0.080731
#
#
# Mechanical properties :
#
#
# Convention : Reuss Voigt Hill
#
# Bulk Modulus (GPa) = 63.42108 63.54252 63.48180
# Shear Modulus (GPa) = 23.04509 26.07064 24.55786
#
# Velocity S-wave (km/s) = 3.56247 3.78912 3.67754
# Velocity P-wave (km/s) = 7.20058 7.35778 7.27960
#
# Compressibility (1/GPa) = 0.01576763
#
# Stress axis : x y z
#
# Youngs Moduli (GPa) = 70.46362 70.46273 79.67524
#
# Poissons Ratio (x) = 0.33173 0.31374
# Poissons Ratio (y) = 0.33173 0.31375
# Poissons Ratio (z) = 0.27747 0.27747
#
# Static dielectric constant tensor:
#      x y z
#    x 3.255070 0.000000 0.000000 
#    y 0.000000 3.255070 0.000000 
#    z 0.000000 0.000000 3.317240 
# 
# 
# High freq. dielectric constant tensor:
#      x y z
#    x 1.693320 0.000000 0.000000 
#    y 0.000000 1.693320 0.000000 
#    z 0.000000 0.000000 1.711570 
# 
# From -- ./inp_files/5082.got.cif
#   From: 2010.03.12/outbox.cif.g09.slc.cpg/sg49_3_cif.got.tgz:5082.got - 2010.04.14 03:58:27.
