data_PCOD8203631
_publ_section_title
;
Structure prediction by ZEFSAII (Michael W. Deem and Ramdas Pophale) SiO2 
 PCOD8203631
Probable space group: P C C M
;
_chemical_formula_sum "Si O2"
_cell_formula_units_Z 58
_cell_length_a 14.553628
_cell_length_b 25.162974
_cell_length_c 8.734944
_cell_angle_alpha 90.000000
_cell_angle_beta 90.000000
_cell_angle_gamma 90.000000
_cell_volume 3198.846230
_symmetry_space_group_name_H-M "P C C M"
_symmetry_group_IT_number 49
_symmetry_cell_setting 'orthorhombic'
loop_
_space_group_symop_operation_xyz
x,y,z
-x,-y,z
x,-y,1/2-z
-x,y,1/2-z
-x,-y,-z
x,y,-z
-x,y,1/2+z
x,-y,1/2+z
loop_
_atom_site_type_symbol
_atom_site_label
_atom_site_fract_x
_atom_site_fract_y
_atom_site_fract_z
Si Si1 0.669986 0.555301 0.319878
Si Si2 0.095772 0.297982 0.819348
Si Si3 0.000000 0.500000 0.750000
Si Si4 0.406197 0.657554 0.680896
Si Si5 0.599380 0.949578 0.823492
Si Si6 0.854416 0.417077 0.669041
Si Si7 0.398811 0.831719 0.679388
Si Si8 0.275191 0.258351 0.681642
O O1 0.637476 0.500000 0.250000
O O2 0.652245 0.557403 0.500000
O O3 0.605837 0.597480 0.235143
O O4 0.778094 0.564073 0.288945
O O5 0.108760 0.360001 0.775900
O O6 0.171026 0.259905 0.740731
O O7 0.000000 0.278552 0.750000
O O8 0.097709 0.288979 0.000000
O O9 0.064430 0.539511 0.652524
O O10 0.500000 0.681487 0.750000
O O11 0.408964 0.662425 0.500000
O O12 0.321128 0.689745 0.746720
O O13 0.500000 0.948010 0.750000
O O14 0.642303 0.891247 0.794605
O O15 0.655238 0.000000 0.750000
O O16 0.589751 0.961771 0.000000
O O17 0.809162 0.411613 0.500000
O O18 0.500000 0.824354 0.750000
O O19 0.405683 0.817773 0.500000
O O20 0.326116 0.794180 0.761379
O O21 0.278926 0.261132 0.500000
#
# Coordination Sequence:
#
# PCOD8203631 Si02
#       8
#     8   8   2   8   8   8   8   8
#     4  12  25  41  61  82 107 136 170 211 262 321
#     4  11  23  40  60  83 111 142 179 221 272 330
#     4  12  22  36  60  86 116 132 178 208 268 332
#     4  12  25  43  63  84 109 139 178 222 272 326
#     4   9  16  26  44  70 106 150 194 236 280 326
#     4  11  23  37  56  82 110 138 167 208 261 319
#     4  10  20  34  52  79 114 154 197 241 284 329
#     4  12  24  39  59  83 111 147 187 230 280 329
#
# _framework density 18.131536000000001
#
# number of rings (size 3 to 8) (size 9 to 14) (size 15 to 20)
#    0.000    0.966    2.759    6.000    0.000    3.034 
#    0.000    1.379    0.000    0.000    0.000    0.000 
#    0.000    0.552    0.000    5.793    0.000    3.172 
#
# Total GULP energy -719157.163284 kJ/mol
# GULP energy per Si atom -12399.261436 kJ/mol
# Density = 1.809027 g / cm^3
# Si number density = 18.131536 Si / 1000 Ang^3
#
#
#
# Elastic Constant Matrix: (Units=GPa)
#
#
# Indices 1 2 3 4 5 6 
#
# 1 87.6267 37.6676 43.0466 0.0000 0.0000 0.0000
# 2 37.6676 109.4094 56.7288 0.0000 0.0000 0.0000
# 3 43.0466 56.7288 152.5729 0.0000 0.0000 0.0000
# 4 0.0000 0.0000 0.0000 29.8198 0.0000 0.0000
# 5 0.0000 0.0000 0.0000 0.0000 26.8459 0.0000
# 6 0.0000 0.0000 0.0000 0.0000 0.0000 8.0566
#
#
#
# Elastic Compliance Matrix: (Units=1/GPa)
#
#
# Indices 1 2 3 4 5 6 
#
# 1 0.014251 -0.003496 -0.002721 0.000000 0.000000 0.000000
# 2 -0.003496 0.012180 -0.003543 0.000000 0.000000 0.000000
# 3 -0.002721 -0.003543 0.008639 0.000000 0.000000 0.000000
# 4 0.000000 0.000000 0.000000 0.033535 0.000000 0.000000
# 5 0.000000 0.000000 0.000000 0.000000 0.037250 0.000000
# 6 0.000000 0.000000 0.000000 0.000000 0.000000 0.124121
#
#
# Mechanical properties :
#
#
# Convention : Reuss Voigt Hill
#
# Bulk Modulus (GPa) = 64.29934 69.38833 66.84383
# Shear Modulus (GPa) = 19.63253 27.08886 23.36069
#
# Velocity S-wave (km/s) = 3.29414 3.86945 3.59332
# Velocity P-wave (km/s) = 7.07164 7.63649 7.35949
#
# Compressibility (1/GPa) = 0.01555226
#
# Stress axis : x y z
#
# Youngs Moduli (GPa) = 70.16836 82.10005 115.75193
#
# Poissons Ratio (x) = 0.28699 0.31498
# Poissons Ratio (y) = 0.24528 0.41006
# Poissons Ratio (z) = 0.19094 0.29084
#
# Static dielectric constant tensor:
#      x y z
#    x 3.200080 0.000000 0.000000 
#    y 0.000000 3.983540 0.000000 
#    z 0.000000 0.000000 3.449710 
# 
# 
# High freq. dielectric constant tensor:
#      x y z
#    x 1.675960 0.000000 0.000000 
#    y 0.000000 1.695910 0.000000 
#    z 0.000000 0.000000 1.721730 
# 
# From -- ./inp_files/4261.got.cif
#   From: 2010.03.12/outbox.cif.g09.slc.cpg/sg49_3_cif.got.tgz:4261.got - 2010.04.14 03:58:27.
