data_PCOD8203004
_publ_section_title
;
Structure prediction by ZEFSAII (Michael W. Deem and Ramdas Pophale) SiO2 
 PCOD8203004
Probable space group: P C C M
;
_chemical_formula_sum "Si O2"
_cell_formula_units_Z 64
_cell_length_a 15.166816
_cell_length_b 24.883650
_cell_length_c 8.721010
_cell_angle_alpha 90.000000
_cell_angle_beta 90.000000
_cell_angle_gamma 90.000000
_cell_volume 3291.359241
_symmetry_space_group_name_H-M "P C C M"
_symmetry_group_IT_number 49
_symmetry_cell_setting 'orthorhombic'
loop_
_space_group_symop_operation_xyz
x,y,z
-x,-y,z
x,-y,1/2-z
-x,y,1/2-z
-x,-y,-z
x,y,-z
-x,y,1/2+z
x,-y,1/2+z
loop_
_atom_site_type_symbol
_atom_site_label
_atom_site_fract_x
_atom_site_fract_y
_atom_site_fract_z
Si Si1 0.090126 0.357625 0.319213
Si Si2 0.589745 0.828368 0.182940
Si Si3 0.409987 0.403523 0.183279
Si Si4 0.631042 0.287657 0.326793
Si Si5 0.232849 0.444919 0.681673
Si Si6 0.907539 0.942861 0.680600
Si Si7 0.828273 0.741729 0.825266
Si Si8 0.228310 0.149317 0.319969
O O1 0.082818 0.355165 0.500000
O O2 0.169167 0.396564 0.266501
O O3 0.102198 0.297236 0.255951
O O4 0.000000 0.381292 0.250000
O O5 0.500000 0.854736 0.250000
O O6 0.594677 0.767136 0.249953
O O7 0.676234 0.859528 0.241578
O O8 0.590250 0.830411 0.000000
O O9 0.500000 0.428798 0.250000
O O10 0.403864 0.342302 0.250764
O O11 0.329294 0.437564 0.246949
O O12 0.408248 0.405225 0.000000
O O13 0.597736 0.287124 0.500000
O O14 0.735939 0.288930 0.316806
O O15 0.193253 0.500000 0.750000
O O16 0.240187 0.448682 0.500000
O O17 0.919319 0.948497 0.500000
O O18 0.830678 0.901607 0.724499
O O19 0.000000 0.922398 0.750000
O O20 0.880117 0.000000 0.750000
O O21 0.823027 0.798461 0.739886
O O22 0.857215 0.752314 0.000000
O O23 0.242705 0.155027 0.500000
#
# Coordination Sequence:
#
# PCOD8203004 Si02
#       8
#     8   8   8   8   8   8   8   8
#     4  11  24  41  63  89 116 148 187 231 286 347
#     4  10  19  32  51  80 116 158 200 240 288 339
#     4  11  21  36  58  85 116 148 185 230 279 338
#     4   8  16  30  51  79 110 147 185 223 274 328
#     4  11  25  44  64  86 110 144 186 233 287 340
#     4  10  21  37  60  86 116 152 196 245 296 346
#     4  10  19  35  58  85 118 154 190 231 283 338
#     4  10  21  36  55  85 121 159 199 241 288 344
#
# _framework density 19.444853999999999
#
# number of rings (size 3 to 8) (size 9 to 14) (size 15 to 20)
#    0.000    1.875    1.250    4.125    0.000    4.500 
#    0.000    5.000    0.000    0.375    0.000    2.625 
#    0.000    0.000    0.000    0.000    0.000    0.000 
#
# Total GULP energy -793595.254634 kJ/mol
# GULP energy per Si atom -12399.925854 kJ/mol
# Density = 1.940060 g / cm^3
# Si number density = 19.444854 Si / 1000 Ang^3
#
#
#
# Elastic Constant Matrix: (Units=GPa)
#
#
# Indices 1 2 3 4 5 6 
#
# 1 126.6432 60.0819 55.9134 0.0000 0.0000 0.0000
# 2 60.0819 95.6045 47.8102 0.0000 0.0000 0.0000
# 3 55.9134 47.8102 98.0856 0.0000 0.0000 0.0000
# 4 0.0000 0.0000 0.0000 26.6902 0.0000 0.0000
# 5 0.0000 0.0000 0.0000 0.0000 33.8040 0.0000
# 6 0.0000 0.0000 0.0000 0.0000 0.0000 3.6439
#
#
#
# Elastic Compliance Matrix: (Units=1/GPa)
#
#
# Indices 1 2 3 4 5 6 
#
# 1 0.012521 -0.005685 -0.004367 0.000000 0.000000 0.000000
# 2 -0.005685 0.016413 -0.004759 0.000000 0.000000 0.000000
# 3 -0.004367 -0.004759 0.015004 0.000000 0.000000 0.000000
# 4 0.000000 0.000000 0.000000 0.037467 0.000000 0.000000
# 5 0.000000 0.000000 0.000000 0.000000 0.029582 0.000000
# 6 0.000000 0.000000 0.000000 0.000000 0.000000 0.274434
#
#
# Mechanical properties :
#
#
# Convention : Reuss Voigt Hill
#
# Bulk Modulus (GPa) = 69.85187 71.99382 70.92285
# Shear Modulus (GPa) = 11.91002 23.26280 17.58641
#
# Velocity S-wave (km/s) = 2.47756 3.46258 3.01063
# Velocity P-wave (km/s) = 6.64722 7.28635 6.97411
#
# Compressibility (1/GPa) = 0.01431601
#
# Stress axis : x y z
#
# Youngs Moduli (GPa) = 79.86438 60.92878 66.64857
#
# Poissons Ratio (x) = 0.34640 0.29102
# Poissons Ratio (y) = 0.45405 0.31719
# Poissons Ratio (z) = 0.34873 0.28997
#
# Static dielectric constant tensor:
#      x y z
#    x 3.566410 0.000000 0.000000 
#    y 0.000000 3.496190 0.000000 
#    z 0.000000 0.000000 3.496850 
# 
# 
# High freq. dielectric constant tensor:
#      x y z
#    x 1.761570 0.000000 0.000000 
#    y 0.000000 1.739180 0.000000 
#    z 0.000000 0.000000 1.760570 
# 
# From -- ./inp_files/4412.got.cif
#   From: 2010.03.12/outbox.cif.g09.slc.cpg/sg49_3_cif.got.tgz:4412.got - 2010.04.14 03:58:27.
