data_PCOD8203121
_publ_section_title
;
Structure prediction by ZEFSAII (Michael W. Deem and Ramdas Pophale) SiO2 
 PCOD8203121
Probable space group: P C C M
;
_chemical_formula_sum "Si O2"
_cell_formula_units_Z 56
_cell_length_a 29.923919
_cell_length_b 5.216241
_cell_length_c 18.697720
_cell_angle_alpha 90.000000
_cell_angle_beta 90.000000
_cell_angle_gamma 90.000000
_cell_volume 2918.534092
_symmetry_space_group_name_H-M "P C C M"
_symmetry_group_IT_number 49
_symmetry_cell_setting 'orthorhombic'
loop_
_space_group_symop_operation_xyz
x,y,z
-x,-y,z
x,-y,1/2-z
-x,y,1/2-z
-x,-y,-z
x,y,-z
-x,y,1/2+z
x,-y,1/2+z
loop_
_atom_site_type_symbol
_atom_site_label
_atom_site_fract_x
_atom_site_fract_y
_atom_site_fract_z
Si Si1 0.093109 0.631815 0.918730
Si Si2 0.246677 0.915043 0.414756
Si Si3 0.148196 0.144397 0.081195
Si Si4 0.550163 0.028338 0.585164
Si Si5 0.298321 0.413745 0.414999
Si Si6 0.950064 0.747020 0.280909
Si Si7 0.601481 0.529042 0.414813
O O1 0.116550 0.372340 0.888045
O O2 0.051746 0.716564 0.867219
O O3 0.127444 0.864102 0.913662
O O4 0.074959 0.596653 0.000000
O O5 0.244063 0.939307 0.500000
O O6 0.196764 0.882857 0.381863
O O7 0.272876 0.665669 0.389245
O O8 0.272450 0.164708 0.383930
O O9 0.155771 0.231867 0.000000
O O10 0.549079 0.044352 0.500000
O O11 0.575810 0.278708 0.615688
O O12 0.500000 0.000000 0.615399
O O13 0.575813 0.778673 0.612359
O O14 0.300084 0.392910 0.500000
O O15 0.348384 0.442693 0.384326
O O16 0.924321 0.500000 0.250000
O O17 0.000000 0.751556 0.250000
O O18 0.925252 0.000000 0.250000
O O19 0.602635 0.512733 0.500000
#
# Coordination Sequence:
#
# PCOD8203121 Si02
#       7
#     8   8   8   8   8   8   8
#     4  10  19  33  53  76 100 129 165 202 238 281
#     4   9  15  23  34  51  75 100 124 155 201 253
#     4   9  17  28  45  69  94 118 149 189 228 270
#     4   9  15  21  27  33  43  62  94 143 198 245
#     4   9  15  21  30  43  63  91 118 147 191 255
#     4  10  21  38  56  77 105 136 166 201 245 290
#     4   9  15  21  27  36  49  69 102 140 184 247
#
# _framework density 19.187715000000001
#
# number of rings (size 3 to 8) (size 9 to 14) (size 15 to 20)
#    0.000    2.714    0.000    3.000    0.000    8.571 
#    0.000    2.857    0.000    0.000    0.000    0.000 
#    0.000    0.000    0.000    0.000    0.000    0.000 
#
# Total GULP energy -693797.400892 kJ/mol
# GULP energy per Si atom -12389.239302 kJ/mol
# Density = 1.914404 g / cm^3
# Si number density = 19.187715 Si / 1000 Ang^3
#
#
#
# Elastic Constant Matrix: (Units=GPa)
#
#
# Indices 1 2 3 4 5 6 
#
# 1 111.1605 42.5881 27.5433 0.0000 0.0000 0.0000
# 2 42.5881 170.1771 19.8472 0.0000 0.0000 0.0000
# 3 27.5433 19.8472 39.3110 0.0000 0.0000 0.0000
# 4 0.0000 0.0000 0.0000 0.0537 0.0000 0.0000
# 5 0.0000 0.0000 0.0000 0.0000 -0.4112 0.0000
# 6 0.0000 0.0000 0.0000 0.0000 0.0000 22.9499
#
#
#
# Elastic Compliance Matrix: (Units=1/GPa)
#
#
# Indices 1 2 3 4 5 6 
#
# 1 0.011531 -0.002065 -0.007036 0.000000 0.000000 0.000000
# 2 -0.002065 0.006614 -0.001892 0.000000 0.000000 0.000000
# 3 -0.007036 -0.001892 0.031324 0.000000 0.000000 0.000000
# 4 0.000000 0.000000 0.000000 18.635601 0.000000 0.000000
# 5 0.000000 0.000000 0.000000 0.000000 -2.431722 0.000000
# 6 0.000000 0.000000 0.000000 0.000000 0.000000 0.043573
#
#
# Mechanical properties :
#
#
# Convention : Reuss Voigt Hill
#
# Bulk Modulus (GPa) = 36.38927 55.62286 46.00606
# Shear Modulus (GPa) = 0.30622 19.89647 10.10135
#
# Velocity S-wave (km/s) = 0.39992 3.22365 2.29694
# Velocity P-wave (km/s) = 4.38398 6.55039 5.57346
#
# Compressibility (1/GPa) = 0.02748063
#
# Stress axis : x y z
#
# Youngs Moduli (GPa) = 86.72575 151.20135 31.92487
#
# Poissons Ratio (x) = 0.31223 0.22463
# Poissons Ratio (y) = 0.17909 0.06041
# Poissons Ratio (z) = 0.61023 0.28611
#
# Static dielectric constant tensor:
#      x y z
#    x 3.691450 0.000000 0.000000 
#    y 0.000000 6.071690 0.000000 
#    z 0.000000 0.000000 2.819680 
# 
# 
# High freq. dielectric constant tensor:
#      x y z
#    x 1.745720 0.000000 0.000000 
#    y 0.000000 1.777130 0.000000 
#    z 0.000000 0.000000 1.652530 
# 
# From -- ./inp_files/14601.got.cif
#   From: 2010.03.12/outbox.cif.g09.slc.cpg/sg49_8_cif.got.tgz:14601.got - 2010.04.14 03:58:27.
