data_PCOD8203223
_publ_section_title
;
Structure prediction by ZEFSAII (Michael W. Deem and Ramdas Pophale) SiO2 
 PCOD8203223
Probable space group: P C C M
;
_chemical_formula_sum "Si O2"
_cell_formula_units_Z 48
_cell_length_a 9.187964
_cell_length_b 31.383214
_cell_length_c 8.520735
_cell_angle_alpha 90.000000
_cell_angle_beta 90.000000
_cell_angle_gamma 90.000000
_cell_volume 2456.935536
_symmetry_space_group_name_H-M "P C C M"
_symmetry_group_IT_number 49
_symmetry_cell_setting 'orthorhombic'
loop_
_space_group_symop_operation_xyz
x,y,z
-x,-y,z
x,-y,1/2-z
-x,y,1/2-z
-x,-y,-z
x,y,-z
-x,y,1/2+z
x,-y,1/2+z
loop_
_atom_site_type_symbol
_atom_site_label
_atom_site_fract_x
_atom_site_fract_y
_atom_site_fract_z
Si Si1 0.839458 0.802329 0.815386
Si Si2 0.658539 0.120546 0.815359
Si Si3 0.658855 0.632769 0.683096
Si Si4 0.662631 0.457847 0.184435
Si Si5 0.663173 0.274700 0.186241
Si Si6 0.845277 0.953618 0.814905
O O1 0.761143 0.840194 0.724643
O O2 0.760594 0.758118 0.780792
O O3 0.000000 0.798757 0.750000
O O4 0.839429 0.811950 0.000000
O O5 0.500000 0.130974 0.750000
O O6 0.717602 0.077764 0.735976
O O7 0.651903 0.113672 0.000000
O O8 0.500000 0.634212 0.750000
O O9 0.638562 0.630273 0.500000
O O10 0.737045 0.587962 0.736383
O O11 0.733060 0.678217 0.725685
O O12 0.746573 0.500000 0.250000
O O13 0.500000 0.457791 0.250000
O O14 0.658897 0.462407 0.000000
O O15 0.500000 0.270934 0.250000
O O16 0.665480 0.265171 0.000000
O O17 0.000000 0.936995 0.750000
O O18 0.806828 0.000000 0.750000
O O19 0.856160 0.955865 0.000000
#
# Coordination Sequence:
#
# PCOD8203223 Si02
#       6
#     8   8   8   8   8   8
#     4  12  25  42  61  84 111 144 182 226 275 330
#     4  12  25  43  64  90 120 154 192 235 281 331
#     4   8  15  25  39  59  88 124 165 207 255 308
#     4   9  14  20  30  49  78 117 159 202 247 300
#     4  10  19  34  54  78 106 140 178 222 270 324
#     4  11  22  40  64  93 125 162 201 241 284 332
#
# _framework density 19.536532000000001
#
# number of rings (size 3 to 8) (size 9 to 14) (size 15 to 20)
#    0.000    1.667    0.000    7.500    0.000    1.667 
#    0.000    1.667    0.000    0.000    0.000    0.000 
#    0.000    0.667    0.000    7.667    0.000    4.500 
#
# Total GULP energy -594723.670584 kJ/mol
# GULP energy per Si atom -12390.076471 kJ/mol
# Density = 1.949207 g / cm^3
# Si number density = 19.536532 Si / 1000 Ang^3
#
#
#
# Elastic Constant Matrix: (Units=GPa)
#
#
# Indices 1 2 3 4 5 6 
#
# 1 70.1977 40.1938 18.2185 0.0000 0.0000 0.0000
# 2 40.1938 142.3714 35.4912 0.0000 0.0000 0.0000
# 3 18.2185 35.4912 106.1539 0.0000 0.0000 0.0000
# 4 0.0000 0.0000 0.0000 25.5571 0.0000 0.0000
# 5 0.0000 0.0000 0.0000 0.0000 24.0360 0.0000
# 6 0.0000 0.0000 0.0000 0.0000 0.0000 -2.6145
#
#
#
# Elastic Compliance Matrix: (Units=1/GPa)
#
#
# Indices 1 2 3 4 5 6 
#
# 1 0.017194 -0.004493 -0.001449 0.000000 0.000000 0.000000
# 2 -0.004493 0.008837 -0.002183 0.000000 0.000000 0.000000
# 3 -0.001449 -0.002183 0.010399 0.000000 0.000000 0.000000
# 4 0.000000 0.000000 0.000000 0.039128 0.000000 0.000000
# 5 0.000000 0.000000 0.000000 0.000000 0.041604 0.000000
# 6 0.000000 0.000000 0.000000 0.000000 0.000000 -0.382477
#
#
# Mechanical properties :
#
#
# Convention : Reuss Voigt Hill
#
# Bulk Modulus (GPa) = 49.55530 56.28111 52.91820
# Shear Modulus (GPa) = -20.63229 24.38368 1.87570
#
# Velocity S-wave (km/s) = -3.25328 3.53669 0.98091
# Velocity P-wave (km/s) = 3.36285 6.74894 5.33184
#
# Compressibility (1/GPa) = 0.02017948
#
# Stress axis : x y z
#
# Youngs Moduli (GPa) = 58.15959 113.16571 96.16417
#
# Poissons Ratio (x) = 0.50846 0.13931
# Poissons Ratio (y) = 0.26131 0.20996
# Poissons Ratio (z) = 0.08426 0.24707
#
# Static dielectric constant tensor:
#      x y z
#    x 3.228340 0.000000 0.000000 
#    y 0.000000 4.569960 0.000000 
#    z 0.000000 0.000000 1.172150 
# 
# 
# High freq. dielectric constant tensor:
#      x y z
#    x 1.706350 0.000000 0.000000 
#    y 0.000000 1.798770 0.000000 
#    z 0.000000 0.000000 1.778450 
# 
# From -- ./inp_files/2020.got.cif
#   From: 2010.03.12/outbox.cif.g09.slc.cpg/sg49_2_cif.got.tgz:2020.got - 2010.04.14 03:58:27.
