data_PCOD8203817
_publ_section_title
;
Structure prediction by ZEFSAII (Michael W. Deem and Ramdas Pophale) SiO2 
 PCOD8203817
Probable space group: P C C M
;
_chemical_formula_sum "Si O2"
_cell_formula_units_Z 40
_cell_length_a 25.521473
_cell_length_b 9.796563
_cell_length_c 8.564966
_cell_angle_alpha 90.000000
_cell_angle_beta 90.000000
_cell_angle_gamma 90.000000
_cell_volume 2141.436080
_symmetry_space_group_name_H-M "P C C M"
_symmetry_group_IT_number 49
_symmetry_cell_setting 'orthorhombic'
loop_
_space_group_symop_operation_xyz
x,y,z
-x,-y,z
x,-y,1/2-z
-x,y,1/2-z
-x,-y,-z
x,y,-z
-x,y,1/2+z
x,-y,1/2+z
loop_
_atom_site_type_symbol
_atom_site_label
_atom_site_fract_x
_atom_site_fract_y
_atom_site_fract_z
Si Si1 0.361418 0.650952 0.318506
Si Si2 0.754154 0.648132 0.180471
Si Si3 0.555612 0.145941 0.817004
Si Si4 0.943214 0.144826 0.315652
Si Si5 0.141200 0.652839 0.183770
O O1 0.364991 0.500000 0.250000
O O2 0.376868 0.646241 0.500000
O O3 0.302979 0.717231 0.297973
O O4 0.400813 0.744500 0.224266
O O5 0.746997 0.500000 0.250000
O O6 0.802096 0.720762 0.272916
O O7 0.770408 0.639303 0.000000
O O8 0.500000 0.194974 0.750000
O O9 0.572602 0.000000 0.750000
O O10 0.550031 0.131842 0.000000
O O11 0.946510 0.134874 0.500000
O O12 0.903944 0.262396 0.265712
O O13 0.000000 0.182870 0.250000
O O14 0.923384 0.000000 0.250000
O O15 0.139348 0.500000 0.250000
O O16 0.132326 0.653699 0.000000
#
# Coordination Sequence:
#
# PCOD8203817 Si02
#       5
#     8   8   8   8   8
#     4  10  20  35  56  83 112 142 180 222 267 317
#     4   9  17  31  52  78 109 143 177 218 267 319
#     4  11  22  38  58  79 107 142 180 221 270 323
#     4  11  22  39  59  81 109 143 181 221 270 324
#     4  11  21  35  56  83 112 144 182 224 268 317
#
# _framework density 18.679053
#
# number of rings (size 3 to 8) (size 9 to 14) (size 15 to 20)
#    0.000    1.600    0.000    9.000    0.000    3.200 
#    0.000    5.000    0.000    4.800    0.000    0.000 
#    0.000    0.000    0.000    0.000    0.000    0.000 
#
# Total GULP energy -495904.271581 kJ/mol
# GULP energy per Si atom -12397.606790 kJ/mol
# Density = 1.863654 g / cm^3
# Si number density = 18.679053 Si / 1000 Ang^3
#
#
#
# Elastic Constant Matrix: (Units=GPa)
#
#
# Indices 1 2 3 4 5 6 
#
# 1 125.1048 63.0915 54.3896 0.0000 0.0000 0.0000
# 2 63.0915 71.1615 37.1272 0.0000 0.0000 0.0000
# 3 54.3896 37.1272 167.1123 0.0000 0.0000 0.0000
# 4 0.0000 0.0000 0.0000 29.3250 0.0000 0.0000
# 5 0.0000 0.0000 0.0000 0.0000 37.1710 0.0000
# 6 0.0000 0.0000 0.0000 0.0000 0.0000 -24.7025
#
#
#
# Elastic Compliance Matrix: (Units=1/GPa)
#
#
# Indices 1 2 3 4 5 6 
#
# 1 0.015141 -0.012276 -0.002201 0.000000 0.000000 0.000000
# 2 -0.012276 0.025848 -0.001747 0.000000 0.000000 0.000000
# 3 -0.002201 -0.001747 0.007088 0.000000 0.000000 0.000000
# 4 0.000000 0.000000 0.000000 0.034101 0.000000 0.000000
# 5 0.000000 0.000000 0.000000 0.000000 0.026903 0.000000
# 6 0.000000 0.000000 0.000000 0.000000 0.000000 -0.040482
#
#
# Mechanical properties :
#
#
# Convention : Reuss Voigt Hill
#
# Bulk Modulus (GPa) = 63.97970 74.73279 69.35624
# Shear Modulus (GPa) = 47.05667 22.27673 34.66670
#
# Velocity S-wave (km/s) = 5.02463 3.45716 4.31270
# Velocity P-wave (km/s) = 8.24554 7.48543 7.87466
#
# Compressibility (1/GPa) = 0.01562996
#
# Stress axis : x y z
#
# Youngs Moduli (GPa) = 66.04725 38.68831 141.07584
#
# Poissons Ratio (x) = 0.47492 0.31044
# Poissons Ratio (y) = 0.81077 0.24649
# Poissons Ratio (z) = 0.14534 0.06760
#
# Static dielectric constant tensor:
#      x y z
#    x 3.963720 0.000000 0.000000 
#    y 0.000000 3.123360 0.000000 
#    z 0.000000 0.000000 3.864320 
# 
# 
# High freq. dielectric constant tensor:
#      x y z
#    x 1.743930 0.000000 0.000000 
#    y 0.000000 1.693440 0.000000 
#    z 0.000000 0.000000 1.751490 
# 
# From -- ./inp_files/6668.got.cif
#   From: 2010.03.12/outbox.cif.g09.slc.cpg/sg49_4_cif.got.tgz:6668.got - 2010.04.14 03:58:27.
