data_PCOD8203804
_publ_section_title
;
Structure prediction by ZEFSAII (Michael W. Deem and Ramdas Pophale) SiO2 
 PCOD8203804
Probable space group: P C C M
;
_chemical_formula_sum "Si O2"
_cell_formula_units_Z 40
_cell_length_a 25.521074
_cell_length_b 9.206584
_cell_length_c 8.622179
_cell_angle_alpha 90.000000
_cell_angle_beta 90.000000
_cell_angle_gamma 90.000000
_cell_volume 2025.883660
_symmetry_space_group_name_H-M "P C C M"
_symmetry_group_IT_number 49
_symmetry_cell_setting 'orthorhombic'
loop_
_space_group_symop_operation_xyz
x,y,z
-x,-y,z
x,-y,1/2-z
-x,y,1/2-z
-x,-y,-z
x,y,-z
-x,y,1/2+z
x,-y,1/2+z
loop_
_atom_site_type_symbol
_atom_site_label
_atom_site_fract_x
_atom_site_fract_y
_atom_site_fract_z
Si Si1 0.442963 0.846631 0.184068
Si Si2 0.747626 0.159444 0.682863
Si Si3 0.054956 0.842517 0.683655
Si Si4 0.846075 0.340738 0.683394
Si Si5 0.352943 0.342086 0.816092
O O1 0.500000 0.810940 0.250000
O O2 0.405331 0.718260 0.237928
O O3 0.422045 0.000000 0.250000
O O4 0.445351 0.855750 0.000000
O O5 0.751071 0.148144 0.500000
O O6 0.797747 0.246232 0.748729
O O7 0.695223 0.241373 0.735584
O O8 0.747136 0.000000 0.750000
O O9 0.051255 0.854085 0.500000
O O10 0.099847 0.732254 0.738859
O O11 0.000000 0.783871 0.750000
O O12 0.068666 0.000000 0.750000
O O13 0.842052 0.500000 0.750000
O O14 0.843340 0.349935 0.500000
O O15 0.341229 0.500000 0.750000
O O16 0.360001 0.347683 0.000000
#
# Coordination Sequence:
#
# PCOD8203804 Si02
#       5
#     8   8   8   8   8
#     4  11  22  39  62  88 118 153 194 238 283 335
#     4  10  22  39  60  85 113 146 188 232 279 335
#     4  10  20  35  56  81 110 144 187 231 277 330
#     4  10  22  38  56  82 113 147 185 229 279 334
#     4  11  23  39  59  86 118 152 190 234 285 340
#
# _framework density 19.74447
#
# number of rings (size 3 to 8) (size 9 to 14) (size 15 to 20)
#    0.000    1.600    0.000    6.000    0.000    6.400 
#    0.000    4.000    0.000    0.000    0.000    0.000 
#    0.000    0.000    0.000    0.000    0.000    0.000 
#
# Total GULP energy -496194.094656 kJ/mol
# GULP energy per Si atom -12404.852366 kJ/mol
# Density = 1.969953 g / cm^3
# Si number density = 19.744470 Si / 1000 Ang^3
#
#
#
# Elastic Constant Matrix: (Units=GPa)
#
#
# Indices 1 2 3 4 5 6 
#
# 1 145.1077 95.7716 51.1576 0.0000 0.0000 0.0000
# 2 95.7716 170.0686 44.6438 0.0000 0.0000 0.0000
# 3 51.1576 44.6438 86.1488 0.0000 0.0000 0.0000
# 4 0.0000 0.0000 0.0000 38.4619 0.0000 0.0000
# 5 0.0000 0.0000 0.0000 0.0000 30.7972 0.0000
# 6 0.0000 0.0000 0.0000 0.0000 0.0000 78.9895
#
#
#
# Elastic Compliance Matrix: (Units=1/GPa)
#
#
# Indices 1 2 3 4 5 6 
#
# 1 0.012183 -0.005743 -0.004259 0.000000 0.000000 0.000000
# 2 -0.005743 0.009513 -0.001519 0.000000 0.000000 0.000000
# 3 -0.004259 -0.001519 0.014924 0.000000 0.000000 0.000000
# 4 0.000000 0.000000 0.000000 0.026000 0.000000 0.000000
# 5 0.000000 0.000000 0.000000 0.000000 0.032471 0.000000
# 6 0.000000 0.000000 0.000000 0.000000 0.000000 0.012660
#
#
# Mechanical properties :
#
#
# Convention : Reuss Voigt Hill
#
# Bulk Modulus (GPa) = 73.64738 87.16346 80.40542
# Shear Modulus (GPa) = 36.94997 43.63321 40.29159
#
# Velocity S-wave (km/s) = 4.33067 4.70605 4.52226
# Velocity P-wave (km/s) = 7.89858 8.58899 8.25101
#
# Compressibility (1/GPa) = 0.01357822
#
# Stress axis : x y z
#
# Youngs Moduli (GPa) = 82.08097 105.12121 67.00560
#
# Poissons Ratio (x) = 0.60369 0.28535
# Poissons Ratio (y) = 0.47138 0.10181
# Poissons Ratio (z) = 0.34955 0.15973
#
# Static dielectric constant tensor:
#      x y z
#    x 3.935460 0.000000 0.000000 
#    y 0.000000 3.705820 0.000000 
#    z 0.000000 0.000000 3.588850 
# 
# 
# High freq. dielectric constant tensor:
#      x y z
#    x 1.787700 0.000000 0.000000 
#    y 0.000000 1.775470 0.000000 
#    z 0.000000 0.000000 1.773580 
# 
# From -- ./inp_files/1669.got.cif
#   From: 2010.03.12/outbox.cif.g09.slc.cpg/sg49_1_cif.got.tgz:1669.got - 2010.04.14 03:58:27.
