data_PCOD8203569
_publ_section_title
;
Structure prediction by ZEFSAII (Michael W. Deem and Ramdas Pophale) SiO2 
 PCOD8203569
Probable space group: P C C M
;
_chemical_formula_sum "Si O2"
_cell_formula_units_Z 56
_cell_length_a 14.818282
_cell_length_b 22.198759
_cell_length_c 8.763328
_cell_angle_alpha 90.000000
_cell_angle_beta 90.000000
_cell_angle_gamma 90.000000
_cell_volume 2882.674582
_symmetry_space_group_name_H-M "P C C M"
_symmetry_group_IT_number 49
_symmetry_cell_setting 'orthorhombic'
loop_
_space_group_symop_operation_xyz
x,y,z
-x,-y,z
x,-y,1/2-z
-x,y,1/2-z
-x,-y,-z
x,y,-z
-x,y,1/2+z
x,-y,1/2+z
loop_
_atom_site_type_symbol
_atom_site_label
_atom_site_fract_x
_atom_site_fract_y
_atom_site_fract_z
Si Si1 0.226355 0.670906 0.679307
Si Si2 0.593616 0.704911 0.321194
Si Si3 0.904920 0.436443 0.680199
Si Si4 0.406301 0.844421 0.179375
Si Si5 0.274804 0.061219 0.819636
Si Si6 0.093476 0.902225 0.177020
Si Si7 0.092865 0.239515 0.324373
O O1 0.235671 0.677940 0.500000
O O2 0.325531 0.665659 0.751402
O O3 0.170983 0.611591 0.725772
O O4 0.177249 0.729830 0.743315
O O5 0.500000 0.681819 0.250000
O O6 0.589819 0.694250 0.500000
O O7 0.609564 0.774762 0.279557
O O8 0.874525 0.500000 0.750000
O O9 0.916295 0.442826 0.500000
O O10 0.000000 0.415006 0.750000
O O11 0.500000 0.867528 0.250000
O O12 0.325253 0.881107 0.252996
O O13 0.407720 0.855715 0.000000
O O14 0.170869 0.064286 0.770272
O O15 0.317195 0.000000 0.750000
O O16 0.284273 0.060179 0.000000
O O17 0.105214 0.831137 0.198117
O O18 0.000000 0.924189 0.250000
O O19 0.097909 0.920715 0.000000
O O20 0.091350 0.258536 0.500000
O O21 0.000000 0.262497 0.250000
#
# Coordination Sequence:
#
# PCOD8203569 Si02
#       7
#     8   8   8   8   8   8   8
#     4  11  22  34  53  82 114 147 186 228 273 325
#     4  10  21  37  59  85 114 146 180 222 272 325
#     4  10  21  36  55  80 112 152 193 234 274 319
#     4  10  21  39  61  86 113 142 177 218 269 328
#     4  12  25  40  58  80 106 139 179 224 271 322
#     4  10  21  38  57  79 107 140 179 222 269 324
#     4  10  20  33  52  79 111 144 178 219 270 325
#
# _framework density 19.426403000000001
#
# number of rings (size 3 to 8) (size 9 to 14) (size 15 to 20)
#    0.000    1.571    0.000    5.571    0.000   10.857 
#    0.000    2.857    0.000    0.429    0.000    3.000 
#    0.000    0.000    0.000    0.000    0.000    0.000 
#
# Total GULP energy -694753.351741 kJ/mol
# GULP energy per Si atom -12406.309853 kJ/mol
# Density = 1.938219 g / cm^3
# Si number density = 19.426403 Si / 1000 Ang^3
#
#
#
# Elastic Constant Matrix: (Units=GPa)
#
#
# Indices 1 2 3 4 5 6 
#
# 1 134.2920 44.0467 51.6392 0.0000 0.0000 0.0000
# 2 44.0467 58.5720 42.8231 0.0000 0.0000 0.0000
# 3 51.6392 42.8231 112.1800 0.0000 0.0000 0.0000
# 4 0.0000 0.0000 0.0000 -4.3229 0.0000 0.0000
# 5 0.0000 0.0000 0.0000 0.0000 41.4958 0.0000
# 6 0.0000 0.0000 0.0000 0.0000 0.0000 19.1751
#
#
#
# Elastic Compliance Matrix: (Units=1/GPa)
#
#
# Indices 1 2 3 4 5 6 
#
# 1 0.010363 -0.005972 -0.002491 0.000000 0.000000 0.000000
# 2 -0.005972 0.027124 -0.007605 0.000000 0.000000 0.000000
# 3 -0.002491 -0.007605 0.012964 0.000000 0.000000 0.000000
# 4 0.000000 0.000000 0.000000 -0.231325 0.000000 0.000000
# 5 0.000000 0.000000 0.000000 0.000000 0.024099 0.000000
# 6 0.000000 0.000000 0.000000 0.000000 0.000000 0.052151
#
#
# Mechanical properties :
#
#
# Convention : Reuss Voigt Hill
#
# Bulk Modulus (GPa) = 54.59875 64.67355 59.63615
# Shear Modulus (GPa) = -75.32125 22.37191 -26.47467
#
# Velocity S-wave (km/s) = -6.23352 3.39724 -3.69564
# Velocity P-wave (km/s) = 4.86237 6.98228 3.54327
#
# Compressibility (1/GPa) = 0.01831544
#
# Stress axis : x y z
#
# Youngs Moduli (GPa) = 96.49749 36.86706 77.13726
#
# Poissons Ratio (x) = 0.22018 0.19211
# Poissons Ratio (y) = 0.57630 0.58665
# Poissons Ratio (z) = 0.24033 0.28038
#
# Static dielectric constant tensor:
#      x y z
#    x 3.629600 0.000000 0.000000 
#    y 0.000000 3.438310 0.000000 
#    z 0.000000 0.000000 3.680550 
# 
# 
# High freq. dielectric constant tensor:
#      x y z
#    x 1.761030 0.000000 0.000000 
#    y 0.000000 1.740130 0.000000 
#    z 0.000000 0.000000 1.774480 
# 
# From -- ./inp_files/4011.got.cif
#   From: 2010.03.12/outbox.cif.g09.slc.cpg/sg49_3_cif.got.tgz:4011.got - 2010.04.14 03:58:27.
