data_PCOD8203342
_publ_section_title
;
Structure prediction by ZEFSAII (Michael W. Deem and Ramdas Pophale) SiO2 
 PCOD8203342
Probable space group: P C C M
;
_chemical_formula_sum "Si O2"
_cell_formula_units_Z 48
_cell_length_a 27.835996
_cell_length_b 8.814198
_cell_length_c 10.054799
_cell_angle_alpha 90.000000
_cell_angle_beta 90.000000
_cell_angle_gamma 90.000000
_cell_volume 2466.964846
_symmetry_space_group_name_H-M "P C C M"
_symmetry_group_IT_number 49
_symmetry_cell_setting 'orthorhombic'
loop_
_space_group_symop_operation_xyz
x,y,z
-x,-y,z
x,-y,1/2-z
-x,y,1/2-z
-x,-y,-z
x,y,-z
-x,y,1/2+z
x,-y,1/2+z
loop_
_atom_site_type_symbol
_atom_site_label
_atom_site_fract_x
_atom_site_fract_y
_atom_site_fract_z
Si Si1 0.048128 0.323680 0.500000
Si Si2 0.547667 0.181968 0.000000
Si Si3 0.565717 0.837101 0.000000
Si Si4 0.794563 0.143347 0.845521
Si Si5 0.887387 0.320426 0.240173
Si Si6 0.293960 0.361646 0.347606
Si Si7 0.601415 0.321889 0.762230
Si Si8 0.940803 0.316169 0.500000
O O1 0.075208 0.265066 0.370267
O O2 0.050474 0.504799 0.500000
O O3 0.994912 0.250541 0.500000
O O4 0.563167 0.267273 0.868374
O O5 0.490686 0.190377 0.000000
O O6 0.572435 0.017445 0.000000
O O7 0.591855 0.764465 0.125724
O O8 0.835999 0.252052 0.791661
O O9 0.744859 0.231007 0.830346
O O10 0.792415 0.000000 0.750000
O O11 0.803412 0.097449 0.000000
O O12 0.880818 0.500000 0.250000
O O13 0.909910 0.257434 0.376000
O O14 0.281317 0.500000 0.250000
O O15 0.295165 0.422018 0.500000
O O16 0.344686 0.286133 0.309870
O O17 0.593963 0.500000 0.750000
#
# Coordination Sequence:
#
# PCOD8203342 Si02
#       8
#     4   4   4   8   8   8   8   4
#     4   9  16  32  52  87 122 151 192 255 294 351
#     4  11  23  43  60  91 132 169 218 257 304 373
#     4  11  25  39  64  91 128 177 212 255 310 365
#     4  11  25  43  61  88 122 159 202 248 298 360
#     4  10  19  35  59  88 118 157 196 247 303 354
#     4  10  23  44  68  94 123 155 197 251 307 366
#     4  11  23  41  65  96 125 163 208 263 317 367
#     4   9  18  28  56  89 118 149 200 243 304 353
#
# _framework density 19.457107000000001
#
# number of rings (size 3 to 8) (size 9 to 14) (size 15 to 20)
#    0.000    1.667    1.667    2.500    4.667    7.333 
#    0.000    0.000    0.000    3.000    0.000    0.000 
#    0.000    0.000    0.000    0.000    0.000    0.000 
#
# Total GULP energy -595221.648595 kJ/mol
# GULP energy per Si atom -12400.451012 kJ/mol
# Density = 1.941282 g / cm^3
# Si number density = 19.457107 Si / 1000 Ang^3
#
#
#
# Elastic Constant Matrix: (Units=GPa)
#
#
# Indices 1 2 3 4 5 6 
#
# 1 111.5804 56.9297 66.7407 0.0000 0.0000 0.0000
# 2 56.9297 73.1336 53.9995 0.0000 0.0000 0.0000
# 3 66.7407 53.9995 184.9258 0.0000 0.0000 0.0000
# 4 0.0000 0.0000 0.0000 3.4979 0.0000 0.0000
# 5 0.0000 0.0000 0.0000 0.0000 35.5436 0.0000
# 6 0.0000 0.0000 0.0000 0.0000 0.0000 -0.0899
#
#
#
# Elastic Compliance Matrix: (Units=1/GPa)
#
#
# Indices 1 2 3 4 5 6 
#
# 1 0.015859 -0.010351 -0.002701 0.000000 0.000000 0.000000
# 2 -0.010351 0.024188 -0.003327 0.000000 0.000000 0.000000
# 3 -0.002701 -0.003327 0.007354 0.000000 0.000000 0.000000
# 4 0.000000 0.000000 0.000000 0.285887 0.000000 0.000000
# 5 0.000000 0.000000 0.000000 0.000000 0.028134 0.000000
# 6 0.000000 0.000000 0.000000 0.000000 0.000000-11.123739
#
#
# Mechanical properties :
#
#
# Convention : Reuss Voigt Hill
#
# Bulk Modulus (GPa) = 68.29494 80.55330 74.42412
# Shear Modulus (GPa) = -0.46621 20.58830 10.06104
#
# Velocity S-wave (km/s) = -0.49003 3.25643 2.27642
# Velocity P-wave (km/s) = 5.90392 7.45852 6.72628
#
# Compressibility (1/GPa) = 0.01464237
#
# Stress axis : x y z
#
# Youngs Moduli (GPa) = 63.05651 41.34326 135.98016
#
# Poissons Ratio (x) = 0.42793 0.36729
# Poissons Ratio (y) = 0.65268 0.45246
# Poissons Ratio (z) = 0.17032 0.13756
#
# Static dielectric constant tensor:
#      x y z
#    x 3.733250 0.000000 0.000000 
#    y 0.000000 3.419500 0.000000 
#    z 0.000000 0.000000 3.842060 
# 
# 
# High freq. dielectric constant tensor:
#      x y z
#    x 1.775290 0.000000 0.000000 
#    y 0.000000 1.735070 0.000000 
#    z 0.000000 0.000000 1.779990 
# 
# From -- ./inp_files/6934.got.cif
#   From: 2010.03.12/outbox.cif.g09.slc.cpg/sg49_4_cif.got.tgz:6934.got - 2010.04.14 03:58:27.
