data_PCOD8203536
_publ_section_title
;
Structure prediction by ZEFSAII (Michael W. Deem and Ramdas Pophale) SiO2 
 PCOD8203536
Probable space group: P C C M
;
_chemical_formula_sum "Si O2"
_cell_formula_units_Z 58
_cell_length_a 23.132819
_cell_length_b 14.998764
_cell_length_c 9.165075
_cell_angle_alpha 90.000000
_cell_angle_beta 90.000000
_cell_angle_gamma 90.000000
_cell_volume 3179.948267
_symmetry_space_group_name_H-M "P C C M"
_symmetry_group_IT_number 49
_symmetry_cell_setting 'orthorhombic'
loop_
_space_group_symop_operation_xyz
x,y,z
-x,-y,z
x,-y,1/2-z
-x,y,1/2-z
-x,-y,-z
x,y,-z
-x,y,1/2+z
x,-y,1/2+z
loop_
_atom_site_type_symbol
_atom_site_label
_atom_site_fract_x
_atom_site_fract_y
_atom_site_fract_z
Si Si1 0.177669 0.775757 0.828118
Si Si2 0.000000 0.000000 0.250000
Si Si3 0.223933 0.586069 0.167257
Si Si4 0.947535 0.171979 0.839051
Si Si5 0.440913 0.724416 0.326995
Si Si6 0.740655 0.089377 0.327590
Si Si7 0.642663 0.409523 0.826819
Si Si8 0.608004 0.914008 0.167797
O O1 0.185101 0.671357 0.793825
O O2 0.114631 0.805706 0.769926
O O3 0.225082 0.827300 0.735553
O O4 0.185999 0.796328 0.000000
O O5 0.041847 0.064485 0.345048
O O6 0.199315 0.500000 0.250000
O O7 0.290190 0.606206 0.208939
O O8 0.219342 0.560914 0.000000
O O9 0.000000 0.218299 0.750000
O O10 0.949157 0.212670 0.000000
O O11 0.500000 0.694606 0.250000
O O12 0.442525 0.704084 0.500000
O O13 0.389648 0.671594 0.249856
O O14 0.430720 0.828617 0.295287
O O15 0.750716 0.081735 0.500000
O O16 0.673947 0.105408 0.285629
O O17 0.763826 0.000000 0.250000
O O18 0.620767 0.500000 0.750000
O O19 0.629942 0.412618 0.000000
O O20 0.582520 0.000000 0.250000
O O21 0.605339 0.938906 0.000000
#
# Coordination Sequence:
#
# PCOD8203536 Si02
#       8
#     8   2   8   8   8   8   8   8
#     4  10  20  34  51  78 109 140 173 219 267 312
#     4   8  18  32  50  68  96 140 182 216 252 296
#     4   9  19  35  57  81 109 137 171 213 264 316
#     4   9  19  32  49  71 102 138 177 217 258 302
#     4  11  23  38  55  78 105 136 174 219 260 309
#     4  10  20  33  50  76 106 139 173 212 258 314
#     4  10  20  36  58  83 107 138 169 207 259 319
#     4   9  20  37  55  74 102 137 175 216 262 308
#
# _framework density 18.23929
#
# number of rings (size 3 to 8) (size 9 to 14) (size 15 to 20)
#    0.414    1.931    0.000    2.276    0.966    3.862 
#    0.000    2.759    0.000    0.414    0.000    2.897 
#    0.000    0.000    0.000    0.000    0.000    0.000 
#
# Total GULP energy -719098.703604 kJ/mol
# GULP energy per Si atom -12398.253510 kJ/mol
# Density = 1.819778 g / cm^3
# Si number density = 18.239290 Si / 1000 Ang^3
#
#
#
# Elastic Constant Matrix: (Units=GPa)
#
#
# Indices 1 2 3 4 5 6 
#
# 1 64.6485 35.0927 27.7390 0.0000 0.0000 0.0000
# 2 35.0927 89.2259 36.6979 0.0000 0.0000 0.0000
# 3 27.7390 36.6979 74.6300 0.0000 0.0000 0.0000
# 4 0.0000 0.0000 0.0000 33.6334 0.0000 0.0000
# 5 0.0000 0.0000 0.0000 0.0000 23.3581 0.0000
# 6 0.0000 0.0000 0.0000 0.0000 0.0000 22.6030
#
#
#
# Elastic Compliance Matrix: (Units=1/GPa)
#
#
# Indices 1 2 3 4 5 6 
#
# 1 0.020889 -0.006295 -0.004668 0.000000 0.000000 0.000000
# 2 -0.006295 0.015946 -0.005501 0.000000 0.000000 0.000000
# 3 -0.004668 -0.005501 0.017840 0.000000 0.000000 0.000000
# 4 0.000000 0.000000 0.000000 0.029732 0.000000 0.000000
# 5 0.000000 0.000000 0.000000 0.000000 0.042812 0.000000
# 6 0.000000 0.000000 0.000000 0.000000 0.000000 0.044242
#
#
# Mechanical properties :
#
#
# Convention : Reuss Voigt Hill
#
# Bulk Modulus (GPa) = 45.98899 47.50707 46.74803
# Shear Modulus (GPa) = 23.62513 24.51721 24.07117
#
# Velocity S-wave (km/s) = 3.60292 3.67031 3.63677
# Velocity P-wave (km/s) = 6.52510 6.63812 6.58185
#
# Compressibility (1/GPa) = 0.02174434
#
# Stress axis : x y z
#
# Youngs Moduli (GPa) = 47.87288 62.71098 56.05457
#
# Poissons Ratio (x) = 0.39480 0.26168
# Poissons Ratio (y) = 0.30138 0.30837
# Poissons Ratio (z) = 0.22349 0.34499
#
# Static dielectric constant tensor:
#      x y z
#    x 3.298350 0.000000 0.000000 
#    y 0.000000 3.320590 0.000000 
#    z 0.000000 0.000000 3.356720 
# 
# 
# High freq. dielectric constant tensor:
#      x y z
#    x 1.695760 0.000000 0.000000 
#    y 0.000000 1.700300 0.000000 
#    z 0.000000 0.000000 1.710110 
# 
# From -- ./inp_files/6434.got.cif
#   From: 2010.03.12/outbox.cif.g09.slc.cpg/sg49_4_cif.got.tgz:6434.got - 2010.04.14 03:58:27.
