data_PCOD8203709
_publ_section_title
;
Structure prediction by ZEFSAII (Michael W. Deem and Ramdas Pophale) SiO2 
 PCOD8203709
Probable space group: P C C M
;
_chemical_formula_sum "Si O2"
_cell_formula_units_Z 40
_cell_length_a 15.209104
_cell_length_b 8.615720
_cell_length_c 14.888258
_cell_angle_alpha 90.000000
_cell_angle_beta 90.000000
_cell_angle_gamma 90.000000
_cell_volume 1950.918344
_symmetry_space_group_name_H-M "P C C M"
_symmetry_group_IT_number 49
_symmetry_cell_setting 'orthorhombic'
loop_
_space_group_symop_operation_xyz
x,y,z
-x,-y,z
x,-y,1/2-z
-x,y,1/2-z
-x,-y,-z
x,y,-z
-x,y,1/2+z
x,-y,1/2+z
loop_
_atom_site_type_symbol
_atom_site_label
_atom_site_fract_x
_atom_site_fract_y
_atom_site_fract_z
Si Si1 0.852115 0.445000 0.346349
Si Si2 0.961647 0.328676 0.500000
Si Si3 0.149336 0.305720 0.500000
Si Si4 0.656914 0.400205 0.667914
Si Si5 0.320910 0.887944 0.000000
Si Si6 0.596611 0.569536 0.500000
Si Si7 0.403813 0.061199 0.153984
O O1 0.895462 0.500000 0.250000
O O2 0.907127 0.316729 0.405579
O O3 0.837503 0.594165 0.409557
O O4 0.760110 0.361656 0.319843
O O5 0.000000 0.500000 0.500000
O O6 0.051013 0.224498 0.500000
O O7 0.221589 0.171854 0.500000
O O8 0.618437 0.500000 0.750000
O O9 0.650680 0.511589 0.583896
O O10 0.597574 0.247784 0.654610
O O11 0.332010 0.997399 0.085740
O O12 0.397103 0.756058 0.000000
O O13 0.500000 0.500000 0.500000
O O14 0.500000 0.000000 0.126774
O O15 0.374871 0.000000 0.250000
#
# Coordination Sequence:
#
# PCOD8203709 Si02
#       7
#     8   4   4   8   4   4   8
#     4   9  17  32  59  87 121 158 209 256 307 353
#     4   8  17  31  51  90 129 151 197 256 305 358
#     4  10  20  34  56  91 128 160 202 253 309 370
#     4  11  22  39  62  89 118 158 210 257 300 361
#     4  12  22  40  61  88 128 164 199 255 313 374
#     4  12  22  35  59  85 114 156 206 254 303 353
#     4  11  25  42  60  87 123 165 209 255 316 371
#
# _framework density 20.503164000000002
#
# number of rings (size 3 to 8) (size 9 to 14) (size 15 to 20)
#    0.000    1.800    2.000    3.900    2.800    5.600 
#    0.000    0.000    0.000    2.400    0.000    1.400 
#    0.000    0.000    0.000    0.000    0.000    0.000 
#
# Total GULP energy -495706.074711 kJ/mol
# GULP energy per Si atom -12392.651868 kJ/mol
# Density = 2.045650 g / cm^3
# Si number density = 20.503164 Si / 1000 Ang^3
#
#
#
# Elastic Constant Matrix: (Units=GPa)
#
#
# Indices 1 2 3 4 5 6 
#
# 1 119.6275 32.3894 29.8897 0.0000 0.0000 0.0000
# 2 32.3894 100.0148 36.4093 0.0000 0.0000 0.0000
# 3 29.8897 36.4093 165.4154 0.0000 0.0000 0.0000
# 4 0.0000 0.0000 0.0000 28.8575 0.0000 0.0000
# 5 0.0000 0.0000 0.0000 0.0000 50.2691 0.0000
# 6 0.0000 0.0000 0.0000 0.0000 0.0000 27.9487
#
#
#
# Elastic Compliance Matrix: (Units=1/GPa)
#
#
# Indices 1 2 3 4 5 6 
#
# 1 0.009347 -0.002622 -0.001112 0.000000 0.000000 0.000000
# 2 -0.002622 0.011605 -0.002081 0.000000 0.000000 0.000000
# 3 -0.001112 -0.002081 0.006704 0.000000 0.000000 0.000000
# 4 0.000000 0.000000 0.000000 0.034653 0.000000 0.000000
# 5 0.000000 0.000000 0.000000 0.000000 0.019893 0.000000
# 6 0.000000 0.000000 0.000000 0.000000 0.000000 0.035780
#
#
# Mechanical properties :
#
#
# Convention : Reuss Voigt Hill
#
# Bulk Modulus (GPa) = 62.39394 64.71494 63.55444
# Shear Modulus (GPa) = 37.04969 40.50634 38.77802
#
# Velocity S-wave (km/s) = 4.25552 4.44961 4.35365
# Velocity P-wave (km/s) = 7.39212 7.61778 7.50580
#
# Compressibility (1/GPa) = 0.01602720
#
# Stress axis : x y z
#
# Youngs Moduli (GPa) = 106.98554 86.16868 149.15964
#
# Poissons Ratio (x) = 0.22596 0.16583
# Poissons Ratio (y) = 0.28055 0.31034
# Poissons Ratio (z) = 0.11894 0.17928
#
# Static dielectric constant tensor:
#      x y z
#    x 4.404780 0.000000 0.000000 
#    y 0.000000 3.394100 0.000000 
#    z 0.000000 0.000000 4.075930 
# 
# 
# High freq. dielectric constant tensor:
#      x y z
#    x 1.804790 0.000000 0.000000 
#    y 0.000000 1.755780 0.000000 
#    z 0.000000 0.000000 1.823090 
# 
# From -- ./inp_files/13390.got.cif
#   From: 2010.03.12/outbox.cif.g09.slc.cpg/sg49_7_cif.got.tgz:13390.got - 2010.04.14 03:58:27.
