data_PCOD8203542
_publ_section_title
;
Structure prediction by ZEFSAII (Michael W. Deem and Ramdas Pophale) SiO2 
 PCOD8203542
Probable space group: P C C M
;
_chemical_formula_sum "Si O2"
_cell_formula_units_Z 48
_cell_length_a 18.392112
_cell_length_b 16.145526
_cell_length_c 8.593330
_cell_angle_alpha 90.000000
_cell_angle_beta 90.000000
_cell_angle_gamma 90.000000
_cell_volume 2551.792115
_symmetry_space_group_name_H-M "P C C M"
_symmetry_group_IT_number 49
_symmetry_cell_setting 'orthorhombic'
loop_
_space_group_symop_operation_xyz
x,y,z
-x,-y,z
x,-y,1/2-z
-x,y,1/2-z
-x,-y,-z
x,y,-z
-x,y,1/2+z
x,-y,1/2+z
loop_
_atom_site_type_symbol
_atom_site_label
_atom_site_fract_x
_atom_site_fract_y
_atom_site_fract_z
Si Si1 0.346882 0.413566 0.681916
Si Si2 0.077557 0.752126 0.683076
Si Si3 0.420479 0.250455 0.184469
Si Si4 0.712084 0.816087 0.320140
Si Si5 0.151197 0.912686 0.821781
Si Si6 0.783721 0.338572 0.320915
O O1 0.375890 0.500000 0.750000
O O2 0.362299 0.410136 0.500000
O O3 0.390727 0.340336 0.765401
O O4 0.259809 0.405516 0.716804
O O5 0.073277 0.761383 0.500000
O O6 0.104023 0.840003 0.747275
O O7 0.132198 0.676285 0.728874
O O8 0.000000 0.726937 0.750000
O O9 0.500000 0.236640 0.250000
O O10 0.371120 0.176480 0.260903
O O11 0.420552 0.243039 0.000000
O O12 0.713852 0.785341 0.500000
O O13 0.761446 0.898194 0.301207
O O14 0.745745 0.749450 0.203314
O O15 0.129339 0.000000 0.750000
O O16 0.128887 0.914787 0.000000
O O17 0.776959 0.365907 0.500000
#
# Coordination Sequence:
#
# PCOD8203542 Si02
#       6
#     8   8   8   8   8   8
#     4  11  21  34  52  75 102 132 165 202 244 292
#     4  10  20  33  51  74 102 132 166 204 247 295
#     4  11  21  34  52  75 102 132 165 202 244 292
#     4   9  17  31  50  72  96 127 165 204 242 287
#     4  10  20  33  51  74 102 132 166 204 247 295
#     4   9  17  31  50  72  96 127 165 204 242 287
#
# _framework density 18.810309
#
# number of rings (size 3 to 8) (size 9 to 14) (size 15 to 20)
#    0.000    2.000    0.000    7.000    0.000    4.667 
#    0.000    3.333    0.000    1.000    0.000    7.000 
#    0.000    0.000    0.000    0.000    0.000    0.000 
#
# Total GULP energy -594842.373180 kJ/mol
# GULP energy per Si atom -12392.549441 kJ/mol
# Density = 1.876750 g / cm^3
# Si number density = 18.810309 Si / 1000 Ang^3
#
#
#
# Elastic Constant Matrix: (Units=GPa)
#
#
# Indices 1 2 3 4 5 6 
#
# 1 112.5622 -8.0553 25.7115 0.0000 0.0000 0.0000
# 2 -8.0553 5.9704 -0.3637 0.0000 0.0000 0.0000
# 3 25.7115 -0.3637 88.6438 0.0000 0.0000 0.0000
# 4 0.0000 0.0000 0.0000 21.3418 0.0000 0.0000
# 5 0.0000 0.0000 0.0000 0.0000 33.8431 0.0000
# 6 0.0000 0.0000 0.0000 0.0000 0.0000 16.3675
#
#
#
# Elastic Compliance Matrix: (Units=1/GPa)
#
#
# Indices 1 2 3 4 5 6 
#
# 1 0.010580 0.014091 -0.003011 0.000000 0.000000 0.000000
# 2 0.014091 0.186303 -0.003323 0.000000 0.000000 0.000000
# 3 -0.003011 -0.003323 0.012141 0.000000 0.000000 0.000000
# 4 0.000000 0.000000 0.000000 0.046856 0.000000 0.000000
# 5 0.000000 0.000000 0.000000 0.000000 0.029548 0.000000
# 6 0.000000 0.000000 0.000000 0.000000 0.000000 0.061097
#
#
# Mechanical properties :
#
#
# Convention : Reuss Voigt Hill
#
# Bulk Modulus (GPa) = 4.45357 26.86237 15.65797
# Shear Modulus (GPa) = 12.31963 26.96942 19.64452
#
# Velocity S-wave (km/s) = 2.56196 3.79061 3.23514
# Velocity P-wave (km/s) = 3.33530 5.78532 4.72198
#
# Compressibility (1/GPa) = 0.22453921
#
# Stress axis : x y z
#
# Youngs Moduli (GPa) = 94.51635 5.36760 82.36675
#
# Poissons Ratio (x) = -0.07564 0.24801
# Poissons Ratio (y) = -1.33187 0.27369
# Poissons Ratio (z) = 0.28459 0.01784
#
# Static dielectric constant tensor:
#      x y z
#    x 4.405060 0.000000 0.000000 
#    y 0.000000 3.093170 0.000000 
#    z 0.000000 0.000000 3.546370 
# 
# 
# High freq. dielectric constant tensor:
#      x y z
#    x 1.733130 0.000000 0.000000 
#    y 0.000000 1.688630 0.000000 
#    z 0.000000 0.000000 1.749810 
# 
# From -- ./inp_files/3723.got.cif
#   From: 2010.03.12/outbox.cif.g09.slc.cpg/sg49_2_cif.got.tgz:3723.got - 2010.04.14 03:58:27.
