data_PCOD8203045
_publ_section_title
;
Structure prediction by ZEFSAII (Michael W. Deem and Ramdas Pophale) SiO2 
 PCOD8203045
Probable space group: P C C M
;
_chemical_formula_sum "Si O2"
_cell_formula_units_Z 56
_cell_length_a 29.273793
_cell_length_b 5.108218
_cell_length_c 18.783629
_cell_angle_alpha 90.000000
_cell_angle_beta 90.000000
_cell_angle_gamma 90.000000
_cell_volume 2808.845958
_symmetry_space_group_name_H-M "P C C M"
_symmetry_group_IT_number 49
_symmetry_cell_setting 'orthorhombic'
loop_
_space_group_symop_operation_xyz
x,y,z
-x,-y,z
x,-y,1/2-z
-x,y,1/2-z
-x,-y,-z
x,y,-z
-x,y,1/2+z
x,-y,1/2+z
loop_
_atom_site_type_symbol
_atom_site_label
_atom_site_fract_x
_atom_site_fract_y
_atom_site_fract_z
Si Si1 0.955496 0.627548 0.920774
Si Si2 0.724901 0.259955 0.796027
Si Si3 0.595244 0.307092 0.420420
Si Si4 0.102629 0.882156 0.919368
Si Si5 0.828740 0.254963 0.203437
Si Si6 0.654724 0.192634 0.919338
Si Si7 0.449045 0.749527 0.718581
O O1 0.932062 0.891842 0.887735
O O2 0.000000 0.500000 0.880196
O O3 0.919118 0.400699 0.923086
O O4 0.971770 0.711250 0.000000
O O5 0.705016 0.500000 0.750000
O O6 0.776967 0.323462 0.818390
O O7 0.697469 0.235814 0.868839
O O8 0.720369 0.000000 0.750000
O O9 0.575444 0.279813 0.500000
O O10 0.615459 0.593122 0.406097
O O11 0.552621 0.257709 0.367068
O O12 0.634303 0.094289 0.405471
O O13 0.145040 0.828290 0.868036
O O14 0.118102 0.966136 0.000000
O O15 0.849311 0.500000 0.250000
O O16 0.830223 0.000000 0.250000
O O17 0.672934 0.217041 0.000000
O O18 0.422344 0.500000 0.750000
O O19 0.500000 0.751170 0.750000
O O20 0.422466 0.000000 0.750000
#
# Coordination Sequence:
#
# PCOD8203045 Si02
#       7
#     8   8   8   8   8   8   8
#     4   9  17  30  50  78 108 133 169 226 277 317
#     4  10  21  36  55  80 108 143 183 220 266 323
#     4  10  21  37  56  80 111 144 176 217 274 330
#     4  10  19  32  54  80 102 136 184 222 263 321
#     4  10  21  37  54  75 109 147 180 219 271 327
#     4  10  21  36  56  83 112 142 178 223 275 324
#     4  10  21  37  55  80 108 138 181 226 264 311
#
# _framework density 19.937011999999999
#
# number of rings (size 3 to 8) (size 9 to 14) (size 15 to 20)
#    0.000    2.143    0.000    3.000    0.000    5.714 
#    0.000    2.857    0.000   16.714    0.000    0.000 
#    0.000    0.000    0.000    0.000    0.000    0.000 
#
# Total GULP energy -693826.777436 kJ/mol
# GULP energy per Si atom -12389.763883 kJ/mol
# Density = 1.989163 g / cm^3
# Si number density = 19.937012 Si / 1000 Ang^3
#
#
#
# Elastic Constant Matrix: (Units=GPa)
#
#
# Indices 1 2 3 4 5 6 
#
# 1 67.7192 9.5605 62.5791 0.0000 0.0000 0.0000
# 2 9.5605 125.1878 26.4233 0.0000 0.0000 0.0000
# 3 62.5791 26.4233 127.6245 0.0000 0.0000 0.0000
# 4 0.0000 0.0000 0.0000 27.2102 0.0000 0.0000
# 5 0.0000 0.0000 0.0000 0.0000 45.8139 0.0000
# 6 0.0000 0.0000 0.0000 0.0000 0.0000 4.7519
#
#
#
# Elastic Compliance Matrix: (Units=1/GPa)
#
#
# Indices 1 2 3 4 5 6 
#
# 1 0.027072 0.000768 -0.013434 0.000000 0.000000 0.000000
# 2 0.000768 0.008375 -0.002110 0.000000 0.000000 0.000000
# 3 -0.013434 -0.002110 0.014859 0.000000 0.000000 0.000000
# 4 0.000000 0.000000 0.000000 0.036751 0.000000 0.000000
# 5 0.000000 0.000000 0.000000 0.000000 0.021827 0.000000
# 6 0.000000 0.000000 0.000000 0.000000 0.000000 0.210442
#
#
# Mechanical properties :
#
#
# Convention : Reuss Voigt Hill
#
# Bulk Modulus (GPa) = 48.18267 57.51750 52.85008
# Shear Modulus (GPa) = 14.05294 30.35311 22.20303
#
# Velocity S-wave (km/s) = 2.65781 3.90609 3.34077
# Velocity P-wave (km/s) = 5.79987 7.01824 6.43794
#
# Compressibility (1/GPa) = 0.02075435
#
# Stress axis : x y z
#
# Youngs Moduli (GPa) = 36.93799 119.40579 67.29730
#
# Poissons Ratio (x) = -0.09169 0.90405
# Poissons Ratio (y) = -0.02837 0.14203
# Poissons Ratio (z) = 0.49621 0.25200
#
# Static dielectric constant tensor:
#      x y z
#    x 3.366960 0.000000 0.000000 
#    y 0.000000 3.880380 0.000000 
#    z 0.000000 0.000000 3.481310 
# 
# 
# High freq. dielectric constant tensor:
#      x y z
#    x 1.750070 0.000000 0.000000 
#    y 0.000000 1.811690 0.000000 
#    z 0.000000 0.000000 1.763400 
# 
# From -- ./inp_files/10766.got.cif
#   From: 2010.03.12/outbox.cif.g09.slc.cpg/sg49_6_cif.got.tgz:10766.got - 2010.04.14 03:58:27.
