data_PCOD8203087
_publ_section_title
;
Structure prediction by ZEFSAII (Michael W. Deem and Ramdas Pophale) SiO2 
 PCOD8203087
Probable space group: P C C M
;
_chemical_formula_sum "Si O2"
_cell_formula_units_Z 56
_cell_length_a 20.144043
_cell_length_b 15.556850
_cell_length_c 8.703144
_cell_angle_alpha 90.000000
_cell_angle_beta 90.000000
_cell_angle_gamma 90.000000
_cell_volume 2727.372601
_symmetry_space_group_name_H-M "P C C M"
_symmetry_group_IT_number 49
_symmetry_cell_setting 'orthorhombic'
loop_
_space_group_symop_operation_xyz
x,y,z
-x,-y,z
x,-y,1/2-z
-x,y,1/2-z
-x,-y,-z
x,y,-z
-x,y,1/2+z
x,-y,1/2+z
loop_
_atom_site_type_symbol
_atom_site_label
_atom_site_fract_x
_atom_site_fract_y
_atom_site_fract_z
Si Si1 0.176448 0.219432 0.816453
Si Si2 0.188865 0.586872 0.329820
Si Si3 0.712524 0.913698 0.181906
Si Si4 0.565527 0.885434 0.177776
Si Si5 0.654498 0.584199 0.171864
Si Si6 0.927488 0.089835 0.816952
Si Si7 0.562426 0.295697 0.179640
O O1 0.173075 0.318966 0.755402
O O2 0.245486 0.171296 0.769143
O O3 0.116964 0.169358 0.736057
O O4 0.168707 0.217751 0.000000
O O5 0.159542 0.500000 0.250000
O O6 0.158527 0.585335 0.500000
O O7 0.267242 0.579847 0.334267
O O8 0.637011 0.912464 0.249420
O O9 0.746814 0.000000 0.250000
O O10 0.711467 0.919688 0.000000
O O11 0.500000 0.932101 0.250000
O O12 0.560066 0.785749 0.210052
O O13 0.564640 0.906310 0.000000
O O14 0.624282 0.500000 0.250000
O O15 0.632285 0.659973 0.284846
O O16 0.625697 0.595579 0.000000
O O17 0.000000 0.106871 0.750000
O O18 0.898988 0.000000 0.750000
O O19 0.930004 0.084229 0.000000
O O20 0.500000 0.351072 0.250000
O O21 0.556456 0.273907 0.000000
#
# Coordination Sequence:
#
# PCOD8203087 Si02
#       7
#     8   8   8   8   8   8   8
#     4  10  20  37  59  86 119 156 192 236 288 339
#     4   9  19  35  57  82 113 148 186 231 281 333
#     4  10  22  37  55  79 111 147 187 233 288 343
#     4  10  20  36  54  73  98 135 180 228 279 335
#     4  10  19  33  50  71  98 130 168 215 271 333
#     4  11  22  38  61  91 125 163 200 238 280 335
#     4  11  21  33  49  69  91 122 164 215 272 334
#
# _framework density 20.532582000000001
#
# number of rings (size 3 to 8) (size 9 to 14) (size 15 to 20)
#    0.000    1.857    0.000    6.000    0.000    6.857 
#    0.000    4.286    0.000    0.429    0.000    3.000 
#    0.000    0.000    0.000    0.000    0.000    0.000 
#
# Total GULP energy -693735.147711 kJ/mol
# GULP energy per Si atom -12388.127638 kJ/mol
# Density = 2.048585 g / cm^3
# Si number density = 20.532582 Si / 1000 Ang^3
#
#
#
# Elastic Constant Matrix: (Units=GPa)
#
#
# Indices 1 2 3 4 5 6 
#
# 1 72.8957 47.9514 30.4834 0.0000 0.0000 0.0000
# 2 47.9514 161.5797 41.4018 0.0000 0.0000 0.0000
# 3 30.4834 41.4018 76.3097 0.0000 0.0000 0.0000
# 4 0.0000 0.0000 0.0000 29.3483 0.0000 0.0000
# 5 0.0000 0.0000 0.0000 0.0000 25.7910 0.0000
# 6 0.0000 0.0000 0.0000 0.0000 0.0000 201.7900
#
#
#
# Elastic Compliance Matrix: (Units=1/GPa)
#
#
# Indices 1 2 3 4 5 6 
#
# 1 0.018648 -0.004211 -0.005165 0.000000 0.000000 0.000000
# 2 -0.004211 0.008139 -0.002734 0.000000 0.000000 0.000000
# 3 -0.005165 -0.002734 0.016651 0.000000 0.000000 0.000000
# 4 0.000000 0.000000 0.000000 0.034074 0.000000 0.000000
# 5 0.000000 0.000000 0.000000 0.000000 0.038773 0.000000
# 6 0.000000 0.000000 0.000000 0.000000 0.000000 0.004956
#
#
# Mechanical properties :
#
#
# Convention : Reuss Voigt Hill
#
# Bulk Modulus (GPa) = 52.03105 61.16203 56.59654
# Shear Modulus (GPa) = 32.92402 64.11576 48.51989
#
# Velocity S-wave (km/s) = 4.00872 5.59412 4.86641
# Velocity P-wave (km/s) = 6.84267 8.46038 7.69416
#
# Compressibility (1/GPa) = 0.01921929
#
# Stress axis : x y z
#
# Youngs Moduli (GPa) = 53.62556 122.86593 60.05708
#
# Poissons Ratio (x) = 0.51735 0.31018
# Poissons Ratio (y) = 0.22580 0.16418
# Poissons Ratio (z) = 0.27696 0.33588
#
# Static dielectric constant tensor:
#      x y z
#    x 3.801920 0.000000 0.000000 
#    y 0.000000 3.948400 0.000000 
#    z 0.000000 0.000000 3.825140 
# 
# 
# High freq. dielectric constant tensor:
#      x y z
#    x 1.782690 0.000000 0.000000 
#    y 0.000000 1.810030 0.000000 
#    z 0.000000 0.000000 1.797130 
# 
# From -- ./inp_files/5782.got.cif
#   From: 2010.03.12/outbox.cif.g09.slc.cpg/sg49_3_cif.got.tgz:5782.got - 2010.04.14 03:58:27.
