data_PCOD8203035
_publ_section_title
;
Structure prediction by ZEFSAII (Michael W. Deem and Ramdas Pophale) SiO2 
 PCOD8203035
Probable space group: P C C M
;
_chemical_formula_sum "Si O2"
_cell_formula_units_Z 64
_cell_length_a 15.212448
_cell_length_b 24.691791
_cell_length_c 8.746887
_cell_angle_alpha 90.000000
_cell_angle_beta 90.000000
_cell_angle_gamma 90.000000
_cell_volume 3285.528320
_symmetry_space_group_name_H-M "P C C M"
_symmetry_group_IT_number 49
_symmetry_cell_setting 'orthorhombic'
loop_
_space_group_symop_operation_xyz
x,y,z
-x,-y,z
x,-y,1/2-z
-x,y,1/2-z
-x,-y,-z
x,y,-z
-x,y,1/2+z
x,-y,1/2+z
loop_
_atom_site_type_symbol
_atom_site_label
_atom_site_fract_x
_atom_site_fract_y
_atom_site_fract_z
Si Si1 0.354502 0.707686 0.176951
Si Si2 0.773891 0.556844 0.178979
Si Si3 0.822753 0.733511 0.178435
Si Si4 0.909781 0.638420 0.320229
Si Si5 0.589821 0.827887 0.675849
Si Si6 0.907313 0.057769 0.318472
Si Si7 0.585297 0.601648 0.179102
Si Si8 0.229442 0.148809 0.179957
O O1 0.269766 0.705353 0.285342
O O2 0.405812 0.763607 0.203573
O O3 0.414673 0.658578 0.230735
O O4 0.326103 0.701476 0.000000
O O5 0.803146 0.500000 0.250000
O O6 0.828874 0.604148 0.256759
O O7 0.671356 0.566458 0.214957
O O8 0.793886 0.556752 0.000000
O O9 0.897773 0.701318 0.270943
O O10 0.818757 0.795891 0.233860
O O11 0.843716 0.728330 0.000000
O O12 0.913956 0.633054 0.500000
O O13 0.000000 0.615711 0.250000
O O14 0.500000 0.850148 0.750000
O O15 0.587552 0.843451 0.500000
O O16 0.674706 0.857711 0.746168
O O17 0.916244 0.053652 0.500000
O O18 0.831864 0.099450 0.267875
O O19 0.000000 0.077685 0.250000
O O20 0.880477 0.000000 0.250000
O O21 0.500000 0.570797 0.250000
O O22 0.574215 0.612130 0.000000
O O23 0.243587 0.150533 0.000000
#
# Coordination Sequence:
#
# PCOD8203035 Si02
#       8
#     8   8   8   8   8   8   8   8
#     4  10  19  32  53  81 113 151 192 230 279 336
#     4  11  25  45  66  88 114 148 189 238 291 343
#     4  10  19  35  57  84 119 154 189 231 283 340
#     4  12  25  42  65  90 118 151 189 235 286 347
#     4  10  20  32  50  79 115 155 197 239 284 337
#     4  10  20  36  58  85 115 152 195 243 294 343
#     4  11  23  37  58  85 116 150 189 234 283 340
#     4   9  20  36  56  83 118 157 196 239 288 342
#
# _framework density 19.479364
#
# number of rings (size 3 to 8) (size 9 to 14) (size 15 to 20)
#    0.000    1.625    1.250    4.125    0.000    6.500 
#    0.000    3.750    0.000    0.375    0.000    2.625 
#    0.000    0.000    0.000    0.000    0.000    0.000 
#
# Total GULP energy -793772.602144 kJ/mol
# GULP energy per Si atom -12402.696908 kJ/mol
# Density = 1.943503 g / cm^3
# Si number density = 19.479364 Si / 1000 Ang^3
#
#
#
# Elastic Constant Matrix: (Units=GPa)
#
#
# Indices 1 2 3 4 5 6 
#
# 1 111.1267 55.7862 60.4188 0.0000 0.0000 0.0000
# 2 55.7862 88.3851 43.2309 0.0000 0.0000 0.0000
# 3 60.4188 43.2309 108.1075 0.0000 0.0000 0.0000
# 4 0.0000 0.0000 0.0000 23.4301 0.0000 0.0000
# 5 0.0000 0.0000 0.0000 0.0000 34.4150 0.0000
# 6 0.0000 0.0000 0.0000 0.0000 0.0000 18.3621
#
#
#
# Elastic Compliance Matrix: (Units=1/GPa)
#
#
# Indices 1 2 3 4 5 6 
#
# 1 0.015800 -0.007028 -0.006020 0.000000 0.000000 0.000000
# 2 -0.007028 0.017191 -0.002947 0.000000 0.000000 0.000000
# 3 -0.006020 -0.002947 0.013793 0.000000 0.000000 0.000000
# 4 0.000000 0.000000 0.000000 0.042680 0.000000 0.000000
# 5 0.000000 0.000000 0.000000 0.000000 0.029057 0.000000
# 6 0.000000 0.000000 0.000000 0.000000 0.000000 0.054460
#
#
# Mechanical properties :
#
#
# Convention : Reuss Voigt Hill
#
# Bulk Modulus (GPa) = 67.59150 69.61012 68.60081
# Shear Modulus (GPa) = 23.82069 25.12033 24.47051
#
# Velocity S-wave (km/s) = 3.50075 3.59498 3.54817
# Velocity P-wave (km/s) = 7.14945 7.28318 7.21663
#
# Compressibility (1/GPa) = 0.01479476
#
# Stress axis : x y z
#
# Youngs Moduli (GPa) = 63.29248 58.16877 72.50203
#
# Poissons Ratio (x) = 0.40881 0.43644
# Poissons Ratio (y) = 0.44482 0.21365
# Poissons Ratio (z) = 0.38100 0.17141
#
# Static dielectric constant tensor:
#      x y z
#    x 3.591460 0.000000 0.000000 
#    y 0.000000 3.445280 0.000000 
#    z 0.000000 0.000000 3.595660 
# 
# 
# High freq. dielectric constant tensor:
#      x y z
#    x 1.763540 0.000000 0.000000 
#    y 0.000000 1.736010 0.000000 
#    z 0.000000 0.000000 1.770270 
# 
# From -- ./inp_files/4396.got.cif
#   From: 2010.03.12/outbox.cif.g09.slc.cpg/sg49_3_cif.got.tgz:4396.got - 2010.04.14 03:58:27.
