data_PCOD8203377
_publ_section_title
;
Structure prediction by ZEFSAII (Michael W. Deem and Ramdas Pophale) SiO2 
 PCOD8203377
Probable space group: P C C M
;
_chemical_formula_sum "Si O2"
_cell_formula_units_Z 64
_cell_length_a 13.226240
_cell_length_b 14.327998
_cell_length_c 17.753910
_cell_angle_alpha 90.000000
_cell_angle_beta 90.000000
_cell_angle_gamma 90.000000
_cell_volume 3364.464306
_symmetry_space_group_name_H-M "P C C M"
_symmetry_group_IT_number 49
_symmetry_cell_setting 'orthorhombic'
loop_
_space_group_symop_operation_xyz
x,y,z
-x,-y,z
x,-y,1/2-z
-x,y,1/2-z
-x,-y,-z
x,y,-z
-x,y,1/2+z
x,-y,1/2+z
loop_
_atom_site_type_symbol
_atom_site_label
_atom_site_fract_x
_atom_site_fract_y
_atom_site_fract_z
Si Si1 0.394317 0.859491 0.781409
Si Si2 0.269875 0.921652 0.911373
Si Si3 0.394317 0.640508 0.781409
Si Si4 0.937409 0.750000 0.825133
Si Si5 0.134975 0.750000 0.087736
Si Si6 0.269875 0.578347 0.911373
Si Si7 0.204054 0.425745 0.189756
Si Si8 0.795945 0.074255 0.689756
O O1 0.500000 0.899036 0.750000
O O2 0.372098 0.905719 0.863106
O O3 0.400222 0.749999 0.793026
O O4 0.308803 0.886173 0.721496
O O5 0.191229 0.842358 0.881896
O O6 0.223067 0.021911 0.889795
O O7 0.293642 0.916629 0.000000
O O8 0.500000 0.600963 0.750000
O O9 0.372098 0.594280 0.863106
O O10 0.308803 0.613825 0.721496
O O11 0.871182 0.657397 0.828934
O O12 0.871182 0.842604 0.828934
O O13 0.000000 0.750001 0.750000
O O14 0.016931 0.750000 0.892935
O O15 0.191229 0.657642 0.118104
O O16 0.145815 0.750001 0.000000
O O17 0.223065 0.478089 0.889795
O O18 0.293642 0.583370 0.000000
O O19 0.158011 0.500000 0.250000
O O20 0.841987 0.000000 0.750000
#
# Coordination Sequence:
#
# PCOD8203377 Si02
#       8
#     8   8   8   8   8   8   8   8
#     4  10  19  36  62  87 113 148 189 235 286 341
#     4  10  21  39  61  85 114 151 194 237 284 344
#     4  10  19  36  62  87 113 148 189 235 286 341
#     4  12  22  36  56  83 117 153 196 242 291 338
#     4  10  22  38  58  81 110 151 195 238 287 336
#     4  10  21  39  61  85 114 151 194 237 284 344
#     4  10  22  36  56  85 118 150 192 240 286 338
#     4  10  22  36  56  85 118 150 192 240 286 338
#
# _framework density 19.022344
#
# number of rings (size 3 to 8) (size 9 to 14) (size 15 to 20)
#    0.000    1.750    2.500    3.000    0.000    9.000 
#    0.000    5.000    0.000    1.500    0.000    0.000 
#    0.000    0.000    0.000    0.000    0.000    0.000 
#
# Total GULP energy -793472.831649 kJ/mol
# GULP energy per Si atom -12398.012995 kJ/mol
# Density = 1.897905 g / cm^3
# Si number density = 19.022344 Si / 1000 Ang^3
#
#
#
# Elastic Constant Matrix: (Units=GPa)
#
#
# Indices 1 2 3 4 5 6 
#
# 1 127.3042 55.9157 56.5694 0.0000 0.0000 0.0000
# 2 55.9157 116.2752 46.2664 0.0000 0.0000 0.0000
# 3 56.5694 46.2664 96.8713 0.0000 0.0000 0.0000
# 4 0.0000 0.0000 0.0000 28.1485 0.0000 0.0000
# 5 0.0000 0.0000 0.0000 0.0000 31.3660 0.0000
# 6 0.0000 0.0000 0.0000 0.0000 0.0000 -36.9083
#
#
#
# Elastic Compliance Matrix: (Units=1/GPa)
#
#
# Indices 1 2 3 4 5 6 
#
# 1 0.011709 -0.003593 -0.005122 0.000000 0.000000 0.000000
# 2 -0.003593 0.011721 -0.003500 0.000000 0.000000 0.000000
# 3 -0.005122 -0.003500 0.014985 0.000000 0.000000 0.000000
# 4 0.000000 0.000000 0.000000 0.035526 0.000000 0.000000
# 5 0.000000 0.000000 0.000000 0.000000 0.031882 0.000000
# 6 0.000000 0.000000 0.000000 0.000000 0.000000 -0.027094
#
#
# Mechanical properties :
#
#
# Convention : Reuss Voigt Hill
#
# Bulk Modulus (GPa) = 71.49773 73.10597 72.30185
# Shear Modulus (GPa) = 46.37379 16.63454 31.50416
#
# Velocity S-wave (km/s) = 4.94282 2.96036 4.07402
# Velocity P-wave (km/s) = 8.38112 7.08520 7.76026
#
# Compressibility (1/GPa) = 0.01398646
#
# Stress axis : x y z
#
# Youngs Moduli (GPa) = 85.40269 85.31964 66.73150
#
# Poissons Ratio (x) = 0.30654 0.34179
# Poissons Ratio (y) = 0.30684 0.23354
# Poissons Ratio (z) = 0.43742 0.29860
#
# Static dielectric constant tensor:
#      x y z
#    x 3.013620 0.000000 0.000000 
#    y 0.000000 4.041640 0.000000 
#    z 0.000000 0.000000 3.387290 
# 
# 
# High freq. dielectric constant tensor:
#      x y z
#    x 1.729550 0.000000 0.000000 
#    y 0.000000 1.760710 0.000000 
#    z 0.000000 0.000000 1.729250 
# 
# From -- ./inp_files/17337.got.cif
#   From: 2010.03.12/outbox.cif.g09.slc.cpg/sg49_9_cif.got.tgz:17337.got - 2010.04.14 03:58:27.
