data_PCOD8203970
_publ_section_title
;
Structure prediction by ZEFSAII (Michael W. Deem and Ramdas Pophale) SiO2 
 PCOD8203970
Probable space group: P C C M
;
_chemical_formula_sum "Si O2"
_cell_formula_units_Z 56
_cell_length_a 16.095083
_cell_length_b 19.748024
_cell_length_c 8.563221
_cell_angle_alpha 90.000000
_cell_angle_beta 90.000000
_cell_angle_gamma 90.000000
_cell_volume 2721.786273
_symmetry_space_group_name_H-M "P C C M"
_symmetry_group_IT_number 49
_symmetry_cell_setting 'orthorhombic'
loop_
_space_group_symop_operation_xyz
x,y,z
-x,-y,z
x,-y,1/2-z
-x,y,1/2-z
-x,-y,-z
x,y,-z
-x,y,1/2+z
x,-y,1/2+z
loop_
_atom_site_type_symbol
_atom_site_label
_atom_site_fract_x
_atom_site_fract_y
_atom_site_fract_z
Si Si1 0.409998 0.654202 0.185868
Si Si2 0.908127 0.344288 0.321032
Si Si3 0.912643 0.194549 0.679351
Si Si4 0.160601 0.936011 0.817297
Si Si5 0.334793 0.067391 0.178574
Si Si6 0.414351 0.806598 0.817600
Si Si7 0.748535 0.575024 0.186007
O O1 0.500000 0.629300 0.250000
O O2 0.393755 0.731412 0.245069
O O3 0.334783 0.610679 0.252648
O O4 0.411273 0.648226 0.000000
O O5 0.921230 0.362811 0.500000
O O6 0.869526 0.268004 0.304645
O O7 0.834100 0.390631 0.249786
O O8 0.000000 0.356901 0.250000
O O9 0.914579 0.169205 0.500000
O O10 0.878170 0.137144 0.792397
O O11 0.000000 0.212384 0.750000
O O12 0.237360 0.941989 0.698324
O O13 0.105044 0.000000 0.750000
O O14 0.182671 0.943510 0.000000
O O15 0.348148 0.137675 0.268235
O O16 0.380105 0.000000 0.250000
O O17 0.361930 0.074582 0.000000
O O18 0.500000 0.834178 0.750000
O O19 0.420847 0.803367 0.000000
O O20 0.747799 0.500000 0.250000
O O21 0.746331 0.576523 0.000000
#
# Coordination Sequence:
#
# PCOD8203970 Si02
#       7
#     8   8   8   8   8   8   8
#     4  10  22  41  65  94 127 164 204 254 307 365
#     4   9  21  40  63  91 125 163 204 252 306 362
#     4  10  20  37  58  85 114 150 194 243 298 356
#     4  11  22  37  55  80 112 151 195 245 298 356
#     4  11  22  37  56  80 113 153 196 246 298 353
#     4  10  21  38  59  87 117 151 196 242 297 356
#     4  11  24  42  64  95 128 164 207 250 301 366
#
# _framework density 20.574724
#
# number of rings (size 3 to 8) (size 9 to 14) (size 15 to 20)
#    0.000    1.714    0.000    5.143    2.000    4.571 
#    0.000    5.714    0.000    0.000    0.000    0.000 
#    0.000    0.000    0.000    0.000    0.000    0.000 
#
# Total GULP energy -693810.170612 kJ/mol
# GULP energy per Si atom -12389.467332 kJ/mol
# Density = 2.052789 g / cm^3
# Si number density = 20.574724 Si / 1000 Ang^3
#
#
#
# Elastic Constant Matrix: (Units=GPa)
#
#
# Indices 1 2 3 4 5 6 
#
# 1 103.8222 68.1156 30.3652 0.0000 0.0000 0.0000
# 2 68.1156 145.6227 40.4716 0.0000 0.0000 0.0000
# 3 30.3652 40.4716 88.5426 0.0000 0.0000 0.0000
# 4 0.0000 0.0000 0.0000 30.8148 0.0000 0.0000
# 5 0.0000 0.0000 0.0000 0.0000 31.6238 0.0000
# 6 0.0000 0.0000 0.0000 0.0000 0.0000 12.0944
#
#
#
# Elastic Compliance Matrix: (Units=1/GPa)
#
#
# Indices 1 2 3 4 5 6 
#
# 1 0.014231 -0.006071 -0.002105 0.000000 0.000000 0.000000
# 2 -0.006071 0.010457 -0.002697 0.000000 0.000000 0.000000
# 3 -0.002105 -0.002697 0.013249 0.000000 0.000000 0.000000
# 4 0.000000 0.000000 0.000000 0.032452 0.000000 0.000000
# 5 0.000000 0.000000 0.000000 0.000000 0.031622 0.000000
# 6 0.000000 0.000000 0.000000 0.000000 0.000000 0.082683
#
#
# Mechanical properties :
#
#
# Convention : Reuss Voigt Hill
#
# Bulk Modulus (GPa) = 61.77309 68.43247 65.10278
# Shear Modulus (GPa) = 23.60297 28.17561 25.88929
#
# Velocity S-wave (km/s) = 3.39068 3.70459 3.55111
# Velocity P-wave (km/s) = 6.73928 7.18550 6.96596
#
# Compressibility (1/GPa) = 0.01618828
#
# Stress axis : x y z
#
# Youngs Moduli (GPa) = 70.26938 95.63247 75.47776
#
# Poissons Ratio (x) = 0.58063 0.15890
# Poissons Ratio (y) = 0.42664 0.20360
# Poissons Ratio (z) = 0.14793 0.25796
#
# Static dielectric constant tensor:
#      x y z
#    x 3.612970 0.000000 0.000000 
#    y 0.000000 4.420360 0.000000 
#    z 0.000000 0.000000 3.490630 
# 
# 
# High freq. dielectric constant tensor:
#      x y z
#    x 1.789360 0.000000 0.000000 
#    y 0.000000 1.821740 0.000000 
#    z 0.000000 0.000000 1.812190 
# 
# From -- ./inp_files/4040.got.cif
#   From: 2010.03.12/outbox.cif.g09.slc.cpg/sg49_3_cif.got.tgz:4040.got - 2010.04.14 03:58:27.
