data_PCOD8203374
_publ_section_title
;
Structure prediction by ZEFSAII (Michael W. Deem and Ramdas Pophale) SiO2 
 PCOD8203374
Probable space group: P C C M
;
_chemical_formula_sum "Si O2"
_cell_formula_units_Z 32
_cell_length_a 5.201123
_cell_length_b 16.883696
_cell_length_c 15.657760
_cell_angle_alpha 90.000000
_cell_angle_beta 90.000000
_cell_angle_gamma 90.000000
_cell_volume 1374.973349
_symmetry_space_group_name_H-M "P C C M"
_symmetry_group_IT_number 49
_symmetry_cell_setting 'orthorhombic'
loop_
_space_group_symop_operation_xyz
x,y,z
-x,-y,z
x,-y,1/2-z
-x,y,1/2-z
-x,-y,-z
x,y,-z
-x,y,1/2+z
x,-y,1/2+z
loop_
_atom_site_type_symbol
_atom_site_label
_atom_site_fract_x
_atom_site_fract_y
_atom_site_fract_z
Si Si1 0.747271 0.965391 0.654388
Si Si2 0.621492 0.216589 0.158660
Si Si3 0.141172 0.295770 0.097502
Si Si4 0.750795 0.465476 0.345788
O O1 0.734121 0.871362 0.652404
O O2 0.500000 0.000000 0.605042
O O3 0.747996 0.000000 0.750000
O O4 0.000000 0.000000 0.607228
O O5 0.500000 0.235535 0.250000
O O6 0.376794 0.231977 0.096702
O O7 0.873083 0.269210 0.140453
O O8 0.245867 0.370614 0.151039
O O9 0.079871 0.317991 0.000000
O O10 0.500000 0.500000 0.393653
O O11 0.749641 0.500000 0.250000
O O12 0.000000 0.500000 0.394373
#
# Coordination Sequence:
#
# PCOD8203374 Si02
#       4
#     8   8   8   8
#     4  10  19  36  61 104 135 165 231 305 344 382
#     4  12  25  42  75 107 134 188 246 294 346 420
#     4  12  28  46  68 103 152 188 227 291 373 429
#     4  10  23  42  67 100 135 176 240 293 337 410
#
# _framework density 23.273177
#
# number of rings (size 3 to 8) (size 9 to 14) (size 15 to 20)
#    0.000    1.000    2.500    4.500   14.000    1.000 
#    0.000    0.000    0.000   15.000    0.000    0.000 
#    0.000    0.000    0.000    0.000    0.000    0.000 
#
# Total GULP energy -396475.809754 kJ/mol
# GULP energy per Si atom -12389.869055 kJ/mol
# Density = 2.322021 g / cm^3
# Si number density = 23.273177 Si / 1000 Ang^3
#
#
#
# Elastic Constant Matrix: (Units=GPa)
#
#
# Indices 1 2 3 4 5 6 
#
# 1 276.7281 83.4612 33.6528 0.0000 0.0000 0.0000
# 2 83.4612 154.9321 54.9638 0.0000 0.0000 0.0000
# 3 33.6528 54.9638 74.5253 0.0000 0.0000 0.0000
# 4 0.0000 0.0000 0.0000 1.5967 0.0000 0.0000
# 5 0.0000 0.0000 0.0000 0.0000 26.9053 0.0000
# 6 0.0000 0.0000 0.0000 0.0000 0.0000 54.1129
#
#
#
# Elastic Compliance Matrix: (Units=1/GPa)
#
#
# Indices 1 2 3 4 5 6 
#
# 1 0.004320 -0.002215 -0.000318 0.000000 0.000000 0.000000
# 2 -0.002215 0.009877 -0.006284 0.000000 0.000000 0.000000
# 3 -0.000318 -0.006284 0.018196 0.000000 0.000000 0.000000
# 4 0.000000 0.000000 0.000000 0.626304 0.000000 0.000000
# 5 0.000000 0.000000 0.000000 0.000000 0.037167 0.000000
# 6 0.000000 0.000000 0.000000 0.000000 0.000000 0.018480
#
#
# Mechanical properties :
#
#
# Convention : Reuss Voigt Hill
#
# Bulk Modulus (GPa) = 67.74800 94.48234 81.11517
# Shear Modulus (GPa) = 6.78520 38.79682 22.79101
#
# Velocity S-wave (km/s) = 1.70932 4.08734 3.13274
# Velocity P-wave (km/s) = 5.75055 7.93476 6.92926
#
# Compressibility (1/GPa) = 0.01476058
#
# Stress axis : x y z
#
# Youngs Moduli (GPa) = 231.47075 101.24644 54.95571
#
# Poissons Ratio (x) = 0.22422 0.01745
# Poissons Ratio (y) = 0.51262 0.34536
# Poissons Ratio (z) = 0.07349 0.63627
#
# Static dielectric constant tensor:
#      x y z
#    x 0.434420 0.000000 0.000000 
#    y 0.000000 4.132130 0.000000 
#    z 0.000000 0.000000 3.581970 
# 
# 
# High freq. dielectric constant tensor:
#      x y z
#    x 1.967910 0.000000 0.000000 
#    y 0.000000 1.924430 0.000000 
#    z 0.000000 0.000000 1.871980 
# 
# From -- ./inp_files/13879.got.cif
#   From: 2010.03.12/outbox.cif.g09.slc.cpg/sg49_7_cif.got.tgz:13879.got - 2010.04.14 03:58:27.
