data_PCOD8203976
_publ_section_title
;
Structure prediction by ZEFSAII (Michael W. Deem and Ramdas Pophale) SiO2 
 PCOD8203976
Probable space group: P C C M
;
_chemical_formula_sum "Si O2"
_cell_formula_units_Z 40
_cell_length_a 11.178399
_cell_length_b 12.878637
_cell_length_c 13.861084
_cell_angle_alpha 90.000000
_cell_angle_beta 90.000000
_cell_angle_gamma 90.000000
_cell_volume 1995.476901
_symmetry_space_group_name_H-M "P C C M"
_symmetry_group_IT_number 49
_symmetry_cell_setting 'orthorhombic'
loop_
_space_group_symop_operation_xyz
x,y,z
-x,-y,z
x,-y,1/2-z
-x,y,1/2-z
-x,-y,-z
x,y,-z
-x,y,1/2+z
x,-y,1/2+z
loop_
_atom_site_type_symbol
_atom_site_label
_atom_site_fract_x
_atom_site_fract_y
_atom_site_fract_z
Si Si1 0.814540 0.178194 0.712508
Si Si2 0.582773 0.904065 0.111650
Si Si3 0.041488 0.883019 0.891534
Si Si4 0.489044 0.322650 0.390095
Si Si5 0.692980 0.614708 0.245622
O O1 0.704677 0.108102 0.673172
O O2 0.848476 0.134494 0.818341
O O3 0.789651 0.300481 0.716732
O O4 0.925432 0.181398 0.639369
O O5 0.504980 0.800529 0.125715
O O6 0.500000 0.000000 0.148069
O O7 0.619376 0.920770 0.000000
O O8 0.082080 0.852674 0.000000
O O9 0.000000 0.000000 0.884480
O O10 0.497680 0.355889 0.500000
O O11 0.359470 0.352366 0.349562
O O12 0.588716 0.388167 0.334133
O O13 0.751458 0.500000 0.250000
#
# Coordination Sequence:
#
# PCOD8203976 Si02
#       5
#     8   8   8   8   8
#     4  10  20  37  59  81 109 145 184 229 278 329
#     4   9  18  32  54  87 122 151 179 219 274 334
#     4  10  22  40  61  83 107 140 182 226 274 333
#     4   9  18  33  52  76 110 150 186 218 260 326
#     4  10  21  35  52  77 107 142 185 230 274 321
#
# _framework density 20.045331999999998
#
# number of rings (size 3 to 8) (size 9 to 14) (size 15 to 20)
#    0.000    2.400    0.000    3.000    0.000    6.400 
#    0.000   13.000    0.000    1.800    0.000    0.000 
#    0.000    0.000    0.000    0.000    0.000    0.000 
#
# Total GULP energy -495940.516058 kJ/mol
# GULP energy per Si atom -12398.512901 kJ/mol
# Density = 1.999971 g / cm^3
# Si number density = 20.045332 Si / 1000 Ang^3
#
#
#
# Elastic Constant Matrix: (Units=GPa)
#
#
# Indices 1 2 3 4 5 6 
#
# 1 96.5134 50.9352 53.5105 0.0000 0.0000 0.0000
# 2 50.9352 122.7454 44.0129 0.0000 0.0000 0.0000
# 3 53.5105 44.0129 142.4767 0.0000 0.0000 0.0000
# 4 0.0000 0.0000 0.0000 20.8816 0.0000 0.0000
# 5 0.0000 0.0000 0.0000 0.0000 12.7703 0.0000
# 6 0.0000 0.0000 0.0000 0.0000 0.0000 23.3850
#
#
#
# Elastic Compliance Matrix: (Units=1/GPa)
#
#
# Indices 1 2 3 4 5 6 
#
# 1 0.015251 -0.004807 -0.004243 0.000000 0.000000 0.000000
# 2 -0.004807 0.010677 -0.001493 0.000000 0.000000 0.000000
# 3 -0.004243 -0.001493 0.009073 0.000000 0.000000 0.000000
# 4 0.000000 0.000000 0.000000 0.047889 0.000000 0.000000
# 5 0.000000 0.000000 0.000000 0.000000 0.078307 0.000000
# 6 0.000000 0.000000 0.000000 0.000000 0.000000 0.042762
#
#
# Mechanical properties :
#
#
# Convention : Reuss Voigt Hill
#
# Bulk Modulus (GPa) = 71.86237 73.18362 72.52299
# Shear Modulus (GPa) = 21.76916 25.62586 23.69751
#
# Velocity S-wave (km/s) = 3.29902 3.57934 3.44204
# Velocity P-wave (km/s) = 7.10205 7.32602 7.21491
#
# Compressibility (1/GPa) = 0.01391549
#
# Stress axis : x y z
#
# Youngs Moduli (GPa) = 65.57143 93.65893 110.21349
#
# Poissons Ratio (x) = 0.45023 0.46760
# Poissons Ratio (y) = 0.31521 0.16453
# Poissons Ratio (z) = 0.27820 0.13982
#
# Static dielectric constant tensor:
#      x y z
#    x 3.576570 0.000000 0.000000 
#    y 0.000000 3.563040 0.000000 
#    z 0.000000 0.000000 3.949160 
# 
# 
# High freq. dielectric constant tensor:
#      x y z
#    x 1.758080 0.000000 0.000000 
#    y 0.000000 1.778650 0.000000 
#    z 0.000000 0.000000 1.794670 
# 
# From -- ./inp_files/12584.got.cif
#   From: 2010.03.12/outbox.cif.g09.slc.cpg/sg49_7_cif.got.tgz:12584.got - 2010.04.14 03:58:27.
