data_PCOD8203844
_publ_section_title
;
Structure prediction by ZEFSAII (Michael W. Deem and Ramdas Pophale) SiO2 
 PCOD8203844
Probable space group: P C C M
;
_chemical_formula_sum "Si O2"
_cell_formula_units_Z 64
_cell_length_a 12.908892
_cell_length_b 14.049908
_cell_length_c 17.169235
_cell_angle_alpha 90.000000
_cell_angle_beta 90.000000
_cell_angle_gamma 90.000000
_cell_volume 3113.962604
_symmetry_space_group_name_H-M "P C C M"
_symmetry_group_IT_number 49
_symmetry_cell_setting 'orthorhombic'
loop_
_space_group_symop_operation_xyz
x,y,z
-x,-y,z
x,-y,1/2-z
-x,y,1/2-z
-x,-y,-z
x,y,-z
-x,y,1/2+z
x,-y,1/2+z
loop_
_atom_site_type_symbol
_atom_site_label
_atom_site_fract_x
_atom_site_fract_y
_atom_site_fract_z
Si Si1 0.391730 0.550771 0.587863
Si Si2 0.257527 0.930299 0.181322
Si Si3 0.104814 0.053896 0.091331
Si Si4 0.607425 0.201448 0.911425
Si Si5 0.802708 0.205969 0.300010
Si Si6 0.577217 0.735658 0.175908
Si Si7 0.244488 0.623845 0.088148
Si Si8 0.879494 0.394926 0.765141
O O1 0.500000 0.500000 0.601232
O O2 0.387066 0.593163 0.500000
O O3 0.380689 0.631550 0.653064
O O4 0.298689 0.477350 0.600098
O O5 0.359001 0.884876 0.143477
O O6 0.180258 0.850879 0.218788
O O7 0.294111 0.000000 0.250000
O O8 0.197848 0.983422 0.112371
O O9 0.126193 0.155066 0.134296
O O10 0.102297 0.075471 0.000000
O O11 0.000000 0.000000 0.118441
O O12 0.487042 0.222674 0.896650
O O13 0.673026 0.295199 0.889966
O O14 0.623998 0.171430 0.000000
O O15 0.678178 0.198216 0.313698
O O16 0.832832 0.316453 0.293371
O O17 0.500000 0.732242 0.250000
O O18 0.146616 0.632438 0.145582
O O19 0.203580 0.636434 0.000000
O O20 0.832602 0.500000 0.750000
O O21 0.000000 0.395607 0.750000
#
# Coordination Sequence:
#
# PCOD8203844 Si02
#       8
#     8   8   8   8   8   8   8   8
#     4  10  20  35  57  91 131 174 224 275 320 373
#     4  10  21  40  65  94 124 162 211 265 320 389
#     4  10  24  45  71 102 126 157 214 283 346 402
#     4  11  21  37  62  92 126 171 213 255 316 388
#     4  11  24  41  66  98 129 171 217 270 339 388
#     4  12  22  37  58  92 137 176 217 266 320 393
#     4  10  20  38  63  91 127 171 224 273 321 382
#     4  11  24  43  64  94 132 177 223 270 318 394
#
# _framework density 20.552591
#
# number of rings (size 3 to 8) (size 9 to 14) (size 15 to 20)
#    0.000    1.375    3.750    1.500    1.750    3.000 
#    0.000    6.875    0.000    3.750    0.000    0.000 
#    0.000    0.000    0.000    0.000    0.000    0.000 
#
# Total GULP energy -793448.165935 kJ/mol
# GULP energy per Si atom -12397.627593 kJ/mol
# Density = 2.050581 g / cm^3
# Si number density = 20.552591 Si / 1000 Ang^3
#
#
#
# Elastic Constant Matrix: (Units=GPa)
#
#
# Indices 1 2 3 4 5 6 
#
# 1 92.8611 44.6082 49.7210 0.0000 0.0000 0.0000
# 2 44.6082 128.4907 49.3466 0.0000 0.0000 0.0000
# 3 49.7210 49.3466 99.4864 0.0000 0.0000 0.0000
# 4 0.0000 0.0000 0.0000 35.4582 0.0000 0.0000
# 5 0.0000 0.0000 0.0000 0.0000 32.5247 0.0000
# 6 0.0000 0.0000 0.0000 0.0000 0.0000 25.4412
#
#
#
# Elastic Compliance Matrix: (Units=1/GPa)
#
#
# Indices 1 2 3 4 5 6 
#
# 1 0.015580 -0.002988 -0.006304 0.000000 0.000000 0.000000
# 2 -0.002988 0.010187 -0.003560 0.000000 0.000000 0.000000
# 3 -0.006304 -0.003560 0.014968 0.000000 0.000000 0.000000
# 4 0.000000 0.000000 0.000000 0.028202 0.000000 0.000000
# 5 0.000000 0.000000 0.000000 0.000000 0.030746 0.000000
# 6 0.000000 0.000000 0.000000 0.000000 0.000000 0.039306
#
#
# Mechanical properties :
#
#
# Convention : Reuss Voigt Hill
#
# Bulk Modulus (GPa) = 66.52857 67.57667 67.05262
# Shear Modulus (GPa) = 29.46328 30.49567 29.97947
#
# Velocity S-wave (km/s) = 3.79034 3.85617 3.82340
# Velocity P-wave (km/s) = 7.18302 7.26485 7.22405
#
# Compressibility (1/GPa) = 0.01503114
#
# Stress axis : x y z
#
# Youngs Moduli (GPa) = 64.18681 98.16454 66.80865
#
# Poissons Ratio (x) = 0.29327 0.42119
# Poissons Ratio (y) = 0.19176 0.23782
# Poissons Ratio (z) = 0.40466 0.34944
#
# Static dielectric constant tensor:
#      x y z
#    x 3.554950 0.000000 0.000000 
#    y 0.000000 3.995990 0.000000 
#    z 0.000000 0.000000 3.750480 
# 
# 
# High freq. dielectric constant tensor:
#      x y z
#    x 1.787800 0.000000 0.000000 
#    y 0.000000 1.809800 0.000000 
#    z 0.000000 0.000000 1.806920 
# 
# From -- ./inp_files/17307.got.cif
#   From: 2010.03.12/outbox.cif.g09.slc.cpg/sg49_9_cif.got.tgz:17307.got - 2010.04.14 03:58:27.
