data_PCOD8203433
_publ_section_title
;
Structure prediction by ZEFSAII (Michael W. Deem and Ramdas Pophale) SiO2 
 PCOD8203433
Probable space group: P C C M
;
_chemical_formula_sum "Si O2"
_cell_formula_units_Z 64
_cell_length_a 22.627439
_cell_length_b 18.063028
_cell_length_c 9.082550
_cell_angle_alpha 90.000000
_cell_angle_beta 90.000000
_cell_angle_gamma 90.000000
_cell_volume 3712.220419
_symmetry_space_group_name_H-M "P C C M"
_symmetry_group_IT_number 49
_symmetry_cell_setting 'orthorhombic'
loop_
_space_group_symop_operation_xyz
x,y,z
-x,-y,z
x,-y,1/2-z
-x,y,1/2-z
-x,-y,-z
x,y,-z
-x,y,1/2+z
x,-y,1/2+z
loop_
_atom_site_type_symbol
_atom_site_label
_atom_site_fract_x
_atom_site_fract_y
_atom_site_fract_z
Si Si1 0.233283 0.286631 0.832602
Si Si2 0.761405 0.936468 0.341468
Si Si3 0.322860 0.151257 0.833482
Si Si4 0.556355 0.787494 0.172122
Si Si5 0.689098 0.574436 0.175536
Si Si6 0.853241 0.809132 0.335339
Si Si7 0.064002 0.076474 0.820726
Si Si8 0.558208 0.383744 0.328153
O O1 0.279952 0.221095 0.825251
O O2 0.267116 0.359536 0.771415
O O3 0.174052 0.265567 0.738501
O O4 0.212118 0.299665 0.000000
O O5 0.746536 0.969883 0.500000
O O6 0.700553 0.917580 0.259671
O O7 0.799453 0.863975 0.355989
O O8 0.795583 0.000000 0.250000
O O9 0.385657 0.173072 0.764947
O O10 0.329603 0.124462 0.000000
O O11 0.500000 0.824186 0.250000
O O12 0.561068 0.701899 0.213327
O O13 0.550620 0.799038 0.000000
O O14 0.713932 0.500000 0.250000
O O15 0.620926 0.584187 0.229028
O O16 0.690811 0.569476 0.000000
O O17 0.879262 0.791362 0.500000
O O18 0.900018 0.850345 0.228930
O O19 0.000000 0.087390 0.750000
O O20 0.090369 0.000000 0.750000
O O21 0.062568 0.070962 0.000000
O O22 0.500000 0.419622 0.250000
O O23 0.550636 0.398126 0.500000
#
# Coordination Sequence:
#
# PCOD8203433 Si02
#       8
#     8   8   8   8   8   8   8   8
#     4   9  17  32  50  67  90 123 161 200 243 291
#     4  10  20  31  45  67  93 119 150 188 230 275
#     4   9  16  29  48  64  83 112 145 184 232 281
#     4   9  16  27  44  64  83 107 140 181 228 280
#     4  10  20  33  48  66  93 126 161 200 248 303
#     4  10  20  33  50  74 101 130 167 207 241 281
#     4  11  21  34  52  76 109 148 183 213 244 280
#     4   9  17  30  45  63  87 117 153 193 237 293
#
# _framework density 17.240355000000001
#
# number of rings (size 3 to 8) (size 9 to 14) (size 15 to 20)
#    0.000    2.375    1.250    2.625    0.000    4.250 
#    0.000    1.250    0.000    0.375    0.000    2.625 
#    0.000    0.500    0.000    5.250    0.000    2.875 
#
# Total GULP energy -793003.359555 kJ/mol
# GULP energy per Si atom -12390.677493 kJ/mol
# Density = 1.720111 g / cm^3
# Si number density = 17.240355 Si / 1000 Ang^3
#
#
#
# Elastic Constant Matrix: (Units=GPa)
#
#
# Indices 1 2 3 4 5 6 
#
# 1 70.4263 28.7869 34.6050 0.0000 0.0000 0.0000
# 2 28.7869 60.7836 34.5738 0.0000 0.0000 0.0000
# 3 34.6050 34.5738 88.4245 0.0000 0.0000 0.0000
# 4 0.0000 0.0000 0.0000 24.8998 0.0000 0.0000
# 5 0.0000 0.0000 0.0000 0.0000 24.9086 0.0000
# 6 0.0000 0.0000 0.0000 0.0000 0.0000 26.0187
#
#
#
# Elastic Compliance Matrix: (Units=1/GPa)
#
#
# Indices 1 2 3 4 5 6 
#
# 1 0.019246 -0.006212 -0.005103 0.000000 0.000000 0.000000
# 2 -0.006212 0.023162 -0.006625 0.000000 0.000000 0.000000
# 3 -0.005103 -0.006625 0.015897 0.000000 0.000000 0.000000
# 4 0.000000 0.000000 0.000000 0.040161 0.000000 0.000000
# 5 0.000000 0.000000 0.000000 0.000000 0.040147 0.000000
# 6 0.000000 0.000000 0.000000 0.000000 0.000000 0.038434
#
#
# Mechanical properties :
#
#
# Convention : Reuss Voigt Hill
#
# Bulk Modulus (GPa) = 44.59512 46.17398 45.38455
# Shear Modulus (GPa) = 22.68581 23.27666 22.98123
#
# Velocity S-wave (km/s) = 3.63141 3.67839 3.65498
# Velocity P-wave (km/s) = 6.59588 6.69936 6.64782
#
# Compressibility (1/GPa) = 0.02242398
#
# Stress axis : x y z
#
# Youngs Moduli (GPa) = 51.95905 43.17344 62.90659
#
# Poissons Ratio (x) = 0.26820 0.32101
# Poissons Ratio (y) = 0.32278 0.41677
# Poissons Ratio (z) = 0.26514 0.28604
#
# Static dielectric constant tensor:
#      x y z
#    x 3.459050 0.000000 0.000000 
#    y 0.000000 3.084230 0.000000 
#    z 0.000000 0.000000 4.045390 
# 
# 
# High freq. dielectric constant tensor:
#      x y z
#    x 1.647710 0.000000 0.000000 
#    y 0.000000 1.637450 0.000000 
#    z 0.000000 0.000000 1.669140 
# 
# From -- ./inp_files/6621.got.cif
#   From: 2010.03.12/outbox.cif.g09.slc.cpg/sg49_4_cif.got.tgz:6621.got - 2010.04.14 03:58:27.
