data_PCOD8203770
_publ_section_title
;
Structure prediction by ZEFSAII (Michael W. Deem and Ramdas Pophale) SiO2 
 PCOD8203770
Probable space group: P C C M
;
_chemical_formula_sum "Si O2"
_cell_formula_units_Z 48
_cell_length_a 30.291387
_cell_length_b 9.547889
_cell_length_c 8.659347
_cell_angle_alpha 90.000000
_cell_angle_beta 90.000000
_cell_angle_gamma 90.000000
_cell_volume 2504.445954
_symmetry_space_group_name_H-M "P C C M"
_symmetry_group_IT_number 49
_symmetry_cell_setting 'orthorhombic'
loop_
_space_group_symop_operation_xyz
x,y,z
-x,-y,z
x,-y,1/2-z
-x,y,1/2-z
-x,-y,-z
x,y,-z
-x,y,1/2+z
x,-y,1/2+z
loop_
_atom_site_type_symbol
_atom_site_label
_atom_site_fract_x
_atom_site_fract_y
_atom_site_fract_z
Si Si1 0.951881 0.852829 0.683671
Si Si2 0.373919 0.653236 0.317699
Si Si3 0.297391 0.147571 0.817147
Si Si4 0.546612 0.150666 0.683115
Si Si5 0.120542 0.653706 0.316695
Si Si6 0.198363 0.146082 0.818622
O O1 0.953814 0.861184 0.500000
O O2 0.920738 0.728235 0.737843
O O3 0.000000 0.820561 0.750000
O O4 0.933792 0.000000 0.750000
O O5 0.375779 0.500000 0.250000
O O6 0.372762 0.642237 0.500000
O O7 0.329987 0.731517 0.256015
O O8 0.416788 0.738599 0.262468
O O9 0.247730 0.182545 0.759019
O O10 0.313592 0.000000 0.750000
O O11 0.299640 0.136515 0.000000
O O12 0.500000 0.202855 0.750000
O O13 0.543467 0.138723 0.500000
O O14 0.559737 0.000000 0.750000
O O15 0.124122 0.500000 0.250000
O O16 0.113999 0.651752 0.500000
O O17 0.165443 0.731737 0.266345
O O18 0.181341 0.000000 0.750000
O O19 0.198304 0.128079 0.000000
#
# Coordination Sequence:
#
# PCOD8203770 Si02
#       6
#     8   8   8   8   8   8
#     4  11  22  39  62  87 113 145 184 228 273 322
#     4  10  22  36  52  76 108 141 176 215 263 317
#     4   9  18  35  56  80 106 137 177 222 266 315
#     4  10  20  35  55  79 103 134 174 219 264 314
#     4  11  23  38  55  81 114 149 185 225 272 325
#     4   9  19  35  57  81 108 140 179 223 268 317
#
# _framework density 19.165914999999998
#
# number of rings (size 3 to 8) (size 9 to 14) (size 15 to 20)
#    0.000    2.000    0.000    4.500    0.000    6.000 
#    0.000    3.333    0.000    0.000    0.000    0.000 
#    0.000    0.000    0.000    0.000    0.000    0.000 
#
# Total GULP energy -595308.933205 kJ/mol
# GULP energy per Si atom -12402.269442 kJ/mol
# Density = 1.912229 g / cm^3
# Si number density = 19.165915 Si / 1000 Ang^3
#
#
#
# Elastic Constant Matrix: (Units=GPa)
#
#
# Indices 1 2 3 4 5 6 
#
# 1 136.1747 106.2452 48.3982 0.0000 0.0000 0.0000
# 2 106.2452 177.5560 49.3764 0.0000 0.0000 0.0000
# 3 48.3982 49.3764 74.6913 0.0000 0.0000 0.0000
# 4 0.0000 0.0000 0.0000 36.4928 0.0000 0.0000
# 5 0.0000 0.0000 0.0000 0.0000 28.3769 0.0000
# 6 0.0000 0.0000 0.0000 0.0000 0.0000 5.3586
#
#
#
# Elastic Compliance Matrix: (Units=1/GPa)
#
#
# Indices 1 2 3 4 5 6 
#
# 1 0.014977 -0.007674 -0.004632 0.000000 0.000000 0.000000
# 2 -0.007674 0.010832 -0.002189 0.000000 0.000000 0.000000
# 3 -0.004632 -0.002189 0.017837 0.000000 0.000000 0.000000
# 4 0.000000 0.000000 0.000000 0.027403 0.000000 0.000000
# 5 0.000000 0.000000 0.000000 0.000000 0.035240 0.000000
# 6 0.000000 0.000000 0.000000 0.000000 0.000000 0.186617
#
#
# Mechanical properties :
#
#
# Convention : Reuss Voigt Hill
#
# Bulk Modulus (GPa) = 68.22396 88.49571 78.35984
# Shear Modulus (GPa) = 15.30084 26.33914 20.81999
#
# Velocity S-wave (km/s) = 2.82855 3.71114 3.29949
# Velocity P-wave (km/s) = 6.80745 8.03972 7.44911
#
# Compressibility (1/GPa) = 0.01465761
#
# Stress axis : x y z
#
# Youngs Moduli (GPa) = 66.76985 92.31534 56.06473
#
# Poissons Ratio (x) = 0.70840 0.25968
# Poissons Ratio (y) = 0.51237 0.12271
# Poissons Ratio (z) = 0.30926 0.20204
#
# Static dielectric constant tensor:
#      x y z
#    x 3.909760 0.000000 0.000000 
#    y 0.000000 3.449340 0.000000 
#    z 0.000000 0.000000 3.494630 
# 
# 
# High freq. dielectric constant tensor:
#      x y z
#    x 1.761050 0.000000 0.000000 
#    y 0.000000 1.742930 0.000000 
#    z 0.000000 0.000000 1.747010 
# 
# From -- ./inp_files/2044.got.cif
#   From: 2010.03.12/outbox.cif.g09.slc.cpg/sg49_2_cif.got.tgz:2044.got - 2010.04.14 03:58:27.
