data_PCOD8203524
_publ_section_title
;
Structure prediction by ZEFSAII (Michael W. Deem and Ramdas Pophale) SiO2 
 PCOD8203524
Probable space group: P C C M
;
_chemical_formula_sum "Si O2"
_cell_formula_units_Z 40
_cell_length_a 18.668974
_cell_length_b 13.537811
_cell_length_c 8.709602
_cell_angle_alpha 90.000000
_cell_angle_beta 90.000000
_cell_angle_gamma 90.000000
_cell_volume 2201.239043
_symmetry_space_group_name_H-M "P C C M"
_symmetry_group_IT_number 49
_symmetry_cell_setting 'orthorhombic'
loop_
_space_group_symop_operation_xyz
x,y,z
-x,-y,z
x,-y,1/2-z
-x,y,1/2-z
-x,-y,-z
x,y,-z
-x,y,1/2+z
x,-y,1/2+z
loop_
_atom_site_type_symbol
_atom_site_label
_atom_site_fract_x
_atom_site_fract_y
_atom_site_fract_z
Si Si1 0.209184 0.898480 0.179849
Si Si2 0.291845 0.297046 0.680227
Si Si3 0.424158 0.394251 0.817995
Si Si4 0.923155 0.796882 0.179662
Si Si5 0.841102 0.601397 0.819476
O O1 0.265734 0.813038 0.221625
O O2 0.131957 0.875225 0.251042
O O3 0.239250 0.000000 0.250000
O O4 0.199434 0.909364 0.000000
O O5 0.303356 0.312003 0.500000
O O6 0.366005 0.313189 0.768922
O O7 0.234187 0.376247 0.738387
O O8 0.401338 0.500000 0.750000
O O9 0.500000 0.359901 0.750000
O O10 0.429665 0.402100 0.000000
O O11 0.898566 0.685828 0.220728
O O12 0.000000 0.817542 0.250000
O O13 0.926537 0.814366 0.000000
O O14 0.872098 0.500000 0.750000
O O15 0.828120 0.592145 0.000000
#
# Coordination Sequence:
#
# PCOD8203524 Si02
#       5
#     8   8   8   8   8
#     4  10  21  37  58  80 103 131 168 213 261 311
#     4  10  20  35  54  77 105 137 172 212 256 304
#     4  11  21  34  53  79 112 146 178 212 250 297
#     4  10  21  36  53  74 102 133 170 213 260 310
#     4  10  20  33  50  73 101 136 174 213 254 303
#
# _framework density 18.171582999999998
#
# number of rings (size 3 to 8) (size 9 to 14) (size 15 to 20)
#    0.000    1.800    0.000    5.400    0.000    5.600 
#    0.000    4.000    0.000    0.600    0.000    4.200 
#    0.000    0.000    0.000    0.000    0.000    0.000 
#
# Total GULP energy -496210.342291 kJ/mol
# GULP energy per Si atom -12405.258557 kJ/mol
# Density = 1.813022 g / cm^3
# Si number density = 18.171583 Si / 1000 Ang^3
#
#
#
# Elastic Constant Matrix: (Units=GPa)
#
#
# Indices 1 2 3 4 5 6 
#
# 1 115.9206 38.8178 51.1806 0.0000 0.0000 0.0000
# 2 38.8178 95.3397 42.0199 0.0000 0.0000 0.0000
# 3 51.1806 42.0199 112.6772 0.0000 0.0000 0.0000
# 4 0.0000 0.0000 0.0000 32.9523 0.0000 0.0000
# 5 0.0000 0.0000 0.0000 0.0000 31.5990 0.0000
# 6 0.0000 0.0000 0.0000 0.0000 0.0000 18.9375
#
#
#
# Elastic Compliance Matrix: (Units=1/GPa)
#
#
# Indices 1 2 3 4 5 6 
#
# 1 0.011391 -0.002821 -0.004122 0.000000 0.000000 0.000000
# 2 -0.002821 0.013251 -0.003660 0.000000 0.000000 0.000000
# 3 -0.004122 -0.003660 0.012112 0.000000 0.000000 0.000000
# 4 0.000000 0.000000 0.000000 0.030347 0.000000 0.000000
# 5 0.000000 0.000000 0.000000 0.000000 0.031647 0.000000
# 6 0.000000 0.000000 0.000000 0.000000 0.000000 0.052805
#
#
# Mechanical properties :
#
#
# Convention : Reuss Voigt Hill
#
# Bulk Modulus (GPa) = 64.31931 65.33045 64.82488
# Shear Modulus (GPa) = 28.09907 29.49237 28.79572
#
# Velocity S-wave (km/s) = 3.93659 4.03301 3.98509
# Velocity P-wave (km/s) = 7.49231 7.59717 7.54492
#
# Compressibility (1/GPa) = 0.01554743
#
# Stress axis : x y z
#
# Youngs Moduli (GPa) = 87.78642 75.46847 82.56178
#
# Poissons Ratio (x) = 0.21291 0.34033
# Poissons Ratio (y) = 0.24767 0.30217
# Poissons Ratio (z) = 0.36186 0.27621
#
# Static dielectric constant tensor:
#      x y z
#    x 3.265250 0.000000 0.000000 
#    y 0.000000 3.359180 0.000000 
#    z 0.000000 0.000000 3.482160 
# 
# 
# High freq. dielectric constant tensor:
#      x y z
#    x 1.694370 0.000000 0.000000 
#    y 0.000000 1.696820 0.000000 
#    z 0.000000 0.000000 1.725640 
# 
# From -- ./inp_files/2667.got.cif
#   From: 2010.03.12/outbox.cif.g09.slc.cpg/sg49_2_cif.got.tgz:2667.got - 2010.04.14 03:58:27.
