data_PCOD8203309
_publ_section_title
;
Structure prediction by ZEFSAII (Michael W. Deem and Ramdas Pophale) SiO2 
 PCOD8203309
Probable space group: P C C M
;
_chemical_formula_sum "Si O2"
_cell_formula_units_Z 56
_cell_length_a 19.609494
_cell_length_b 9.098203
_cell_length_c 15.354591
_cell_angle_alpha 90.000000
_cell_angle_beta 90.000000
_cell_angle_gamma 90.000000
_cell_volume 2739.430348
_symmetry_space_group_name_H-M "P C C M"
_symmetry_group_IT_number 49
_symmetry_cell_setting 'orthorhombic'
loop_
_space_group_symop_operation_xyz
x,y,z
-x,-y,z
x,-y,1/2-z
-x,y,1/2-z
-x,-y,-z
x,y,-z
-x,y,1/2+z
x,-y,1/2+z
loop_
_atom_site_type_symbol
_atom_site_label
_atom_site_fract_x
_atom_site_fract_y
_atom_site_fract_z
Si Si1 0.812723 0.649077 0.896475
Si Si2 0.811109 0.683941 0.400832
Si Si3 0.079875 0.105121 0.666062
Si Si4 0.575681 0.173986 0.747789
Si Si5 0.320875 0.179143 0.101250
Si Si6 0.056929 0.184142 0.903651
Si Si7 0.669556 0.160310 0.903115
O O1 0.811829 0.481481 0.864409
O O2 0.745600 0.734975 0.863256
O O3 0.881707 0.723230 0.859285
O O4 0.813385 0.661779 0.000000
O O5 0.838823 0.690979 0.500000
O O6 0.857133 0.784186 0.338359
O O7 0.734373 0.736798 0.395497
O O8 0.009402 0.198432 0.658626
O O9 0.082242 0.000000 0.750000
O O10 0.080662 0.986838 0.587155
O O11 0.500000 0.244580 0.750000
O O12 0.614942 0.228038 0.660734
O O13 0.614949 0.223092 0.835007
O O14 0.569604 0.000000 0.750000
O O15 0.307145 0.006507 0.115967
O O16 0.337008 0.215611 0.000000
O O17 0.040111 0.244999 0.000000
O O18 0.637430 0.170561 0.000000
#
# Coordination Sequence:
#
# PCOD8203309 Si02
#       7
#     8   8   8   8   8   8   8
#     4   9  19  34  56  83 109 138 180 228 274 325
#     4  10  20  36  57  82 109 142 182 226 273 325
#     4  11  22  35  52  77 108 141 178 222 269 320
#     4   9  18  32  52  81 111 139 180 230 276 328
#     4   9  17  32  54  81 111 145 182 227 280 333
#     4  10  19  35  57  78 102 138 179 221 267 322
#     4   9  18  32  53  79 110 146 184 225 274 331
#
# _framework density 20.442208000000001
#
# number of rings (size 3 to 8) (size 9 to 14) (size 15 to 20)
#    0.000    2.429    0.000    3.429    0.000    6.286 
#    0.000   10.000    0.000    5.143    0.000    4.000 
#    0.000    0.000    0.000    0.000    0.000    0.000 
#
# Total GULP energy -694144.250977 kJ/mol
# GULP energy per Si atom -12395.433053 kJ/mol
# Density = 2.039568 g / cm^3
# Si number density = 20.442208 Si / 1000 Ang^3
#
#
#
# Elastic Constant Matrix: (Units=GPa)
#
#
# Indices 1 2 3 4 5 6 
#
# 1 142.0791 55.1566 62.2312 0.0000 0.0000 0.0000
# 2 55.1566 79.4782 27.6373 0.0000 0.0000 0.0000
# 3 62.2312 27.6373 104.0991 0.0000 0.0000 0.0000
# 4 0.0000 0.0000 0.0000 16.2122 0.0000 0.0000
# 5 0.0000 0.0000 0.0000 0.0000 25.2454 0.0000
# 6 0.0000 0.0000 0.0000 0.0000 0.0000 7.1810
#
#
#
# Elastic Compliance Matrix: (Units=1/GPa)
#
#
# Indices 1 2 3 4 5 6 
#
# 1 0.011878 -0.006361 -0.005412 0.000000 0.000000 0.000000
# 2 -0.006361 0.017269 -0.000782 0.000000 0.000000 0.000000
# 3 -0.005412 -0.000782 0.013049 0.000000 0.000000 0.000000
# 4 0.000000 0.000000 0.000000 0.061682 0.000000 0.000000
# 5 0.000000 0.000000 0.000000 0.000000 0.039611 0.000000
# 6 0.000000 0.000000 0.000000 0.000000 0.000000 0.139256
#
#
# Mechanical properties :
#
#
# Convention : Reuss Voigt Hill
#
# Bulk Modulus (GPa) = 58.52865 68.41187 63.47026
# Shear Modulus (GPa) = 15.94634 21.76981 18.85808
#
# Velocity S-wave (km/s) = 2.79600 3.26689 3.04057
# Velocity P-wave (km/s) = 6.25435 6.91149 6.59112
#
# Compressibility (1/GPa) = 0.01708565
#
# Stress axis : x y z
#
# Youngs Moduli (GPa) = 84.18604 57.90838 76.63322
#
# Poissons Ratio (x) = 0.36838 0.41475
# Poissons Ratio (y) = 0.53555 0.05991
# Poissons Ratio (z) = 0.45562 0.04527
#
# Static dielectric constant tensor:
#      x y z
#    x 3.784880 0.000000 0.000000 
#    y 0.000000 3.572170 0.000000 
#    z 0.000000 0.000000 3.842350 
# 
# 
# High freq. dielectric constant tensor:
#      x y z
#    x 1.793040 0.000000 0.000000 
#    y 0.000000 1.768980 0.000000 
#    z 0.000000 0.000000 1.800920 
# 
# From -- ./inp_files/14381.got.cif
#   From: 2010.03.12/outbox.cif.g09.slc.cpg/sg49_8_cif.got.tgz:14381.got - 2010.04.14 03:58:27.
