data_PCOD8203530
_publ_section_title
;
Structure prediction by ZEFSAII (Michael W. Deem and Ramdas Pophale) SiO2 
 PCOD8203530
Probable space group: P C C M
;
_chemical_formula_sum "Si O2"
_cell_formula_units_Z 48
_cell_length_a 15.629899
_cell_length_b 19.431453
_cell_length_c 8.937955
_cell_angle_alpha 90.000000
_cell_angle_beta 90.000000
_cell_angle_gamma 90.000000
_cell_volume 2714.561041
_symmetry_space_group_name_H-M "P C C M"
_symmetry_group_IT_number 49
_symmetry_cell_setting 'orthorhombic'
loop_
_space_group_symop_operation_xyz
x,y,z
-x,-y,z
x,-y,1/2-z
-x,y,1/2-z
-x,-y,-z
x,y,-z
-x,y,1/2+z
x,-y,1/2+z
loop_
_atom_site_type_symbol
_atom_site_label
_atom_site_fract_x
_atom_site_fract_y
_atom_site_fract_z
Si Si1 0.911687 0.832646 0.823147
Si Si2 0.913262 0.674664 0.824245
Si Si3 0.232066 0.426574 0.174738
Si Si4 0.420017 0.073680 0.673283
Si Si5 0.230284 0.074279 0.675157
Si Si6 0.420149 0.573992 0.674298
O O1 0.895452 0.753402 0.779560
O O2 0.833929 0.874472 0.754822
O O3 0.000000 0.858844 0.750000
O O4 0.916367 0.844287 0.000000
O O5 0.835728 0.628289 0.761928
O O6 0.000000 0.647342 0.750000
O O7 0.923387 0.666750 0.000000
O O8 0.217812 0.500000 0.250000
O O9 0.326490 0.393651 0.205392
O O10 0.219077 0.438954 0.000000
O O11 0.500000 0.115500 0.750000
O O12 0.441022 0.065704 0.500000
O O13 0.325903 0.106556 0.697694
O O14 0.416534 0.000000 0.750000
O O15 0.208553 0.067190 0.500000
O O16 0.221533 0.000000 0.750000
O O17 0.417800 0.500000 0.750000
O O18 0.500000 0.615998 0.750000
O O19 0.438931 0.567191 0.500000
#
# Coordination Sequence:
#
# PCOD8203530 Si02
#       6
#     8   8   8   8   8   8
#     4  10  20  35  54  72  93 125 162 199 241 289
#     4   9  19  35  52  70  93 124 160 195 235 284
#     4   9  18  31  47  70  98 125 155 193 236 279
#     4   9  16  26  43  67  96 127 157 191 230 275
#     4  10  20  33  50  75 103 128 159 199 240 282
#     4   9  15  24  40  62  90 121 152 187 227 273
#
# _framework density 17.682416
#
# number of rings (size 3 to 8) (size 9 to 14) (size 15 to 20)
#    0.000    2.667    0.000    3.000    0.000    4.667 
#    0.000    3.333    0.000    1.000    0.000    4.667 
#    0.000    0.000    0.000    0.000    0.000    0.000 
#
# Total GULP energy -594766.482423 kJ/mol
# GULP energy per Si atom -12390.968384 kJ/mol
# Density = 1.764217 g / cm^3
# Si number density = 17.682416 Si / 1000 Ang^3
#
#
#
# Elastic Constant Matrix: (Units=GPa)
#
#
# Indices 1 2 3 4 5 6 
#
# 1 191.1670 64.3778 72.8705 0.0000 0.0000 0.0000
# 2 64.3778 52.1397 31.3995 0.0000 0.0000 0.0000
# 3 72.8705 31.3995 95.7510 0.0000 0.0000 0.0000
# 4 0.0000 0.0000 0.0000 16.0983 0.0000 0.0000
# 5 0.0000 0.0000 0.0000 0.0000 34.2422 0.0000
# 6 0.0000 0.0000 0.0000 0.0000 0.0000 2.9762
#
#
#
# Elastic Compliance Matrix: (Units=1/GPa)
#
#
# Indices 1 2 3 4 5 6 
#
# 1 0.010358 -0.010021 -0.004597 0.000000 0.000000 0.000000
# 2 -0.010021 0.033594 -0.003390 0.000000 0.000000 0.000000
# 3 -0.004597 -0.003390 0.015054 0.000000 0.000000 0.000000
# 4 0.000000 0.000000 0.000000 0.062119 0.000000 0.000000
# 5 0.000000 0.000000 0.000000 0.000000 0.029204 0.000000
# 6 0.000000 0.000000 0.000000 0.000000 0.000000 0.335996
#
#
# Mechanical properties :
#
#
# Convention : Reuss Voigt Hill
#
# Bulk Modulus (GPa) = 43.49684 75.15037 59.32361
# Shear Modulus (GPa) = 9.43393 22.02400 15.72897
#
# Velocity S-wave (km/s) = 2.31231 3.53304 2.98573
# Velocity P-wave (km/s) = 5.63750 7.69646 6.74599
#
# Compressibility (1/GPa) = 0.02299017
#
# Stress axis : x y z
#
# Youngs Moduli (GPa) = 96.54519 29.76751 66.42895
#
# Poissons Ratio (x) = 0.29830 0.30535
# Poissons Ratio (y) = 0.96746 0.22520
# Poissons Ratio (z) = 0.44378 0.10091
#
# Static dielectric constant tensor:
#      x y z
#    x 4.528030 0.000000 0.000000 
#    y 0.000000 2.898620 0.000000 
#    z 0.000000 0.000000 3.394880 
# 
# 
# High freq. dielectric constant tensor:
#      x y z
#    x 1.712370 0.000000 0.000000 
#    y 0.000000 1.627320 0.000000 
#    z 0.000000 0.000000 1.696330 
# 
# From -- ./inp_files/3740.got.cif
#   From: 2010.03.12/outbox.cif.g09.slc.cpg/sg49_2_cif.got.tgz:3740.got - 2010.04.14 03:58:27.
