data_PCOD8203717
_publ_section_title
;
Structure prediction by ZEFSAII (Michael W. Deem and Ramdas Pophale) SiO2 
 PCOD8203717
Probable space group: P C C M
;
_chemical_formula_sum "Si O2"
_cell_formula_units_Z 56
_cell_length_a 17.502488
_cell_length_b 9.527778
_cell_length_c 17.927303
_cell_angle_alpha 90.000000
_cell_angle_beta 90.000000
_cell_angle_gamma 90.000000
_cell_volume 2989.553823
_symmetry_space_group_name_H-M "P C C M"
_symmetry_group_IT_number 49
_symmetry_cell_setting 'orthorhombic'
loop_
_space_group_symop_operation_xyz
x,y,z
-x,-y,z
x,-y,1/2-z
-x,y,1/2-z
-x,-y,-z
x,y,-z
-x,y,1/2+z
x,-y,1/2+z
loop_
_atom_site_type_symbol
_atom_site_label
_atom_site_fract_x
_atom_site_fract_y
_atom_site_fract_z
Si Si1 0.418463 0.928328 0.823143
Si Si2 0.282228 0.012319 0.084669
Si Si3 0.361123 0.634223 0.205535
Si Si4 0.844413 0.783872 0.581704
Si Si5 0.254944 0.478280 0.584789
Si Si6 0.083906 0.162051 0.731125
Si Si7 0.229304 0.264263 0.814724
O O1 0.422921 0.758762 0.809063
O O2 0.500000 0.000000 0.837375
O O3 0.381269 0.000000 0.750000
O O4 0.367572 0.963586 0.894805
O O5 0.252195 0.123772 0.143350
O O6 0.230624 0.876462 0.093910
O O7 0.282170 0.070727 0.000000
O O8 0.397375 0.500000 0.250000
O O9 0.329998 0.580620 0.126223
O O10 0.290171 0.697258 0.251494
O O11 0.880490 0.813287 0.500000
O O12 0.817060 0.624677 0.588001
O O13 0.908065 0.818594 0.642406
O O14 0.280106 0.509330 0.500000
O O15 0.223506 0.617365 0.623170
O O16 0.147219 0.250071 0.775545
O O17 0.000000 0.219900 0.750000
O O18 0.092749 0.000000 0.750000
#
# Coordination Sequence:
#
# PCOD8203717 Si02
#       7
#     8   8   8   8   8   8   8
#     4  11  22  37  57  87 121 153 193 247 293 353
#     4  11  21  35  60  86 114 153 193 245 297 345
#     4  10  20  35  62  86 113 158 195 240 292 349
#     4  10  20  36  58  85 115 151 195 243 297 353
#     4  10  20  34  57  88 118 148 193 246 298 343
#     4  11  22  37  58  87 117 157 199 246 302 357
#     4  11  20  36  59  85 116 149 202 250 287 349
#
# _framework density 18.731891999999998
#
# number of rings (size 3 to 8) (size 9 to 14) (size 15 to 20)
#    0.000    1.429    5.714    0.429    0.000    0.286 
#    0.000    5.714    0.000    1.714    0.000    3.000 
#    0.000    0.000    0.000    0.000    0.000    0.000 
#
# Total GULP energy -694336.598435 kJ/mol
# GULP energy per Si atom -12398.867829 kJ/mol
# Density = 1.868926 g / cm^3
# Si number density = 18.731892 Si / 1000 Ang^3
#
#
#
# Elastic Constant Matrix: (Units=GPa)
#
#
# Indices 1 2 3 4 5 6 
#
# 1 96.2224 37.9066 50.7123 0.0000 0.0000 0.0000
# 2 37.9066 94.4408 38.1943 0.0000 0.0000 0.0000
# 3 50.7123 38.1943 139.4090 0.0000 0.0000 0.0000
# 4 0.0000 0.0000 0.0000 29.2655 0.0000 0.0000
# 5 0.0000 0.0000 0.0000 0.0000 4.9116 0.0000
# 6 0.0000 0.0000 0.0000 0.0000 0.0000 11.7170
#
#
#
# Elastic Compliance Matrix: (Units=1/GPa)
#
#
# Indices 1 2 3 4 5 6 
#
# 1 0.014103 -0.004033 -0.004025 0.000000 0.000000 0.000000
# 2 -0.004033 0.013061 -0.002111 0.000000 0.000000 0.000000
# 3 -0.004025 -0.002111 0.009216 0.000000 0.000000 0.000000
# 4 0.000000 0.000000 0.000000 0.034170 0.000000 0.000000
# 5 0.000000 0.000000 0.000000 0.000000 0.203600 0.000000
# 6 0.000000 0.000000 0.000000 0.000000 0.000000 0.085346
#
#
# Mechanical properties :
#
#
# Convention : Reuss Voigt Hill
#
# Bulk Modulus (GPa) = 62.34008 64.85541 63.59774
# Shear Modulus (GPa) = 12.98089 22.72943 17.85516
#
# Velocity S-wave (km/s) = 2.63531 3.48718 3.09074
# Velocity P-wave (km/s) = 6.52781 7.13527 6.83829
#
# Compressibility (1/GPa) = 0.01604104
#
# Stress axis : x y z
#
# Youngs Moduli (GPa) = 70.90867 76.56272 108.50836
#
# Poissons Ratio (x) = 0.30875 0.43677
# Poissons Ratio (y) = 0.28595 0.22911
# Poissons Ratio (z) = 0.28542 0.16166
#
# Static dielectric constant tensor:
#      x y z
#    x 3.096130 0.000000 0.000000 
#    y 0.000000 3.720650 0.000000 
#    z 0.000000 0.000000 3.860500 
# 
# 
# High freq. dielectric constant tensor:
#      x y z
#    x 1.691510 0.000000 0.000000 
#    y 0.000000 1.739300 0.000000 
#    z 0.000000 0.000000 1.741690 
# 
# From -- ./inp_files/18281.got.cif
#   From: 2010.03.12/outbox.cif.g09.slc.cpg/sg49_10_cif.got.tgz:18281.got - 2010.04.14 03:58:27.
