data_PCOD8203730
_publ_section_title
;
Structure prediction by ZEFSAII (Michael W. Deem and Ramdas Pophale) SiO2 
 PCOD8203730
Probable space group: P C C M
;
_chemical_formula_sum "Si O2"
_cell_formula_units_Z 64
_cell_length_a 16.406137
_cell_length_b 22.788386
_cell_length_c 8.774136
_cell_angle_alpha 90.000000
_cell_angle_beta 90.000000
_cell_angle_gamma 90.000000
_cell_volume 3280.380810
_symmetry_space_group_name_H-M "P C C M"
_symmetry_group_IT_number 49
_symmetry_cell_setting 'orthorhombic'
loop_
_space_group_symop_operation_xyz
x,y,z
-x,-y,z
x,-y,1/2-z
-x,y,1/2-z
-x,-y,-z
x,y,-z
-x,y,1/2+z
x,-y,1/2+z
loop_
_atom_site_type_symbol
_atom_site_label
_atom_site_fract_x
_atom_site_fract_y
_atom_site_fract_z
Si Si1 0.585197 0.144805 0.319415
Si Si2 0.080935 0.230988 0.818781
Si Si3 0.612667 0.722337 0.171210
Si Si4 0.207068 0.681626 0.670216
Si Si5 0.742053 0.559499 0.181395
Si Si6 0.914843 0.901479 0.180383
Si Si7 0.265668 0.938765 0.681119
Si Si8 0.419407 0.396479 0.321125
O O1 0.500000 0.119456 0.250000
O O2 0.579397 0.140131 0.500000
O O3 0.592892 0.212675 0.266612
O O4 0.666693 0.109454 0.263919
O O5 0.147847 0.273716 0.743390
O O6 0.092970 0.165011 0.760562
O O7 0.000000 0.258142 0.750000
O O8 0.082586 0.231242 0.000000
O O9 0.708641 0.715305 0.166475
O O10 0.578210 0.673400 0.285479
O O11 0.577306 0.712618 0.000000
O O12 0.174173 0.671815 0.500000
O O13 0.209821 0.616732 0.745862
O O14 0.780591 0.500000 0.250000
O O15 0.650385 0.567369 0.237070
O O16 0.743272 0.557246 0.000000
O O17 0.828527 0.928835 0.238011
O O18 0.000000 0.928780 0.250000
O O19 0.922805 0.907354 0.000000
O O20 0.265434 0.940837 0.500000
O O21 0.295927 0.000000 0.750000
O O22 0.500000 0.424982 0.250000
O O23 0.412613 0.406671 0.500000
#
# Coordination Sequence:
#
# PCOD8203730 Si02
#       8
#     8   8   8   8   8   8   8   8
#     4  10  21  36  55  77 103 136 177 221 269 317
#     4   9  16  29  50  77 105 132 160 196 243 300
#     4   9  17  32  53  76 100 129 165 208 257 311
#     4   8  15  29  51  73  97 130 164 198 246 303
#     4  10  20  35  52  71  94 127 170 212 252 296
#     4   9  18  33  55  81 109 137 168 206 256 314
#     4  10  22  39  56  76 103 140 181 221 262 312
#     4  11  21  33  49  72 101 131 162 201 248 301
#
# _framework density 19.509930000000001
#
# number of rings (size 3 to 8) (size 9 to 14) (size 15 to 20)
#    0.000    2.500    0.000    3.375    0.000    6.250 
#    0.000    6.875    0.000    4.875    0.000    2.625 
#    0.000    0.000    0.000    0.000    0.000    0.000 
#
# Total GULP energy -792873.982852 kJ/mol
# GULP energy per Si atom -12388.655982 kJ/mol
# Density = 1.946552 g / cm^3
# Si number density = 19.509930 Si / 1000 Ang^3
#
#
#
# Elastic Constant Matrix: (Units=GPa)
#
#
# Indices 1 2 3 4 5 6 
#
# 1 80.8326 29.9067 13.5659 0.0000 0.0000 0.0000
# 2 29.9067 85.0234 14.9552 0.0000 0.0000 0.0000
# 3 13.5659 14.9552 40.1315 0.0000 0.0000 0.0000
# 4 0.0000 0.0000 0.0000 27.0846 0.0000 0.0000
# 5 0.0000 0.0000 0.0000 0.0000 24.9190 0.0000
# 6 0.0000 0.0000 0.0000 0.0000 0.0000 10.6003
#
#
#
# Elastic Compliance Matrix: (Units=1/GPa)
#
#
# Indices 1 2 3 4 5 6 
#
# 1 0.014604 -0.004568 -0.003234 0.000000 0.000000 0.000000
# 2 -0.004568 0.014015 -0.003679 0.000000 0.000000 0.000000
# 3 -0.003234 -0.003679 0.027382 0.000000 0.000000 0.000000
# 4 0.000000 0.000000 0.000000 0.036921 0.000000 0.000000
# 5 0.000000 0.000000 0.000000 0.000000 0.040130 0.000000
# 6 0.000000 0.000000 0.000000 0.000000 0.000000 0.094337
#
#
# Mechanical properties :
#
#
# Convention : Reuss Voigt Hill
#
# Bulk Modulus (GPa) = 30.26685 35.87145 33.06915
# Shear Modulus (GPa) = 19.13030 22.35809 20.74420
#
# Velocity S-wave (km/s) = 3.13476 3.38891 3.26431
# Velocity P-wave (km/s) = 5.35252 5.80854 5.58519
#
# Compressibility (1/GPa) = 0.03303944
#
# Stress axis : x y z
#
# Youngs Moduli (GPa) = 68.47356 71.35041 36.51984
#
# Poissons Ratio (x) = 0.32593 0.11812
# Poissons Ratio (y) = 0.31279 0.13435
# Poissons Ratio (z) = 0.22147 0.26248
#
# Static dielectric constant tensor:
#      x y z
#    x 3.780630 0.000000 0.000000 
#    y 0.000000 3.765410 0.000000 
#    z 0.000000 0.000000 3.305590 
# 
# 
# High freq. dielectric constant tensor:
#      x y z
#    x 1.756150 0.000000 0.000000 
#    y 0.000000 1.760950 0.000000 
#    z 0.000000 0.000000 1.733840 
# 
# From -- ./inp_files/4428.got.cif
#   From: 2010.03.12/outbox.cif.g09.slc.cpg/sg49_3_cif.got.tgz:4428.got - 2010.04.14 03:58:27.
