data_PCOD8203851
_publ_section_title
;
Structure prediction by ZEFSAII (Michael W. Deem and Ramdas Pophale) SiO2 
 PCOD8203851
Probable space group: P C C M
;
_chemical_formula_sum "Si O2"
_cell_formula_units_Z 48
_cell_length_a 8.308276
_cell_length_b 14.500627
_cell_length_c 18.318877
_cell_angle_alpha 90.000000
_cell_angle_beta 90.000000
_cell_angle_gamma 90.000000
_cell_volume 2206.970577
_symmetry_space_group_name_H-M "P C C M"
_symmetry_group_IT_number 49
_symmetry_cell_setting 'orthorhombic'
loop_
_space_group_symop_operation_xyz
x,y,z
-x,-y,z
x,-y,1/2-z
-x,y,1/2-z
-x,-y,-z
x,y,-z
-x,y,1/2+z
x,-y,1/2+z
loop_
_atom_site_type_symbol
_atom_site_label
_atom_site_fract_x
_atom_site_fract_y
_atom_site_fract_z
Si Si1 0.357753 0.796363 0.086529
Si Si2 0.168744 0.030035 0.583658
Si Si3 0.103805 0.697202 0.676053
Si Si4 0.287417 0.833734 0.584121
Si Si5 0.315690 0.467376 0.175103
Si Si6 0.166887 0.382527 0.414715
O O1 0.250253 0.879798 0.120892
O O2 0.540443 0.800685 0.114560
O O3 0.286900 0.698722 0.111974
O O4 0.359959 0.807726 0.000000
O O5 0.130620 0.056479 0.500000
O O6 0.290187 0.944333 0.589447
O O7 0.000000 0.000000 0.621562
O O8 0.145726 0.793468 0.635968
O O9 0.275804 0.642190 0.678720
O O10 0.000000 0.714650 0.750000
O O11 0.002357 0.631614 0.623560
O O12 0.256465 0.802489 0.500000
O O13 0.500000 0.500000 0.174294
O O14 0.232323 0.500000 0.250000
O O15 0.235980 0.517806 0.106000
O O16 0.139623 0.378870 0.500000
#
# Coordination Sequence:
#
# PCOD8203851 Si02
#       6
#     8   8   8   8   8   8
#     4   9  18  34  57  92 129 159 200 253 307 360
#     4   9  16  29  54  88 126 163 200 247 301 353
#     4  12  24  40  61  88 120 161 203 253 307 370
#     4  10  20  35  58  89 125 165 208 254 302 362
#     4  11  24  43  64  87 119 161 201 243 305 376
#     4  11  23  39  64  93 120 155 200 258 308 358
#
# _framework density 21.749271
#
# number of rings (size 3 to 8) (size 9 to 14) (size 15 to 20)
#    0.000    1.667    1.667    3.500    0.000    7.000 
#    0.000    0.000    0.000    4.500    0.000    4.667 
#    0.000    0.000    0.000    0.000    0.000    0.000 
#
# Total GULP energy -594807.351839 kJ/mol
# GULP energy per Si atom -12391.819830 kJ/mol
# Density = 2.169977 g / cm^3
# Si number density = 21.749271 Si / 1000 Ang^3
#
#
#
# Elastic Constant Matrix: (Units=GPa)
#
#
# Indices 1 2 3 4 5 6 
#
# 1 92.5130 15.6554 28.0728 0.0000 0.0000 0.0000
# 2 15.6554 80.3852 27.5110 0.0000 0.0000 0.0000
# 3 28.0728 27.5110 73.9317 0.0000 0.0000 0.0000
# 4 0.0000 0.0000 0.0000 16.3387 0.0000 0.0000
# 5 0.0000 0.0000 0.0000 0.0000 22.9143 0.0000
# 6 0.0000 0.0000 0.0000 0.0000 0.0000 39.8763
#
#
#
# Elastic Compliance Matrix: (Units=1/GPa)
#
#
# Indices 1 2 3 4 5 6 
#
# 1 0.012275 -0.000912 -0.004322 0.000000 0.000000 0.000000
# 2 -0.000912 0.014323 -0.004984 0.000000 0.000000 0.000000
# 3 -0.004322 -0.004984 0.017022 0.000000 0.000000 0.000000
# 4 0.000000 0.000000 0.000000 0.061204 0.000000 0.000000
# 5 0.000000 0.000000 0.000000 0.000000 0.043641 0.000000
# 6 0.000000 0.000000 0.000000 0.000000 0.000000 0.025078
#
#
# Mechanical properties :
#
#
# Convention : Reuss Voigt Hill
#
# Bulk Modulus (GPa) = 43.13011 43.25649 43.19330
# Shear Modulus (GPa) = 24.78864 27.53191 26.16027
#
# Velocity S-wave (km/s) = 3.37967 3.56178 3.47192
# Velocity P-wave (km/s) = 5.92480 6.07016 5.99792
#
# Compressibility (1/GPa) = 0.02318566
#
# Stress axis : x y z
#
# Youngs Moduli (GPa) = 81.46662 69.81644 58.74906
#
# Poissons Ratio (x) = 0.06364 0.25390
# Poissons Ratio (y) = 0.07426 0.29279
# Poissons Ratio (z) = 0.35208 0.34795
#
# Static dielectric constant tensor:
#      x y z
#    x 4.043140 0.000000 0.000000 
#    y 0.000000 3.961510 0.000000 
#    z 0.000000 0.000000 3.661100 
# 
# 
# High freq. dielectric constant tensor:
#      x y z
#    x 1.864870 0.000000 0.000000 
#    y 0.000000 1.861240 0.000000 
#    z 0.000000 0.000000 1.810720 
# 
# From -- ./inp_files/16247.got.cif
#   From: 2010.03.12/outbox.cif.g09.slc.cpg/sg49_9_cif.got.tgz:16247.got - 2010.04.14 03:58:27.
