data_PCOD8203763
_publ_section_title
;
Structure prediction by ZEFSAII (Michael W. Deem and Ramdas Pophale) SiO2 
 PCOD8203763
Probable space group: P C C M
;
_chemical_formula_sum "Si O2"
_cell_formula_units_Z 64
_cell_length_a 8.908591
_cell_length_b 15.885897
_cell_length_c 23.894679
_cell_angle_alpha 90.000000
_cell_angle_beta 90.000000
_cell_angle_gamma 90.000000
_cell_volume 3381.597888
_symmetry_space_group_name_H-M "P C C M"
_symmetry_group_IT_number 49
_symmetry_cell_setting 'orthorhombic'
loop_
_space_group_symop_operation_xyz
x,y,z
-x,-y,z
x,-y,1/2-z
-x,y,1/2-z
-x,-y,-z
x,y,-z
-x,y,1/2+z
x,-y,1/2+z
loop_
_atom_site_type_symbol
_atom_site_label
_atom_site_fract_x
_atom_site_fract_y
_atom_site_fract_z
Si Si1 0.713150 0.837885 0.063769
Si Si2 0.820938 0.327384 0.065343
Si Si3 0.802918 0.831277 0.638438
Si Si4 0.325021 0.099901 0.249352
Si Si5 0.828167 0.662970 0.935192
Si Si6 0.331392 0.499028 0.566496
Si Si7 0.412856 0.919893 0.063473
Si Si8 0.900101 0.914840 0.150492
O O1 0.758818 0.748239 0.091105
O O2 0.532539 0.843620 0.068066
O O3 0.798100 0.916227 0.094481
O O4 0.767777 0.844797 0.000000
O O5 0.760617 0.255594 0.107403
O O6 0.743860 0.412607 0.086133
O O7 0.995867 0.340725 0.073852
O O8 0.783758 0.304626 0.000000
O O9 0.738899 0.844512 0.700168
O O10 0.732710 0.905802 0.600971
O O11 0.981297 0.840109 0.641021
O O12 0.500000 0.126476 0.250000
O O13 0.216448 0.119252 0.197171
O O14 0.311553 0.000000 0.250000
O O15 0.755209 0.579590 0.907440
O O16 0.784283 0.663306 0.000000
O O17 0.500000 0.500000 0.589383
O O18 0.324839 0.503092 0.500000
O O19 0.500000 0.000000 0.087940
O O20 0.360118 0.935989 0.000000
O O21 0.000000 0.000000 0.163135
#
# Coordination Sequence:
#
# PCOD8203763 Si02
#       8
#     8   8   8   8   8   8   8   8
#     4  10  21  36  56  83 121 160 197 234 286 355
#     4  10  20  35  54  85 124 156 187 231 293 357
#     4  12  23  35  60  85 114 148 194 248 300 344
#     4  11  25  43  63  80 107 149 198 252 301 344
#     4   9  17  32  51  77 114 156 190 227 278 338
#     4   9  18  31  53  82 115 156 194 230 278 345
#     4  10  22  37  52  78 117 162 199 234 285 350
#     4  12  23  39  60  86 116 149 199 252 296 341
#
# _framework density 18.925964
#
# number of rings (size 3 to 8) (size 9 to 14) (size 15 to 20)
#    0.000    1.625    2.500    2.625    3.500    2.250 
#    0.000    0.000    0.000    0.000    0.000    0.875 
#    0.000    0.000    0.000    0.000    0.000    0.000 
#
# Total GULP energy -792970.402608 kJ/mol
# GULP energy per Si atom -12390.162541 kJ/mol
# Density = 1.888289 g / cm^3
# Si number density = 18.925964 Si / 1000 Ang^3
#
#
#
# Elastic Constant Matrix: (Units=GPa)
#
#
# Indices 1 2 3 4 5 6 
#
# 1 97.9991 32.7764 39.1656 0.0000 0.0000 0.0000
# 2 32.7764 106.3812 37.8344 0.0000 0.0000 0.0000
# 3 39.1656 37.8344 81.7049 0.0000 0.0000 0.0000
# 4 0.0000 0.0000 0.0000 15.1148 0.0000 0.0000
# 5 0.0000 0.0000 0.0000 0.0000 7.6197 0.0000
# 6 0.0000 0.0000 0.0000 0.0000 0.0000 31.8619
#
#
#
# Elastic Compliance Matrix: (Units=1/GPa)
#
#
# Indices 1 2 3 4 5 6 
#
# 1 0.013019 -0.002145 -0.005247 0.000000 0.000000 0.000000
# 2 -0.002145 0.011607 -0.004347 0.000000 0.000000 0.000000
# 3 -0.005247 -0.004347 0.016767 0.000000 0.000000 0.000000
# 4 0.000000 0.000000 0.000000 0.066160 0.000000 0.000000
# 5 0.000000 0.000000 0.000000 0.000000 0.131238 0.000000
# 6 0.000000 0.000000 0.000000 0.000000 0.000000 0.031385
#
#
# Mechanical properties :
#
#
# Convention : Reuss Voigt Hill
#
# Bulk Modulus (GPa) = 55.81845 56.18200 56.00023
# Shear Modulus (GPa) = 16.68746 22.67321 19.68033
#
# Velocity S-wave (km/s) = 2.97260 3.46496 3.22818
# Velocity P-wave (km/s) = 6.42953 6.76443 6.59911
#
# Compressibility (1/GPa) = 0.01791522
#
# Stress axis : x y z
#
# Youngs Moduli (GPa) = 76.81290 86.15610 59.64028
#
# Poissons Ratio (x) = 0.18479 0.31295
# Poissons Ratio (y) = 0.16475 0.25923
# Poissons Ratio (z) = 0.40306 0.37448
#
# Static dielectric constant tensor:
#      x y z
#    x 3.774010 0.000000 0.000000 
#    y 0.000000 3.577200 0.000000 
#    z 0.000000 0.000000 3.214740 
# 
# 
# High freq. dielectric constant tensor:
#      x y z
#    x 1.756660 0.000000 0.000000 
#    y 0.000000 1.726380 0.000000 
#    z 0.000000 0.000000 1.691530 
# 
# From -- ./inp_files/22542.got.cif
#   From: 2010.03.12/outbox.cif.g09.slc.cpg/sg49_12_cif.got.tgz:22542.got - 2010.04.14 03:58:27.
