data_PCOD8203397
_publ_section_title
;
Structure prediction by ZEFSAII (Michael W. Deem and Ramdas Pophale) SiO2 
 PCOD8203397
Probable space group: P C C M
;
_chemical_formula_sum "Si O2"
_cell_formula_units_Z 64
_cell_length_a 18.565772
_cell_length_b 12.222787
_cell_length_c 14.215502
_cell_angle_alpha 90.000000
_cell_angle_beta 90.000000
_cell_angle_gamma 90.000000
_cell_volume 3225.859567
_symmetry_space_group_name_H-M "P C C M"
_symmetry_group_IT_number 49
_symmetry_cell_setting 'orthorhombic'
loop_
_space_group_symop_operation_xyz
x,y,z
-x,-y,z
x,-y,1/2-z
-x,y,1/2-z
-x,-y,-z
x,y,-z
-x,y,1/2+z
x,-y,1/2+z
loop_
_atom_site_type_symbol
_atom_site_label
_atom_site_fract_x
_atom_site_fract_y
_atom_site_fract_z
Si Si1 0.083164 0.630930 0.751536
Si Si2 0.423081 0.800973 0.228707
Si Si3 0.562154 0.585292 0.610622
Si Si4 0.317591 0.836933 0.392308
Si Si5 0.302220 0.087164 0.389789
Si Si6 0.805406 0.331522 0.392656
Si Si7 0.191214 0.735540 0.108442
Si Si8 0.283166 0.528238 0.108462
O O1 0.093463 0.500000 0.750000
O O2 0.118689 0.682617 0.658780
O O3 0.119732 0.694634 0.838827
O O4 0.000000 0.663097 0.750000
O O5 0.500000 0.860090 0.250000
O O6 0.445877 0.689520 0.176984
O O7 0.379730 0.785589 0.326840
O O8 0.374581 0.872446 0.159727
O O9 0.500000 0.500000 0.633011
O O10 0.563931 0.619516 0.500000
O O11 0.634845 0.523155 0.641502
O O12 0.345175 0.827659 0.500000
O O13 0.242895 0.774591 0.378395
O O14 0.296327 0.960084 0.364272
O O15 0.312202 0.109070 0.500000
O O16 0.228941 0.150869 0.356633
O O17 0.825060 0.354171 0.500000
O O18 0.763739 0.433454 0.341838
O O19 0.254022 0.648625 0.128010
O O20 0.168598 0.743082 0.000000
O O21 0.278956 0.496219 0.000000
#
# Coordination Sequence:
#
# PCOD8203397 Si02
#       8
#     8   8   8   8   8   8   8   8
#     4  11  23  36  55  89 127 160 189 225 286 362
#     4  12  25  38  56  86 119 156 201 249 310 364
#     4  10  22  40  60  86 122 158 199 253 309 365
#     4  10  24  42  62  88 117 157 206 253 302 356
#     4  10  21  42  68  89 111 149 206 262 305 351
#     4  10  21  38  59  85 118 155 192 242 294 352
#     4  10  19  37  64  89 112 146 198 252 295 346
#     4   9  17  33  59  85 108 148 199 243 297 349
#
# _framework density 19.839673000000001
#
# number of rings (size 3 to 8) (size 9 to 14) (size 15 to 20)
#    0.000    1.750    2.500    1.500    1.750    2.750 
#    0.000    2.500    0.000    1.875    0.000    3.500 
#    0.000    0.000    0.000    0.000    0.000    0.000 
#
# Total GULP energy -793354.421284 kJ/mol
# GULP energy per Si atom -12396.162833 kJ/mol
# Density = 1.979452 g / cm^3
# Si number density = 19.839673 Si / 1000 Ang^3
#
#
#
# Elastic Constant Matrix: (Units=GPa)
#
#
# Indices 1 2 3 4 5 6 
#
# 1 158.6753 43.0942 53.7017 0.0000 0.0000 0.0000
# 2 43.0942 93.2627 37.9122 0.0000 0.0000 0.0000
# 3 53.7017 37.9122 84.1955 0.0000 0.0000 0.0000
# 4 0.0000 0.0000 0.0000 24.4312 0.0000 0.0000
# 5 0.0000 0.0000 0.0000 0.0000 29.0684 0.0000
# 6 0.0000 0.0000 0.0000 0.0000 0.0000 66.4108
#
#
#
# Elastic Compliance Matrix: (Units=1/GPa)
#
#
# Indices 1 2 3 4 5 6 
#
# 1 0.008352 -0.002073 -0.004394 0.000000 0.000000 0.000000
# 2 -0.002073 0.013639 -0.004819 0.000000 0.000000 0.000000
# 3 -0.004394 -0.004819 0.016850 0.000000 0.000000 0.000000
# 4 0.000000 0.000000 0.000000 0.040931 0.000000 0.000000
# 5 0.000000 0.000000 0.000000 0.000000 0.034402 0.000000
# 6 0.000000 0.000000 0.000000 0.000000 0.000000 0.015058
#
#
# Mechanical properties :
#
#
# Convention : Reuss Voigt Hill
#
# Bulk Modulus (GPa) = 61.46739 67.28331 64.37535
# Shear Modulus (GPa) = 31.80107 37.41045 34.60576
#
# Velocity S-wave (km/s) = 4.00797 4.34710 4.18098
# Velocity P-wave (km/s) = 7.24346 7.69309 7.47166
#
# Compressibility (1/GPa) = 0.01626879
#
# Stress axis : x y z
#
# Youngs Moduli (GPa) = 119.72835 73.31648 59.34873
#
# Poissons Ratio (x) = 0.15201 0.26076
# Poissons Ratio (y) = 0.24823 0.28602
# Poissons Ratio (z) = 0.52605 0.35333
#
# Static dielectric constant tensor:
#      x y z
#    x 3.545620 0.000000 0.000000 
#    y 0.000000 1.986250 0.000000 
#    z 0.000000 0.000000 3.809830 
# 
# 
# High freq. dielectric constant tensor:
#      x y z
#    x 1.758040 0.000000 0.000000 
#    y 0.000000 1.766060 0.000000 
#    z 0.000000 0.000000 1.788530 
# 
# From -- ./inp_files/13095.got.cif
#   From: 2010.03.12/outbox.cif.g09.slc.cpg/sg49_7_cif.got.tgz:13095.got - 2010.04.14 03:58:27.
