data_PCOD8203298
_publ_section_title
;
Structure prediction by ZEFSAII (Michael W. Deem and Ramdas Pophale) SiO2 
 PCOD8203298
Probable space group: P C C M
;
_chemical_formula_sum "Si O2"
_cell_formula_units_Z 48
_cell_length_a 14.420362
_cell_length_b 20.576943
_cell_length_c 8.576208
_cell_angle_alpha 90.000000
_cell_angle_beta 90.000000
_cell_angle_gamma 90.000000
_cell_volume 2544.792187
_symmetry_space_group_name_H-M "P C C M"
_symmetry_group_IT_number 49
_symmetry_cell_setting 'orthorhombic'
loop_
_space_group_symop_operation_xyz
x,y,z
-x,-y,z
x,-y,1/2-z
-x,y,1/2-z
-x,-y,-z
x,y,-z
-x,y,1/2+z
x,-y,1/2+z
loop_
_atom_site_type_symbol
_atom_site_label
_atom_site_fract_x
_atom_site_fract_y
_atom_site_fract_z
Si Si1 0.717386 0.182963 0.815794
Si Si2 0.902143 0.768308 0.815283
Si Si3 0.397791 0.307960 0.315120
Si Si4 0.094949 0.625984 0.184076
Si Si5 0.712433 0.568111 0.317375
Si Si6 0.598358 0.070054 0.683715
O O1 0.823573 0.188021 0.763786
O O2 0.661912 0.246591 0.757869
O O3 0.677100 0.120150 0.731802
O O4 0.710168 0.174392 0.000000
O O5 0.886496 0.693823 0.768277
O O6 0.000000 0.793911 0.750000
O O7 0.898758 0.775589 0.000000
O O8 0.500000 0.301379 0.250000
O O9 0.400822 0.310020 0.500000
O O10 0.349729 0.373371 0.248144
O O11 0.179626 0.578520 0.226075
O O12 0.000000 0.594260 0.250000
O O13 0.087227 0.638811 0.000000
O O14 0.677136 0.500000 0.250000
O O15 0.698816 0.566122 0.500000
O O16 0.500000 0.094358 0.750000
O O17 0.590147 0.065240 0.500000
O O18 0.625725 0.000000 0.750000
#
# Coordination Sequence:
#
# PCOD8203298 Si02
#       6
#     8   8   8   8   8   8
#     4  11  21  38  61  86 119 153 189 240 288 335
#     4  11  21  34  56  86 116 149 189 232 283 341
#     4  10  22  39  57  79 109 142 184 234 285 336
#     4  10  19  35  55  78 109 141 180 228 285 342
#     4  10  22  39  55  75 106 144 183 232 286 343
#     4  11  22  38  59  89 124 162 201 238 286 339
#
# _framework density 18.862051000000001
#
# number of rings (size 3 to 8) (size 9 to 14) (size 15 to 20)
#    0.000    1.500    1.667    6.000    0.000    5.333 
#    0.000    3.333    0.000    0.500    0.000    3.500 
#    0.000    0.000    0.000    0.000    0.000    0.000 
#
# Total GULP energy -595362.201557 kJ/mol
# GULP energy per Si atom -12403.379199 kJ/mol
# Density = 1.881912 g / cm^3
# Si number density = 18.862051 Si / 1000 Ang^3
#
#
#
# Elastic Constant Matrix: (Units=GPa)
#
#
# Indices 1 2 3 4 5 6 
#
# 1 122.2804 60.0809 32.5669 0.0000 0.0000 0.0000
# 2 60.0809 104.8200 32.1788 0.0000 0.0000 0.0000
# 3 32.5669 32.1788 85.9242 0.0000 0.0000 0.0000
# 4 0.0000 0.0000 0.0000 -3.3195 0.0000 0.0000
# 5 0.0000 0.0000 0.0000 0.0000 34.9907 0.0000
# 6 0.0000 0.0000 0.0000 0.0000 0.0000 48.2640
#
#
#
# Elastic Compliance Matrix: (Units=1/GPa)
#
#
# Indices 1 2 3 4 5 6 
#
# 1 0.011734 -0.006057 -0.002179 0.000000 0.000000 0.000000
# 2 -0.006057 0.013906 -0.002912 0.000000 0.000000 0.000000
# 3 -0.002179 -0.002912 0.013555 0.000000 0.000000 0.000000
# 4 0.000000 0.000000 0.000000 -0.301246 0.000000 0.000000
# 5 0.000000 0.000000 0.000000 0.000000 0.028579 0.000000
# 6 0.000000 0.000000 0.000000 0.000000 0.000000 0.020719
#
#
# Mechanical properties :
#
#
# Convention : Reuss Voigt Hill
#
# Bulk Modulus (GPa) = 59.17691 62.51975 60.84833
# Shear Modulus (GPa) = -27.05284 28.53355 0.74036
#
# Velocity S-wave (km/s) = -3.79125 3.89363 0.62719
# Velocity P-wave (km/s) = 3.50383 7.30969 5.73186
#
# Compressibility (1/GPa) = 0.01689848
#
# Stress axis : x y z
#
# Youngs Moduli (GPa) = 85.22033 71.91215 73.77509
#
# Poissons Ratio (x) = 0.43556 0.16077
# Poissons Ratio (y) = 0.51617 0.21484
# Poissons Ratio (z) = 0.18571 0.20942
#
# Static dielectric constant tensor:
#      x y z
#    x 3.170360 0.000000 0.000000 
#    y 0.000000 3.518350 0.000000 
#    z 0.000000 0.000000 3.459180 
# 
# 
# High freq. dielectric constant tensor:
#      x y z
#    x 1.740680 0.000000 0.000000 
#    y 0.000000 1.718160 0.000000 
#    z 0.000000 0.000000 1.740370 
# 
# From -- ./inp_files/3701.got.cif
#   From: 2010.03.12/outbox.cif.g09.slc.cpg/sg49_2_cif.got.tgz:3701.got - 2010.04.14 03:58:27.
