data_PCOD8203798
_publ_section_title
;
Structure prediction by ZEFSAII (Michael W. Deem and Ramdas Pophale) SiO2 
 PCOD8203798
Probable space group: P C C M
;
_chemical_formula_sum "Si O2"
_cell_formula_units_Z 48
_cell_length_a 9.526510
_cell_length_b 30.287829
_cell_length_c 8.564614
_cell_angle_alpha 90.000000
_cell_angle_beta 90.000000
_cell_angle_gamma 90.000000
_cell_volume 2471.210649
_symmetry_space_group_name_H-M "P C C M"
_symmetry_group_IT_number 49
_symmetry_cell_setting 'orthorhombic'
loop_
_space_group_symop_operation_xyz
x,y,z
-x,-y,z
x,-y,1/2-z
-x,y,1/2-z
-x,-y,-z
x,y,-z
-x,y,1/2+z
x,-y,1/2+z
loop_
_atom_site_type_symbol
_atom_site_label
_atom_site_fract_x
_atom_site_fract_y
_atom_site_fract_z
Si Si1 0.344635 0.122690 0.815267
Si Si2 0.148101 0.296843 0.316408
Si Si3 0.850179 0.952194 0.684872
Si Si4 0.345546 0.626577 0.815397
Si Si5 0.847663 0.453225 0.815057
Si Si6 0.849234 0.196321 0.814818
O O1 0.500000 0.124712 0.750000
O O2 0.268542 0.081401 0.737048
O O3 0.269290 0.167922 0.768530
O O4 0.345516 0.116873 0.000000
O O5 0.136471 0.300585 0.500000
O O6 0.269109 0.329182 0.251911
O O7 0.182185 0.246787 0.265899
O O8 0.000000 0.312900 0.250000
O O9 0.859320 0.954301 0.500000
O O10 0.000000 0.936116 0.750000
O O11 0.809563 0.000000 0.750000
O O12 0.500000 0.624644 0.750000
O O13 0.260719 0.583814 0.756720
O O14 0.352501 0.627395 0.000000
O O15 0.794065 0.500000 0.750000
O O16 0.000000 0.440981 0.750000
O O17 0.856922 0.455670 0.000000
O O18 0.000000 0.181301 0.750000
O O19 0.845212 0.188849 0.000000
#
# Coordination Sequence:
#
# PCOD8203798 Si02
#       6
#     8   8   8   8   8   8
#     4  12  25  41  59  84 117 154 192 234 284 338
#     4   9  19  36  58  83 110 141 183 228 274 325
#     4  11  22  40  64  91 119 152 193 237 283 333
#     4  10  22  37  53  78 110 145 181 222 271 328
#     4  10  20  35  56  80 106 137 179 224 271 323
#     4  10  20  37  60  86 114 147 187 233 279 331
#
# _framework density 19.423677999999999
#
# number of rings (size 3 to 8) (size 9 to 14) (size 15 to 20)
#    0.000    1.667    0.000    6.000    0.000    4.000 
#    0.000    5.000    0.000    0.000    0.000    0.000 
#    0.000    0.000    0.000    0.000    0.000    0.000 
#
# Total GULP energy -595373.945101 kJ/mol
# GULP energy per Si atom -12403.623856 kJ/mol
# Density = 1.937947 g / cm^3
# Si number density = 19.423678 Si / 1000 Ang^3
#
#
#
# Elastic Constant Matrix: (Units=GPa)
#
#
# Indices 1 2 3 4 5 6 
#
# 1 167.7482 102.3037 45.7387 0.0000 0.0000 0.0000
# 2 102.3037 140.3288 44.7467 0.0000 0.0000 0.0000
# 3 45.7387 44.7467 101.4259 0.0000 0.0000 0.0000
# 4 0.0000 0.0000 0.0000 29.9179 0.0000 0.0000
# 5 0.0000 0.0000 0.0000 0.0000 37.4990 0.0000
# 6 0.0000 0.0000 0.0000 0.0000 0.0000 29.3897
#
#
#
# Elastic Compliance Matrix: (Units=1/GPa)
#
#
# Indices 1 2 3 4 5 6 
#
# 1 0.010966 -0.007468 -0.001650 0.000000 0.000000 0.000000
# 2 -0.007468 0.013379 -0.002535 0.000000 0.000000 0.000000
# 3 -0.001650 -0.002535 0.011722 0.000000 0.000000 0.000000
# 4 0.000000 0.000000 0.000000 0.033425 0.000000 0.000000
# 5 0.000000 0.000000 0.000000 0.000000 0.026667 0.000000
# 6 0.000000 0.000000 0.000000 0.000000 0.000000 0.034026
#
#
# Mechanical properties :
#
#
# Convention : Reuss Voigt Hill
#
# Bulk Modulus (GPa) = 78.36801 88.34233 83.35517
# Shear Modulus (GPa) = 31.69693 33.80892 32.75292
#
# Velocity S-wave (km/s) = 4.04402 4.17658 4.11084
# Velocity P-wave (km/s) = 7.88922 8.29692 8.09564
#
# Compressibility (1/GPa) = 0.01276031
#
# Stress axis : x y z
#
# Youngs Moduli (GPa) = 91.19178 74.74473 85.31071
#
# Poissons Ratio (x) = 0.55821 0.14079
# Poissons Ratio (y) = 0.68104 0.21623
# Poissons Ratio (z) = 0.15050 0.18945
#
# Static dielectric constant tensor:
#      x y z
#    x 3.412940 0.000000 0.000000 
#    y 0.000000 3.894230 0.000000 
#    z 0.000000 0.000000 3.615550 
# 
# 
# High freq. dielectric constant tensor:
#      x y z
#    x 1.754950 0.000000 0.000000 
#    y 0.000000 1.772740 0.000000 
#    z 0.000000 0.000000 1.765240 
# 
# From -- ./inp_files/2070.got.cif
#   From: 2010.03.12/outbox.cif.g09.slc.cpg/sg49_2_cif.got.tgz:2070.got - 2010.04.14 03:58:27.
