data_PCOD8203373
_publ_section_title
;
Structure prediction by ZEFSAII (Michael W. Deem and Ramdas Pophale) SiO2 
 PCOD8203373
Probable space group: P C C M
;
_chemical_formula_sum "Si O2"
_cell_formula_units_Z 40
_cell_length_a 15.506250
_cell_length_b 14.477713
_cell_length_c 8.687328
_cell_angle_alpha 90.000000
_cell_angle_beta 90.000000
_cell_angle_gamma 90.000000
_cell_volume 1950.262023
_symmetry_space_group_name_H-M "P C C M"
_symmetry_group_IT_number 49
_symmetry_cell_setting 'orthorhombic'
loop_
_space_group_symop_operation_xyz
x,y,z
-x,-y,z
x,-y,1/2-z
-x,y,1/2-z
-x,-y,-z
x,y,-z
-x,y,1/2+z
x,-y,1/2+z
loop_
_atom_site_type_symbol
_atom_site_label
_atom_site_fract_x
_atom_site_fract_y
_atom_site_fract_z
Si Si1 0.657833 0.405894 0.319974
Si Si2 0.410373 0.213006 0.182284
Si Si3 0.755645 0.898890 0.182638
Si Si4 0.142329 0.595846 0.318006
Si Si5 0.911607 0.783119 0.682275
O O1 0.618795 0.500000 0.250000
O O2 0.646173 0.412790 0.500000
O O3 0.607608 0.316633 0.254451
O O4 0.757381 0.394049 0.274792
O O5 0.500000 0.175789 0.250000
O O6 0.334729 0.144939 0.238064
O O7 0.415143 0.213702 0.000000
O O8 0.832214 0.836908 0.245407
O O9 0.763941 0.000000 0.250000
O O10 0.762014 0.901504 0.000000
O O11 0.106298 0.500000 0.250000
O O12 0.126313 0.601738 0.500000
O O13 0.091653 0.676486 0.232060
O O14 0.910248 0.793374 0.500000
O O15 0.000000 0.825956 0.750000
#
# Coordination Sequence:
#
# PCOD8203373 Si02
#       5
#     8   8   8   8   8
#     4   9  18  34  56  85 122 165 205 251 302 357
#     4  10  22  40  62  90 127 165 206 256 309 366
#     4  11  24  46  69  93 125 160 204 261 318 376
#     4  10  19  36  60  90 128 168 212 258 308 366
#     4  12  25  42  66  96 127 166 209 255 313 373
#
# _framework density 20.510065000000001
#
# number of rings (size 3 to 8) (size 9 to 14) (size 15 to 20)
#    0.000    1.600    2.000    3.000    0.000    4.800 
#    0.000    8.000    0.000    0.000    0.000    0.000 
#    0.000    0.000    0.000    0.000    0.000    0.000 
#
# Total GULP energy -496134.867794 kJ/mol
# GULP energy per Si atom -12403.371695 kJ/mol
# Density = 2.046338 g / cm^3
# Si number density = 20.510065 Si / 1000 Ang^3
#
#
#
# Elastic Constant Matrix: (Units=GPa)
#
#
# Indices 1 2 3 4 5 6 
#
# 1 127.3203 47.4880 43.4720 0.0000 0.0000 0.0000
# 2 47.4880 117.8577 32.4757 0.0000 0.0000 0.0000
# 3 43.4720 32.4757 76.9147 0.0000 0.0000 0.0000
# 4 0.0000 0.0000 0.0000 32.5884 0.0000 0.0000
# 5 0.0000 0.0000 0.0000 0.0000 28.7138 0.0000
# 6 0.0000 0.0000 0.0000 0.0000 0.0000 -10.5217
#
#
#
# Elastic Compliance Matrix: (Units=1/GPa)
#
#
# Indices 1 2 3 4 5 6 
#
# 1 0.010571 -0.002957 -0.004726 0.000000 0.000000 0.000000
# 2 -0.002957 0.010429 -0.002732 0.000000 0.000000 0.000000
# 3 -0.004726 -0.002732 0.016826 0.000000 0.000000 0.000000
# 4 0.000000 0.000000 0.000000 0.030686 0.000000 0.000000
# 5 0.000000 0.000000 0.000000 0.000000 0.034826 0.000000
# 6 0.000000 0.000000 0.000000 0.000000 0.000000 -0.095042
#
#
# Mechanical properties :
#
#
# Convention : Reuss Voigt Hill
#
# Bulk Modulus (GPa) = 58.83879 63.21825 61.02852
# Shear Modulus (GPa) = 143.70974 23.39990 83.55482
#
# Velocity S-wave (km/s) = 8.37974 3.38138 6.38959
# Velocity P-wave (km/s) = 11.06240 6.79227 9.17910
#
# Compressibility (1/GPa) = 0.01699559
#
# Stress axis : x y z
#
# Youngs Moduli (GPa) = 94.60063 95.88543 59.43123
#
# Poissons Ratio (x) = 0.28353 0.28087
# Poissons Ratio (y) = 0.27973 0.16238
# Poissons Ratio (z) = 0.44709 0.26198
#
# Static dielectric constant tensor:
#      x y z
#    x 3.868360 0.000000 0.000000 
#    y 0.000000 3.905320 0.000000 
#    z 0.000000 0.000000 3.632790 
# 
# 
# High freq. dielectric constant tensor:
#      x y z
#    x 1.806730 0.000000 0.000000 
#    y 0.000000 1.805150 0.000000 
#    z 0.000000 0.000000 1.800550 
# 
# From -- ./inp_files/3433.got.cif
#   From: 2010.03.12/outbox.cif.g09.slc.cpg/sg49_2_cif.got.tgz:3433.got - 2010.04.14 03:58:27.
