data_PCOD8203442
_publ_section_title
;
Structure prediction by ZEFSAII (Michael W. Deem and Ramdas Pophale) SiO2 
 PCOD8203442
Probable space group: P C C M
;
_chemical_formula_sum "Si O2"
_cell_formula_units_Z 56
_cell_length_a 22.689896
_cell_length_b 14.747448
_cell_length_c 8.768916
_cell_angle_alpha 90.000000
_cell_angle_beta 90.000000
_cell_angle_gamma 90.000000
_cell_volume 2934.237672
_symmetry_space_group_name_H-M "P C C M"
_symmetry_group_IT_number 49
_symmetry_cell_setting 'orthorhombic'
loop_
_space_group_symop_operation_xyz
x,y,z
-x,-y,z
x,-y,1/2-z
-x,y,1/2-z
-x,-y,-z
x,y,-z
-x,y,1/2+z
x,-y,1/2+z
loop_
_atom_site_type_symbol
_atom_site_label
_atom_site_fract_x
_atom_site_fract_y
_atom_site_fract_z
Si Si1 0.157835 0.715924 0.674519
Si Si2 0.937081 0.405261 0.820035
Si Si3 0.610417 0.411212 0.818791
Si Si4 0.205891 0.089675 0.178009
Si Si5 0.285041 0.667612 0.675537
Si Si6 0.682048 0.151180 0.176000
Si Si7 0.560643 0.218900 0.178730
O O1 0.135514 0.719416 0.500000
O O2 0.107286 0.676056 0.781375
O O3 0.173881 0.817895 0.732798
O O4 0.214924 0.650115 0.687142
O O5 0.913914 0.500000 0.750000
O O6 0.000000 0.379621 0.750000
O O7 0.942964 0.416193 0.000000
O O8 0.577237 0.500000 0.750000
O O9 0.674971 0.414875 0.735424
O O10 0.575915 0.320929 0.764144
O O11 0.616647 0.416761 0.000000
O O12 0.275368 0.088264 0.223270
O O13 0.175494 0.000000 0.250000
O O14 0.200893 0.081602 0.000000
O O15 0.300301 0.694409 0.500000
O O16 0.300038 0.745741 0.795672
O O17 0.612493 0.146689 0.221928
O O18 0.691837 0.125929 0.000000
O O19 0.500000 0.183925 0.250000
O O20 0.552757 0.222403 0.000000
#
# Coordination Sequence:
#
# PCOD8203442 Si02
#       7
#     8   8   8   8   8   8   8
#     4   9  19  35  54  80 112 143 180 221 265 317
#     4  11  22  37  58  81 110 148 189 231 272 312
#     4  10  20  32  44  62  89 122 161 207 260 317
#     4  10  20  34  56  85 115 146 177 216 265 320
#     4   9  17  30  48  69  94 126 162 204 254 308
#     4   9  17  31  49  71  99 128 162 203 249 305
#     4   9  19  32  47  66  88 120 162 208 257 312
#
# _framework density 19.085025000000002
#
# number of rings (size 3 to 8) (size 9 to 14) (size 15 to 20)
#    0.000    2.429    0.000    5.143    0.000    7.714 
#    0.000    1.429    0.000    0.857    0.000    6.000 
#    0.000    0.000    0.000    0.000    0.000    0.000 
#
# Total GULP energy -693921.835677 kJ/mol
# GULP energy per Si atom -12391.461351 kJ/mol
# Density = 1.904159 g / cm^3
# Si number density = 19.085025 Si / 1000 Ang^3
#
#
#
# Elastic Constant Matrix: (Units=GPa)
#
#
# Indices 1 2 3 4 5 6 
#
# 1 94.1714 37.3101 42.4982 0.0000 0.0000 0.0000
# 2 37.3101 70.3052 27.8713 0.0000 0.0000 0.0000
# 3 42.4982 27.8713 81.7269 0.0000 0.0000 0.0000
# 4 0.0000 0.0000 0.0000 28.7931 0.0000 0.0000
# 5 0.0000 0.0000 0.0000 0.0000 30.4469 0.0000
# 6 0.0000 0.0000 0.0000 0.0000 0.0000 16.4148
#
#
#
# Elastic Compliance Matrix: (Units=1/GPa)
#
#
# Indices 1 2 3 4 5 6 
#
# 1 0.015746 -0.005909 -0.006173 0.000000 0.000000 0.000000
# 2 -0.005909 0.018665 -0.003293 0.000000 0.000000 0.000000
# 3 -0.006173 -0.003293 0.016569 0.000000 0.000000 0.000000
# 4 0.000000 0.000000 0.000000 0.034731 0.000000 0.000000
# 5 0.000000 0.000000 0.000000 0.000000 0.032844 0.000000
# 6 0.000000 0.000000 0.000000 0.000000 0.000000 0.060920
#
#
# Mechanical properties :
#
#
# Convention : Reuss Voigt Hill
#
# Bulk Modulus (GPa) = 49.43006 51.28474 50.35740
# Shear Modulus (GPa) = 23.04507 24.36588 23.70548
#
# Velocity S-wave (km/s) = 3.47867 3.57697 3.52816
# Velocity P-wave (km/s) = 6.48776 6.63247 6.56052
#
# Compressibility (1/GPa) = 0.02023060
#
# Stress axis : x y z
#
# Youngs Moduli (GPa) = 63.50948 53.57670 60.35534
#
# Poissons Ratio (x) = 0.31658 0.37255
# Poissons Ratio (y) = 0.37528 0.19872
# Poissons Ratio (z) = 0.39202 0.17641
#
# Static dielectric constant tensor:
#      x y z
#    x 3.549950 0.000000 0.000000 
#    y 0.000000 3.532450 0.000000 
#    z 0.000000 0.000000 3.431070 
# 
# 
# High freq. dielectric constant tensor:
#      x y z
#    x 1.722770 0.000000 0.000000 
#    y 0.000000 1.722480 0.000000 
#    z 0.000000 0.000000 1.747850 
# 
# From -- ./inp_files/5796.got.cif
#   From: 2010.03.12/outbox.cif.g09.slc.cpg/sg49_3_cif.got.tgz:5796.got - 2010.04.14 03:58:27.
