data_PCOD8203131
_publ_section_title
;
Structure prediction by ZEFSAII (Michael W. Deem and Ramdas Pophale) SiO2 
 PCOD8203131
Probable space group: P C C M
;
_chemical_formula_sum "Si O2"
_cell_formula_units_Z 56
_cell_length_a 29.785774
_cell_length_b 5.188976
_cell_length_c 17.886925
_cell_angle_alpha 90.000000
_cell_angle_beta 90.000000
_cell_angle_gamma 90.000000
_cell_volume 2764.561388
_symmetry_space_group_name_H-M "P C C M"
_symmetry_group_IT_number 49
_symmetry_cell_setting 'orthorhombic'
loop_
_space_group_symop_operation_xyz
x,y,z
-x,-y,z
x,-y,1/2-z
-x,y,1/2-z
-x,-y,-z
x,y,-z
-x,y,1/2+z
x,-y,1/2+z
loop_
_atom_site_type_symbol
_atom_site_label
_atom_site_fract_x
_atom_site_fract_y
_atom_site_fract_z
Si Si1 0.099347 0.611810 0.915581
Si Si2 0.253641 0.916394 0.410607
Si Si3 0.154105 0.125534 0.085472
Si Si4 0.553004 0.027990 0.664687
Si Si5 0.305084 0.416699 0.411383
Si Si6 0.949596 0.747252 0.281512
Si Si7 0.592533 0.535192 0.411096
O O1 0.121565 0.350143 0.881395
O O2 0.054773 0.709445 0.870736
O O3 0.134760 0.840377 0.907265
O O4 0.082810 0.570331 0.000000
O O5 0.251865 0.933643 0.500000
O O6 0.203277 0.890378 0.377044
O O7 0.279834 0.667754 0.381522
O O8 0.279804 0.165644 0.378245
O O9 0.160273 0.210557 0.000000
O O10 0.568309 0.303263 0.632336
O O11 0.500000 0.000000 0.663645
O O12 0.570755 0.000000 0.750000
O O13 0.570919 0.805593 0.610827
O O14 0.303706 0.401564 0.500000
O O15 0.356095 0.441628 0.384344
O O16 0.923402 0.500000 0.250000
O O17 0.000000 0.751699 0.250000
O O18 0.924487 0.000000 0.250000
O O19 0.588114 0.489950 0.500000
#
# Coordination Sequence:
#
# PCOD8203131 Si02
#       7
#     8   8   8   8   8   8   8
#     4  10  19  33  53  80 109 137 176 228 273 310
#     4   9  15  26  44  72 111 145 170 210 270 324
#     4   9  17  28  48  79 111 140 175 220 270 318
#     4  11  24  41  59  81 112 150 193 238 290 354
#     4   9  17  28  46  75 111 144 175 218 270 325
#     4  10  21  38  56  77 105 140 180 216 261 327
#     4  11  22  37  59  88 116 145 189 240 290 341
#
# _framework density 20.256377000000001
#
# number of rings (size 3 to 8) (size 9 to 14) (size 15 to 20)
#    0.000    2.143    0.000    3.857    0.000    8.571 
#    0.000    2.857    0.000    0.000    0.000   35.000 
#    0.000    0.000    0.000    0.000    0.000    0.000 
#
# Total GULP energy -693879.060732 kJ/mol
# GULP energy per Si atom -12390.697513 kJ/mol
# Density = 2.021027 g / cm^3
# Si number density = 20.256377 Si / 1000 Ang^3
#
#
#
# Elastic Constant Matrix: (Units=GPa)
#
#
# Indices 1 2 3 4 5 6 
#
# 1 96.4034 27.4325 31.5933 0.0000 0.0000 0.0000
# 2 27.4325 149.0827 17.3498 0.0000 0.0000 0.0000
# 3 31.5933 17.3498 61.2998 0.0000 0.0000 0.0000
# 4 0.0000 0.0000 0.0000 11.7513 0.0000 0.0000
# 5 0.0000 0.0000 0.0000 0.0000 49.5284 0.0000
# 6 0.0000 0.0000 0.0000 0.0000 0.0000 33.4538
#
#
#
# Elastic Compliance Matrix: (Units=1/GPa)
#
#
# Indices 1 2 3 4 5 6 
#
# 1 0.012862 -0.001650 -0.006162 0.000000 0.000000 0.000000
# 2 -0.001650 0.007148 -0.001173 0.000000 0.000000 0.000000
# 3 -0.006162 -0.001173 0.019821 0.000000 0.000000 0.000000
# 4 0.000000 0.000000 0.000000 0.085097 0.000000 0.000000
# 5 0.000000 0.000000 0.000000 0.000000 0.020190 0.000000
# 6 0.000000 0.000000 0.000000 0.000000 0.000000 0.029892
#
#
# Mechanical properties :
#
#
# Convention : Reuss Voigt Hill
#
# Bulk Modulus (GPa) = 45.74194 51.05969 48.40081
# Shear Modulus (GPa) = 24.96675 34.30739 29.63707
#
# Velocity S-wave (km/s) = 3.51456 4.11987 3.82920
# Velocity P-wave (km/s) = 6.25300 6.92045 6.59517
#
# Compressibility (1/GPa) = 0.02186178
#
# Stress axis : x y z
#
# Youngs Moduli (GPa) = 77.74908 139.90488 50.45142
#
# Poissons Ratio (x) = 0.23078 0.31088
# Poissons Ratio (y) = 0.12825 0.05917
# Poissons Ratio (z) = 0.47909 0.16409
#
# Static dielectric constant tensor:
#      x y z
#    x 3.742630 0.000000 0.000000 
#    y 0.000000 1.191700 0.000000 
#    z 0.000000 0.000000 3.465400 
# 
# 
# High freq. dielectric constant tensor:
#      x y z
#    x 1.787550 0.000000 0.000000 
#    y 0.000000 1.820750 0.000000 
#    z 0.000000 0.000000 1.748190 
# 
# From -- ./inp_files/14614.got.cif
#   From: 2010.03.12/outbox.cif.g09.slc.cpg/sg49_8_cif.got.tgz:14614.got - 2010.04.14 03:58:27.
