data_PCOD8203261
_publ_section_title
;
Structure prediction by ZEFSAII (Michael W. Deem and Ramdas Pophale) SiO2 
 PCOD8203261
Probable space group: P C C M
;
_chemical_formula_sum "Si O2"
_cell_formula_units_Z 40
_cell_length_a 14.016813
_cell_length_b 9.056076
_cell_length_c 14.912421
_cell_angle_alpha 90.000000
_cell_angle_beta 90.000000
_cell_angle_gamma 90.000000
_cell_volume 1892.942813
_symmetry_space_group_name_H-M "P C C M"
_symmetry_group_IT_number 49
_symmetry_cell_setting 'orthorhombic'
loop_
_space_group_symop_operation_xyz
x,y,z
-x,-y,z
x,-y,1/2-z
-x,y,1/2-z
-x,-y,-z
x,y,-z
-x,y,1/2+z
x,-y,1/2+z
loop_
_atom_site_type_symbol
_atom_site_label
_atom_site_fract_x
_atom_site_fract_y
_atom_site_fract_z
Si Si1 0.429514 0.322245 0.334131
Si Si2 0.614475 0.621524 0.096891
Si Si3 0.887326 0.330831 0.246201
Si Si4 0.242523 0.173901 0.605669
Si Si5 0.779755 0.830030 0.103489
O O1 0.500000 0.290227 0.250000
O O2 0.505682 0.319489 0.415598
O O3 0.381327 0.486314 0.332354
O O4 0.345543 0.205515 0.349175
O O5 0.679940 0.754652 0.132780
O O6 0.652106 0.567567 0.000000
O O7 0.852901 0.500000 0.250000
O O8 0.841759 0.261681 0.155967
O O9 0.859424 0.242105 0.335059
O O10 0.000000 0.319153 0.250000
O O11 0.241565 0.215223 0.500000
O O12 0.225322 0.002545 0.622272
O O13 0.805122 0.798966 0.000000
#
# Coordination Sequence:
#
# PCOD8203261 Si02
#       5
#     8   8   8   8   8
#     4  11  21  34  55  86 123 164 210 254 301 359
#     4  10  19  34  56  84 118 160 205 252 303 363
#     4  11  25  44  67  95 125 162 211 264 321 386
#     4  11  24  43  66  95 130 171 213 261 321 385
#     4  10  23  42  66  95 129 166 210 263 323 384
#
# _framework density 21.131118000000001
#
# number of rings (size 3 to 8) (size 9 to 14) (size 15 to 20)
#    0.000    1.400    0.000    6.600    0.000    7.200 
#    0.000    9.000    0.000    0.000    0.000    0.000 
#    0.000    0.000    0.000    0.000    0.000    0.000 
#
# Total GULP energy -495631.477875 kJ/mol
# GULP energy per Si atom -12390.786947 kJ/mol
# Density = 2.108302 g / cm^3
# Si number density = 21.131118 Si / 1000 Ang^3
#
#
#
# Elastic Constant Matrix: (Units=GPa)
#
#
# Indices 1 2 3 4 5 6 
#
# 1 107.5291 64.2514 56.1455 0.0000 0.0000 0.0000
# 2 64.2514 144.6120 73.6590 0.0000 0.0000 0.0000
# 3 56.1455 73.6590 146.1209 0.0000 0.0000 0.0000
# 4 0.0000 0.0000 0.0000 30.2520 0.0000 0.0000
# 5 0.0000 0.0000 0.0000 0.0000 29.7574 0.0000
# 6 0.0000 0.0000 0.0000 0.0000 0.0000 13.1468
#
#
#
# Elastic Compliance Matrix: (Units=1/GPa)
#
#
# Indices 1 2 3 4 5 6 
#
# 1 0.013526 -0.004524 -0.002917 0.000000 0.000000 0.000000
# 2 -0.004524 0.010817 -0.003715 0.000000 0.000000 0.000000
# 3 -0.002917 -0.003715 0.009837 0.000000 0.000000 0.000000
# 4 0.000000 0.000000 0.000000 0.033056 0.000000 0.000000
# 5 0.000000 0.000000 0.000000 0.000000 0.033605 0.000000
# 6 0.000000 0.000000 0.000000 0.000000 0.000000 0.076064
#
#
# Mechanical properties :
#
#
# Convention : Reuss Voigt Hill
#
# Bulk Modulus (GPa) = 84.25003 87.37487 85.81245
# Shear Modulus (GPa) = 24.60977 28.24501 26.42739
#
# Velocity S-wave (km/s) = 3.41636 3.66000 3.54027
# Velocity P-wave (km/s) = 7.45109 7.70061 7.57688
#
# Compressibility (1/GPa) = 0.01186943
#
# Stress axis : x y z
#
# Youngs Moduli (GPa) = 73.93219 92.44629 101.65842
#
# Poissons Ratio (x) = 0.41822 0.29651
# Poissons Ratio (y) = 0.33447 0.37762
# Poissons Ratio (z) = 0.21564 0.34340
#
# Static dielectric constant tensor:
#      x y z
#    x 3.823390 0.000000 0.000000 
#    y 0.000000 3.845880 0.000000 
#    z 0.000000 0.000000 4.337480 
# 
# 
# High freq. dielectric constant tensor:
#      x y z
#    x 1.822950 0.000000 0.000000 
#    y 0.000000 1.823990 0.000000 
#    z 0.000000 0.000000 1.848510 
# 
# From -- ./inp_files/11596.got.cif
#   From: 2010.03.12/outbox.cif.g09.slc.cpg/sg49_6_cif.got.tgz:11596.got - 2010.04.14 03:58:27.
