data_PCOD8203708
_publ_section_title
;
Structure prediction by ZEFSAII (Michael W. Deem and Ramdas Pophale) SiO2 
 PCOD8203708
Probable space group: P C C M
;
_chemical_formula_sum "Si O2"
_cell_formula_units_Z 58
_cell_length_a 20.428380
_cell_length_b 8.704094
_cell_length_c 15.874033
_cell_angle_alpha 90.000000
_cell_angle_beta 90.000000
_cell_angle_gamma 90.000000
_cell_volume 2822.570376
_symmetry_space_group_name_H-M "P C C M"
_symmetry_group_IT_number 49
_symmetry_cell_setting 'orthorhombic'
loop_
_space_group_symop_operation_xyz
x,y,z
-x,-y,z
x,-y,1/2-z
-x,y,1/2-z
-x,-y,-z
x,y,-z
-x,y,1/2+z
x,-y,1/2+z
loop_
_atom_site_type_symbol
_atom_site_label
_atom_site_fract_x
_atom_site_fract_y
_atom_site_fract_z
Si Si1 0.650878 0.179472 0.251167
Si Si2 0.790747 0.680227 0.257403
Si Si3 0.996353 0.336438 0.907142
Si Si4 0.867035 0.181907 0.905165
Si Si5 0.000000 0.000000 0.750000
Si Si6 0.891963 0.151429 0.641580
Si Si7 0.424413 0.679319 0.404403
Si Si8 0.578283 0.674871 0.404395
O O1 0.715708 0.280532 0.257860
O O2 0.608946 0.213424 0.334847
O O3 0.613908 0.220759 0.164604
O O4 0.668227 0.000000 0.250000
O O5 0.802469 0.500000 0.250000
O O6 0.811273 0.739538 0.349421
O O7 0.832732 0.765241 0.186980
O O8 0.939376 0.226336 0.868341
O O9 0.000000 0.500000 0.857400
O O10 0.069223 0.266167 0.919995
O O11 0.968737 0.370567 0.000000
O O12 0.862108 0.997381 0.903170
O O13 0.853643 0.235979 0.000000
O O14 0.047717 0.885920 0.701723
O O15 0.402841 0.725180 0.500000
O O16 0.501482 0.702497 0.394897
O O17 0.404885 0.502986 0.386789
O O18 0.600345 0.719135 0.500000
#
# Coordination Sequence:
#
# PCOD8203708 Si02
#       8
#     8   8   8   8   2   8   8   8
#     4  12  25  40  60  90 128 170 210 256 311 371
#     4  12  26  44  63  83 117 164 210 252 299 368
#     4  10  20  34  56  88 119 147 187 240 296 358
#     4  11  22  39  61  88 117 149 189 246 308 365
#     4  12  20  32  64  84 116 144 194 240 300 364
#     4  12  20  38  60  87 115 153 195 243 305 367
#     4   9  19  39  66  97 128 166 211 260 306 359
#     4   9  19  38  67  97 129 166 211 258 307 357
#
# _framework density 20.548646000000002
#
# number of rings (size 3 to 8) (size 9 to 14) (size 15 to 20)
#    0.000    1.241    2.759    4.552    0.000    4.414 
#    0.000    6.897    0.000    0.000    0.000    0.000 
#    0.000    0.000    0.000    0.000    0.000    0.000 
#
# Total GULP energy -718905.676474 kJ/mol
# GULP energy per Si atom -12394.925456 kJ/mol
# Density = 2.050188 g / cm^3
# Si number density = 20.548646 Si / 1000 Ang^3
#
#
#
# Elastic Constant Matrix: (Units=GPa)
#
#
# Indices 1 2 3 4 5 6 
#
# 1 80.8615 28.3973 35.6031 0.0000 0.0000 0.0000
# 2 28.3973 123.8438 31.6684 0.0000 0.0000 0.0000
# 3 35.6031 31.6684 98.3295 0.0000 0.0000 0.0000
# 4 0.0000 0.0000 0.0000 27.3792 0.0000 0.0000
# 5 0.0000 0.0000 0.0000 0.0000 19.5395 0.0000
# 6 0.0000 0.0000 0.0000 0.0000 0.0000 35.4626
#
#
#
# Elastic Compliance Matrix: (Units=1/GPa)
#
#
# Indices 1 2 3 4 5 6 
#
# 1 0.015279 -0.002276 -0.004799 0.000000 0.000000 0.000000
# 2 -0.002276 0.009138 -0.002119 0.000000 0.000000 0.000000
# 3 -0.004799 -0.002119 0.012590 0.000000 0.000000 0.000000
# 4 0.000000 0.000000 0.000000 0.036524 0.000000 0.000000
# 5 0.000000 0.000000 0.000000 0.000000 0.051178 0.000000
# 6 0.000000 0.000000 0.000000 0.000000 0.000000 0.028199
#
#
# Mechanical properties :
#
#
# Convention : Reuss Voigt Hill
#
# Bulk Modulus (GPa) = 53.70906 54.93028 54.31967
# Shear Modulus (GPa) = 28.16835 30.30067 29.23451
#
# Velocity S-wave (km/s) = 3.70647 3.84420 3.77596
# Velocity P-wave (km/s) = 6.67169 6.81862 6.74556
#
# Compressibility (1/GPa) = 0.01861883
#
# Stress axis : x y z
#
# Youngs Moduli (GPa) = 65.44804 109.42723 79.42796
#
# Poissons Ratio (x) = 0.24909 0.38119
# Poissons Ratio (y) = 0.14898 0.16831
# Poissons Ratio (z) = 0.31410 0.23187
#
# Static dielectric constant tensor:
#      x y z
#    x 3.637870 0.000000 0.000000 
#    y 0.000000 3.821680 0.000000 
#    z 0.000000 0.000000 4.254080 
# 
# 
# High freq. dielectric constant tensor:
#      x y z
#    x 1.791530 0.000000 0.000000 
#    y 0.000000 1.808970 0.000000 
#    z 0.000000 0.000000 1.809140 
# 
# From -- ./inp_files/18191.got.cif
#   From: 2010.03.12/outbox.cif.g09.slc.cpg/sg49_10_cif.got.tgz:18191.got - 2010.04.14 03:58:27.
