data_PCOD8203345
_publ_section_title
;
Structure prediction by ZEFSAII (Michael W. Deem and Ramdas Pophale) SiO2 
 PCOD8203345
Probable space group: P C C M
;
_chemical_formula_sum "Si O2"
_cell_formula_units_Z 40
_cell_length_a 15.498267
_cell_length_b 14.427901
_cell_length_c 8.765712
_cell_angle_alpha 90.000000
_cell_angle_beta 90.000000
_cell_angle_gamma 90.000000
_cell_volume 1960.078612
_symmetry_space_group_name_H-M "P C C M"
_symmetry_group_IT_number 49
_symmetry_cell_setting 'orthorhombic'
loop_
_space_group_symop_operation_xyz
x,y,z
-x,-y,z
x,-y,1/2-z
-x,y,1/2-z
-x,-y,-z
x,y,-z
-x,y,1/2+z
x,-y,1/2+z
loop_
_atom_site_type_symbol
_atom_site_label
_atom_site_fract_x
_atom_site_fract_y
_atom_site_fract_z
Si Si1 0.144805 0.904987 0.680583
Si Si2 0.251772 0.600372 0.819102
Si Si3 0.590228 0.289707 0.318602
Si Si4 0.657432 0.906524 0.178701
Si Si5 0.086383 0.281097 0.319988
O O1 0.133958 0.904736 0.500000
O O2 0.244133 0.893721 0.732222
O O3 0.091625 0.821645 0.752302
O O4 0.107308 0.000000 0.750000
O O5 0.237884 0.500000 0.750000
O O6 0.336620 0.644843 0.748047
O O7 0.169094 0.660050 0.768750
O O8 0.261928 0.595038 0.000000
O O9 0.500000 0.324112 0.250000
O O10 0.590273 0.298769 0.500000
O O11 0.605415 0.183600 0.265125
O O12 0.616909 0.000000 0.250000
O O13 0.651502 0.917852 0.000000
O O14 0.078312 0.276333 0.500000
O O15 0.000000 0.327796 0.250000
#
# Coordination Sequence:
#
# PCOD8203345 Si02
#       5
#     8   8   8   8   8
#     4  10  19  35  59  89 125 166 209 253 304 361
#     4  11  25  45  69  94 122 159 202 255 314 372
#     4  11  23  41  64  94 128 165 208 255 308 365
#     4   9  19  34  57  87 123 166 206 250 300 356
#     4  11  24  41  64  94 126 163 206 253 307 367
#
# _framework density 20.407343000000001
#
# number of rings (size 3 to 8) (size 9 to 14) (size 15 to 20)
#    0.000    1.600    2.000    2.400    0.000    6.400 
#    0.000    8.000    0.000    0.000    0.000    0.000 
#    0.000    0.000    0.000    0.000    0.000    0.000 
#
# Total GULP energy -496175.581013 kJ/mol
# GULP energy per Si atom -12404.389525 kJ/mol
# Density = 2.036090 g / cm^3
# Si number density = 20.407343 Si / 1000 Ang^3
#
#
#
# Elastic Constant Matrix: (Units=GPa)
#
#
# Indices 1 2 3 4 5 6 
#
# 1 139.9083 61.7749 49.5820 0.0000 0.0000 0.0000
# 2 61.7749 132.6508 47.4407 0.0000 0.0000 0.0000
# 3 49.5820 47.4407 79.5462 0.0000 0.0000 0.0000
# 4 0.0000 0.0000 0.0000 36.0841 0.0000 0.0000
# 5 0.0000 0.0000 0.0000 0.0000 32.1230 0.0000
# 6 0.0000 0.0000 0.0000 0.0000 0.0000 5.1346
#
#
#
# Elastic Compliance Matrix: (Units=1/GPa)
#
#
# Indices 1 2 3 4 5 6 
#
# 1 0.010094 -0.003115 -0.004434 0.000000 0.000000 0.000000
# 2 -0.003115 0.010544 -0.004347 0.000000 0.000000 0.000000
# 3 -0.004434 -0.004347 0.017927 0.000000 0.000000 0.000000
# 4 0.000000 0.000000 0.000000 0.027713 0.000000 0.000000
# 5 0.000000 0.000000 0.000000 0.000000 0.031130 0.000000
# 6 0.000000 0.000000 0.000000 0.000000 0.000000 0.194755
#
#
# Mechanical properties :
#
#
# Convention : Reuss Voigt Hill
#
# Bulk Modulus (GPa) = 67.68643 74.41118 71.04880
# Shear Modulus (GPa) = 15.58213 27.55551 21.56882
#
# Velocity S-wave (km/s) = 2.76625 3.67859 3.25455
# Velocity P-wave (km/s) = 6.59109 7.38816 7.00098
#
# Compressibility (1/GPa) = 0.01477401
#
# Stress axis : x y z
#
# Youngs Moduli (GPa) = 99.06501 94.84275 55.78065
#
# Poissons Ratio (x) = 0.29545 0.24734
# Poissons Ratio (y) = 0.30860 0.24245
# Poissons Ratio (z) = 0.43926 0.41224
#
# Static dielectric constant tensor:
#      x y z
#    x 3.792570 0.000000 0.000000 
#    y 0.000000 3.653600 0.000000 
#    z 0.000000 0.000000 3.675650 
# 
# 
# High freq. dielectric constant tensor:
#      x y z
#    x 1.802530 0.000000 0.000000 
#    y 0.000000 1.798510 0.000000 
#    z 0.000000 0.000000 1.803910 
# 
# From -- ./inp_files/2675.got.cif
#   From: 2010.03.12/outbox.cif.g09.slc.cpg/sg49_2_cif.got.tgz:2675.got - 2010.04.14 03:58:27.
