data_PCOD8203722
_publ_section_title
;
Structure prediction by ZEFSAII (Michael W. Deem and Ramdas Pophale) SiO2 
 PCOD8203722
Probable space group: P C C M
;
_chemical_formula_sum "Si O2"
_cell_formula_units_Z 64
_cell_length_a 11.319172
_cell_length_b 18.668568
_cell_length_c 14.749966
_cell_angle_alpha 90.000000
_cell_angle_beta 90.000000
_cell_angle_gamma 90.000000
_cell_volume 3116.855615
_symmetry_space_group_name_H-M "P C C M"
_symmetry_group_IT_number 49
_symmetry_cell_setting 'orthorhombic'
loop_
_space_group_symop_operation_xyz
x,y,z
-x,-y,z
x,-y,1/2-z
-x,y,1/2-z
-x,-y,-z
x,y,-z
-x,y,1/2+z
x,-y,1/2+z
loop_
_atom_site_type_symbol
_atom_site_label
_atom_site_fract_x
_atom_site_fract_y
_atom_site_fract_z
Si Si1 0.453724 0.318103 0.598335
Si Si2 0.979242 0.131967 0.389155
Si Si3 0.373863 0.192323 0.285842
Si Si4 0.712879 0.692131 0.848661
Si Si5 0.969714 0.708799 0.900365
Si Si6 0.079315 0.434459 0.608193
Si Si7 0.314938 0.573702 0.212083
Si Si8 0.180961 0.081244 0.264849
O O1 0.401959 0.336466 0.500000
O O2 0.397474 0.241966 0.626493
O O3 0.595236 0.315006 0.591516
O O4 0.421088 0.381350 0.667228
O O5 0.966865 0.121720 0.500000
O O6 0.007949 0.214315 0.360050
O O7 0.860680 0.110409 0.334214
O O8 0.082721 0.084208 0.344878
O O9 0.500000 0.165374 0.250000
O O10 0.301846 0.239889 0.215378
O O11 0.293947 0.123329 0.304914
O O12 0.827955 0.704167 0.909136
O O13 0.738838 0.619826 0.793379
O O14 0.028288 0.640627 0.849711
O O15 0.023465 0.706698 0.000000
O O16 0.075251 0.434456 0.500000
O O17 0.212986 0.444662 0.640177
O O18 0.000000 0.500000 0.645860
O O19 0.368850 0.500000 0.250000
O O20 0.220078 0.000000 0.250000
#
# Coordination Sequence:
#
# PCOD8203722 Si02
#       8
#     8   8   8   8   8   8   8   8
#     4  10  22  40  63  86 114 153 200 255 306 357
#     4  10  22  38  60  91 127 166 207 251 302 368
#     4   9  20  39  60  88 118 155 200 247 300 361
#     4  10  20  37  59  82 115 150 194 246 297 355
#     4  10  20  34  58  86 114 155 202 246 294 354
#     4  10  22  38  54  81 119 154 195 247 302 356
#     4  11  23  37  56  83 116 155 199 245 302 362
#     4  11  23  39  62  92 126 164 203 250 312 371
#
# _framework density 20.533512999999999
#
# number of rings (size 3 to 8) (size 9 to 14) (size 15 to 20)
#    0.000    1.875    1.250    3.375    3.500    4.500 
#    0.000    2.500    0.000    0.000    0.000    3.500 
#    0.000    0.000    0.000    0.000    0.000    0.000 
#
# Total GULP energy -793212.548181 kJ/mol
# GULP energy per Si atom -12393.946065 kJ/mol
# Density = 2.048678 g / cm^3
# Si number density = 20.533513 Si / 1000 Ang^3
#
#
#
# Elastic Constant Matrix: (Units=GPa)
#
#
# Indices 1 2 3 4 5 6 
#
# 1 66.3737 30.7121 11.3558 0.0000 0.0000 0.0000
# 2 30.7121 137.0414 23.6925 0.0000 0.0000 0.0000
# 3 11.3558 23.6925 84.4432 0.0000 0.0000 0.0000
# 4 0.0000 0.0000 0.0000 18.6442 0.0000 0.0000
# 5 0.0000 0.0000 0.0000 0.0000 19.7545 0.0000
# 6 0.0000 0.0000 0.0000 0.0000 0.0000 122.5348
#
#
#
# Elastic Compliance Matrix: (Units=1/GPa)
#
#
# Indices 1 2 3 4 5 6 
#
# 1 0.016939 -0.003576 -0.001275 0.000000 0.000000 0.000000
# 2 -0.003576 0.008424 -0.001883 0.000000 0.000000 0.000000
# 3 -0.001275 -0.001883 0.012542 0.000000 0.000000 0.000000
# 4 0.000000 0.000000 0.000000 0.053636 0.000000 0.000000
# 5 0.000000 0.000000 0.000000 0.000000 0.050621 0.000000
# 6 0.000000 0.000000 0.000000 0.000000 0.000000 0.008161
#
#
# Mechanical properties :
#
#
# Convention : Reuss Voigt Hill
#
# Bulk Modulus (GPa) = 40.91902 46.59770 43.75836
# Shear Modulus (GPa) = 29.08070 46.99322 38.03696
#
# Velocity S-wave (km/s) = 3.76740 4.78913 4.30866
# Velocity P-wave (km/s) = 6.23663 7.30232 6.79041
#
# Compressibility (1/GPa) = 0.02443851
#
# Stress axis : x y z
#
# Youngs Moduli (GPa) = 59.03589 118.70977 79.73263
#
# Poissons Ratio (x) = 0.42448 0.10163
# Poissons Ratio (y) = 0.21110 0.15011
# Poissons Ratio (z) = 0.07525 0.22349
#
# Static dielectric constant tensor:
#      x y z
#    x 3.554150 0.000000 0.000000 
#    y 0.000000 3.814950 0.000000 
#    z 0.000000 0.000000 3.534630 
# 
# 
# High freq. dielectric constant tensor:
#      x y z
#    x 1.797650 0.000000 0.000000 
#    y 0.000000 1.801610 0.000000 
#    z 0.000000 0.000000 1.793310 
# 
# From -- ./inp_files/13089.got.cif
#   From: 2010.03.12/outbox.cif.g09.slc.cpg/sg49_7_cif.got.tgz:13089.got - 2010.04.14 03:58:27.
