data_PCOD8203712
_publ_section_title
;
Structure prediction by ZEFSAII (Michael W. Deem and Ramdas Pophale) SiO2 
 PCOD8203712
Probable space group: P C C M
;
_chemical_formula_sum "Si O2"
_cell_formula_units_Z 64
_cell_length_a 14.722852
_cell_length_b 24.545089
_cell_length_c 8.924062
_cell_angle_alpha 90.000000
_cell_angle_beta 90.000000
_cell_angle_gamma 90.000000
_cell_volume 3224.921417
_symmetry_space_group_name_H-M "P C C M"
_symmetry_group_IT_number 49
_symmetry_cell_setting 'orthorhombic'
loop_
_space_group_symop_operation_xyz
x,y,z
-x,-y,z
x,-y,1/2-z
-x,y,1/2-z
-x,-y,-z
x,y,-z
-x,y,1/2+z
x,-y,1/2+z
loop_
_atom_site_type_symbol
_atom_site_label
_atom_site_fract_x
_atom_site_fract_y
_atom_site_fract_z
Si Si1 0.095305 0.444199 0.822854
Si Si2 0.778113 0.054818 0.822042
Si Si3 0.413747 0.204213 0.835282
Si Si4 0.902381 0.155362 0.175905
Si Si5 0.588363 0.076075 0.667483
Si Si6 0.762294 0.244423 0.174488
Si Si7 0.236066 0.629988 0.173387
Si Si8 0.405579 0.556037 0.824797
O O1 0.131766 0.500000 0.750000
O O2 0.165674 0.397312 0.785424
O O3 0.000000 0.427815 0.750000
O O4 0.084482 0.451479 0.000000
O O5 0.839927 0.105334 0.768004
O O6 0.675857 0.061555 0.764758
O O7 0.820342 0.000000 0.750000
O O8 0.777052 0.050260 0.000000
O O9 0.500000 0.230195 0.750000
O O10 0.424688 0.140109 0.845688
O O11 0.321393 0.216623 0.753049
O O12 0.411399 0.230603 0.000000
O O13 0.853841 0.212327 0.221697
O O14 0.000000 0.152516 0.250000
O O15 0.917022 0.151720 0.000000
O O16 0.500000 0.050999 0.750000
O O17 0.598049 0.051150 0.500000
O O18 0.767130 0.307237 0.220285
O O19 0.744752 0.237293 0.000000
O O20 0.335143 0.604829 0.203308
O O21 0.207497 0.621442 0.000000
O O22 0.369549 0.500000 0.750000
O O23 0.500000 0.574137 0.750000
O O24 0.420500 0.545147 0.000000
#
# Coordination Sequence:
#
# PCOD8203712 Si02
#       8
#     8   8   8   8   8   8   8   8
#     4  11  22  38  61  86 116 151 191 239 293 353
#     4  11  23  40  62  90 121 155 195 243 297 353
#     4  10  20  34  57  86 116 153 195 238 284 340
#     4  10  23  42  65  87 114 152 194 242 297 355
#     4  10  20  35  58  88 121 158 195 237 284 342
#     4  10  21  40  61  85 119 156 195 242 294 352
#     4  10  22  38  58  86 120 155 195 243 297 350
#     4  10  20  35  56  82 114 156 199 245 292 343
#
# _framework density 19.845445000000002
#
# number of rings (size 3 to 8) (size 9 to 14) (size 15 to 20)
#    0.000    1.750    1.250    3.750    0.000    6.500 
#    0.000    5.000    0.000    0.000    0.000    0.000 
#    0.000    0.000    0.000    0.000    0.000    0.000 
#
# Total GULP energy -793697.435787 kJ/mol
# GULP energy per Si atom -12401.522434 kJ/mol
# Density = 1.980028 g / cm^3
# Si number density = 19.845445 Si / 1000 Ang^3
#
#
#
# Elastic Constant Matrix: (Units=GPa)
#
#
# Indices 1 2 3 4 5 6 
#
# 1 128.7006 63.7214 50.6970 0.0000 0.0000 0.0000
# 2 63.7214 112.5719 46.4036 0.0000 0.0000 0.0000
# 3 50.6970 46.4036 92.0293 0.0000 0.0000 0.0000
# 4 0.0000 0.0000 0.0000 30.3740 0.0000 0.0000
# 5 0.0000 0.0000 0.0000 0.0000 20.5585 0.0000
# 6 0.0000 0.0000 0.0000 0.0000 0.0000 -0.3482
#
#
#
# Elastic Compliance Matrix: (Units=1/GPa)
#
#
# Indices 1 2 3 4 5 6 
#
# 1 0.011842 -0.005067 -0.003968 0.000000 0.000000 0.000000
# 2 -0.005067 0.013382 -0.003956 0.000000 0.000000 0.000000
# 3 -0.003968 -0.003956 0.015047 0.000000 0.000000 0.000000
# 4 0.000000 0.000000 0.000000 0.032923 0.000000 0.000000
# 5 0.000000 0.000000 0.000000 0.000000 0.048642 0.000000
# 6 0.000000 0.000000 0.000000 0.000000 0.000000 -2.871553
#
#
# Mechanical properties :
#
#
# Convention : Reuss Voigt Hill
#
# Bulk Modulus (GPa) = 69.99159 72.77176 71.38168
# Shear Modulus (GPa) = -1.83893 21.61549 9.88828
#
# Velocity S-wave (km/s) = -0.96366 3.30387 2.23461
# Velocity P-wave (km/s) = 5.84010 7.16261 6.53489
#
# Compressibility (1/GPa) = 0.01428743
#
# Stress axis : x y z
#
# Youngs Moduli (GPa) = 84.44407 74.72474 66.45792
#
# Poissons Ratio (x) = 0.37866 0.26374
# Poissons Ratio (y) = 0.42791 0.26292
# Poissons Ratio (z) = 0.33511 0.29563
#
# Static dielectric constant tensor:
#      x y z
#    x 3.508050 0.000000 0.000000 
#    y 0.000000 3.851330 0.000000 
#    z 0.000000 0.000000 3.720840 
# 
# 
# High freq. dielectric constant tensor:
#      x y z
#    x 1.776200 0.000000 0.000000 
#    y 0.000000 1.772460 0.000000 
#    z 0.000000 0.000000 1.781710 
# 
# From -- ./inp_files/4403.got.cif
#   From: 2010.03.12/outbox.cif.g09.slc.cpg/sg49_3_cif.got.tgz:4403.got - 2010.04.14 03:58:27.
