data_PCOD8203200
_publ_section_title
;
Structure prediction by ZEFSAII (Michael W. Deem and Ramdas Pophale) SiO2 
 PCOD8203200
Probable space group: P C C M
;
_chemical_formula_sum "Si O2"
_cell_formula_units_Z 44
_cell_length_a 16.909662
_cell_length_b 5.105379
_cell_length_c 30.346729
_cell_angle_alpha 90.000000
_cell_angle_beta 90.000000
_cell_angle_gamma 90.000000
_cell_volume 2619.840194
_symmetry_space_group_name_H-M "P C C M"
_symmetry_group_IT_number 49
_symmetry_cell_setting 'orthorhombic'
loop_
_space_group_symop_operation_xyz
x,y,z
-x,-y,z
x,-y,1/2-z
-x,y,1/2-z
-x,-y,-z
x,y,-z
-x,y,1/2+z
x,-y,1/2+z
loop_
_atom_site_type_symbol
_atom_site_label
_atom_site_fract_x
_atom_site_fract_y
_atom_site_fract_z
Si Si1 0.088169 0.252631 0.769934
Si Si2 0.147801 0.132512 0.586029
Si Si3 0.054968 0.248932 0.500000
Si Si4 0.412897 0.495720 0.949149
Si Si5 0.085043 0.617255 0.628882
Si Si6 0.685614 0.010710 0.448925
O O1 0.134787 0.500000 0.750000
O O2 0.088048 0.265754 0.822245
O O3 0.000000 0.251819 0.750000
O O4 0.132845 0.000000 0.750000
O O5 0.112109 0.255473 0.541905
O O6 0.144592 0.371101 0.621765
O O7 0.100261 0.869308 0.598465
O O8 0.238159 0.049298 0.580279
O O9 0.000000 0.500000 0.500000
O O10 0.000000 0.000000 0.500000
O O11 0.500000 0.500000 0.926740
O O12 0.355328 0.272454 0.929196
O O13 0.376289 0.779062 0.942720
O O14 0.423237 0.417415 0.000000
O O15 0.000000 0.500000 0.616781
O O16 0.711075 0.044640 0.500000
#
# Coordination Sequence:
#
# PCOD8203200 Si02
#       6
#     8   8   4   8   8   8
#     4  10  19  34  54  73  93 113 150 211 270 322
#     4  12  24  36  51  70  98 138 176 213 272 290
#     4  12  24  40  48  62  89 134 187 228 250 282
#     4   9  17  29  51  75  92 118 165 217 255 294
#     4  12  23  36  53  75  96 123 175 231 253 302
#     4  10  19  34  49  66 100 134 167 208 257 312
#
# _framework density 16.794917000000002
#
# number of rings (size 3 to 8) (size 9 to 14) (size 15 to 20)
#    0.000    1.273    2.727    6.000    2.545    2.182 
#    0.000    0.000    0.000    0.000    0.000    0.000 
#    0.000    0.000    0.000    0.000    0.000  190.909 
#
# Total GULP energy -545427.513471 kJ/mol
# GULP energy per Si atom -12396.079852 kJ/mol
# Density = 1.675669 g / cm^3
# Si number density = 16.794917 Si / 1000 Ang^3
#
#
#
# Elastic Constant Matrix: (Units=GPa)
#
#
# Indices 1 2 3 4 5 6 
#
# 1 71.5394 21.2818 30.8700 0.0000 0.0000 0.0000
# 2 21.2818 128.5950 29.0162 0.0000 0.0000 0.0000
# 3 30.8700 29.0162 62.3805 0.0000 0.0000 0.0000
# 4 0.0000 0.0000 0.0000 32.4541 0.0000 0.0000
# 5 0.0000 0.0000 0.0000 0.0000 5.4280 0.0000
# 6 0.0000 0.0000 0.0000 0.0000 0.0000 25.7943
#
#
#
# Elastic Compliance Matrix: (Units=1/GPa)
#
#
# Indices 1 2 3 4 5 6 
#
# 1 0.017906 -0.001077 -0.008360 0.000000 0.000000 0.000000
# 2 -0.001077 0.008753 -0.003539 0.000000 0.000000 0.000000
# 3 -0.008360 -0.003539 0.021814 0.000000 0.000000 0.000000
# 4 0.000000 0.000000 0.000000 0.030813 0.000000 0.000000
# 5 0.000000 0.000000 0.000000 0.000000 0.184230 0.000000
# 6 0.000000 0.000000 0.000000 0.000000 0.000000 0.038768
#
#
# Mechanical properties :
#
#
# Convention : Reuss Voigt Hill
#
# Bulk Modulus (GPa) = 44.40181 47.20566 45.80374
# Shear Modulus (GPa) = 14.89234 24.82506 19.85870
#
# Velocity S-wave (km/s) = 2.98101 3.84882 3.44237
# Velocity P-wave (km/s) = 6.19222 6.92238 6.56745
#
# Compressibility (1/GPa) = 0.02252160
#
# Stress axis : x y z
#
# Youngs Moduli (GPa) = 55.84646 114.24632 45.84255
#
# Poissons Ratio (x) = 0.12304 0.38325
# Poissons Ratio (y) = 0.06015 0.16221
# Poissons Ratio (z) = 0.46689 0.40426
#
# Static dielectric constant tensor:
#      x y z
#    x 2.999840 0.000000 0.000000 
#    y 0.000000 2.759640 0.000000 
#    z 0.000000 0.000000 2.947250 
# 
# 
# High freq. dielectric constant tensor:
#      x y z
#    x 1.615010 0.000000 0.000000 
#    y 0.000000 1.685430 0.000000 
#    z 0.000000 0.000000 1.607050 
# 
# From -- ./inp_files/24993.got.cif
#   From: 2010.03.12/outbox.cif.g09.slc.cpg/sg49_13_cif.got.tgz:24993.got - 2010.04.14 03:58:27.
