data_PCOD8203179
_publ_section_title
;
Structure prediction by ZEFSAII (Michael W. Deem and Ramdas Pophale) SiO2 
 PCOD8203179
Probable space group: P C C M
;
_chemical_formula_sum "Si O2"
_cell_formula_units_Z 48
_cell_length_a 9.514285
_cell_length_b 31.237688
_cell_length_c 8.779769
_cell_angle_alpha 90.000000
_cell_angle_beta 90.000000
_cell_angle_gamma 90.000000
_cell_volume 2609.384805
_symmetry_space_group_name_H-M "P C C M"
_symmetry_group_IT_number 49
_symmetry_cell_setting 'orthorhombic'
loop_
_space_group_symop_operation_xyz
x,y,z
-x,-y,z
x,-y,1/2-z
-x,y,1/2-z
-x,-y,-z
x,y,-z
-x,y,1/2+z
x,-y,1/2+z
loop_
_atom_site_type_symbol
_atom_site_label
_atom_site_fract_x
_atom_site_fract_y
_atom_site_fract_z
Si Si1 0.347262 0.879792 0.320645
Si Si2 0.647263 0.544975 0.320925
Si Si3 0.847137 0.377344 0.178959
Si Si4 0.654909 0.694625 0.180186
Si Si5 0.649360 0.212319 0.323209
Si Si6 0.152400 0.043880 0.818269
O O1 0.500000 0.885463 0.250000
O O2 0.364215 0.884291 0.500000
O O3 0.276747 0.832992 0.277361
O O4 0.247168 0.917012 0.258631
O O5 0.695455 0.500000 0.250000
O O6 0.500000 0.560589 0.250000
O O7 0.626242 0.539502 0.500000
O O8 0.766074 0.579159 0.280031
O O9 0.763993 0.337862 0.248637
O O10 0.000000 0.380424 0.250000
O O11 0.859932 0.370365 0.000000
O O12 0.500000 0.688076 0.250000
O O13 0.720021 0.742096 0.221043
O O14 0.643851 0.687101 0.000000
O O15 0.500000 0.211469 0.250000
O O16 0.622028 0.212477 0.500000
O O17 0.000000 0.051968 0.750000
O O18 0.216397 0.000000 0.750000
O O19 0.144413 0.040895 0.000000
#
# Coordination Sequence:
#
# PCOD8203179 Si02
#       6
#     8   8   8   8   8   8
#     4   9  18  32  51  75 102 130 163 205 252 301
#     4  10  21  37  59  84 108 137 174 216 259 306
#     4  11  24  39  55  78 109 144 179 217 264 313
#     4  10  19  33  56  81 106 138 176 217 257 304
#     4   8  15  29  49  74 102 131 165 206 251 298
#     4  10  20  34  51  70  95 129 167 206 248 298
#
# _framework density 18.395140000000001
#
# number of rings (size 3 to 8) (size 9 to 14) (size 15 to 20)
#    0.000    2.333    0.000    3.500    0.000    6.667 
#    0.000    4.167    0.000    2.000    0.000    0.000 
#    0.000    0.000    0.000    0.000    0.000    0.000 
#
# Total GULP energy -594748.593076 kJ/mol
# GULP energy per Si atom -12390.595689 kJ/mol
# Density = 1.835327 g / cm^3
# Si number density = 18.395140 Si / 1000 Ang^3
#
#
#
# Elastic Constant Matrix: (Units=GPa)
#
#
# Indices 1 2 3 4 5 6 
#
# 1 107.1132 99.1196 48.3488 0.0000 0.0000 0.0000
# 2 99.1196 195.1171 72.3532 0.0000 0.0000 0.0000
# 3 48.3488 72.3532 73.9563 0.0000 0.0000 0.0000
# 4 0.0000 0.0000 0.0000 25.5106 0.0000 0.0000
# 5 0.0000 0.0000 0.0000 0.0000 27.8692 0.0000
# 6 0.0000 0.0000 0.0000 0.0000 0.0000 0.6867
#
#
#
# Elastic Compliance Matrix: (Units=1/GPa)
#
#
# Indices 1 2 3 4 5 6 
#
# 1 0.018550 -0.007731 -0.004563 0.000000 0.000000 0.000000
# 2 -0.007731 0.011265 -0.005967 0.000000 0.000000 0.000000
# 3 -0.004563 -0.005967 0.022342 0.000000 0.000000 0.000000
# 4 0.000000 0.000000 0.000000 0.039199 0.000000 0.000000
# 5 0.000000 0.000000 0.000000 0.000000 0.035882 0.000000
# 6 0.000000 0.000000 0.000000 0.000000 0.000000 1.456192
#
#
# Mechanical properties :
#
#
# Convention : Reuss Voigt Hill
#
# Bulk Modulus (GPa) = 63.96028 90.64776 77.30402
# Shear Modulus (GPa) = 3.07661 21.23764 12.15713
#
# Velocity S-wave (km/s) = 1.29466 3.40152 2.57356
# Velocity P-wave (km/s) = 6.08938 8.05060 7.13767
#
# Compressibility (1/GPa) = 0.01563470
#
# Stress axis : x y z
#
# Youngs Moduli (GPa) = 53.90840 88.76940 44.75837
#
# Poissons Ratio (x) = 0.68629 0.20425
# Poissons Ratio (y) = 0.41678 0.26706
# Poissons Ratio (z) = 0.24601 0.52966
#
# Static dielectric constant tensor:
#      x y z
#    x 3.153710 0.000000 0.000000 
#    y 0.000000 4.278830 0.000000 
#    z 0.000000 0.000000 3.450010 
# 
# 
# High freq. dielectric constant tensor:
#      x y z
#    x 1.681310 0.000000 0.000000 
#    y 0.000000 1.742500 0.000000 
#    z 0.000000 0.000000 1.724320 
# 
# From -- ./inp_files/2064.got.cif
#   From: 2010.03.12/outbox.cif.g09.slc.cpg/sg49_2_cif.got.tgz:2064.got - 2010.04.14 03:58:27.
