data_PCOD8203603
_publ_section_title
;
Structure prediction by ZEFSAII (Michael W. Deem and Ramdas Pophale) SiO2 
 PCOD8203603
Probable space group: P C C M
;
_chemical_formula_sum "Si O2"
_cell_formula_units_Z 56
_cell_length_a 18.877820
_cell_length_b 18.922236
_cell_length_c 8.723674
_cell_angle_alpha 90.000000
_cell_angle_beta 90.000000
_cell_angle_gamma 90.000000
_cell_volume 3116.188520
_symmetry_space_group_name_H-M "P C C M"
_symmetry_group_IT_number 49
_symmetry_cell_setting 'orthorhombic'
loop_
_space_group_symop_operation_xyz
x,y,z
-x,-y,z
x,-y,1/2-z
-x,y,1/2-z
-x,-y,-z
x,y,-z
-x,y,1/2+z
x,-y,1/2+z
loop_
_atom_site_type_symbol
_atom_site_label
_atom_site_fract_x
_atom_site_fract_y
_atom_site_fract_z
Si Si1 0.722660 0.424658 0.178469
Si Si2 0.576294 0.075999 0.183429
Si Si3 0.706326 0.846162 0.181928
Si Si4 0.074583 0.793328 0.823087
Si Si5 0.836111 0.073534 0.180018
Si Si6 0.213846 0.281064 0.682113
Si Si7 0.567133 0.423096 0.821184
O O1 0.742623 0.500000 0.250000
O O2 0.776395 0.363019 0.229620
O O3 0.644711 0.393500 0.222076
O O4 0.726520 0.438891 0.000000
O O5 0.500000 0.097983 0.250000
O O6 0.632219 0.134603 0.238148
O O7 0.599482 0.000000 0.250000
O O8 0.573166 0.072381 0.000000
O O9 0.765051 0.902203 0.235570
O O10 0.728092 0.767515 0.234230
O O11 0.698002 0.849448 0.000000
O O12 0.099453 0.872930 0.786823
O O13 0.135305 0.740201 0.761775
O O14 0.000000 0.775155 0.750000
O O15 0.063852 0.780701 0.000000
O O16 0.861714 0.000000 0.250000
O O17 0.819816 0.067999 0.000000
O O18 0.222842 0.269003 0.500000
O O19 0.565377 0.500000 0.750000
O O20 0.500000 0.379355 0.750000
O O21 0.555220 0.426641 0.000000
#
# Coordination Sequence:
#
# PCOD8203603 Si02
#       7
#     8   8   8   8   8   8   8
#     4   9  18  32  52  75 101 130 166 208 254 300
#     4  11  21  35  53  75 103 137 178 224 268 310
#     4  11  21  34  52  75 101 134 174 216 258 306
#     4   9  19  34  53  74 100 132 167 203 248 300
#     4  10  20  34  51  75 104 136 169 207 250 296
#     4   9  19  37  55  74 101 135 167 204 254 309
#     4   9  15  24  40  64  92 124 154 188 229 276
#
# _framework density 17.970672
#
# number of rings (size 3 to 8) (size 9 to 14) (size 15 to 20)
#    0.000    2.286    0.000    5.571    0.000    4.286 
#    0.000    2.143    0.000    2.143    0.000    3.000 
#    0.000    0.000    0.000    0.000    0.000    0.000 
#
# Total GULP energy -694096.758024 kJ/mol
# GULP energy per Si atom -12394.584965 kJ/mol
# Density = 1.792977 g / cm^3
# Si number density = 17.970672 Si / 1000 Ang^3
#
#
#
# Elastic Constant Matrix: (Units=GPa)
#
#
# Indices 1 2 3 4 5 6 
#
# 1 121.9904 65.8122 50.0800 0.0000 0.0000 0.0000
# 2 65.8122 115.8437 41.4960 0.0000 0.0000 0.0000
# 3 50.0800 41.4960 96.0717 0.0000 0.0000 0.0000
# 4 0.0000 0.0000 0.0000 19.9858 0.0000 0.0000
# 5 0.0000 0.0000 0.0000 0.0000 31.5989 0.0000
# 6 0.0000 0.0000 0.0000 0.0000 0.0000 17.4778
#
#
#
# Elastic Compliance Matrix: (Units=1/GPa)
#
#
# Indices 1 2 3 4 5 6 
#
# 1 0.013166 -0.005941 -0.004297 0.000000 0.000000 0.000000
# 2 -0.005941 0.012893 -0.002472 0.000000 0.000000 0.000000
# 3 -0.004297 -0.002472 0.013717 0.000000 0.000000 0.000000
# 4 0.000000 0.000000 0.000000 0.050035 0.000000 0.000000
# 5 0.000000 0.000000 0.000000 0.000000 0.031647 0.000000
# 6 0.000000 0.000000 0.000000 0.000000 0.000000 0.057216
#
#
# Mechanical properties :
#
#
# Convention : Reuss Voigt Hill
#
# Bulk Modulus (GPa) = 69.65830 72.07580 70.86705
# Shear Modulus (GPa) = 23.93728 25.58034 24.75881
#
# Velocity S-wave (km/s) = 3.65364 3.77696 3.71581
# Velocity P-wave (km/s) = 7.52630 7.69513 7.61118
#
# Compressibility (1/GPa) = 0.01435579
#
# Stress axis : x y z
#
# Youngs Moduli (GPa) = 75.95047 77.56277 72.90340
#
# Poissons Ratio (x) = 0.46077 0.31330
# Poissons Ratio (y) = 0.45120 0.18022
# Poissons Ratio (z) = 0.32639 0.19174
#
# Static dielectric constant tensor:
#      x y z
#    x 1.869460 0.000000 0.000000 
#    y 0.000000 3.185450 0.000000 
#    z 0.000000 0.000000 3.362510 
# 
# 
# High freq. dielectric constant tensor:
#      x y z
#    x 1.695160 0.000000 0.000000 
#    y 0.000000 1.671020 0.000000 
#    z 0.000000 0.000000 1.703240 
# 
# From -- ./inp_files/5174.got.cif
#   From: 2010.03.12/outbox.cif.g09.slc.cpg/sg49_3_cif.got.tgz:5174.got - 2010.04.14 03:58:27.
