data_PCOD8203451
_publ_section_title
;
Structure prediction by ZEFSAII (Michael W. Deem and Ramdas Pophale) SiO2 
 PCOD8203451
Probable space group: P C C M
;
_chemical_formula_sum "Si O2"
_cell_formula_units_Z 64
_cell_length_a 28.078184
_cell_length_b 14.734680
_cell_length_c 8.850772
_cell_angle_alpha 90.000000
_cell_angle_beta 90.000000
_cell_angle_gamma 90.000000
_cell_volume 3661.768442
_symmetry_space_group_name_H-M "P C C M"
_symmetry_group_IT_number 49
_symmetry_cell_setting 'orthorhombic'
loop_
_space_group_symop_operation_xyz
x,y,z
-x,-y,z
x,-y,1/2-z
-x,y,1/2-z
-x,-y,-z
x,y,-z
-x,y,1/2+z
x,-y,1/2+z
loop_
_atom_site_type_symbol
_atom_site_label
_atom_site_fract_x
_atom_site_fract_y
_atom_site_fract_z
Si Si1 0.650451 0.099074 0.323335
Si Si2 0.455450 0.902686 0.325959
Si Si3 0.191830 0.908349 0.176301
Si Si4 0.870989 0.593063 0.822719
Si Si5 0.047694 0.271346 0.179327
Si Si6 0.237409 0.404731 0.179029
Si Si7 0.083477 0.906110 0.179290
Si Si8 0.272555 0.227594 0.321168
O O1 0.663318 0.090628 0.500000
O O2 0.596957 0.139608 0.301179
O O3 0.683053 0.172313 0.241899
O O4 0.657159 0.000000 0.250000
O O5 0.500000 0.847061 0.250000
O O6 0.467460 0.913095 0.500000
O O7 0.453676 0.000000 0.250000
O O8 0.138109 0.888699 0.229500
O O9 0.224285 0.824346 0.226493
O O10 0.212182 0.000000 0.250000
O O11 0.194339 0.924926 0.000000
O O12 0.888756 0.500000 0.750000
O O13 0.906395 0.671678 0.766902
O O14 0.817147 0.616261 0.771980
O O15 0.873859 0.580235 0.000000
O O16 0.051513 0.171349 0.247951
O O17 0.000000 0.316003 0.250000
O O18 0.043584 0.267315 0.000000
O O19 0.253981 0.500000 0.250000
O O20 0.271105 0.326561 0.245786
O O21 0.243352 0.409205 0.000000
O O22 0.065271 0.000000 0.250000
O O23 0.077197 0.907412 0.000000
O O24 0.277479 0.237848 0.500000
#
# Coordination Sequence:
#
# PCOD8203451 Si02
#       8
#     8   8   8   8   8   8   8   8
#     4  10  20  32  45  67 100 138 176 215 255 298
#     4   9  16  26  42  62  88 125 171 216 257 296
#     4   9  19  32  48  71  98 127 161 196 234 280
#     4   9  20  37  58  80 102 127 156 191 234 284
#     4  11  23  38  54  76 101 126 156 191 233 282
#     4  10  20  36  56  77  99 126 160 200 242 289
#     4  10  20  36  55  74  96 125 159 198 237 277
#     4  11  21  32  48  72 101 134 167 202 245 294
#
# _framework density 17.477895
#
# number of rings (size 3 to 8) (size 9 to 14) (size 15 to 20)
#    0.000    2.125    0.000    3.750    0.000    6.000 
#    0.000    2.500    0.000    0.000    0.000    0.000 
#    0.000    0.500    0.000    5.250    0.000    2.875 
#
# Total GULP energy -793548.783450 kJ/mol
# GULP energy per Si atom -12399.199741 kJ/mol
# Density = 1.743811 g / cm^3
# Si number density = 17.477895 Si / 1000 Ang^3
#
#
#
# Elastic Constant Matrix: (Units=GPa)
#
#
# Indices 1 2 3 4 5 6 
#
# 1 80.0968 46.1504 38.4440 0.0000 0.0000 0.0000
# 2 46.1504 104.8160 41.9786 0.0000 0.0000 0.0000
# 3 38.4440 41.9786 81.4102 0.0000 0.0000 0.0000
# 4 0.0000 0.0000 0.0000 29.8500 0.0000 0.0000
# 5 0.0000 0.0000 0.0000 0.0000 28.5608 0.0000
# 6 0.0000 0.0000 0.0000 0.0000 0.0000 12.2834
#
#
#
# Elastic Compliance Matrix: (Units=1/GPa)
#
#
# Indices 1 2 3 4 5 6 
#
# 1 0.018654 -0.005905 -0.005764 0.000000 0.000000 0.000000
# 2 -0.005905 0.013893 -0.004375 0.000000 0.000000 0.000000
# 3 -0.005764 -0.004375 0.017262 0.000000 0.000000 0.000000
# 4 0.000000 0.000000 0.000000 0.033501 0.000000 0.000000
# 5 0.000000 0.000000 0.000000 0.000000 0.035013 0.000000
# 6 0.000000 0.000000 0.000000 0.000000 0.000000 0.081411
#
#
# Mechanical properties :
#
#
# Convention : Reuss Voigt Hill
#
# Bulk Modulus (GPa) = 56.43422 57.71879 57.07650
# Shear Modulus (GPa) = 21.03256 23.45552 22.24404
#
# Velocity S-wave (km/s) = 3.47274 3.66732 3.57136
# Velocity P-wave (km/s) = 6.95981 7.14338 7.05219
#
# Compressibility (1/GPa) = 0.01771975
#
# Stress axis : x y z
#
# Youngs Moduli (GPa) = 53.60892 71.98049 57.93239
#
# Poissons Ratio (x) = 0.42502 0.33392
# Poissons Ratio (y) = 0.31654 0.25347
# Poissons Ratio (z) = 0.30900 0.31494
#
# Static dielectric constant tensor:
#      x y z
#    x 3.813510 0.000000 0.000000 
#    y 0.000000 3.109500 0.000000 
#    z 0.000000 0.000000 3.302160 
# 
# 
# High freq. dielectric constant tensor:
#      x y z
#    x 1.669870 0.000000 0.000000 
#    y 0.000000 1.649780 0.000000 
#    z 0.000000 0.000000 1.689540 
# 
# From -- ./inp_files/7066.got.cif
#   From: 2010.03.12/outbox.cif.g09.slc.cpg/sg49_4_cif.got.tgz:7066.got - 2010.04.14 03:58:27.
