data_PCOD8203896
_publ_section_title
;
Structure prediction by ZEFSAII (Michael W. Deem and Ramdas Pophale) SiO2 
 PCOD8203896
Probable space group: P C C M
;
_chemical_formula_sum "Si O2"
_cell_formula_units_Z 32
_cell_length_a 20.355166
_cell_length_b 9.291929
_cell_length_c 8.575808
_cell_angle_alpha 90.000000
_cell_angle_beta 90.000000
_cell_angle_gamma 90.000000
_cell_volume 1622.017668
_symmetry_space_group_name_H-M "P C C M"
_symmetry_group_IT_number 49
_symmetry_cell_setting 'orthorhombic'
loop_
_space_group_symop_operation_xyz
x,y,z
-x,-y,z
x,-y,1/2-z
-x,y,1/2-z
-x,-y,-z
x,y,-z
-x,y,1/2+z
x,-y,1/2+z
loop_
_atom_site_type_symbol
_atom_site_label
_atom_site_fract_x
_atom_site_fract_y
_atom_site_fract_z
Si Si1 0.815696 0.157706 0.685156
Si Si2 0.691465 0.658152 0.183922
Si Si3 0.071763 0.652156 0.815192
Si Si4 0.569188 0.156953 0.314992
O O1 0.822695 0.154645 0.500000
O O2 0.754491 0.253363 0.741959
O O3 0.881534 0.220247 0.760153
O O4 0.803464 0.000000 0.750000
O O5 0.695470 0.500000 0.250000
O O6 0.625544 0.735516 0.244992
O O7 0.690601 0.649809 0.000000
O O8 0.098278 0.500000 0.750000
O O9 0.000000 0.686368 0.750000
O O10 0.069128 0.643879 0.000000
O O11 0.500000 0.215058 0.250000
O O12 0.565953 0.148189 0.500000
O O13 0.585526 0.000000 0.250000
#
# Coordination Sequence:
#
# PCOD8203896 Si02
#       4
#     8   8   8   8
#     4  11  23  40  60  86 116 151 192 238 288 342
#     4  10  23  39  58  83 114 149 190 234 284 339
#     4  11  22  39  62  89 119 154 192 235 283 339
#     4  10  20  36  57  84 113 148 188 231 280 336
#
# _framework density 19.728515000000002
#
# number of rings (size 3 to 8) (size 9 to 14) (size 15 to 20)
#    0.000    1.500    0.000    6.750    0.000    7.000 
#    0.000    5.000    0.000    0.000    0.000    0.000 
#    0.000    0.000    0.000    0.000    0.000    0.000 
#
# Total GULP energy -396961.938056 kJ/mol
# GULP energy per Si atom -12405.060564 kJ/mol
# Density = 1.968361 g / cm^3
# Si number density = 19.728515 Si / 1000 Ang^3
#
#
#
# Elastic Constant Matrix: (Units=GPa)
#
#
# Indices 1 2 3 4 5 6 
#
# 1 141.0093 95.3343 51.0850 0.0000 0.0000 0.0000
# 2 95.3343 158.2082 46.5257 0.0000 0.0000 0.0000
# 3 51.0850 46.5257 107.6020 0.0000 0.0000 0.0000
# 4 0.0000 0.0000 0.0000 36.3993 0.0000 0.0000
# 5 0.0000 0.0000 0.0000 0.0000 31.1372 0.0000
# 6 0.0000 0.0000 0.0000 0.0000 0.0000 49.4128
#
#
#
# Elastic Compliance Matrix: (Units=1/GPa)
#
#
# Indices 1 2 3 4 5 6 
#
# 1 0.012836 -0.006808 -0.003150 0.000000 0.000000 0.000000
# 2 -0.006808 0.010853 -0.001460 0.000000 0.000000 0.000000
# 3 -0.003150 -0.001460 0.011420 0.000000 0.000000 0.000000
# 4 0.000000 0.000000 0.000000 0.027473 0.000000 0.000000
# 5 0.000000 0.000000 0.000000 0.000000 0.032116 0.000000
# 6 0.000000 0.000000 0.000000 0.000000 0.000000 0.020238
#
#
# Mechanical properties :
#
#
# Convention : Reuss Voigt Hill
#
# Bulk Modulus (GPa) = 81.48844 88.07883 84.78364
# Shear Modulus (GPa) = 35.24489 37.64814 36.44651
#
# Velocity S-wave (km/s) = 4.23128 4.37316 4.30281
# Velocity P-wave (km/s) = 8.07875 8.38103 8.23128
#
# Compressibility (1/GPa) = 0.01227168
#
# Stress axis : x y z
#
# Youngs Moduli (GPa) = 77.90550 92.14111 87.56202
#
# Poissons Ratio (x) = 0.62734 0.27583
# Poissons Ratio (y) = 0.53042 0.12787
# Poissons Ratio (z) = 0.24541 0.13455
#
# Static dielectric constant tensor:
#      x y z
#    x 3.946780 0.000000 0.000000 
#    y 0.000000 3.567300 0.000000 
#    z 0.000000 0.000000 3.641730 
# 
# 
# High freq. dielectric constant tensor:
#      x y z
#    x 1.785900 0.000000 0.000000 
#    y 0.000000 1.772560 0.000000 
#    z 0.000000 0.000000 1.778950 
# 
# From -- ./inp_files/1390.got.cif
#   From: 2010.03.12/outbox.cif.g09.slc.cpg/sg49_1_cif.got.tgz:1390.got - 2010.04.14 03:58:27.
