data_PCOD8203194
_publ_section_title
;
Structure prediction by ZEFSAII (Michael W. Deem and Ramdas Pophale) SiO2 
 PCOD8203194
Probable space group: P C C M
;
_chemical_formula_sum "Si O2"
_cell_formula_units_Z 48
_cell_length_a 13.725902
_cell_length_b 12.567361
_cell_length_c 14.643248
_cell_angle_alpha 90.000000
_cell_angle_beta 90.000000
_cell_angle_gamma 90.000000
_cell_volume 2525.936345
_symmetry_space_group_name_H-M "P C C M"
_symmetry_group_IT_number 49
_symmetry_cell_setting 'orthorhombic'
loop_
_space_group_symop_operation_xyz
x,y,z
-x,-y,z
x,-y,1/2-z
-x,y,1/2-z
-x,-y,-z
x,y,-z
-x,y,1/2+z
x,-y,1/2+z
loop_
_atom_site_type_symbol
_atom_site_label
_atom_site_fract_x
_atom_site_fract_y
_atom_site_fract_z
Si Si1 0.851779 0.056275 0.500000
Si Si2 0.273490 0.414132 0.328185
Si Si3 0.610042 0.751282 0.232013
Si Si4 0.782049 0.891514 0.198339
Si Si5 0.940151 0.162171 0.000000
Si Si6 0.590571 0.437897 0.400535
Si Si7 0.906986 0.278154 0.809003
O O1 0.797748 0.096991 0.409714
O O2 0.958558 0.103207 0.500000
O O3 0.855293 0.927200 0.500000
O O4 0.294799 0.500000 0.250000
O O5 0.339843 0.308044 0.317965
O O6 0.316115 0.481554 0.412948
O O7 0.160335 0.380946 0.331534
O O8 0.500000 0.786591 0.250000
O O9 0.669826 0.858263 0.210754
O O10 0.618648 0.671022 0.148045
O O11 0.852977 0.804344 0.242641
O O12 0.805276 0.000000 0.250000
O O13 0.933644 0.231152 0.092168
O O14 0.500000 0.500000 0.351052
O O15 0.555346 0.402702 0.500000
O O16 0.000000 0.316706 0.750000
#
# Coordination Sequence:
#
# PCOD8203194 Si02
#       7
#     4   8   8   8   4   8   8
#     4  11  22  38  62  89 114 153 201 256 313 352
#     4   9  20  36  58  83 114 158 192 240 296 353
#     4  10  20  37  60  81 113 158 198 236 298 357
#     4  11  23  39  60  87 120 155 198 252 300 364
#     4  11  22  36  64  87 114 159 203 254 301 362
#     4  10  19  33  57  89 116 147 196 252 292 346
#     4  11  22  38  59  88 121 159 204 246 301 361
#
# _framework density 19.002853999999999
#
# number of rings (size 3 to 8) (size 9 to 14) (size 15 to 20)
#    0.000    1.667    5.000    0.000    2.333    1.000 
#    0.000    0.000    1.833    2.000    0.000    0.000 
#    0.000    0.000    0.000    0.000    0.000    0.000 
#
# Total GULP energy -594763.364798 kJ/mol
# GULP energy per Si atom -12390.903433 kJ/mol
# Density = 1.895960 g / cm^3
# Si number density = 19.002854 Si / 1000 Ang^3
#
#
#
# Elastic Constant Matrix: (Units=GPa)
#
#
# Indices 1 2 3 4 5 6 
#
# 1 119.0503 25.7067 18.6166 0.0000 0.0000 0.0000
# 2 25.7067 45.1185 6.7297 0.0000 0.0000 0.0000
# 3 18.6166 6.7297 99.0507 0.0000 0.0000 0.0000
# 4 0.0000 0.0000 0.0000 3.3189 0.0000 0.0000
# 5 0.0000 0.0000 0.0000 0.0000 23.5365 0.0000
# 6 0.0000 0.0000 0.0000 0.0000 0.0000 30.2767
#
#
#
# Elastic Compliance Matrix: (Units=1/GPa)
#
#
# Indices 1 2 3 4 5 6 
#
# 1 0.009787 -0.005356 -0.001476 0.000000 0.000000 0.000000
# 2 -0.005356 0.025322 -0.000714 0.000000 0.000000 0.000000
# 3 -0.001476 -0.000714 0.010422 0.000000 0.000000 0.000000
# 4 0.000000 0.000000 0.000000 0.301305 0.000000 0.000000
# 5 0.000000 0.000000 0.000000 0.000000 0.042487 0.000000
# 6 0.000000 0.000000 0.000000 0.000000 0.000000 0.033029
#
#
# Mechanical properties :
#
#
# Convention : Reuss Voigt Hill
#
# Bulk Modulus (GPa) = 32.85169 40.59172 36.72171
# Shear Modulus (GPa) = 11.17095 25.57086 18.37091
#
# Velocity S-wave (km/s) = 2.42721 3.67227 3.11262
# Velocity P-wave (km/s) = 5.01801 6.27598 5.68192
#
# Compressibility (1/GPa) = 0.03043983
#
# Stress axis : x y z
#
# Youngs Moduli (GPa) = 102.17484 39.49119 95.95389
#
# Poissons Ratio (x) = 0.21152 0.14159
# Poissons Ratio (y) = 0.54727 0.06848
# Poissons Ratio (z) = 0.15077 0.02819
#
# Static dielectric constant tensor:
#      x y z
#    x 3.603120 0.000000 0.000000 
#    y 0.000000 3.451330 0.000000 
#    z 0.000000 0.000000 3.467290 
# 
# 
# High freq. dielectric constant tensor:
#      x y z
#    x 1.738680 0.000000 0.000000 
#    y 0.000000 1.726490 0.000000 
#    z 0.000000 0.000000 1.736340 
# 
# From -- ./inp_files/12821.got.cif
#   From: 2010.03.12/outbox.cif.g09.slc.cpg/sg49_7_cif.got.tgz:12821.got - 2010.04.14 03:58:27.
