data_PCOD8203213
_publ_section_title
;
Structure prediction by ZEFSAII (Michael W. Deem and Ramdas Pophale) SiO2 
 PCOD8203213
Probable space group: P C C M
;
_chemical_formula_sum "Si O2"
_cell_formula_units_Z 58
_cell_length_a 12.891478
_cell_length_b 25.906886
_cell_length_c 9.154835
_cell_angle_alpha 90.000000
_cell_angle_beta 90.000000
_cell_angle_gamma 90.000000
_cell_volume 3057.513950
_symmetry_space_group_name_H-M "P C C M"
_symmetry_group_IT_number 49
_symmetry_cell_setting 'orthorhombic'
loop_
_space_group_symop_operation_xyz
x,y,z
-x,-y,z
x,-y,1/2-z
-x,y,1/2-z
-x,-y,-z
x,y,-z
-x,y,1/2+z
x,-y,1/2+z
loop_
_atom_site_type_symbol
_atom_site_label
_atom_site_fract_x
_atom_site_fract_y
_atom_site_fract_z
Si Si1 0.193364 0.553876 0.829304
Si Si2 0.600694 0.808949 0.169675
Si Si3 0.900331 0.945262 0.176616
Si Si4 0.329298 0.082682 0.165575
Si Si5 0.903113 0.352554 0.668911
Si Si6 0.304785 0.295994 0.834691
Si Si7 0.598638 0.613625 0.332253
Si Si8 0.500000 0.000000 0.250000
O O1 0.178148 0.500000 0.750000
O O2 0.117472 0.593974 0.752045
O O3 0.310164 0.573094 0.805539
O O4 0.165486 0.549157 0.000000
O O5 0.500000 0.787810 0.250000
O O6 0.632019 0.864248 0.241025
O O7 0.687545 0.765186 0.197304
O O8 0.575268 0.815979 0.000000
O O9 0.784839 0.928518 0.232003
O O10 0.000000 0.913927 0.250000
O O11 0.911167 0.000000 0.250000
O O12 0.909700 0.945918 0.000000
O O13 0.418181 0.037653 0.167608
O O14 0.306251 0.095741 0.000000
O O15 0.925305 0.364492 0.500000
O O16 0.813739 0.310809 0.690060
O O17 0.000000 0.326416 0.750000
O O18 0.376416 0.329533 0.728778
O O19 0.340155 0.308516 0.000000
O O20 0.500000 0.589904 0.250000
O O21 0.571393 0.620523 0.500000
#
# Coordination Sequence:
#
# PCOD8203213 Si02
#       8
#     8   8   8   8   8   8   8   2
#     4  10  21  36  53  77 108 143 179 223 267 317
#     4  10  20  36  54  79 110 143 177 219 269 323
#     4  10  19  34  53  76 101 135 177 221 265 312
#     4  10  21  34  53  79 112 147 183 226 276 331
#     4  10  20  36  57  81 105 137 177 222 270 326
#     4   9  19  35  56  77 103 136 174 218 270 321
#     4  10  20  33  52  76 105 139 178 218 264 315
#     4  12  18  36  54  78 112 152 190 222 280 332
#
# _framework density 18.969660000000001
#
# number of rings (size 3 to 8) (size 9 to 14) (size 15 to 20)
#    0.000    2.069    1.379    2.690    0.000    4.414 
#    0.000    4.828    0.000    0.000    0.000    0.000 
#    0.000    0.000    0.000    0.000    0.000    0.000 
#
# Total GULP energy -718566.656039 kJ/mol
# GULP energy per Si atom -12389.080277 kJ/mol
# Density = 1.892648 g / cm^3
# Si number density = 18.969660 Si / 1000 Ang^3
#
#
#
# Elastic Constant Matrix: (Units=GPa)
#
#
# Indices 1 2 3 4 5 6 
#
# 1 131.2908 39.9852 49.3289 0.0000 0.0000 0.0000
# 2 39.9852 109.1861 31.6905 0.0000 0.0000 0.0000
# 3 49.3289 31.6905 91.6862 0.0000 0.0000 0.0000
# 4 0.0000 0.0000 0.0000 18.4246 0.0000 0.0000
# 5 0.0000 0.0000 0.0000 0.0000 29.0429 0.0000
# 6 0.0000 0.0000 0.0000 0.0000 0.0000 13.3787
#
#
#
# Elastic Compliance Matrix: (Units=1/GPa)
#
#
# Indices 1 2 3 4 5 6 
#
# 1 0.010061 -0.002349 -0.004601 0.000000 0.000000 0.000000
# 2 -0.002349 0.010728 -0.002444 0.000000 0.000000 0.000000
# 3 -0.004601 -0.002444 0.014227 0.000000 0.000000 0.000000
# 4 0.000000 0.000000 0.000000 0.054275 0.000000 0.000000
# 5 0.000000 0.000000 0.000000 0.000000 0.034432 0.000000
# 6 0.000000 0.000000 0.000000 0.000000 0.000000 0.074746
#
#
# Mechanical properties :
#
#
# Convention : Reuss Voigt Hill
#
# Bulk Modulus (GPa) = 61.62362 63.79690 62.71026
# Shear Modulus (GPa) = 22.45510 26.24649 24.35079
#
# Velocity S-wave (km/s) = 3.44428 3.72372 3.58672
# Velocity P-wave (km/s) = 6.95509 7.22441 7.09103
#
# Compressibility (1/GPa) = 0.01622754
#
# Stress axis : x y z
#
# Youngs Moduli (GPa) = 99.39609 93.21100 70.28861
#
# Poissons Ratio (x) = 0.21895 0.32340
# Poissons Ratio (y) = 0.23348 0.17181
# Poissons Ratio (z) = 0.45732 0.22784
#
# Static dielectric constant tensor:
#      x y z
#    x 4.208490 0.000000 0.000000 
#    y 0.000000 3.418560 0.000000 
#    z 0.000000 0.000000 3.489520 
# 
# 
# High freq. dielectric constant tensor:
#      x y z
#    x 1.751590 0.000000 0.000000 
#    y 0.000000 1.720880 0.000000 
#    z 0.000000 0.000000 1.733790 
# 
# From -- ./inp_files/4266.got.cif
#   From: 2010.03.12/outbox.cif.g09.slc.cpg/sg49_3_cif.got.tgz:4266.got - 2010.04.14 03:58:27.
