data_PCOD8203284
_publ_section_title
;
Structure prediction by ZEFSAII (Michael W. Deem and Ramdas Pophale) SiO2 
 PCOD8203284
Probable space group: P C C M
;
_chemical_formula_sum "Si O2"
_cell_formula_units_Z 64
_cell_length_a 12.747704
_cell_length_b 9.039702
_cell_length_c 28.882762
_cell_angle_alpha 90.000000
_cell_angle_beta 90.000000
_cell_angle_gamma 90.000000
_cell_volume 3328.317942
_symmetry_space_group_name_H-M "P C C M"
_symmetry_group_IT_number 49
_symmetry_cell_setting 'orthorhombic'
loop_
_space_group_symop_operation_xyz
x,y,z
-x,-y,z
x,-y,1/2-z
-x,y,1/2-z
-x,-y,-z
x,y,-z
-x,y,1/2+z
x,-y,1/2+z
loop_
_atom_site_type_symbol
_atom_site_label
_atom_site_fract_x
_atom_site_fract_y
_atom_site_fract_z
Si Si1 0.106773 0.685190 0.135392
Si Si2 0.097910 0.899589 0.947477
Si Si3 0.721042 0.161926 0.195083
Si Si4 0.532554 0.830959 0.050180
Si Si5 0.132242 0.346416 0.864260
Si Si6 0.489953 0.823760 0.851258
Si Si7 0.296488 0.817571 0.302925
Si Si8 0.776552 0.823242 0.948516
O O1 0.116018 0.759787 0.085148
O O2 0.173862 0.769670 0.174027
O O3 0.150795 0.520510 0.130524
O O4 0.986161 0.688360 0.151658
O O5 0.200062 0.002497 0.943013
O O6 0.081224 0.842122 0.000000
O O7 0.000000 0.000000 0.931354
O O8 0.616446 0.230358 0.172497
O O9 0.710938 0.204635 0.248386
O O10 0.725835 0.987714 0.184938
O O11 0.481191 0.758848 0.096009
O O12 0.654553 0.809469 0.060835
O O13 0.500000 0.000000 0.046335
O O14 0.503593 0.755867 0.000000
O O15 0.207822 0.283548 0.825151
O O16 0.155243 0.274210 0.913813
O O17 0.590217 0.764896 0.822357
O O18 0.500000 0.000000 0.852957
O O19 0.808039 0.769847 0.000000
#
# Coordination Sequence:
#
# PCOD8203284 Si02
#       8
#     8   8   8   8   8   8   8   8
#     4  11  25  38  56  82 120 156 194 238 295 350
#     4  10  20  35  58  87 114 145 189 244 287 333
#     4  10  22  37  59  91 110 147 193 252 300 345
#     4   9  17  28  50  89 120 146 182 229 287 347
#     4  11  23  40  56  80 115 164 197 235 291 355
#     4   9  17  32  58  87 118 146 183 240 299 345
#     4  10  20  38  63  84 114 145 197 246 298 353
#     4  10  19  34  59  86 115 152 196 237 283 342
#
# _framework density 19.228932
#
# number of rings (size 3 to 8) (size 9 to 14) (size 15 to 20)
#    0.000    2.000    2.500    1.125    3.500    3.000 
#    0.000    4.375    0.000    1.500    0.000    1.750 
#    0.000    0.000    0.000    0.000    0.000    0.000 
#
# Total GULP energy -793350.075328 kJ/mol
# GULP energy per Si atom -12396.094927 kJ/mol
# Density = 1.918517 g / cm^3
# Si number density = 19.228932 Si / 1000 Ang^3
#
#
#
# Elastic Constant Matrix: (Units=GPa)
#
#
# Indices 1 2 3 4 5 6 
#
# 1 111.9027 46.9144 73.9861 0.0000 0.0000 0.0000
# 2 46.9144 70.9779 57.0831 0.0000 0.0000 0.0000
# 3 73.9861 57.0831 146.2266 0.0000 0.0000 0.0000
# 4 0.0000 0.0000 0.0000 13.2102 0.0000 0.0000
# 5 0.0000 0.0000 0.0000 0.0000 33.4960 0.0000
# 6 0.0000 0.0000 0.0000 0.0000 0.0000 17.1329
#
#
#
# Elastic Compliance Matrix: (Units=1/GPa)
#
#
# Indices 1 2 3 4 5 6 
#
# 1 0.014751 -0.005463 -0.005331 0.000000 0.000000 0.000000
# 2 -0.005463 0.022559 -0.006043 0.000000 0.000000 0.000000
# 3 -0.005331 -0.006043 0.011895 0.000000 0.000000 0.000000
# 4 0.000000 0.000000 0.000000 0.075699 0.000000 0.000000
# 5 0.000000 0.000000 0.000000 0.000000 0.029854 0.000000
# 6 0.000000 0.000000 0.000000 0.000000 0.000000 0.058367
#
#
# Mechanical properties :
#
#
# Convention : Reuss Voigt Hill
#
# Bulk Modulus (GPa) = 64.38067 76.11936 70.25002
# Shear Modulus (GPa) = 19.84308 22.84273 21.34291
#
# Velocity S-wave (km/s) = 3.21587 3.45038 3.33519
# Velocity P-wave (km/s) = 6.88062 7.45287 7.17245
#
# Compressibility (1/GPa) = 0.01553261
#
# Stress axis : x y z
#
# Youngs Moduli (GPa) = 67.79048 44.32773 84.06872
#
# Poissons Ratio (x) = 0.24215 0.44819
# Poissons Ratio (y) = 0.37031 0.50800
# Poissons Ratio (z) = 0.36141 0.26786
#
# Static dielectric constant tensor:
#      x y z
#    x 3.618120 0.000000 0.000000 
#    y 0.000000 3.061500 0.000000 
#    z 0.000000 0.000000 3.789520 
# 
# 
# High freq. dielectric constant tensor:
#      x y z
#    x 1.759460 0.000000 0.000000 
#    y 0.000000 1.703510 0.000000 
#    z 0.000000 0.000000 1.764700 
# 
# From -- ./inp_files/26679.got.cif
#   From: 2010.03.12/outbox.cif.g09.slc.cpg/sg49_14_cif.got.tgz:26679.got - 2010.04.14 03:58:27.
