data_PCOD8203907
_publ_section_title
;
Structure prediction by ZEFSAII (Michael W. Deem and Ramdas Pophale) SiO2 
 PCOD8203907
Probable space group: P C C M
;
_chemical_formula_sum "Si O2"
_cell_formula_units_Z 42
_cell_length_a 10.607427
_cell_length_b 13.100570
_cell_length_c 14.024819
_cell_angle_alpha 90.000000
_cell_angle_beta 90.000000
_cell_angle_gamma 90.000000
_cell_volume 1948.935690
_symmetry_space_group_name_H-M "P C C M"
_symmetry_group_IT_number 49
_symmetry_cell_setting 'orthorhombic'
loop_
_space_group_symop_operation_xyz
x,y,z
-x,-y,z
x,-y,1/2-z
-x,y,1/2-z
-x,-y,-z
x,y,-z
-x,y,1/2+z
x,-y,1/2+z
loop_
_atom_site_type_symbol
_atom_site_label
_atom_site_fract_x
_atom_site_fract_y
_atom_site_fract_z
Si Si1 0.699546 0.344205 0.798359
Si Si2 0.196524 0.727333 0.605885
Si Si3 0.500000 0.500000 0.750000
Si Si4 0.395396 0.140798 0.612535
Si Si5 0.669822 0.924464 0.889224
Si Si6 0.034881 0.607360 0.141536
O O1 0.737771 0.344238 0.685646
O O2 0.589595 0.427539 0.814554
O O3 0.655915 0.233079 0.826463
O O4 0.816382 0.371829 0.867572
O O5 0.257297 0.709510 0.500000
O O6 0.214110 0.847587 0.633929
O O7 0.047622 0.700466 0.598434
O O8 0.378195 0.161567 0.500000
O O9 0.540933 0.129847 0.643112
O O10 0.319132 0.040141 0.651913
O O11 0.656299 0.946721 0.000000
O O12 0.000000 0.500000 0.089811
O O13 0.000000 0.597305 0.250000
#
# Coordination Sequence:
#
# PCOD8203907 Si02
#       6
#     8   8   2   8   8   8
#     4  11  22  37  58  86 116 150 192 234 287 354
#     4  10  20  36  58  83 114 154 197 240 286 340
#     4  12  24  40  60  86 124 154 180 242 306 342
#     4   9  18  34  57  85 118 152 188 238 294 350
#     4   8  16  33  56  84 117 151 190 237 292 348
#     4   9  19  37  56  75 107 149 195 243 283 329
#
# _framework density 21.550224
#
# number of rings (size 3 to 8) (size 9 to 14) (size 15 to 20)
#    0.000    2.476    0.000    4.571    0.000    1.905 
#    0.000    6.667    0.000    6.857    0.000    0.000 
#    0.000    0.000    0.000    0.000    0.000    0.000 
#
# Total GULP energy -520327.127089 kJ/mol
# GULP energy per Si atom -12388.741121 kJ/mol
# Density = 2.150117 g / cm^3
# Si number density = 21.550224 Si / 1000 Ang^3
#
#
#
# Elastic Constant Matrix: (Units=GPa)
#
#
# Indices 1 2 3 4 5 6 
#
# 1 139.0259 102.9385 16.1830 0.0000 0.0000 0.0000
# 2 102.9385 179.5650 25.5373 0.0000 0.0000 0.0000
# 3 16.1830 25.5373 63.1640 0.0000 0.0000 0.0000
# 4 0.0000 0.0000 0.0000 84.3716 0.0000 0.0000
# 5 0.0000 0.0000 0.0000 0.0000 8.1930 0.0000
# 6 0.0000 0.0000 0.0000 0.0000 0.0000 43.3298
#
#
#
# Elastic Compliance Matrix: (Units=1/GPa)
#
#
# Indices 1 2 3 4 5 6 
#
# 1 0.012504 -0.007122 -0.000324 0.000000 0.000000 0.000000
# 2 -0.007122 0.009965 -0.002204 0.000000 0.000000 0.000000
# 3 -0.000324 -0.002204 0.016806 0.000000 0.000000 0.000000
# 4 0.000000 0.000000 0.000000 0.011852 0.000000 0.000000
# 5 0.000000 0.000000 0.000000 0.000000 0.122055 0.000000
# 6 0.000000 0.000000 0.000000 0.000000 0.000000 0.023079
#
#
# Mechanical properties :
#
#
# Convention : Reuss Voigt Hill
#
# Bulk Modulus (GPa) = 50.06401 74.56361 62.31381
# Shear Modulus (GPa) = 22.50015 42.98528 32.74272
#
# Velocity S-wave (km/s) = 3.23473 4.47100 3.90214
# Velocity P-wave (km/s) = 6.10189 7.83123 7.02002
#
# Compressibility (1/GPa) = 0.01997443
#
# Stress axis : x y z
#
# Youngs Moduli (GPa) = 79.97478 100.34829 59.50243
#
# Poissons Ratio (x) = 0.71468 0.01929
# Poissons Ratio (y) = 0.56958 0.13116
# Poissons Ratio (z) = 0.02592 0.22120
#
# Static dielectric constant tensor:
#      x y z
#    x 4.040380 0.000000 0.000000 
#    y 0.000000 4.227330 0.000000 
#    z 0.000000 0.000000 3.882650 
# 
# 
# High freq. dielectric constant tensor:
#      x y z
#    x 1.818210 0.000000 0.000000 
#    y 0.000000 1.854630 0.000000 
#    z 0.000000 0.000000 1.838510 
# 
# From -- ./inp_files/16993.got.cif
#   From: 2010.03.12/outbox.cif.g09.slc.cpg/sg49_9_cif.got.tgz:16993.got - 2010.04.14 03:58:27.
