data_PCOD8203670
_publ_section_title
;
Structure prediction by ZEFSAII (Michael W. Deem and Ramdas Pophale) SiO2 
 PCOD8203670
Probable space group: P C C M
;
_chemical_formula_sum "Si O2"
_cell_formula_units_Z 56
_cell_length_a 20.542404
_cell_length_b 15.483012
_cell_length_c 8.742884
_cell_angle_alpha 90.000000
_cell_angle_beta 90.000000
_cell_angle_gamma 90.000000
_cell_volume 2780.746714
_symmetry_space_group_name_H-M "P C C M"
_symmetry_group_IT_number 49
_symmetry_cell_setting 'orthorhombic'
loop_
_space_group_symop_operation_xyz
x,y,z
-x,-y,z
x,-y,1/2-z
-x,y,1/2-z
-x,-y,-z
x,y,-z
-x,y,1/2+z
x,-y,1/2+z
loop_
_atom_site_type_symbol
_atom_site_label
_atom_site_fract_x
_atom_site_fract_y
_atom_site_fract_z
Si Si1 0.267439 0.875984 0.173259
Si Si2 0.068566 0.268074 0.318334
Si Si3 0.877603 0.087159 0.180067
Si Si4 0.565606 0.733925 0.682297
Si Si5 0.297909 0.679724 0.172440
Si Si6 0.398176 0.087386 0.820906
Si Si7 0.827240 0.408917 0.182581
O O1 0.197930 0.910084 0.228534
O O2 0.264545 0.772859 0.178404
O O3 0.320658 0.912753 0.289975
O O4 0.284757 0.905750 0.000000
O O5 0.065140 0.268012 0.500000
O O6 0.086402 0.172358 0.255707
O O7 0.121981 0.336771 0.260508
O O8 0.000000 0.297270 0.250000
O O9 0.909088 0.000000 0.250000
O O10 0.885102 0.084185 0.000000
O O11 0.500000 0.690519 0.750000
O O12 0.564707 0.732138 0.500000
O O13 0.629534 0.683033 0.748190
O O14 0.568114 0.832851 0.735901
O O15 0.245441 0.614502 0.248220
O O16 0.308927 0.649324 0.000000
O O17 0.428540 0.000000 0.750000
O O18 0.412523 0.093128 0.000000
O O19 0.849537 0.500000 0.250000
O O20 0.826090 0.412162 0.000000
#
# Coordination Sequence:
#
# PCOD8203670 Si02
#       7
#     8   8   8   8   8   8   8
#     4   9  16  31  53  75 102 140 185 231 285 336
#     4  10  22  40  60  81 115 156 193 233 286 342
#     4  10  20  34  54  79 109 150 194 238 285 338
#     4  10  20  35  55  78 105 143 185 227 279 337
#     4   8  15  32  58  80 106 145 182 219 275 337
#     4  11  21  32  46  70 104 142 186 235 284 334
#     4  10  20  38  63  90 116 147 186 231 283 343
#
# _framework density 20.138475
#
# number of rings (size 3 to 8) (size 9 to 14) (size 15 to 20)
#    0.000    2.286    1.429    3.000    0.000    3.714 
#    0.000    7.857    0.000    0.429    0.000    3.000 
#    0.000    0.000    0.000    0.000    0.000    0.000 
#
# Total GULP energy -694146.497621 kJ/mol
# GULP energy per Si atom -12395.473172 kJ/mol
# Density = 2.009264 g / cm^3
# Si number density = 20.138475 Si / 1000 Ang^3
#
#
#
# Elastic Constant Matrix: (Units=GPa)
#
#
# Indices 1 2 3 4 5 6 
#
# 1 135.6614 60.1292 28.6308 0.0000 0.0000 0.0000
# 2 60.1292 106.6839 19.4401 0.0000 0.0000 0.0000
# 3 28.6308 19.4401 49.2752 0.0000 0.0000 0.0000
# 4 0.0000 0.0000 0.0000 23.8919 0.0000 0.0000
# 5 0.0000 0.0000 0.0000 0.0000 22.4565 0.0000
# 6 0.0000 0.0000 0.0000 0.0000 0.0000 6.5569
#
#
#
# Elastic Compliance Matrix: (Units=1/GPa)
#
#
# Indices 1 2 3 4 5 6 
#
# 1 0.010533 -0.005195 -0.004071 0.000000 0.000000 0.000000
# 2 -0.005195 0.012662 -0.001977 0.000000 0.000000 0.000000
# 3 -0.004071 -0.001977 0.023439 0.000000 0.000000 0.000000
# 4 0.000000 0.000000 0.000000 0.041855 0.000000 0.000000
# 5 0.000000 0.000000 0.000000 0.000000 0.044531 0.000000
# 6 0.000000 0.000000 0.000000 0.000000 0.000000 0.152511
#
#
# Mechanical properties :
#
#
# Convention : Reuss Voigt Hill
#
# Bulk Modulus (GPa) = 41.40915 56.44676 48.92795
# Shear Modulus (GPa) = 15.81955 22.80908 19.31432
#
# Velocity S-wave (km/s) = 2.80579 3.36908 3.10025
# Velocity P-wave (km/s) = 5.57705 6.57453 6.09622
#
# Compressibility (1/GPa) = 0.02414925
#
# Stress axis : x y z
#
# Youngs Moduli (GPa) = 94.94105 78.97899 42.66347
#
# Poissons Ratio (x) = 0.41028 0.17366
# Poissons Ratio (y) = 0.49320 0.08434
# Poissons Ratio (z) = 0.38646 0.15613
#
# Static dielectric constant tensor:
#      x y z
#    x 3.890010 0.000000 0.000000 
#    y 0.000000 3.599890 0.000000 
#    z 0.000000 0.000000 3.306440 
# 
# 
# High freq. dielectric constant tensor:
#      x y z
#    x 1.795070 0.000000 0.000000 
#    y 0.000000 1.766590 0.000000 
#    z 0.000000 0.000000 1.756700 
# 
# From -- ./inp_files/4034.got.cif
#   From: 2010.03.12/outbox.cif.g09.slc.cpg/sg49_3_cif.got.tgz:4034.got - 2010.04.14 03:58:27.
