data_PCOD8203070
_publ_section_title
;
Structure prediction by ZEFSAII (Michael W. Deem and Ramdas Pophale) SiO2 
 PCOD8203070
Probable space group: P C C M
;
_chemical_formula_sum "Si O2"
_cell_formula_units_Z 40
_cell_length_a 22.889954
_cell_length_b 8.599636
_cell_length_c 9.886604
_cell_angle_alpha 90.000000
_cell_angle_beta 90.000000
_cell_angle_gamma 90.000000
_cell_volume 1946.131258
_symmetry_space_group_name_H-M "P C C M"
_symmetry_group_IT_number 49
_symmetry_cell_setting 'orthorhombic'
loop_
_space_group_symop_operation_xyz
x,y,z
-x,-y,z
x,-y,1/2-z
-x,y,1/2-z
-x,-y,-z
x,y,-z
-x,y,1/2+z
x,-y,1/2+z
loop_
_atom_site_type_symbol
_atom_site_label
_atom_site_fract_x
_atom_site_fract_y
_atom_site_fract_z
Si Si1 0.636028 0.194183 0.500000
Si Si2 0.564917 0.816440 0.746356
Si Si3 0.354697 0.173653 0.500000
Si Si4 0.946369 0.656643 0.164049
Si Si5 0.224710 0.684050 0.000000
Si Si6 0.241711 0.678359 0.500000
Si Si7 0.170866 0.817463 0.734816
O O1 0.597397 0.245500 0.624289
O O2 0.689370 0.311224 0.500000
O O3 0.654687 0.012629 0.500000
O O4 0.500000 0.741399 0.750000
O O5 0.606300 0.766463 0.623622
O O6 0.557859 0.000000 0.750000
O O7 0.290579 0.250140 0.500000
O O8 0.932961 0.500000 0.250000
O O9 0.891741 0.769618 0.176285
O O10 0.000000 0.733688 0.250000
O O11 0.959002 0.630044 0.000000
O O12 0.222588 0.499123 0.000000
O O13 0.186329 0.737923 0.125200
O O14 0.220408 0.767120 0.631768
O O15 0.172211 0.000000 0.750000
#
# Coordination Sequence:
#
# PCOD8203070 Si02
#       7
#     4   8   4   8   4   4   8
#     4  10  19  32  58  81 119 156 203 264 309 375
#     4   9  17  30  52  83 116 153 201 256 313 375
#     4  10  19  34  54  87 115 158 207 258 319 369
#     4  11  24  44  71 104 140 180 221 263 318 387
#     4  12  26  41  68  90 130 174 213 269 321 400
#     4  12  24  45  62  94 126 170 221 259 329 394
#     4  12  26  44  67  98 132 168 216 274 327 378
#
# _framework density 20.553598000000001
#
# number of rings (size 3 to 8) (size 9 to 14) (size 15 to 20)
#    0.000    1.200    1.000    6.600    2.800    4.400 
#    0.000    1.000    0.000    3.600    0.000    0.000 
#    0.000    0.000    0.000    0.000    0.000    0.000 
#
# Total GULP energy -495726.760451 kJ/mol
# GULP energy per Si atom -12393.169011 kJ/mol
# Density = 2.050682 g / cm^3
# Si number density = 20.553598 Si / 1000 Ang^3
#
#
#
# Elastic Constant Matrix: (Units=GPa)
#
#
# Indices 1 2 3 4 5 6 
#
# 1 136.7160 29.4329 59.5824 0.0000 0.0000 0.0000
# 2 29.4329 86.3766 37.6485 0.0000 0.0000 0.0000
# 3 59.5824 37.6485 193.9989 0.0000 0.0000 0.0000
# 4 0.0000 0.0000 0.0000 8.1163 0.0000 0.0000
# 5 0.0000 0.0000 0.0000 0.0000 67.1075 0.0000
# 6 0.0000 0.0000 0.0000 0.0000 0.0000 16.3860
#
#
#
# Elastic Compliance Matrix: (Units=1/GPa)
#
#
# Indices 1 2 3 4 5 6 
#
# 1 0.008743 -0.001976 -0.002302 0.000000 0.000000 0.000000
# 2 -0.001976 0.013094 -0.001934 0.000000 0.000000 0.000000
# 3 -0.002302 -0.001934 0.006237 0.000000 0.000000 0.000000
# 4 0.000000 0.000000 0.000000 0.123209 0.000000 0.000000
# 5 0.000000 0.000000 0.000000 0.000000 0.014901 0.000000
# 6 0.000000 0.000000 0.000000 0.000000 0.000000 0.061028
#
#
# Mechanical properties :
#
#
# Convention : Reuss Voigt Hill
#
# Bulk Modulus (GPa) = 63.89851 74.49100 69.19476
# Shear Modulus (GPa) = 20.42053 37.68380 29.05216
#
# Velocity S-wave (km/s) = 3.15544 4.28651 3.76371
# Velocity P-wave (km/s) = 6.66573 7.79871 7.25438
#
# Compressibility (1/GPa) = 0.01564982
#
# Stress axis : x y z
#
# Youngs Moduli (GPa) = 114.37792 76.37357 160.33484
#
# Poissons Ratio (x) = 0.15091 0.36905
# Poissons Ratio (y) = 0.22600 0.31011
# Poissons Ratio (z) = 0.26327 0.14772
#
# Static dielectric constant tensor:
#      x y z
#    x 4.016840 0.000000 0.000000 
#    y 0.000000 3.416560 0.000000 
#    z 0.000000 0.000000 4.235060 
# 
# 
# High freq. dielectric constant tensor:
#      x y z
#    x 1.825580 0.000000 0.000000 
#    y 0.000000 1.773330 0.000000 
#    z 0.000000 0.000000 1.828660 
# 
# From -- ./inp_files/6262.got.cif
#   From: 2010.03.12/outbox.cif.g09.slc.cpg/sg49_4_cif.got.tgz:6262.got - 2010.04.14 03:58:27.
