data_PCOD8203380
_publ_section_title
;
Structure prediction by ZEFSAII (Michael W. Deem and Ramdas Pophale) SiO2 
 PCOD8203380
Probable space group: P C C M
;
_chemical_formula_sum "Si O2"
_cell_formula_units_Z 64
_cell_length_a 14.129116
_cell_length_b 12.597613
_cell_length_c 16.550127
_cell_angle_alpha 90.000000
_cell_angle_beta 90.000000
_cell_angle_gamma 90.000000
_cell_volume 2945.808996
_symmetry_space_group_name_H-M "P C C M"
_symmetry_group_IT_number 49
_symmetry_cell_setting 'orthorhombic'
loop_
_space_group_symop_operation_xyz
x,y,z
-x,-y,z
x,-y,1/2-z
-x,y,1/2-z
-x,-y,-z
x,y,-z
-x,y,1/2+z
x,-y,1/2+z
loop_
_atom_site_type_symbol
_atom_site_label
_atom_site_fract_x
_atom_site_fract_y
_atom_site_fract_z
Si Si1 0.904305 0.270830 0.301598
Si Si2 0.638750 0.747950 0.908057
Si Si3 0.890389 0.524302 0.090699
Si Si4 0.743085 0.114010 0.908530
Si Si5 0.221176 0.323672 0.340080
Si Si6 0.394950 0.624030 0.743706
Si Si7 0.180320 0.103669 0.907466
Si Si8 0.535570 0.890061 0.595612
O O1 0.881479 0.367098 0.361652
O O2 0.818677 0.271276 0.240412
O O3 0.900231 0.161971 0.353444
O O4 0.000000 0.283198 0.250000
O O5 0.653775 0.654502 0.842577
O O6 0.720138 0.835568 0.900477
O O7 0.538171 0.798198 0.882994
O O8 0.636659 0.702102 0.000000
O O9 0.833411 0.429963 0.134329
O O10 0.000000 0.500000 0.087511
O O11 0.849627 0.538697 0.000000
O O12 0.793345 0.229487 0.905547
O O13 0.640108 0.128966 0.866545
O O14 0.804374 0.016065 0.871726
O O15 0.728389 0.077898 0.000000
O O16 0.331371 0.343354 0.321058
O O17 0.403008 0.500000 0.750000
O O18 0.500000 0.674606 0.750000
O O19 0.143542 0.102590 0.000000
O O20 0.543915 0.899020 0.500000
O O21 0.500000 0.000000 0.633444
#
# Coordination Sequence:
#
# PCOD8203380 Si02
#       8
#     8   8   8   8   8   8   8   8
#     4  12  24  43  68  96 130 167 216 274 337 396
#     4  10  19  36  63  93 126 173 229 274 324 388
#     4  11  24  44  73 102 127 164 222 285 343 407
#     4  10  21  39  62  94 137 178 220 269 329 395
#     4  12  24  41  66  97 135 173 216 279 344 394
#     4  11  24  43  61  90 137 183 219 269 339 408
#     4  10  21  40  66  96 130 173 221 271 324 398
#     4   9  15  29  58  94 127 165 216 271 315 365
#
# _framework density 21.72578
#
# number of rings (size 3 to 8) (size 9 to 14) (size 15 to 20)
#    0.000    1.375    3.750    2.625    0.000    0.500 
#    0.000    3.750    0.000    1.500    0.000    0.000 
#    0.000    0.000    0.000    0.000    0.000    0.000 
#
# Total GULP energy -793122.833735 kJ/mol
# GULP energy per Si atom -12392.544277 kJ/mol
# Density = 2.167633 g / cm^3
# Si number density = 21.725780 Si / 1000 Ang^3
#
#
#
# Elastic Constant Matrix: (Units=GPa)
#
#
# Indices 1 2 3 4 5 6 
#
# 1 78.7015 42.8463 26.6824 0.0000 0.0000 0.0000
# 2 42.8463 123.6985 40.8953 0.0000 0.0000 0.0000
# 3 26.6824 40.8953 80.9729 0.0000 0.0000 0.0000
# 4 0.0000 0.0000 0.0000 21.7727 0.0000 0.0000
# 5 0.0000 0.0000 0.0000 0.0000 26.3556 0.0000
# 6 0.0000 0.0000 0.0000 0.0000 0.0000 22.3001
#
#
#
# Elastic Compliance Matrix: (Units=1/GPa)
#
#
# Indices 1 2 3 4 5 6 
#
# 1 0.016250 -0.004632 -0.003016 0.000000 0.000000 0.000000
# 2 -0.004632 0.011025 -0.004042 0.000000 0.000000 0.000000
# 3 -0.003016 -0.004042 0.015385 0.000000 0.000000 0.000000
# 4 0.000000 0.000000 0.000000 0.045929 0.000000 0.000000
# 5 0.000000 0.000000 0.000000 0.000000 0.037943 0.000000
# 6 0.000000 0.000000 0.000000 0.000000 0.000000 0.044843
#
#
# Mechanical properties :
#
#
# Convention : Reuss Voigt Hill
#
# Bulk Modulus (GPa) = 51.86290 56.02455 53.94372
# Shear Modulus (GPa) = 24.85341 25.61559 25.23450
#
# Velocity S-wave (km/s) = 3.38592 3.43744 3.41178
# Velocity P-wave (km/s) = 6.26173 6.44963 6.35638
#
# Compressibility (1/GPa) = 0.01928161
#
# Stress axis : x y z
#
# Youngs Moduli (GPa) = 61.53764 90.70515 64.99918
#
# Poissons Ratio (x) = 0.42012 0.19601
# Poissons Ratio (y) = 0.28503 0.26271
# Poissons Ratio (z) = 0.18557 0.36661
#
# Static dielectric constant tensor:
#      x y z
#    x 4.089210 0.000000 0.000000 
#    y 0.000000 -96.655230 0.000000 
#    z 0.000000 0.000000 4.017740 
# 
# 
# High freq. dielectric constant tensor:
#      x y z
#    x 1.851880 0.000000 0.000000 
#    y 0.000000 1.855850 0.000000 
#    z 0.000000 0.000000 1.841880 
# 
# From -- ./inp_files/17986.got.cif
#   From: 2010.03.12/outbox.cif.g09.slc.cpg/sg49_9_cif.got.tgz:17986.got - 2010.04.14 03:58:27.
