data_PCOD8203166
_publ_section_title
;
Structure prediction by ZEFSAII (Michael W. Deem and Ramdas Pophale) SiO2 
 PCOD8203166
Probable space group: P C C M
;
_chemical_formula_sum "Si O2"
_cell_formula_units_Z 56
_cell_length_a 12.050539
_cell_length_b 13.921969
_cell_length_c 16.582792
_cell_angle_alpha 90.000000
_cell_angle_beta 90.000000
_cell_angle_gamma 90.000000
_cell_volume 2782.049086
_symmetry_space_group_name_H-M "P C C M"
_symmetry_group_IT_number 49
_symmetry_cell_setting 'orthorhombic'
loop_
_space_group_symop_operation_xyz
x,y,z
-x,-y,z
x,-y,1/2-z
-x,y,1/2-z
-x,-y,-z
x,y,-z
-x,y,1/2+z
x,-y,1/2+z
loop_
_atom_site_type_symbol
_atom_site_label
_atom_site_fract_x
_atom_site_fract_y
_atom_site_fract_z
Si Si1 0.606967 0.251767 0.305165
Si Si2 0.526411 0.389358 0.912102
Si Si3 0.077946 0.409700 0.589995
Si Si4 0.990969 0.224402 0.342091
Si Si5 0.886963 0.941618 0.588345
Si Si6 0.279619 0.598189 0.795834
Si Si7 0.231971 0.127345 0.903125
O O1 0.500000 0.220014 0.250000
O O2 0.569684 0.333397 0.366648
O O3 0.707524 0.305979 0.258636
O O4 0.657637 0.161492 0.354745
O O5 0.500000 0.500000 0.916912
O O6 0.642714 0.378438 0.870093
O O7 0.536266 0.342817 0.000000
O O8 0.132797 0.411790 0.500000
O O9 0.159693 0.413151 0.665871
O O10 0.000000 0.500000 0.600633
O O11 0.006293 0.313622 0.598354
O O12 0.872736 0.183566 0.367875
O O13 0.000000 0.257862 0.250000
O O14 0.092439 0.147511 0.352081
O O15 0.857496 0.900149 0.500000
O O16 0.787990 0.013733 0.616177
O O17 0.000000 0.000000 0.582473
O O18 0.313830 0.500000 0.750000
O O19 0.243660 0.143564 0.000000
#
# Coordination Sequence:
#
# PCOD8203166 Si02
#       7
#     8   8   8   8   8   8   8
#     4  10  21  35  56  86 121 157 204 261 317 360
#     4  10  19  33  55  79 107 149 202 253 301 359
#     4  11  26  41  55  80 118 165 209 242 291 368
#     4  11  22  36  59  88 124 161 201 250 303 359
#     4   8  16  33  56  83 117 151 189 239 296 359
#     4  11  22  37  54  76 115 154 202 250 304 359
#     4  10  20  36  59  89 122 160 202 251 308 371
#
# _framework density 20.129048000000001
#
# number of rings (size 3 to 8) (size 9 to 14) (size 15 to 20)
#    0.000    1.857    1.429    3.857    4.000    2.571 
#    0.000    0.000    0.000    0.000    0.000   17.000 
#    0.000   38.857    0.000    0.000    0.000    0.000 
#
# Total GULP energy -693895.485248 kJ/mol
# GULP energy per Si atom -12390.990808 kJ/mol
# Density = 2.008323 g / cm^3
# Si number density = 20.129048 Si / 1000 Ang^3
#
#
#
# Elastic Constant Matrix: (Units=GPa)
#
#
# Indices 1 2 3 4 5 6 
#
# 1 77.2889 40.2247 49.3108 0.0000 0.0000 0.0000
# 2 40.2247 96.5387 38.8942 0.0000 0.0000 0.0000
# 3 49.3108 38.8942 124.6253 0.0000 0.0000 0.0000
# 4 0.0000 0.0000 0.0000 22.3944 0.0000 0.0000
# 5 0.0000 0.0000 0.0000 0.0000 2.5520 0.0000
# 6 0.0000 0.0000 0.0000 0.0000 0.0000 18.6223
#
#
#
# Elastic Compliance Matrix: (Units=1/GPa)
#
#
# Indices 1 2 3 4 5 6 
#
# 1 0.019814 -0.005830 -0.006020 0.000000 0.000000 0.000000
# 2 -0.005830 0.013564 -0.001926 0.000000 0.000000 0.000000
# 3 -0.006020 -0.001926 0.011007 0.000000 0.000000 0.000000
# 4 0.000000 0.000000 0.000000 0.044654 0.000000 0.000000
# 5 0.000000 0.000000 0.000000 0.000000 0.391843 0.000000
# 6 0.000000 0.000000 0.000000 0.000000 0.000000 0.053699
#
#
# Mechanical properties :
#
#
# Convention : Reuss Voigt Hill
#
# Bulk Modulus (GPa) = 59.41279 61.70138 60.55708
# Shear Modulus (GPa) = 8.80677 20.04863 14.42770
#
# Velocity S-wave (km/s) = 2.09396 3.15938 2.68014
# Velocity P-wave (km/s) = 5.95199 6.63539 6.30296
#
# Compressibility (1/GPa) = 0.01683139
#
# Stress axis : x y z
#
# Youngs Moduli (GPa) = 50.47002 73.72501 90.84941
#
# Poissons Ratio (x) = 0.42984 0.54693
# Poissons Ratio (y) = 0.29426 0.17500
# Poissons Ratio (z) = 0.30384 0.14201
#
# Static dielectric constant tensor:
#      x y z
#    x 3.421510 0.000000 0.000000 
#    y 0.000000 3.771980 0.000000 
#    z 0.000000 0.000000 4.095470 
# 
# 
# High freq. dielectric constant tensor:
#      x y z
#    x 1.761830 0.000000 0.000000 
#    y 0.000000 1.775900 0.000000 
#    z 0.000000 0.000000 1.802540 
# 
# From -- ./inp_files/12875.got.cif
#   From: 2010.03.12/outbox.cif.g09.slc.cpg/sg49_7_cif.got.tgz:12875.got - 2010.04.14 03:58:27.
