data_PCOD8203647
_publ_section_title
;
Structure prediction by ZEFSAII (Michael W. Deem and Ramdas Pophale) SiO2 
 PCOD8203647
Probable space group: P C C M
;
_chemical_formula_sum "Si O2"
_cell_formula_units_Z 48
_cell_length_a 30.960658
_cell_length_b 9.152016
_cell_length_c 8.875556
_cell_angle_alpha 90.000000
_cell_angle_beta 90.000000
_cell_angle_gamma 90.000000
_cell_volume 2514.910426
_symmetry_space_group_name_H-M "P C C M"
_symmetry_group_IT_number 49
_symmetry_cell_setting 'orthorhombic'
loop_
_space_group_symop_operation_xyz
x,y,z
-x,-y,z
x,-y,1/2-z
-x,y,1/2-z
-x,-y,-z
x,y,-z
-x,y,1/2+z
x,-y,1/2+z
loop_
_atom_site_type_symbol
_atom_site_label
_atom_site_fract_x
_atom_site_fract_y
_atom_site_fract_z
Si Si1 0.790133 0.843766 0.322062
Si Si2 0.707036 0.656998 0.676992
Si Si3 0.040365 0.343308 0.173813
Si Si4 0.626479 0.843227 0.677046
Si Si5 0.863809 0.341453 0.676013
Si Si6 0.544512 0.654856 0.321528
O O1 0.795262 0.860401 0.500000
O O2 0.749927 0.743177 0.276824
O O3 0.833188 0.774490 0.254777
O O4 0.781730 0.000000 0.250000
O O5 0.708833 0.500000 0.750000
O O6 0.703389 0.635659 0.500000
O O7 0.665524 0.744107 0.739402
O O8 0.042115 0.500000 0.250000
O O9 0.087848 0.274454 0.198584
O O10 0.000000 0.253994 0.250000
O O11 0.029563 0.360301 0.000000
O O12 0.630881 0.862901 0.500000
O O13 0.581317 0.769584 0.722146
O O14 0.629416 0.000000 0.750000
O O15 0.858072 0.500000 0.750000
O O16 0.852522 0.357167 0.500000
O O17 0.557201 0.500000 0.250000
O O18 0.500000 0.713637 0.250000
O O19 0.539316 0.636211 0.500000
#
# Coordination Sequence:
#
# PCOD8203647 Si02
#       6
#     8   8   8   8   8   8
#     4  11  23  38  57  80 108 142 179 221 270 323
#     4  10  22  39  59  84 110 139 178 221 267 319
#     4   9  16  26  44  71 103 137 173 217 265 312
#     4  10  22  38  56  81 112 145 181 221 268 321
#     4  10  20  34  53  79 110 143 181 223 268 319
#     4  10  20  35  56  81 109 143 184 227 271 319
#
# _framework density 19.086165999999999
#
# number of rings (size 3 to 8) (size 9 to 14) (size 15 to 20)
#    0.000    2.000    0.000    4.500    0.000    7.000 
#    0.000    1.667    0.000    0.500    0.000    3.500 
#    0.000    0.000    0.000    0.000    0.000    0.000 
#
# Total GULP energy -595139.267065 kJ/mol
# GULP energy per Si atom -12398.734731 kJ/mol
# Density = 1.904272 g / cm^3
# Si number density = 19.086166 Si / 1000 Ang^3
#
#
#
# Elastic Constant Matrix: (Units=GPa)
#
#
# Indices 1 2 3 4 5 6 
#
# 1 167.6394 87.2073 74.0389 0.0000 0.0000 0.0000
# 2 87.2073 136.3217 56.7053 0.0000 0.0000 0.0000
# 3 74.0389 56.7053 94.6122 0.0000 0.0000 0.0000
# 4 0.0000 0.0000 0.0000 33.4948 0.0000 0.0000
# 5 0.0000 0.0000 0.0000 0.0000 30.1826 0.0000
# 6 0.0000 0.0000 0.0000 0.0000 0.0000 9.9840
#
#
#
# Elastic Compliance Matrix: (Units=1/GPa)
#
#
# Indices 1 2 3 4 5 6 
#
# 1 0.010896 -0.004561 -0.005794 0.000000 0.000000 0.000000
# 2 -0.004561 0.011681 -0.003432 0.000000 0.000000 0.000000
# 3 -0.005794 -0.003432 0.017160 0.000000 0.000000 0.000000
# 4 0.000000 0.000000 0.000000 0.029855 0.000000 0.000000
# 5 0.000000 0.000000 0.000000 0.000000 0.033132 0.000000
# 6 0.000000 0.000000 0.000000 0.000000 0.000000 0.100160
#
#
# Mechanical properties :
#
#
# Convention : Reuss Voigt Hill
#
# Bulk Modulus (GPa) = 82.20275 92.71959 87.46117
# Shear Modulus (GPa) = 21.32090 26.77373 24.04731
#
# Velocity S-wave (km/s) = 3.34591 3.74944 3.55341
# Velocity P-wave (km/s) = 7.62165 8.21153 7.92209
#
# Compressibility (1/GPa) = 0.01216504
#
# Stress axis : x y z
#
# Youngs Moduli (GPa) = 91.77276 85.61173 58.27488
#
# Poissons Ratio (x) = 0.39045 0.33762
# Poissons Ratio (y) = 0.41855 0.19998
# Poissons Ratio (z) = 0.53170 0.29380
#
# Static dielectric constant tensor:
#      x y z
#    x 4.258810 0.000000 0.000000 
#    y 0.000000 3.212260 0.000000 
#    z 0.000000 0.000000 3.579050 
# 
# 
# High freq. dielectric constant tensor:
#      x y z
#    x 1.768470 0.000000 0.000000 
#    y 0.000000 1.718330 0.000000 
#    z 0.000000 0.000000 1.751560 
# 
# From -- ./inp_files/6857.got.cif
#   From: 2010.03.12/outbox.cif.g09.slc.cpg/sg49_4_cif.got.tgz:6857.got - 2010.04.14 03:58:27.
