data_PCOD8203188
_publ_section_title
;
Structure prediction by ZEFSAII (Michael W. Deem and Ramdas Pophale) SiO2 
 PCOD8203188
Probable space group: P C C M
;
_chemical_formula_sum "Si O2"
_cell_formula_units_Z 64
_cell_length_a 13.932892
_cell_length_b 8.409244
_cell_length_c 25.477035
_cell_angle_alpha 90.000000
_cell_angle_beta 90.000000
_cell_angle_gamma 90.000000
_cell_volume 2985.019059
_symmetry_space_group_name_H-M "P C C M"
_symmetry_group_IT_number 49
_symmetry_cell_setting 'orthorhombic'
loop_
_space_group_symop_operation_xyz
x,y,z
-x,-y,z
x,-y,1/2-z
-x,y,1/2-z
-x,-y,-z
x,y,-z
-x,y,1/2+z
x,-y,1/2+z
loop_
_atom_site_type_symbol
_atom_site_label
_atom_site_fract_x
_atom_site_fract_y
_atom_site_fract_z
Si Si1 0.907461 0.288751 0.352070
Si Si2 0.198990 0.687025 0.250512
Si Si3 0.728452 0.408443 0.059422
Si Si4 0.122861 0.336020 0.358846
Si Si5 0.602198 0.816200 0.733609
Si Si6 0.567961 0.150406 0.441825
Si Si7 0.775835 0.221061 0.557677
Si Si8 0.448937 0.654071 0.868121
O O1 0.870670 0.233397 0.294313
O O2 0.886442 0.475129 0.353797
O O3 0.852335 0.187219 0.396562
O O4 0.018951 0.254063 0.363076
O O5 0.187267 0.500000 0.250000
O O6 0.170632 0.745845 0.192391
O O7 0.309231 0.732265 0.263110
O O8 0.811307 0.307485 0.089889
O O9 0.748634 0.594484 0.059836
O O10 0.626760 0.386768 0.086933
O O11 0.724332 0.341752 0.000000
O O12 0.500000 0.742242 0.750000
O O13 0.605282 0.773934 0.671806
O O14 0.606521 0.000000 0.750000
O O15 0.556476 0.227005 0.500000
O O16 0.681034 0.112365 0.433038
O O17 0.539763 0.267139 0.395704
O O18 0.500000 0.000000 0.436854
O O19 0.820062 0.182714 0.500000
O O20 0.500000 0.500000 0.841329
#
# Coordination Sequence:
#
# PCOD8203188 Si02
#       8
#     8   8   8   8   8   8   8   8
#     4   9  18  29  55  80 117 156 204 255 322 367
#     4  10  20  35  61  85 115 156 208 260 304 373
#     4  10  19  33  56  89 125 160 204 258 311 369
#     4   9  17  33  49  87 117 153 202 260 314 371
#     4  11  28  43  57  88 124 160 195 252 317 376
#     4  10  22  37  57  87 123 162 206 252 302 369
#     4   9  18  32  50  82 122 158 204 254 308 371
#     4  12  24  38  64  87 120 164 209 254 309 376
#
# _framework density 21.4404
#
# number of rings (size 3 to 8) (size 9 to 14) (size 15 to 20)
#    0.000    2.000    2.500    0.750    5.250    2.500 
#    0.000    2.500    0.000    1.500    0.000    0.000 
#    0.000    5.000    0.000    0.000    0.000    0.000 
#
# Total GULP energy -793055.537771 kJ/mol
# GULP energy per Si atom -12391.492778 kJ/mol
# Density = 2.139160 g / cm^3
# Si number density = 21.440400 Si / 1000 Ang^3
#
#
#
# Elastic Constant Matrix: (Units=GPa)
#
#
# Indices 1 2 3 4 5 6 
#
# 1 147.6448 14.1745 64.2854 0.0000 0.0000 0.0000
# 2 14.1745 29.3771 30.5833 0.0000 0.0000 0.0000
# 3 64.2854 30.5833 144.9447 0.0000 0.0000 0.0000
# 4 0.0000 0.0000 0.0000 14.9538 0.0000 0.0000
# 5 0.0000 0.0000 0.0000 0.0000 42.3957 0.0000
# 6 0.0000 0.0000 0.0000 0.0000 0.0000 24.0174
#
#
#
# Elastic Compliance Matrix: (Units=1/GPa)
#
#
# Indices 1 2 3 4 5 6 
#
# 1 0.008395 -0.000224 -0.003676 0.000000 0.000000 0.000000
# 2 -0.000224 0.043628 -0.009106 0.000000 0.000000 0.000000
# 3 -0.003676 -0.009106 0.010451 0.000000 0.000000 0.000000
# 4 0.000000 0.000000 0.000000 0.066872 0.000000 0.000000
# 5 0.000000 0.000000 0.000000 0.000000 0.023587 0.000000
# 6 0.000000 0.000000 0.000000 0.000000 0.000000 0.041637
#
#
# Mechanical properties :
#
#
# Convention : Reuss Voigt Hill
#
# Bulk Modulus (GPa) = 27.42564 60.00589 43.71576
# Shear Modulus (GPa) = 21.48346 30.46828 25.97587
#
# Velocity S-wave (km/s) = 3.16889 3.77380 3.48449
# Velocity P-wave (km/s) = 5.11942 6.85834 6.05166
#
# Compressibility (1/GPa) = 0.03646223
#
# Stress axis : x y z
#
# Youngs Moduli (GPa) = 119.11695 22.92090 95.68374
#
# Poissons Ratio (x) = 0.00512 0.35175
# Poissons Ratio (y) = 0.02662 0.87134
# Poissons Ratio (z) = 0.43790 0.20873
#
# Static dielectric constant tensor:
#      x y z
#    x 4.045370 0.000000 0.000000 
#    y 0.000000 3.415740 0.000000 
#    z 0.000000 0.000000 4.240840 
# 
# 
# High freq. dielectric constant tensor:
#      x y z
#    x 1.849390 0.000000 0.000000 
#    y 0.000000 1.789150 0.000000 
#    z 0.000000 0.000000 1.851490 
# 
# From -- ./inp_files/23230.got.cif
#   From: 2010.03.12/outbox.cif.g09.slc.cpg/sg49_12_cif.got.tgz:23230.got - 2010.04.14 03:58:27.
