data_PCOD8203837
_publ_section_title
;
Structure prediction by ZEFSAII (Michael W. Deem and Ramdas Pophale) SiO2 
 PCOD8203837
Probable space group: P C C M
;
_chemical_formula_sum "Si O2"
_cell_formula_units_Z 64
_cell_length_a 9.055538
_cell_length_b 20.696680
_cell_length_c 15.826748
_cell_angle_alpha 90.000000
_cell_angle_beta 90.000000
_cell_angle_gamma 90.000000
_cell_volume 2966.242340
_symmetry_space_group_name_H-M "P C C M"
_symmetry_group_IT_number 49
_symmetry_cell_setting 'orthorhombic'
loop_
_space_group_symop_operation_xyz
x,y,z
-x,-y,z
x,-y,1/2-z
-x,y,1/2-z
-x,-y,-z
x,y,-z
-x,y,1/2+z
x,-y,1/2+z
loop_
_atom_site_type_symbol
_atom_site_label
_atom_site_fract_x
_atom_site_fract_y
_atom_site_fract_z
Si Si1 0.060539 0.177868 0.340436
Si Si2 0.615173 0.819575 0.401266
Si Si3 0.927590 0.436702 0.657602
Si Si4 0.396195 0.561193 0.400571
Si Si5 0.923085 0.685878 0.403241
Si Si6 0.597469 0.675241 0.597780
Si Si7 0.906880 0.057977 0.595971
Si Si8 0.417988 0.936371 0.600706
O O1 0.236829 0.174190 0.346604
O O2 0.007001 0.250938 0.359269
O O3 0.000000 0.156551 0.250000
O O4 0.991312 0.126094 0.404346
O O5 0.654606 0.829663 0.500000
O O6 0.542500 0.748738 0.387475
O O7 0.501510 0.872485 0.366364
O O8 0.751152 0.445662 0.656034
O O9 0.000000 0.500000 0.614213
O O10 0.000000 0.428824 0.750000
O O11 0.964275 0.373040 0.604249
O O12 0.500000 0.500000 0.384203
O O13 0.354341 0.566901 0.500000
O O14 0.481258 0.624370 0.363670
O O15 0.898408 0.705510 0.500000
O O16 0.762967 0.667291 0.363448
O O17 0.607214 0.656790 0.500000
O O18 0.878254 0.036798 0.500000
O O19 0.746458 0.064178 0.639786
O O20 0.000000 0.000000 0.640429
O O21 0.415981 0.934503 0.500000
O O22 0.500000 0.000000 0.634585
#
# Coordination Sequence:
#
# PCOD8203837 Si02
#       8
#     8   8   8   8   8   8   8   8
#     4  11  22  36  56  83 119 156 190 234 292 355
#     4   9  17  33  56  81 112 149 189 232 285 347
#     4  11  24  40  57  85 126 163 196 238 297 363
#     4  10  20  36  61  90 117 151 201 254 299 348
#     4  10  20  38  63  86 113 153 201 248 294 347
#     4   8  16  31  53  82 110 141 188 243 291 336
#     4  10  20  35  57  84 113 148 196 247 291 342
#     4   9  17  30  52  80 107 140 187 242 290 335
#
# _framework density 21.576118999999998
#
# number of rings (size 3 to 8) (size 9 to 14) (size 15 to 20)
#    0.000    2.250    0.000    4.125    0.000    5.250 
#    0.000    7.500    0.000    3.750    0.000    0.000 
#    0.000    0.000    0.000    0.000    0.000    0.000 
#
# Total GULP energy -793452.531863 kJ/mol
# GULP energy per Si atom -12397.695810 kJ/mol
# Density = 2.152701 g / cm^3
# Si number density = 21.576119 Si / 1000 Ang^3
#
#
#
# Elastic Constant Matrix: (Units=GPa)
#
#
# Indices 1 2 3 4 5 6 
#
# 1 160.9575 92.8176 25.9620 0.0000 0.0000 0.0000
# 2 92.8176 183.1863 8.2555 0.0000 0.0000 0.0000
# 3 25.9620 8.2555 39.7630 0.0000 0.0000 0.0000
# 4 0.0000 0.0000 0.0000 11.6595 0.0000 0.0000
# 5 0.0000 0.0000 0.0000 0.0000 23.3447 0.0000
# 6 0.0000 0.0000 0.0000 0.0000 0.0000 48.4949
#
#
#
# Elastic Compliance Matrix: (Units=1/GPa)
#
#
# Indices 1 2 3 4 5 6 
#
# 1 0.009815 -0.004728 -0.005427 0.000000 0.000000 0.000000
# 2 -0.004728 0.007788 0.001470 0.000000 0.000000 0.000000
# 3 -0.005427 0.001470 0.028387 0.000000 0.000000 0.000000
# 4 0.000000 0.000000 0.000000 0.085767 0.000000 0.000000
# 5 0.000000 0.000000 0.000000 0.000000 0.042836 0.000000
# 6 0.000000 0.000000 0.000000 0.000000 0.000000 0.020621
#
#
# Mechanical properties :
#
#
# Convention : Reuss Voigt Hill
#
# Bulk Modulus (GPa) = 34.93981 70.88634 52.91307
# Shear Modulus (GPa) = 22.50993 33.82458 28.16725
#
# Velocity S-wave (km/s) = 3.23349 3.96370 3.61707
# Velocity P-wave (km/s) = 5.49268 7.33984 6.48239
#
# Compressibility (1/GPa) = 0.02862065
#
# Stress axis : x y z
#
# Youngs Moduli (GPa) = 101.88678 128.39447 35.22758
#
# Poissons Ratio (x) = 0.60711 0.19116
# Poissons Ratio (y) = 0.48177 -0.05179
# Poissons Ratio (z) = 0.55290 -0.18877
#
# Static dielectric constant tensor:
#      x y z
#    x 3.962130 0.000000 0.000000 
#    y 0.000000 4.113750 0.000000 
#    z 0.000000 0.000000 3.341330 
# 
# 
# High freq. dielectric constant tensor:
#      x y z
#    x 1.847370 0.000000 0.000000 
#    y 0.000000 1.865680 0.000000 
#    z 0.000000 0.000000 1.802200 
# 
# From -- ./inp_files/16584.got.cif
#   From: 2010.03.12/outbox.cif.g09.slc.cpg/sg49_9_cif.got.tgz:16584.got - 2010.04.14 03:58:27.
