data_PCOD8203075
_publ_section_title
;
Structure prediction by ZEFSAII (Michael W. Deem and Ramdas Pophale) SiO2 
 PCOD8203075
Probable space group: P C C M
;
_chemical_formula_sum "Si O2"
_cell_formula_units_Z 64
_cell_length_a 13.603748
_cell_length_b 14.904779
_cell_length_c 17.400170
_cell_angle_alpha 90.000000
_cell_angle_beta 90.000000
_cell_angle_gamma 90.000000
_cell_volume 3528.073390
_symmetry_space_group_name_H-M "P C C M"
_symmetry_group_IT_number 49
_symmetry_cell_setting 'orthorhombic'
loop_
_space_group_symop_operation_xyz
x,y,z
-x,-y,z
x,-y,1/2-z
-x,y,1/2-z
-x,-y,-z
x,y,-z
-x,y,1/2+z
x,-y,1/2+z
loop_
_atom_site_type_symbol
_atom_site_label
_atom_site_fract_x
_atom_site_fract_y
_atom_site_fract_z
Si Si1 0.099862 0.247934 0.214721
Si Si2 0.248021 0.186009 0.089360
Si Si3 0.094437 0.550506 0.671250
Si Si4 0.272131 0.317751 0.697488
Si Si5 0.268526 0.481955 0.586779
Si Si6 0.638216 0.644271 0.143166
Si Si7 0.467710 0.234200 0.332018
Si Si8 0.437193 0.081396 0.088455
O O1 0.152774 0.188596 0.146793
O O2 0.069042 0.345527 0.183304
O O3 0.174338 0.260340 0.286349
O O4 0.000000 0.202228 0.250000
O O5 0.306237 0.280150 0.093183
O O6 0.325605 0.107084 0.117535
O O7 0.215510 0.170989 0.000000
O O8 0.127657 0.500000 0.750000
O O9 0.177142 0.546458 0.606231
O O10 0.000000 0.500000 0.637713
O O11 0.256571 0.392523 0.634555
O O12 0.305569 0.365580 0.775908
O O13 0.351959 0.248369 0.665829
O O14 0.269524 0.450049 0.500000
O O15 0.362587 0.545976 0.603717
O O16 0.524817 0.671317 0.156235
O O17 0.500000 0.191752 0.250000
O O18 0.494177 0.167701 0.400449
O O19 0.500000 0.000000 0.128641
O O20 0.425720 0.058136 0.000000
#
# Coordination Sequence:
#
# PCOD8203075 Si02
#       8
#     8   8   8   8   8   8   8   8
#     4  11  19  31  53  71  99 142 181 218 272 318
#     4   9  17  30  51  79 105 131 171 219 257 306
#     4  11  18  32  49  63  88 130 180 228 271 301
#     4  10  19  33  47  63  95 132 173 216 264 315
#     4  12  21  29  43  65  92 128 175 224 263 303
#     4   9  17  31  49  65  92 128 169 213 267 316
#     4   9  19  33  51  75  97 128 165 208 257 316
#     4   9  18  34  57  84 111 134 158 199 262 327
#
# _framework density 18.140212999999999
#
# number of rings (size 3 to 8) (size 9 to 14) (size 15 to 20)
#    0.000    2.000    5.000    1.500    0.000    2.000 
#    0.000    4.375    0.000    0.000    0.000    1.750 
#    0.000    3.000    0.000    0.000    0.000    0.000 
#
# Total GULP energy -792928.114739 kJ/mol
# GULP energy per Si atom -12389.501793 kJ/mol
# Density = 1.809893 g / cm^3
# Si number density = 18.140213 Si / 1000 Ang^3
#
#
#
# Elastic Constant Matrix: (Units=GPa)
#
#
# Indices 1 2 3 4 5 6 
#
# 1 122.2240 37.7037 37.6266 0.0000 0.0000 0.0000
# 2 37.7037 47.6230 29.5387 0.0000 0.0000 0.0000
# 3 37.6266 29.5387 78.1433 0.0000 0.0000 0.0000
# 4 0.0000 0.0000 0.0000 16.6569 0.0000 0.0000
# 5 0.0000 0.0000 0.0000 0.0000 22.8764 0.0000
# 6 0.0000 0.0000 0.0000 0.0000 0.0000 21.0113
#
#
#
# Elastic Compliance Matrix: (Units=1/GPa)
#
#
# Indices 1 2 3 4 5 6 
#
# 1 0.011238 -0.007238 -0.002675 0.000000 0.000000 0.000000
# 2 -0.007238 0.032091 -0.008646 0.000000 0.000000 0.000000
# 3 -0.002675 -0.008646 0.017353 0.000000 0.000000 0.000000
# 4 0.000000 0.000000 0.000000 0.060035 0.000000 0.000000
# 5 0.000000 0.000000 0.000000 0.000000 0.043713 0.000000
# 6 0.000000 0.000000 0.000000 0.000000 0.000000 0.047593
#
#
# Mechanical properties :
#
#
# Convention : Reuss Voigt Hill
#
# Bulk Modulus (GPa) = 42.43584 50.85868 46.64726
# Shear Modulus (GPa) = 19.45551 21.65033 20.55292
#
# Velocity S-wave (km/s) = 3.27847 3.45845 3.36966
# Velocity P-wave (km/s) = 6.14615 6.63665 6.39611
#
# Compressibility (1/GPa) = 0.02356498
#
# Stress axis : x y z
#
# Youngs Moduli (GPa) = 88.98357 31.16120 57.62618
#
# Poissons Ratio (x) = 0.22554 0.15416
# Poissons Ratio (y) = 0.64406 0.49821
# Poissons Ratio (z) = 0.23805 0.26941
#
# Static dielectric constant tensor:
#      x y z
#    x 3.584960 0.000000 0.000000 
#    y 0.000000 3.156630 0.000000 
#    z 0.000000 0.000000 3.278380 
# 
# 
# High freq. dielectric constant tensor:
#      x y z
#    x 1.700240 0.000000 0.000000 
#    y 0.000000 1.661500 0.000000 
#    z 0.000000 0.000000 1.688660 
# 
# From -- ./inp_files/18026.got.cif
#   From: 2010.03.12/outbox.cif.g09.slc.cpg/sg49_10_cif.got.tgz:18026.got - 2010.04.14 03:58:27.
