data_PCOD8203240
_publ_section_title
;
Structure prediction by ZEFSAII (Michael W. Deem and Ramdas Pophale) SiO2 
 PCOD8203240
Probable space group: P C C M
;
_chemical_formula_sum "Si O2"
_cell_formula_units_Z 64
_cell_length_a 20.658578
_cell_length_b 19.636431
_cell_length_c 8.676203
_cell_angle_alpha 90.000000
_cell_angle_beta 90.000000
_cell_angle_gamma 90.000000
_cell_volume 3519.594942
_symmetry_space_group_name_H-M "P C C M"
_symmetry_group_IT_number 49
_symmetry_cell_setting 'orthorhombic'
loop_
_space_group_symop_operation_xyz
x,y,z
-x,-y,z
x,-y,1/2-z
-x,y,1/2-z
-x,-y,-z
x,y,-z
-x,y,1/2+z
x,-y,1/2+z
loop_
_atom_site_type_symbol
_atom_site_label
_atom_site_fract_x
_atom_site_fract_y
_atom_site_fract_z
Si Si1 0.621635 0.428581 0.181035
Si Si2 0.184159 0.292609 0.817111
Si Si3 0.067243 0.792037 0.182561
Si Si4 0.567235 0.705260 0.182708
Si Si5 0.771505 0.571685 0.681434
Si Si6 0.309999 0.787429 0.316778
Si Si7 0.883879 0.070746 0.317606
Si Si8 0.265158 0.930612 0.680905
O O1 0.598004 0.500000 0.250000
O O2 0.578607 0.371057 0.259783
O O3 0.696486 0.415863 0.223014
O O4 0.609411 0.428126 0.000000
O O5 0.123041 0.257207 0.741474
O O6 0.186007 0.370689 0.763638
O O7 0.248766 0.255231 0.755263
O O8 0.178077 0.287481 0.000000
O O9 0.076342 0.868709 0.241713
O O10 0.000000 0.763754 0.250000
O O11 0.065472 0.791342 0.000000
O O12 0.500000 0.733338 0.250000
O O13 0.624039 0.754309 0.246864
O O14 0.564858 0.705960 0.000000
O O15 0.794964 0.500000 0.750000
O O16 0.783723 0.572728 0.500000
O O17 0.308910 0.785712 0.500000
O O18 0.305138 0.865377 0.257111
O O19 0.893142 0.072798 0.500000
O O20 0.809085 0.079314 0.268682
O O21 0.911106 0.000000 0.250000
O O22 0.270844 0.936451 0.500000
O O23 0.294699 0.000000 0.750000
#
# Coordination Sequence:
#
# PCOD8203240 Si02
#       8
#     8   8   8   8   8   8   8   8
#     4  10  20  34  53  79 111 147 186 227 270 327
#     4  11  20  37  61  85 112 148 187 233 284 333
#     4  12  25  40  57  82 114 152 193 235 282 336
#     4  11  22  37  55  78 109 148 187 230 281 334
#     4  10  20  34  55  86 117 147 185 232 279 331
#     4   9  18  34  57  80 108 145 183 224 278 333
#     4  10  19  34  55  81 114 150 188 230 277 335
#     4   9  17  32  53  81 110 140 177 223 275 329
#
# _framework density 18.183910000000001
#
# number of rings (size 3 to 8) (size 9 to 14) (size 15 to 20)
#    0.000    1.750    2.500    3.000    0.000    2.000 
#    0.000    3.750    0.000    0.750    0.000    5.250 
#    0.000    0.000    0.000    0.000    0.000    0.000 
#
# Total GULP energy -793806.296208 kJ/mol
# GULP energy per Si atom -12403.223378 kJ/mol
# Density = 1.814252 g / cm^3
# Si number density = 18.183910 Si / 1000 Ang^3
#
#
#
# Elastic Constant Matrix: (Units=GPa)
#
#
# Indices 1 2 3 4 5 6 
#
# 1 117.6062 66.3626 42.3019 0.0000 0.0000 0.0000
# 2 66.3626 131.1549 35.9212 0.0000 0.0000 0.0000
# 3 42.3019 35.9212 81.6298 0.0000 0.0000 0.0000
# 4 0.0000 0.0000 0.0000 32.9094 0.0000 0.0000
# 5 0.0000 0.0000 0.0000 0.0000 23.7822 0.0000
# 6 0.0000 0.0000 0.0000 0.0000 0.0000 27.9461
#
#
#
# Elastic Compliance Matrix: (Units=1/GPa)
#
#
# Indices 1 2 3 4 5 6 
#
# 1 0.013172 -0.005452 -0.004427 0.000000 0.000000 0.000000
# 2 -0.005452 0.010926 -0.001983 0.000000 0.000000 0.000000
# 3 -0.004427 -0.001983 0.015417 0.000000 0.000000 0.000000
# 4 0.000000 0.000000 0.000000 0.030386 0.000000 0.000000
# 5 0.000000 0.000000 0.000000 0.000000 0.042048 0.000000
# 6 0.000000 0.000000 0.000000 0.000000 0.000000 0.035783
#
#
# Mechanical properties :
#
#
# Convention : Reuss Voigt Hill
#
# Bulk Modulus (GPa) = 63.32367 68.84026 66.08197
# Shear Modulus (GPa) = 28.29335 29.31455 28.80395
#
# Velocity S-wave (km/s) = 3.94884 4.01947 3.98431
# Velocity P-wave (km/s) = 7.46262 7.71243 7.58855
#
# Compressibility (1/GPa) = 0.01579188
#
# Stress axis : x y z
#
# Youngs Moduli (GPa) = 75.91982 91.52121 64.86437
#
# Poissons Ratio (x) = 0.49901 0.28712
# Poissons Ratio (y) = 0.41395 0.12860
# Poissons Ratio (z) = 0.33606 0.18146
#
# Static dielectric constant tensor:
#      x y z
#    x 3.311920 0.000000 0.000000 
#    y 0.000000 3.546120 0.000000 
#    z 0.000000 0.000000 3.295580 
# 
# 
# High freq. dielectric constant tensor:
#      x y z
#    x 1.682510 0.000000 0.000000 
#    y 0.000000 1.710530 0.000000 
#    z 0.000000 0.000000 1.706300 
# 
# From -- ./inp_files/5259.got.cif
#   From: 2010.03.12/outbox.cif.g09.slc.cpg/sg49_3_cif.got.tgz:5259.got - 2010.04.14 03:58:27.
