data_PCOD8203525
_publ_section_title
;
Structure prediction by ZEFSAII (Michael W. Deem and Ramdas Pophale) SiO2 
 PCOD8203525
Probable space group: P C C M
;
_chemical_formula_sum "Si O2"
_cell_formula_units_Z 58
_cell_length_a 31.992912
_cell_length_b 5.324170
_cell_length_c 18.500061
_cell_angle_alpha 90.000000
_cell_angle_beta 90.000000
_cell_angle_gamma 90.000000
_cell_volume 3151.220883
_symmetry_space_group_name_H-M "P C C M"
_symmetry_group_IT_number 49
_symmetry_cell_setting 'orthorhombic'
loop_
_space_group_symop_operation_xyz
x,y,z
-x,-y,z
x,-y,1/2-z
-x,y,1/2-z
-x,-y,-z
x,y,-z
-x,y,1/2+z
x,-y,1/2+z
loop_
_atom_site_type_symbol
_atom_site_label
_atom_site_fract_x
_atom_site_fract_y
_atom_site_fract_z
Si Si1 0.172105 0.946777 0.586022
Si Si2 0.044135 0.393887 0.326909
Si Si3 0.733390 0.966664 0.913830
Si Si4 0.593008 0.511457 0.586135
Si Si5 0.000000 0.000000 0.250000
Si Si6 0.687661 0.532338 0.586124
Si Si7 0.126009 0.445772 0.585785
Si Si8 0.452669 0.989572 0.413867
O O1 0.172103 0.942599 0.500000
O O2 0.219338 0.956482 0.615523
O O3 0.149151 0.695822 0.615394
O O4 0.149367 0.197326 0.614897
O O5 0.059284 0.500000 0.250000
O O6 0.078585 0.434602 0.387565
O O7 0.000000 0.500000 0.355101
O O8 0.032759 0.112653 0.306965
O O9 0.710526 0.717121 0.884589
O O10 0.710483 0.217067 0.883940
O O11 0.732724 0.970938 0.000000
O O12 0.592163 0.507236 0.500000
O O13 0.640336 0.521773 0.615031
O O14 0.570164 0.260960 0.616109
O O15 0.570173 0.760956 0.615485
O O16 0.688474 0.536654 0.500000
O O17 0.125201 0.449442 0.500000
O O18 0.451815 0.985330 0.500000
O O19 0.500000 0.000000 0.384996
#
# Coordination Sequence:
#
# PCOD8203525 Si02
#       8
#     8   8   8   8   2   8   8   8
#     4   9  18  30  44  64  91 117 142 175 215 265
#     4   9  20  35  54  74  96 128 159 191 227 269
#     4   9  15  24  36  50  70  97 123 148 192 246
#     4   9  15  21  27  38  52  67  99 142 180 228
#     4   8  18  36  54  70  96 124 162 190 226 268
#     4   9  15  21  32  46  61  84 115 151 188 235
#     4  10  20  33  50  73  98 123 153 189 227 265
#     4   9  15  21  27  33  46  69  95 131 186 243
#
# _framework density 18.405564999999999
#
# number of rings (size 3 to 8) (size 9 to 14) (size 15 to 20)
#    0.000    3.034    0.000    2.069    3.862    8.552 
#    0.000    0.345    0.000    0.000    0.000    0.000 
#    0.000    0.000    0.000    0.000    0.000    0.000 
#
# Total GULP energy -718565.615884 kJ/mol
# GULP energy per Si atom -12389.062343 kJ/mol
# Density = 1.836367 g / cm^3
# Si number density = 18.405565 Si / 1000 Ang^3
#
#
#
# Elastic Constant Matrix: (Units=GPa)
#
#
# Indices 1 2 3 4 5 6 
#
# 1 182.0200 99.6606 14.4530 0.0000 0.0000 0.0000
# 2 99.6606 196.5507 11.5866 0.0000 0.0000 0.0000
# 3 14.4530 11.5866 5.0859 0.0000 0.0000 0.0000
# 4 0.0000 0.0000 0.0000 43.5197 0.0000 0.0000
# 5 0.0000 0.0000 0.0000 0.0000 0.6690 0.0000
# 6 0.0000 0.0000 0.0000 0.0000 0.0000 75.0971
#
#
#
# Elastic Compliance Matrix: (Units=1/GPa)
#
#
# Indices 1 2 3 4 5 6 
#
# 1 0.008713 -0.003417 -0.016975 0.000000 0.000000 0.000000
# 2 -0.003417 0.007217 -0.006731 0.000000 0.000000 0.000000
# 3 -0.016975 -0.006731 0.260195 0.000000 0.000000 0.000000
# 4 0.000000 0.000000 0.000000 0.022978 0.000000 0.000000
# 5 0.000000 0.000000 0.000000 0.000000 1.494810 0.000000
# 6 0.000000 0.000000 0.000000 0.000000 0.000000 0.013316
#
#
# Mechanical properties :
#
#
# Convention : Reuss Voigt Hill
#
# Bulk Modulus (GPa) = 4.50697 70.56189 37.53443
# Shear Modulus (GPa) = 2.58340 41.05425 21.81883
#
# Velocity S-wave (km/s) = 1.18602 4.72798 3.44677
# Velocity P-wave (km/s) = 2.08075 8.25987 6.02308
#
# Compressibility (1/GPa) = 0.22187875
#
# Stress axis : x y z
#
# Youngs Moduli (GPa) = 114.77478 138.55796 3.84326
#
# Poissons Ratio (x) = 0.47347 0.06524
# Poissons Ratio (y) = 0.39220 0.02587
# Poissons Ratio (z) = 1.94828 0.93269
#
# Static dielectric constant tensor:
#      x y z
#    x 3.492010 0.000000 0.000000 
#    y 0.000000 3.781540 0.000000 
#    z 0.000000 0.000000 2.266780 
# 
# 
# High freq. dielectric constant tensor:
#      x y z
#    x 1.729720 0.000000 0.000000 
#    y 0.000000 1.738540 0.000000 
#    z 0.000000 0.000000 1.614650 
# 
# From -- ./inp_files/15392.got.cif
#   From: 2010.03.12/outbox.cif.g09.slc.cpg/sg49_8_cif.got.tgz:15392.got - 2010.04.14 03:58:27.
