data_PCOD8203989
_publ_section_title
;
Structure prediction by ZEFSAII (Michael W. Deem and Ramdas Pophale) SiO2 
 PCOD8203989
Probable space group: P C C M
;
_chemical_formula_sum "Si O2"
_cell_formula_units_Z 60
_cell_length_a 22.998392
_cell_length_b 5.191222
_cell_length_c 25.708331
_cell_angle_alpha 90.000000
_cell_angle_beta 90.000000
_cell_angle_gamma 90.000000
_cell_volume 3069.311430
_symmetry_space_group_name_H-M "P C C M"
_symmetry_group_IT_number 49
_symmetry_cell_setting 'orthorhombic'
loop_
_space_group_symop_operation_xyz
x,y,z
-x,-y,z
x,-y,1/2-z
-x,y,1/2-z
-x,-y,-z
x,y,-z
-x,y,1/2+z
x,-y,1/2+z
loop_
_atom_site_type_symbol
_atom_site_label
_atom_site_fract_x
_atom_site_fract_y
_atom_site_fract_z
Si Si1 0.114669 0.481412 0.560470
Si Si2 0.500000 0.000000 0.632247
Si Si3 0.652464 0.554044 0.361620
Si Si4 0.438833 0.639637 0.941819
Si Si5 0.066203 0.974988 0.390303
Si Si6 0.833036 0.008096 0.689408
Si Si7 0.784430 0.504197 0.639909
Si Si8 0.608077 0.074728 0.690355
O O1 0.127842 0.494875 0.500000
O O2 0.072524 0.713754 0.576836
O O3 0.176520 0.510213 0.588552
O O4 0.084094 0.212899 0.573569
O O5 0.451958 0.123183 0.595098
O O6 0.542931 0.157035 0.670517
O O7 0.612712 0.484235 0.412585
O O8 0.718960 0.545150 0.379813
O O9 0.645416 0.332784 0.317933
O O10 0.636625 0.832918 0.339146
O O11 0.500000 0.500000 0.945526
O O12 0.418211 0.718431 0.000000
O O13 0.104924 0.964424 0.338580
O O14 0.000000 0.000000 0.371922
O O15 0.791283 0.244708 0.673757
O O16 0.846053 0.000000 0.750000
O O17 0.801695 0.743561 0.675486
O O18 0.605027 0.000000 0.750000
#
# Coordination Sequence:
#
# PCOD8203989 Si02
#       8
#     8   4   8   8   8   8   8   8
#     4  10  21  37  57  81 114 154 189 230 282 329
#     4  10  20  38  56  80 114 144 180 226 276 342
#     4  11  23  39  57  86 113 143 189 236 279 336
#     4  10  20  37  60  82 110 146 183 228 284 339
#     4  10  21  36  56  87 118 147 189 233 275 331
#     4  10  21  38  60  83 112 153 189 230 282 327
#     4  10  22  38  57  81 114 146 190 238 277 332
#     4  11  23  37  57  82 111 145 181 224 281 337
#
# _framework density 19.548358
#
# number of rings (size 3 to 8) (size 9 to 14) (size 15 to 20)
#    0.000    1.733    1.333    2.800    0.000    5.600 
#    0.000    1.333    0.000    9.600    0.000    0.000 
#    0.000    0.000    0.000    0.000    0.000    0.000 
#
# Total GULP energy -743692.241501 kJ/mol
# GULP energy per Si atom -12394.870692 kJ/mol
# Density = 1.950387 g / cm^3
# Si number density = 19.548358 Si / 1000 Ang^3
#
#
#
# Elastic Constant Matrix: (Units=GPa)
#
#
# Indices 1 2 3 4 5 6 
#
# 1 125.2256 27.4561 67.5203 0.0000 0.0000 0.0000
# 2 27.4561 97.6816 21.6677 0.0000 0.0000 0.0000
# 3 67.5203 21.6677 110.5058 0.0000 0.0000 0.0000
# 4 0.0000 0.0000 0.0000 17.8799 0.0000 0.0000
# 5 0.0000 0.0000 0.0000 0.0000 10.0648 0.0000
# 6 0.0000 0.0000 0.0000 0.0000 0.0000 14.6285
#
#
#
# Elastic Compliance Matrix: (Units=1/GPa)
#
#
# Indices 1 2 3 4 5 6 
#
# 1 0.012224 -0.001860 -0.007104 0.000000 0.000000 0.000000
# 2 -0.001860 0.010986 -0.001018 0.000000 0.000000 0.000000
# 3 -0.007104 -0.001018 0.013590 0.000000 0.000000 0.000000
# 4 0.000000 0.000000 0.000000 0.055929 0.000000 0.000000
# 5 0.000000 0.000000 0.000000 0.000000 0.099357 0.000000
# 6 0.000000 0.000000 0.000000 0.000000 0.000000 0.068360
#
#
# Mechanical properties :
#
#
# Convention : Reuss Voigt Hill
#
# Bulk Modulus (GPa) = 59.39763 62.96681 61.18222
# Shear Modulus (GPa) = 17.48128 22.96589 20.22358
#
# Velocity S-wave (km/s) = 2.99366 3.43129 3.21992
# Velocity P-wave (km/s) = 6.51155 6.92669 6.72233
#
# Compressibility (1/GPa) = 0.01683569
#
# Stress axis : x y z
#
# Youngs Moduli (GPa) = 81.80675 91.02604 73.58571
#
# Poissons Ratio (x) = 0.16931 0.52277
# Poissons Ratio (y) = 0.15216 0.07488
# Poissons Ratio (z) = 0.58118 0.09263
#
# Static dielectric constant tensor:
#      x y z
#    x 3.730090 0.000000 0.000000 
#    y 0.000000 3.615460 0.000000 
#    z 0.000000 0.000000 3.679280 
# 
# 
# High freq. dielectric constant tensor:
#      x y z
#    x 1.763980 0.000000 0.000000 
#    y 0.000000 1.768520 0.000000 
#    z 0.000000 0.000000 1.759550 
# 
# From -- ./inp_files/23397.got.cif
#   From: 2010.03.12/outbox.cif.g09.slc.cpg/sg49_12_cif.got.tgz:23397.got - 2010.04.14 03:58:27.
