data_PCOD8203700
_publ_section_title
;
Structure prediction by ZEFSAII (Michael W. Deem and Ramdas Pophale) SiO2 
 PCOD8203700
Probable space group: P C C M
;
_chemical_formula_sum "Si O2"
_cell_formula_units_Z 64
_cell_length_a 22.117986
_cell_length_b 8.932471
_cell_length_c 16.549500
_cell_angle_alpha 90.000000
_cell_angle_beta 90.000000
_cell_angle_gamma 90.000000
_cell_volume 3269.656060
_symmetry_space_group_name_H-M "P C C M"
_symmetry_group_IT_number 49
_symmetry_cell_setting 'orthorhombic'
loop_
_space_group_symop_operation_xyz
x,y,z
-x,-y,z
x,-y,1/2-z
-x,y,1/2-z
-x,-y,-z
x,y,-z
-x,y,1/2+z
x,-y,1/2+z
loop_
_atom_site_type_symbol
_atom_site_label
_atom_site_fract_x
_atom_site_fract_y
_atom_site_fract_z
Si Si1 0.266467 0.796565 0.591489
Si Si2 0.930594 0.674925 0.760715
Si Si3 0.152424 0.108745 0.325189
Si Si4 0.712225 0.090709 0.832650
Si Si5 0.385336 0.696630 0.093450
Si Si6 0.133077 0.178024 0.906382
Si Si7 0.494900 0.176801 0.842172
Si Si8 0.617889 0.643006 0.095969
O O1 0.259786 0.748251 0.500000
O O2 0.199724 0.776557 0.629365
O O3 0.316968 0.691778 0.632981
O O4 0.288808 0.968209 0.596357
O O5 0.919499 0.500000 0.750000
O O6 0.891902 0.751880 0.689120
O O7 0.913447 0.730967 0.850758
O O8 0.000000 0.719208 0.750000
O O9 0.221429 0.168054 0.333429
O O10 0.147647 0.000000 0.250000
O O11 0.129272 0.004303 0.399695
O O12 0.661823 0.215897 0.849451
O O13 0.698578 0.000000 0.750000
O O14 0.452052 0.760820 0.102101
O O15 0.391413 0.526470 0.124324
O O16 0.364462 0.705513 0.000000
O O17 0.122561 0.222189 0.000000
O O18 0.500000 0.228919 0.750000
O O19 0.431787 0.241889 0.872340
O O20 0.500000 0.000000 0.850547
O O21 0.617737 0.656769 0.000000
#
# Coordination Sequence:
#
# PCOD8203700 Si02
#       8
#     8   8   8   8   8   8   8   8
#     4   9  18  35  59  83 112 148 184 230 285 335
#     4  10  21  38  57  81 119 161 195 229 286 349
#     4   8  17  35  56  83 114 150 190 236 283 334
#     4  10  20  34  56  85 114 144 188 232 274 332
#     4  11  24  39  58  83 113 149 184 227 283 341
#     4   9  18  35  60  88 114 147 195 245 285 330
#     4  11  25  41  59  82 108 143 190 238 281 331
#     4  10  22  40  59  82 113 147 185 225 281 345
#
# _framework density 19.573924999999999
#
# number of rings (size 3 to 8) (size 9 to 14) (size 15 to 20)
#    0.000    2.250    0.000    2.625    3.500    7.750 
#    0.000    3.125    0.000    0.000    0.000    0.000 
#    0.000    0.000    0.000    0.000    0.000    0.000 
#
# Total GULP energy -793229.665628 kJ/mol
# GULP energy per Si atom -12394.213525 kJ/mol
# Density = 1.952937 g / cm^3
# Si number density = 19.573925 Si / 1000 Ang^3
#
#
#
# Elastic Constant Matrix: (Units=GPa)
#
#
# Indices 1 2 3 4 5 6 
#
# 1 137.9689 65.0128 42.2360 0.0000 0.0000 0.0000
# 2 65.0128 94.4356 36.7830 0.0000 0.0000 0.0000
# 3 42.2360 36.7830 71.1164 0.0000 0.0000 0.0000
# 4 0.0000 0.0000 0.0000 21.8135 0.0000 0.0000
# 5 0.0000 0.0000 0.0000 0.0000 28.1813 0.0000
# 6 0.0000 0.0000 0.0000 0.0000 0.0000 29.1593
#
#
#
# Elastic Compliance Matrix: (Units=1/GPa)
#
#
# Indices 1 2 3 4 5 6 
#
# 1 0.011341 -0.006492 -0.003378 0.000000 0.000000 0.000000
# 2 -0.006492 0.016977 -0.004925 0.000000 0.000000 0.000000
# 3 -0.003378 -0.004925 0.018615 0.000000 0.000000 0.000000
# 4 0.000000 0.000000 0.000000 0.045843 0.000000 0.000000
# 5 0.000000 0.000000 0.000000 0.000000 0.035484 0.000000
# 6 0.000000 0.000000 0.000000 0.000000 0.000000 0.034294
#
#
# Mechanical properties :
#
#
# Convention : Reuss Voigt Hill
#
# Bulk Modulus (GPa) = 57.65981 65.73160 61.69571
# Shear Modulus (GPa) = 25.26195 26.46342 25.86268
#
# Velocity S-wave (km/s) = 3.59638 3.68091 3.63889
# Velocity P-wave (km/s) = 6.83862 7.19163 7.01734
#
# Compressibility (1/GPa) = 0.01734310
#
# Stress axis : x y z
#
# Youngs Moduli (GPa) = 88.17455 58.90332 53.72039
#
# Poissons Ratio (x) = 0.38240 0.18145
# Poissons Ratio (y) = 0.57243 0.26459
# Poissons Ratio (z) = 0.29783 0.29011
#
# Static dielectric constant tensor:
#      x y z
#    x 3.768620 0.000000 0.000000 
#    y 0.000000 3.669410 0.000000 
#    z 0.000000 0.000000 3.650340 
# 
# 
# High freq. dielectric constant tensor:
#      x y z
#    x 1.768880 0.000000 0.000000 
#    y 0.000000 1.753180 0.000000 
#    z 0.000000 0.000000 1.755650 
# 
# From -- ./inp_files/18298.got.cif
#   From: 2010.03.12/outbox.cif.g09.slc.cpg/sg49_10_cif.got.tgz:18298.got - 2010.04.14 03:58:27.
