data_PCOD8203761
_publ_section_title
;
Structure prediction by ZEFSAII (Michael W. Deem and Ramdas Pophale) SiO2 
 PCOD8203761
Probable space group: P C C M
;
_chemical_formula_sum "Si O2"
_cell_formula_units_Z 42
_cell_length_a 25.668161
_cell_length_b 10.083990
_cell_length_c 8.726189
_cell_angle_alpha 90.000000
_cell_angle_beta 90.000000
_cell_angle_gamma 90.000000
_cell_volume 2258.664761
_symmetry_space_group_name_H-M "P C C M"
_symmetry_group_IT_number 49
_symmetry_cell_setting 'orthorhombic'
loop_
_space_group_symop_operation_xyz
x,y,z
-x,-y,z
x,-y,1/2-z
-x,y,1/2-z
-x,-y,-z
x,y,-z
-x,y,1/2+z
x,-y,1/2+z
loop_
_atom_site_type_symbol
_atom_site_label
_atom_site_fract_x
_atom_site_fract_y
_atom_site_fract_z
Si Si1 0.000000 0.500000 0.250000
Si Si2 0.950064 0.751336 0.331636
Si Si3 0.852644 0.141000 0.318828
Si Si4 0.334981 0.646327 0.679851
Si Si5 0.256979 0.143437 0.318001
Si Si6 0.450544 0.643481 0.323403
O O1 0.036894 0.404989 0.352567
O O2 0.940371 0.813939 0.500000
O O3 0.899192 0.760661 0.225245
O O4 0.000000 0.822730 0.250000
O O5 0.845225 0.132962 0.500000
O O6 0.799068 0.190873 0.243504
O O7 0.868684 0.000000 0.250000
O O8 0.328389 0.500000 0.750000
O O9 0.321376 0.639442 0.500000
O O10 0.298002 0.747235 0.766984
O O11 0.393432 0.705774 0.705422
O O12 0.255621 0.132246 0.500000
O O13 0.272015 0.000000 0.250000
O O14 0.449034 0.500000 0.250000
O O15 0.500000 0.724183 0.250000
O O16 0.462584 0.629619 0.500000
#
# Coordination Sequence:
#
# PCOD8203761 Si02
#       6
#     2   8   8   8   8   8
#     4   8  22  36  60  76 114 140 178 210 260 316
#     4  10  20  36  57  81 108 139 175 213 260 313
#     4  11  22  38  59  82 108 138 177 223 268 318
#     4  10  20  35  54  82 115 147 186 233 281 330
#     4  11  22  39  61  83 110 147 188 231 280 337
#     4   9  16  26  45  72 106 143 181 224 272 326
#
# _framework density 18.595058000000002
#
# number of rings (size 3 to 8) (size 9 to 14) (size 15 to 20)
#    0.571    1.333    0.000    7.143    0.000    2.667 
#    1.714    1.905    0.000    0.571    0.000    4.000 
#    0.000    0.000    0.000    0.000    0.000    0.000 
#
# Total GULP energy -520406.397404 kJ/mol
# GULP energy per Si atom -12390.628510 kJ/mol
# Density = 1.855273 g / cm^3
# Si number density = 18.595058 Si / 1000 Ang^3
#
#
#
# Elastic Constant Matrix: (Units=GPa)
#
#
# Indices 1 2 3 4 5 6 
#
# 1 152.1966 59.9294 74.5791 0.0000 0.0000 0.0000
# 2 59.9294 61.5182 39.0136 0.0000 0.0000 0.0000
# 3 74.5791 39.0136 176.0561 0.0000 0.0000 0.0000
# 4 0.0000 0.0000 0.0000 24.2078 0.0000 0.0000
# 5 0.0000 0.0000 0.0000 0.0000 35.0880 0.0000
# 6 0.0000 0.0000 0.0000 0.0000 0.0000 -34.3674
#
#
#
# Elastic Compliance Matrix: (Units=1/GPa)
#
#
# Indices 1 2 3 4 5 6 
#
# 1 0.011768 -0.009660 -0.002844 0.000000 0.000000 0.000000
# 2 -0.009660 0.026843 -0.001856 0.000000 0.000000 0.000000
# 3 -0.002844 -0.001856 0.007296 0.000000 0.000000 0.000000
# 4 0.000000 0.000000 0.000000 0.041309 0.000000 0.000000
# 5 0.000000 0.000000 0.000000 0.000000 0.028500 0.000000
# 6 0.000000 0.000000 0.000000 0.000000 0.000000 -0.029097
#
#
# Mechanical properties :
#
#
# Convention : Reuss Voigt Hill
#
# Bulk Modulus (GPa) = 58.18731 81.86834 70.02783
# Shear Modulus (GPa) = 41.29850 19.40227 30.35038
#
# Velocity S-wave (km/s) = 4.71780 3.23369 4.04440
# Velocity P-wave (km/s) = 7.81259 7.62003 7.71691
#
# Compressibility (1/GPa) = 0.01718588
#
# Stress axis : x y z
#
# Youngs Moduli (GPa) = 84.97511 37.25306 137.05670
#
# Poissons Ratio (x) = 0.35988 0.38984
# Poissons Ratio (y) = 0.82089 0.25441
# Poissons Ratio (z) = 0.24170 0.06915
#
# Static dielectric constant tensor:
#      x y z
#    x 4.080890 0.000000 0.000000 
#    y 0.000000 3.018750 0.000000 
#    z 0.000000 0.000000 3.569120 
# 
# 
# High freq. dielectric constant tensor:
#      x y z
#    x 1.738030 0.000000 0.000000 
#    y 0.000000 1.676070 0.000000 
#    z 0.000000 0.000000 1.744180 
# 
# From -- ./inp_files/6300.got.cif
#   From: 2010.03.12/outbox.cif.g09.slc.cpg/sg49_4_cif.got.tgz:6300.got - 2010.04.14 03:58:27.
