data_PCOD8203775
_publ_section_title
;
Structure prediction by ZEFSAII (Michael W. Deem and Ramdas Pophale) SiO2 
 PCOD8203775
Probable space group: P C C M
;
_chemical_formula_sum "Si O2"
_cell_formula_units_Z 58
_cell_length_a 14.403900
_cell_length_b 26.243274
_cell_length_c 8.591986
_cell_angle_alpha 90.000000
_cell_angle_beta 90.000000
_cell_angle_gamma 90.000000
_cell_volume 3247.817916
_symmetry_space_group_name_H-M "P C C M"
_symmetry_group_IT_number 49
_symmetry_cell_setting 'orthorhombic'
loop_
_space_group_symop_operation_xyz
x,y,z
-x,-y,z
x,-y,1/2-z
-x,y,1/2-z
-x,-y,-z
x,y,-z
-x,y,1/2+z
x,-y,1/2+z
loop_
_atom_site_type_symbol
_atom_site_label
_atom_site_fract_x
_atom_site_fract_y
_atom_site_fract_z
Si Si1 0.782920 0.357091 0.317390
Si Si2 0.404278 0.793421 0.683690
Si Si3 0.000000 0.000000 0.750000
Si Si4 0.598573 0.317915 0.815212
Si Si5 0.910233 0.902006 0.829108
Si Si6 0.102558 0.743500 0.683892
Si Si7 0.224498 0.166209 0.318264
Si Si8 0.901423 0.554531 0.317012
O O1 0.786258 0.367513 0.500000
O O2 0.677273 0.352615 0.261039
O O3 0.840055 0.306792 0.271990
O O4 0.823974 0.404950 0.227362
O O5 0.500000 0.816842 0.750000
O O6 0.411752 0.784681 0.500000
O O7 0.383071 0.740145 0.766508
O O8 0.320932 0.831320 0.724935
O O9 0.069499 0.037104 0.846086
O O10 0.500000 0.337121 0.750000
O O11 0.600811 0.322575 0.000000
O O12 0.820838 0.888707 0.723761
O O13 0.000000 0.875145 0.750000
O O14 0.895286 0.878668 0.000000
O O15 0.099850 0.752460 0.500000
O O16 0.152697 0.790824 0.764627
O O17 0.000000 0.736885 0.750000
O O18 0.244810 0.170280 0.500000
O O19 0.871688 0.500000 0.250000
O O20 0.910879 0.549933 0.500000
O O21 0.000000 0.572828 0.250000
#
# Coordination Sequence:
#
# PCOD8203775 Si02
#       8
#     8   8   2   8   8   8   8   8
#     4  11  22  37  57  81 110 144 186 231 279 332
#     4  11  21  36  55  78 109 145 187 232 278 330
#     4   8  22  36  62  80 112 144 198 236 284 320
#     4  11  21  35  56  81 110 145 186 229 276 330
#     4  10  20  35  55  79 110 145 185 231 276 324
#     4  11  23  36  51  73 109 148 185 224 271 329
#     4  12  23  35  53  78 110 148 188 227 275 330
#     4  11  22  38  59  83 111 144 186 232 280 332
#
# _framework density 17.858142999999998
#
# number of rings (size 3 to 8) (size 9 to 14) (size 15 to 20)
#    0.414    0.690    1.379    8.483    0.000    2.759 
#    0.000    0.000    0.000    0.414    0.000    3.379 
#    0.000    3.310    0.000    0.000    0.000    0.000 
#
# Total GULP energy -719184.317658 kJ/mol
# GULP energy per Si atom -12399.729615 kJ/mol
# Density = 1.781750 g / cm^3
# Si number density = 17.858143 Si / 1000 Ang^3
#
#
#
# Elastic Constant Matrix: (Units=GPa)
#
#
# Indices 1 2 3 4 5 6 
#
# 1 124.9215 43.8553 22.4869 0.0000 0.0000 0.0000
# 2 43.8553 73.0027 16.7894 0.0000 0.0000 0.0000
# 3 22.4869 16.7894 102.4063 0.0000 0.0000 0.0000
# 4 0.0000 0.0000 0.0000 21.5025 0.0000 0.0000
# 5 0.0000 0.0000 0.0000 0.0000 34.2489 0.0000
# 6 0.0000 0.0000 0.0000 0.0000 0.0000 948.9014
#
#
#
# Elastic Compliance Matrix: (Units=1/GPa)
#
#
# Indices 1 2 3 4 5 6 
#
# 1 0.010308 -0.005894 -0.001297 0.000000 0.000000 0.000000
# 2 -0.005894 0.017605 -0.001592 0.000000 0.000000 0.000000
# 3 -0.001297 -0.001592 0.010311 0.000000 0.000000 0.000000
# 4 0.000000 0.000000 0.000000 0.046506 0.000000 0.000000
# 5 0.000000 0.000000 0.000000 0.000000 0.029198 0.000000
# 6 0.000000 0.000000 0.000000 0.000000 0.000000 0.001054
#
#
# Mechanical properties :
#
#
# Convention : Reuss Voigt Hill
#
# Bulk Modulus (GPa) = 48.40904 51.84375 50.12639
# Shear Modulus (GPa) = 35.85940 215.41049 125.63494
#
# Velocity S-wave (km/s) = 4.48595 10.99477 8.39669
# Velocity P-wave (km/s) = 7.34834 13.79398 11.05151
#
# Compressibility (1/GPa) = 0.02065730
#
# Stress axis : x y z
#
# Youngs Moduli (GPa) = 97.01550 56.80224 96.98502
#
# Poissons Ratio (x) = 0.33478 0.12580
# Poissons Ratio (y) = 0.57180 0.15441
# Poissons Ratio (z) = 0.12584 0.09044
#
# Static dielectric constant tensor:
#      x y z
#    x 3.449570 0.000000 0.000000 
#    y 0.000000 3.100320 0.000000 
#    z 0.000000 0.000000 3.441120 
# 
# 
# High freq. dielectric constant tensor:
#      x y z
#    x 1.693910 0.000000 0.000000 
#    y 0.000000 1.661670 0.000000 
#    z 0.000000 0.000000 1.713740 
# 
# From -- ./inp_files/4290.got.cif
#   From: 2010.03.12/outbox.cif.g09.slc.cpg/sg49_3_cif.got.tgz:4290.got - 2010.04.14 03:58:27.
