data_PCOD8203415
_publ_section_title
;
Structure prediction by ZEFSAII (Michael W. Deem and Ramdas Pophale) SiO2 
 PCOD8203415
Probable space group: P C C M
;
_chemical_formula_sum "Si O2"
_cell_formula_units_Z 30
_cell_length_a 11.232853
_cell_length_b 7.250822
_cell_length_c 16.127811
_cell_angle_alpha 90.000000
_cell_angle_beta 90.000000
_cell_angle_gamma 90.000000
_cell_volume 1313.568558
_symmetry_space_group_name_H-M "P C C M"
_symmetry_group_IT_number 49
_symmetry_cell_setting 'orthorhombic'
loop_
_space_group_symop_operation_xyz
x,y,z
-x,-y,z
x,-y,1/2-z
-x,y,1/2-z
-x,-y,-z
x,y,-z
-x,y,1/2+z
x,-y,1/2+z
loop_
_atom_site_type_symbol
_atom_site_label
_atom_site_fract_x
_atom_site_fract_y
_atom_site_fract_z
Si Si1 0.000000 0.000000 0.750000
Si Si2 0.179103 0.181595 0.134113
Si Si3 0.549903 0.796481 0.834805
Si Si4 0.570738 0.303370 0.000000
Si Si5 0.200103 0.887418 0.000000
Si Si6 0.199789 0.520212 0.500000
O O1 0.079922 0.151139 0.797162
O O2 0.308373 0.196669 0.174846
O O3 0.158054 0.366782 0.080727
O O4 0.162536 0.996740 0.080643
O O5 0.500000 0.702380 0.750000
O O6 0.509783 0.687290 0.917362
O O7 0.500000 0.000000 0.842201
O O8 0.654798 0.122665 0.000000
O O9 0.343398 0.514462 0.000000
O O10 0.138579 0.683790 0.000000
#
# Coordination Sequence:
#
# PCOD8203415 Si02
#       6
#     2   8   8   4   4   4
#     4  12  28  46  64  96 140 188 244 298 318 410
#     4  11  23  43  66  91 135 179 225 287 348 393
#     4  11  20  34  65 101 134 180 218 280 362 430
#     4  10  19  39  64 104 138 160 222 280 352 444
#     4   9  20  42  70  95 128 168 225 280 344 428
#     4   9  22  42  71  98 129 172 225 278 353 429
#
# _framework density 22.838549
#
# number of rings (size 3 to 8) (size 9 to 14) (size 15 to 20)
#    0.800    0.800    2.667    3.600    0.000    4.267 
#    0.000   10.667    0.000    0.000    0.000    0.000 
#    0.000    0.000    0.000    0.000    0.000    0.000 
#
# Total GULP energy -371730.935275 kJ/mol
# GULP energy per Si atom -12391.031176 kJ/mol
# Density = 2.278657 g / cm^3
# Si number density = 22.838549 Si / 1000 Ang^3
#
#
#
# Elastic Constant Matrix: (Units=GPa)
#
#
# Indices 1 2 3 4 5 6 
#
# 1 120.1636 30.5045 68.4478 0.0000 0.0000 0.0000
# 2 30.5045 136.4002 49.2642 0.0000 0.0000 0.0000
# 3 68.4478 49.2642 179.3287 0.0000 0.0000 0.0000
# 4 0.0000 0.0000 0.0000 1.2059 0.0000 0.0000
# 5 0.0000 0.0000 0.0000 0.0000 42.4916 0.0000
# 6 0.0000 0.0000 0.0000 0.0000 0.0000 20.9171
#
#
#
# Elastic Compliance Matrix: (Units=1/GPa)
#
#
# Indices 1 2 3 4 5 6 
#
# 1 0.010762 -0.001025 -0.003826 0.000000 0.000000 0.000000
# 2 -0.001025 0.008237 -0.001872 0.000000 0.000000 0.000000
# 3 -0.003826 -0.001872 0.007551 0.000000 0.000000 0.000000
# 4 0.000000 0.000000 0.000000 0.829233 0.000000 0.000000
# 5 0.000000 0.000000 0.000000 0.000000 0.023534 0.000000
# 6 0.000000 0.000000 0.000000 0.000000 0.000000 0.047808
#
#
# Mechanical properties :
#
#
# Convention : Reuss Voigt Hill
#
# Bulk Modulus (GPa) = 76.31190 81.36949 78.84070
# Shear Modulus (GPa) = 5.29136 32.10132 18.69634
#
# Velocity S-wave (km/s) = 1.52377 3.75317 2.86428
# Velocity P-wave (km/s) = 6.04831 7.38154 6.74793
#
# Compressibility (1/GPa) = 0.01310412
#
# Stress axis : x y z
#
# Youngs Moduli (GPa) = 92.92346 121.41069 132.43559
#
# Poissons Ratio (x) = 0.12443 0.50670
# Poissons Ratio (y) = 0.09523 0.24786
# Poissons Ratio (z) = 0.35553 0.22722
#
# Static dielectric constant tensor:
#      x y z
#    x 3.980870 0.000000 0.000000 
#    y 0.000000 4.051170 0.000000 
#    z 0.000000 0.000000 4.357160 
# 
# 
# High freq. dielectric constant tensor:
#      x y z
#    x 1.896560 0.000000 0.000000 
#    y 0.000000 1.899480 0.000000 
#    z 0.000000 0.000000 1.903280 
# 
# From -- ./inp_files/16743.got.cif
#   From: 2010.03.12/outbox.cif.g09.slc.cpg/sg49_9_cif.got.tgz:16743.got - 2010.04.14 03:58:27.
