data_PCOD8203328
_publ_section_title
;
Structure prediction by ZEFSAII (Michael W. Deem and Ramdas Pophale) SiO2 
 PCOD8203328
Probable space group: P C C M
;
_chemical_formula_sum "Si O2"
_cell_formula_units_Z 48
_cell_length_a 12.042599
_cell_length_b 12.862875
_cell_length_c 16.803749
_cell_angle_alpha 90.000000
_cell_angle_beta 90.000000
_cell_angle_gamma 90.000000
_cell_volume 2602.941816
_symmetry_space_group_name_H-M "P C C M"
_symmetry_group_IT_number 49
_symmetry_cell_setting 'orthorhombic'
loop_
_space_group_symop_operation_xyz
x,y,z
-x,-y,z
x,-y,1/2-z
-x,y,1/2-z
-x,-y,-z
x,y,-z
-x,y,1/2+z
x,-y,1/2+z
loop_
_atom_site_type_symbol
_atom_site_label
_atom_site_fract_x
_atom_site_fract_y
_atom_site_fract_z
Si Si1 0.834040 0.245294 0.911429
Si Si2 0.587698 0.384688 0.406529
Si Si3 0.761697 0.309485 0.689758
Si Si4 0.653578 0.391906 0.849981
Si Si5 0.958534 0.384159 0.589609
Si Si6 0.869736 0.116611 0.233943
O O1 0.724644 0.317294 0.907337
O O2 0.834660 0.143748 0.856142
O O3 0.939202 0.312682 0.884274
O O4 0.845809 0.202394 0.000000
O O5 0.561062 0.388796 0.500000
O O6 0.671983 0.293522 0.381360
O O7 0.476199 0.362612 0.356861
O O8 0.655608 0.488469 0.379105
O O9 0.702706 0.373906 0.761431
O O10 0.864911 0.374491 0.656265
O O11 0.800987 0.194430 0.710655
O O12 0.916651 0.355210 0.500000
O O13 0.000000 0.500000 0.590496
O O14 0.000000 0.128583 0.250000
O O15 0.829203 0.000000 0.250000
#
# Coordination Sequence:
#
# PCOD8203328 Si02
#       6
#     8   8   8   8   8   8
#     4  10  19  35  58  83 110 148 187 223 273 334
#     4  11  21  36  55  82 116 151 184 225 268 319
#     4  11  21  35  56  82 108 146 188 229 276 330
#     4  10  21  35  55  81 116 151 191 221 262 320
#     4  10  20  33  51  82 120 150 177 216 274 336
#     4  10  21  40  58  79 109 142 184 241 287 327
#
# _framework density 18.440674999999999
#
# number of rings (size 3 to 8) (size 9 to 14) (size 15 to 20)
#    0.000    1.667    1.667    4.500    0.000    4.000 
#    0.000    5.000    0.000    8.000    0.000    5.833 
#    0.000    0.000    0.000    0.000    0.000    0.000 
#
# Total GULP energy -594850.286743 kJ/mol
# GULP energy per Si atom -12392.714307 kJ/mol
# Density = 1.839870 g / cm^3
# Si number density = 18.440675 Si / 1000 Ang^3
#
#
#
# Elastic Constant Matrix: (Units=GPa)
#
#
# Indices 1 2 3 4 5 6 
#
# 1 100.0247 66.0810 48.9849 0.0000 0.0000 0.0000
# 2 66.0810 90.6110 64.8177 0.0000 0.0000 0.0000
# 3 48.9849 64.8177 93.6713 0.0000 0.0000 0.0000
# 4 0.0000 0.0000 0.0000 16.9431 0.0000 0.0000
# 5 0.0000 0.0000 0.0000 0.0000 39.9744 0.0000
# 6 0.0000 0.0000 0.0000 0.0000 0.0000 22.3072
#
#
#
# Elastic Compliance Matrix: (Units=1/GPa)
#
#
# Indices 1 2 3 4 5 6 
#
# 1 0.019316 -0.013586 -0.000700 0.000000 0.000000 0.000000
# 2 -0.013586 0.031409 -0.014630 0.000000 0.000000 0.000000
# 3 -0.000700 -0.014630 0.021165 0.000000 0.000000 0.000000
# 4 0.000000 0.000000 0.000000 0.059021 0.000000 0.000000
# 5 0.000000 0.000000 0.000000 0.000000 0.025016 0.000000
# 6 0.000000 0.000000 0.000000 0.000000 0.000000 0.044828
#
#
# Mechanical properties :
#
#
# Convention : Reuss Voigt Hill
#
# Bulk Modulus (GPa) = 71.12915 71.56380 71.34647
# Shear Modulus (GPa) = 18.99168 22.80651 20.89909
#
# Velocity S-wave (km/s) = 3.21266 3.52056 3.37013
# Velocity P-wave (km/s) = 7.23997 7.44430 7.34285
#
# Compressibility (1/GPa) = 0.01405893
#
# Stress axis : x y z
#
# Youngs Moduli (GPa) = 51.77091 31.83771 47.24788
#
# Poissons Ratio (x) = 0.43254 0.03308
# Poissons Ratio (y) = 0.70336 0.69122
# Poissons Ratio (z) = 0.03624 0.46577
#
# Static dielectric constant tensor:
#      x y z
#    x 3.601470 0.000000 0.000000 
#    y 0.000000 3.052410 0.000000 
#    z 0.000000 0.000000 3.815830 
# 
# 
# High freq. dielectric constant tensor:
#      x y z
#    x 1.727880 0.000000 0.000000 
#    y 0.000000 1.675450 0.000000 
#    z 0.000000 0.000000 1.730360 
# 
# From -- ./inp_files/17070.got.cif
#   From: 2010.03.12/outbox.cif.g09.slc.cpg/sg49_9_cif.got.tgz:17070.got - 2010.04.14 03:58:27.
