data_PCOD8203216
_publ_section_title
;
Structure prediction by ZEFSAII (Michael W. Deem and Ramdas Pophale) SiO2 
 PCOD8203216
Probable space group: P C C M
;
_chemical_formula_sum "Si O2"
_cell_formula_units_Z 64
_cell_length_a 19.560943
_cell_length_b 20.470889
_cell_length_c 8.980329
_cell_angle_alpha 90.000000
_cell_angle_beta 90.000000
_cell_angle_gamma 90.000000
_cell_volume 3595.992180
_symmetry_space_group_name_H-M "P C C M"
_symmetry_group_IT_number 49
_symmetry_cell_setting 'orthorhombic'
loop_
_space_group_symop_operation_xyz
x,y,z
-x,-y,z
x,-y,1/2-z
-x,y,1/2-z
-x,-y,-z
x,y,-z
-x,y,1/2+z
x,-y,1/2+z
loop_
_atom_site_type_symbol
_atom_site_label
_atom_site_fract_x
_atom_site_fract_y
_atom_site_fract_z
Si Si1 0.933382 0.268700 0.327349
Si Si2 0.286584 0.185860 0.325312
Si Si3 0.567100 0.765428 0.327743
Si Si4 0.296726 0.564560 0.324654
Si Si5 0.214962 0.694028 0.672982
Si Si6 0.787866 0.066994 0.676495
Si Si7 0.569814 0.383740 0.822902
Si Si8 0.067623 0.880053 0.325227
O O1 0.949183 0.269371 0.500000
O O2 0.865611 0.309707 0.288309
O O3 0.921833 0.194465 0.271294
O O4 0.000000 0.300261 0.250000
O O5 0.272903 0.176133 0.500000
O O6 0.367174 0.190919 0.289607
O O7 0.250067 0.251964 0.274772
O O8 0.260029 0.124537 0.233976
O O9 0.500000 0.795471 0.250000
O O10 0.550518 0.765210 0.500000
O O11 0.581074 0.691454 0.274168
O O12 0.263912 0.500000 0.250000
O O13 0.306726 0.555057 0.500000
O O14 0.245995 0.623956 0.288707
O O15 0.369444 0.574902 0.247248
O O16 0.225653 0.713495 0.500000
O O17 0.780807 0.062934 0.500000
O O18 0.865977 0.079890 0.726410
O O19 0.762621 0.000000 0.750000
O O20 0.500000 0.410109 0.750000
O O21 0.568258 0.393103 0.000000
O O22 0.057735 0.884276 0.500000
O O23 0.000000 0.910680 0.250000
#
# Coordination Sequence:
#
# PCOD8203216 Si02
#       8
#     8   8   8   8   8   8   8   8
#     4   9  17  32  52  79 108 136 174 220 269 321
#     4  11  21  35  57  85 111 141 181 226 270 319
#     4   9  19  33  53  82 112 140 175 220 267 318
#     4  11  23  37  55  78 108 147 184 226 276 325
#     4  10  20  36  57  80 108 143 182 224 272 323
#     4  11  23  39  55  78 110 148 186 226 272 323
#     4  10  19  34  53  78 111 145 183 223 264 320
#     4   9  18  32  51  74 107 143 180 220 263 317
#
# _framework density 17.79759
#
# number of rings (size 3 to 8) (size 9 to 14) (size 15 to 20)
#    0.000    2.000    2.500    1.500    0.000    4.000 
#    0.000    2.500    0.000    0.750    0.000    5.250 
#    0.000    0.000    0.000    0.000    0.000    0.000 
#
# Total GULP energy -793718.523412 kJ/mol
# GULP energy per Si atom -12401.851928 kJ/mol
# Density = 1.775708 g / cm^3
# Si number density = 17.797590 Si / 1000 Ang^3
#
#
#
# Elastic Constant Matrix: (Units=GPa)
#
#
# Indices 1 2 3 4 5 6 
#
# 1 111.3598 52.8611 50.8510 0.0000 0.0000 0.0000
# 2 52.8611 97.1785 45.5810 0.0000 0.0000 0.0000
# 3 50.8510 45.5810 71.1727 0.0000 0.0000 0.0000
# 4 0.0000 0.0000 0.0000 26.6861 0.0000 0.0000
# 5 0.0000 0.0000 0.0000 0.0000 31.5726 0.0000
# 6 0.0000 0.0000 0.0000 0.0000 0.0000 11.2070
#
#
#
# Elastic Compliance Matrix: (Units=1/GPa)
#
#
# Indices 1 2 3 4 5 6 
#
# 1 0.014499 -0.004328 -0.007587 0.000000 0.000000 0.000000
# 2 -0.004328 0.016001 -0.007155 0.000000 0.000000 0.000000
# 3 -0.007587 -0.007155 0.024054 0.000000 0.000000 0.000000
# 4 0.000000 0.000000 0.000000 0.037473 0.000000 0.000000
# 5 0.000000 0.000000 0.000000 0.000000 0.031673 0.000000
# 6 0.000000 0.000000 0.000000 0.000000 0.000000 0.089230
#
#
# Mechanical properties :
#
#
# Convention : Reuss Voigt Hill
#
# Bulk Modulus (GPa) = 60.92947 64.25524 62.59236
# Shear Modulus (GPa) = 19.49009 22.58766 21.03888
#
# Velocity S-wave (km/s) = 3.31282 3.56637 3.44193
# Velocity P-wave (km/s) = 6.99586 7.28974 7.14431
#
# Compressibility (1/GPa) = 0.01641242
#
# Stress axis : x y z
#
# Youngs Moduli (GPa) = 68.97007 62.49753 41.57393
#
# Poissons Ratio (x) = 0.27049 0.31544
# Poissons Ratio (y) = 0.29851 0.29746
# Poissons Ratio (z) = 0.52330 0.44717
#
# Static dielectric constant tensor:
#      x y z
#    x 3.438910 0.000000 0.000000 
#    y 0.000000 3.163460 0.000000 
#    z 0.000000 0.000000 3.302340 
# 
# 
# High freq. dielectric constant tensor:
#      x y z
#    x 1.691890 0.000000 0.000000 
#    y 0.000000 1.664470 0.000000 
#    z 0.000000 0.000000 1.694810 
# 
# From -- ./inp_files/5339.got.cif
#   From: 2010.03.12/outbox.cif.g09.slc.cpg/sg49_3_cif.got.tgz:5339.got - 2010.04.14 03:58:27.
