data_PCOD8203538
_publ_section_title
;
Structure prediction by ZEFSAII (Michael W. Deem and Ramdas Pophale) SiO2 
 PCOD8203538
Probable space group: P C C M
;
_chemical_formula_sum "Si O2"
_cell_formula_units_Z 48
_cell_length_a 15.385199
_cell_length_b 19.703853
_cell_length_c 8.758038
_cell_angle_alpha 90.000000
_cell_angle_beta 90.000000
_cell_angle_gamma 90.000000
_cell_volume 2654.979072
_symmetry_space_group_name_H-M "P C C M"
_symmetry_group_IT_number 49
_symmetry_cell_setting 'orthorhombic'
loop_
_space_group_symop_operation_xyz
x,y,z
-x,-y,z
x,-y,1/2-z
-x,y,1/2-z
-x,-y,-z
x,y,-z
-x,y,1/2+z
x,-y,1/2+z
loop_
_atom_site_type_symbol
_atom_site_label
_atom_site_fract_x
_atom_site_fract_y
_atom_site_fract_z
Si Si1 0.409443 0.571607 0.820880
Si Si2 0.916607 0.169218 0.667132
Si Si3 0.914127 0.330214 0.670847
Si Si4 0.593285 0.070879 0.818809
Si Si5 0.726264 0.174739 0.682207
Si Si6 0.263457 0.319321 0.678816
O O1 0.381162 0.500000 0.750000
O O2 0.500000 0.597534 0.750000
O O3 0.335644 0.625509 0.781095
O O4 0.422081 0.562354 0.000000
O O5 0.919735 0.137544 0.500000
O O6 0.924711 0.249799 0.662260
O O7 0.822575 0.151011 0.739075
O O8 0.000000 0.136621 0.750000
O O9 0.904949 0.360154 0.500000
O O10 0.829381 0.349471 0.769053
O O11 0.000000 0.361845 0.750000
O O12 0.500000 0.089419 0.750000
O O13 0.658198 0.129934 0.772726
O O14 0.627447 0.000000 0.750000
O O15 0.586158 0.064854 0.000000
O O16 0.716141 0.167164 0.500000
O O17 0.711066 0.252687 0.726319
O O18 0.259829 0.301797 0.500000
#
# Coordination Sequence:
#
# PCOD8203538 Si02
#       6
#     8   8   8   8   8   8
#     4  10  21  36  55  75  99 132 171 211 255 308
#     4   8  15  26  43  68  99 132 166 202 244 292
#     4   9  16  27  45  70 100 135 169 207 252 302
#     4  11  22  38  58  78 102 135 172 212 256 309
#     4  10  20  34  52  78 108 138 172 213 257 301
#     4  10  20  33  50  77 107 136 171 213 258 304
#
# _framework density 18.079239000000001
#
# number of rings (size 3 to 8) (size 9 to 14) (size 15 to 20)
#    0.000    2.333    0.000    5.500    0.000    8.000 
#    0.000    1.667    0.000    1.000    0.000    7.000 
#    0.000    0.000    0.000    0.000    0.000    0.000 
#
# Total GULP energy -595048.773650 kJ/mol
# GULP energy per Si atom -12396.849451 kJ/mol
# Density = 1.803809 g / cm^3
# Si number density = 18.079239 Si / 1000 Ang^3
#
#
#
# Elastic Constant Matrix: (Units=GPa)
#
#
# Indices 1 2 3 4 5 6 
#
# 1 142.2702 64.3107 59.7281 0.0000 0.0000 0.0000
# 2 64.3107 58.7912 35.1077 0.0000 0.0000 0.0000
# 3 59.7281 35.1077 113.8471 0.0000 0.0000 0.0000
# 4 0.0000 0.0000 0.0000 16.3602 0.0000 0.0000
# 5 0.0000 0.0000 0.0000 0.0000 36.0452 0.0000
# 6 0.0000 0.0000 0.0000 0.0000 0.0000 -3.6118
#
#
#
# Elastic Compliance Matrix: (Units=1/GPa)
#
#
# Indices 1 2 3 4 5 6 
#
# 1 0.014920 -0.014275 -0.003425 0.000000 0.000000 0.000000
# 2 -0.014275 0.034507 -0.003152 0.000000 0.000000 0.000000
# 3 -0.003425 -0.003152 0.011553 0.000000 0.000000 0.000000
# 4 0.000000 0.000000 0.000000 0.061124 0.000000 0.000000
# 5 0.000000 0.000000 0.000000 0.000000 0.027743 0.000000
# 6 0.000000 0.000000 0.000000 0.000000 0.000000 -0.276870
#
#
# Mechanical properties :
#
#
# Convention : Reuss Voigt Hill
#
# Bulk Modulus (GPa) = 51.88139 70.35571 61.11855
# Shear Modulus (GPa) = -63.37513 20.14286 -21.61614
#
# Velocity S-wave (km/s) = -5.92707 3.34150 -3.46154
# Velocity P-wave (km/s) = 4.25221 7.34079 4.23119
#
# Compressibility (1/GPa) = 0.01927474
#
# Stress axis : x y z
#
# Youngs Moduli (GPa) = 67.02598 28.98002 86.55970
#
# Poissons Ratio (x) = 0.41368 0.29649
# Poissons Ratio (y) = 0.95678 0.27283
# Poissons Ratio (z) = 0.22959 0.09134
#
# Static dielectric constant tensor:
#      x y z
#    x 3.613460 0.000000 0.000000 
#    y 0.000000 2.952210 0.000000 
#    z 0.000000 0.000000 3.572260 
# 
# 
# High freq. dielectric constant tensor:
#      x y z
#    x 1.716470 0.000000 0.000000 
#    y 0.000000 1.653680 0.000000 
#    z 0.000000 0.000000 1.716390 
# 
# From -- ./inp_files/5134.got.cif
#   From: 2010.03.12/outbox.cif.g09.slc.cpg/sg49_3_cif.got.tgz:5134.got - 2010.04.14 03:58:27.
