data_PCOD8203080
_publ_section_title
;
Structure prediction by ZEFSAII (Michael W. Deem and Ramdas Pophale) SiO2 
 PCOD8203080
Probable space group: P C C M
;
_chemical_formula_sum "Si O2"
_cell_formula_units_Z 58
_cell_length_a 19.196651
_cell_length_b 19.476550
_cell_length_c 8.244388
_cell_angle_alpha 90.000000
_cell_angle_beta 90.000000
_cell_angle_gamma 90.000000
_cell_volume 3082.449158
_symmetry_space_group_name_H-M "P C C M"
_symmetry_group_IT_number 49
_symmetry_cell_setting 'orthorhombic'
loop_
_space_group_symop_operation_xyz
x,y,z
-x,-y,z
x,-y,1/2-z
-x,y,1/2-z
-x,-y,-z
x,y,-z
-x,y,1/2+z
x,-y,1/2+z
loop_
_atom_site_type_symbol
_atom_site_label
_atom_site_fract_x
_atom_site_fract_y
_atom_site_fract_z
Si Si1 0.573940 0.248356 0.812591
Si Si2 0.194492 0.576434 0.188802
Si Si3 0.391898 0.899312 0.308085
Si Si4 0.234895 0.072513 0.190676
Si Si5 0.921843 0.324523 0.308584
Si Si6 0.296891 0.316736 0.189116
Si Si7 0.500000 0.000000 0.250000
Si Si8 0.180855 0.787512 0.691979
O O1 0.500000 0.276144 0.750000
O O2 0.595469 0.181097 0.711756
O O3 0.630035 0.308618 0.782243
O O4 0.569840 0.229197 0.000000
O O5 0.184927 0.500000 0.250000
O O6 0.122947 0.615934 0.226494
O O7 0.261325 0.609974 0.276816
O O8 0.209435 0.577586 0.000000
O O9 0.406208 0.918519 0.500000
O O10 0.314122 0.917377 0.251640
O O11 0.443109 0.943604 0.186440
O O12 0.187550 0.134972 0.262564
O O13 0.204393 0.000000 0.250000
O O14 0.231412 0.074751 0.000000
O O15 0.916551 0.334606 0.500000
O O16 0.891177 0.249643 0.256127
O O17 0.000000 0.330101 0.250000
O O18 0.245250 0.257736 0.256693
O O19 0.311416 0.308724 0.000000
O O20 0.186370 0.789879 0.500000
#
# Coordination Sequence:
#
# PCOD8203080 Si02
#       8
#     8   8   8   8   8   8   2   8
#     4  12  24  36  53  77 105 141 187 238 289 342
#     4  11  22  38  60  91 124 157 191 224 265 324
#     4  11  22  34  48  68  99 138 181 228 284 347
#     4  10  19  33  49  71  99 136 179 229 283 339
#     4  10  20  36  58  86 117 153 188 229 278 331
#     4  10  19  37  60  82 110 147 188 236 284 332
#     4  12  22  32  48  70 106 144 186 224 298 364
#     4   8  16  32  54  75 103 141 181 224 279 335
#
# _framework density 18.816205
#
# number of rings (size 3 to 8) (size 9 to 14) (size 15 to 20)
#    0.000    1.655    2.759    4.345    0.000    1.379 
#    0.000    2.759    0.000    0.828    0.000    5.793 
#    0.000    0.000    0.000    0.000    0.000    0.000 
#
# Total GULP energy -718533.932159 kJ/mol
# GULP energy per Si atom -12388.516072 kJ/mol
# Density = 1.877338 g / cm^3
# Si number density = 18.816205 Si / 1000 Ang^3
#
#
#
# Elastic Constant Matrix: (Units=GPa)
#
#
# Indices 1 2 3 4 5 6 
#
# 1 101.0747 62.1836 15.1004 0.0000 0.0000 0.0000
# 2 62.1836 134.8578 12.7158 0.0000 0.0000 0.0000
# 3 15.1004 12.7158 54.3695 0.0000 0.0000 0.0000
# 4 0.0000 0.0000 0.0000 21.8502 0.0000 0.0000
# 5 0.0000 0.0000 0.0000 0.0000 17.6560 0.0000
# 6 0.0000 0.0000 0.0000 0.0000 0.0000 87.4184
#
#
#
# Elastic Compliance Matrix: (Units=1/GPa)
#
#
# Indices 1 2 3 4 5 6 
#
# 1 0.014125 -0.006282 -0.002454 0.000000 0.000000 0.000000
# 2 -0.006282 0.010376 -0.000682 0.000000 0.000000 0.000000
# 3 -0.002454 -0.000682 0.019234 0.000000 0.000000 0.000000
# 4 0.000000 0.000000 0.000000 0.045766 0.000000 0.000000
# 5 0.000000 0.000000 0.000000 0.000000 0.056638 0.000000
# 6 0.000000 0.000000 0.000000 0.000000 0.000000 0.011439
#
#
# Mechanical properties :
#
#
# Convention : Reuss Voigt Hill
#
# Bulk Modulus (GPa) = 40.16154 52.25574 46.20864
# Shear Modulus (GPa) = 27.06897 38.73838 32.90367
#
# Velocity S-wave (km/s) = 3.79700 4.54230 4.18627
# Velocity P-wave (km/s) = 6.37287 7.43921 6.92659
#
# Compressibility (1/GPa) = 0.02489944
#
# Stress axis : x y z
#
# Youngs Moduli (GPa) = 70.79677 96.37573 51.99199
#
# Poissons Ratio (x) = 0.60540 0.12758
# Poissons Ratio (y) = 0.44472 0.03546
# Poissons Ratio (z) = 0.17373 0.06573
#
# Static dielectric constant tensor:
#      x y z
#    x 3.434460 0.000000 0.000000 
#    y 0.000000 7.688580 0.000000 
#    z 0.000000 0.000000 3.328380 
# 
# 
# High freq. dielectric constant tensor:
#      x y z
#    x 1.718540 0.000000 0.000000 
#    y 0.000000 1.725230 0.000000 
#    z 0.000000 0.000000 1.719350 
# 
# From -- ./inp_files/5131.got.cif
#   From: 2010.03.12/outbox.cif.g09.slc.cpg/sg49_3_cif.got.tgz:5131.got - 2010.04.14 03:58:27.
