data_PCOD8203917
_publ_section_title
;
Structure prediction by ZEFSAII (Michael W. Deem and Ramdas Pophale) SiO2 
 PCOD8203917
Probable space group: P C C M
;
_chemical_formula_sum "Si O2"
_cell_formula_units_Z 64
_cell_length_a 8.243977
_cell_length_b 24.889880
_cell_length_c 14.215467
_cell_angle_alpha 90.000000
_cell_angle_beta 90.000000
_cell_angle_gamma 90.000000
_cell_volume 2916.894394
_symmetry_space_group_name_H-M "P C C M"
_symmetry_group_IT_number 49
_symmetry_cell_setting 'orthorhombic'
loop_
_space_group_symop_operation_xyz
x,y,z
-x,-y,z
x,-y,1/2-z
-x,y,1/2-z
-x,-y,-z
x,y,-z
-x,y,1/2+z
x,-y,1/2+z
loop_
_atom_site_type_symbol
_atom_site_label
_atom_site_fract_x
_atom_site_fract_y
_atom_site_fract_z
Si Si1 0.179074 0.877607 0.222473
Si Si2 0.385225 0.843837 0.603332
Si Si3 0.402908 0.052195 0.605494
Si Si4 0.227246 0.397426 0.602456
Si Si5 0.857669 0.626470 0.106804
Si Si6 0.289543 0.216369 0.608747
Si Si7 0.320280 0.687246 0.765128
Si Si8 0.822999 0.509703 0.140805
O O1 0.257485 0.846592 0.311985
O O2 0.269524 0.931281 0.184314
O O3 0.178739 0.834382 0.137961
O O4 0.000000 0.896163 0.250000
O O5 0.304730 0.832398 0.500000
O O6 0.467369 0.901217 0.598854
O O7 0.520403 0.798346 0.624480
O O8 0.327311 0.042834 0.500000
O O9 0.500000 0.000000 0.640778
O O10 0.251268 0.371909 0.500000
O O11 0.342077 0.367183 0.675028
O O12 0.281104 0.460207 0.598788
O O13 0.041903 0.386781 0.638360
O O14 0.780176 0.673694 0.170388
O O15 0.759204 0.569515 0.115815
O O16 0.847276 0.647268 0.000000
O O17 0.254627 0.229755 0.500000
O O18 0.232967 0.266969 0.672307
O O19 0.500000 0.709015 0.750000
O O20 0.827786 0.500000 0.250000
O O21 0.000000 0.500000 0.095402
#
# Coordination Sequence:
#
# PCOD8203917 Si02
#       8
#     8   8   8   8   8   8   8   8
#     4  11  22  36  61  98 131 159 197 259 323 360
#     4   9  19  37  60  85 117 162 211 247 288 354
#     4   9  18  36  62  88 122 174 224 255 285 343
#     4  10  20  36  59  83 109 145 191 240 294 358
#     4  10  21  37  58  84 114 148 191 243 298 364
#     4  10  22  43  65  82 108 155 210 254 297 364
#     4  12  24  38  57  82 116 151 193 244 306 365
#     4   9  15  30  57  83 106 143 190 240 288 354
#
# _framework density 21.941146
#
# number of rings (size 3 to 8) (size 9 to 14) (size 15 to 20)
#    0.000    2.000    1.250    4.500    0.000    5.500 
#    0.000    3.125    0.000    3.750    0.000    0.000 
#    0.000    0.000    0.000    0.000    0.000    0.000 
#
# Total GULP energy -793054.658328 kJ/mol
# GULP energy per Si atom -12391.479036 kJ/mol
# Density = 2.189121 g / cm^3
# Si number density = 21.941146 Si / 1000 Ang^3
#
#
#
# Elastic Constant Matrix: (Units=GPa)
#
#
# Indices 1 2 3 4 5 6 
#
# 1 49.6072 19.5026 35.8064 0.0000 0.0000 0.0000
# 2 19.5026 113.1867 47.3776 0.0000 0.0000 0.0000
# 3 35.8064 47.3776 141.9722 0.0000 0.0000 0.0000
# 4 0.0000 0.0000 0.0000 31.5183 0.0000 0.0000
# 5 0.0000 0.0000 0.0000 0.0000 24.5606 0.0000
# 6 0.0000 0.0000 0.0000 0.0000 0.0000 20.0561
#
#
#
# Elastic Compliance Matrix: (Units=1/GPa)
#
#
# Indices 1 2 3 4 5 6 
#
# 1 0.025006 -0.001940 -0.005659 0.000000 0.000000 0.000000
# 2 -0.001940 0.010420 -0.002988 0.000000 0.000000 0.000000
# 3 -0.005659 -0.002988 0.009468 0.000000 0.000000 0.000000
# 4 0.000000 0.000000 0.000000 0.031728 0.000000 0.000000
# 5 0.000000 0.000000 0.000000 0.000000 0.040716 0.000000
# 6 0.000000 0.000000 0.000000 0.000000 0.000000 0.049860
#
#
# Mechanical properties :
#
#
# Convention : Reuss Voigt Hill
#
# Bulk Modulus (GPa) = 42.15910 56.68214 49.42062
# Shear Modulus (GPa) = 25.47409 28.69898 27.08653
#
# Velocity S-wave (km/s) = 3.41107 3.62055 3.51737
# Velocity P-wave (km/s) = 5.89663 6.58541 6.25051
#
# Compressibility (1/GPa) = 0.02371967
#
# Stress axis : x y z
#
# Youngs Moduli (GPa) = 39.99060 95.97019 105.61786
#
# Poissons Ratio (x) = 0.18616 0.59773
# Poissons Ratio (y) = 0.07757 0.31559
# Poissons Ratio (z) = 0.22632 0.28676
#
# Static dielectric constant tensor:
#      x y z
#    x 3.438290 0.000000 0.000000 
#    y 0.000000 3.949460 0.000000 
#    z 0.000000 0.000000 4.355420 
# 
# 
# High freq. dielectric constant tensor:
#      x y z
#    x 1.799570 0.000000 0.000000 
#    y 0.000000 1.861880 0.000000 
#    z 0.000000 0.000000 1.886050 
# 
# From -- ./inp_files/12134.got.cif
#   From: 2010.03.12/outbox.cif.g09.slc.cpg/sg49_7_cif.got.tgz:12134.got - 2010.04.14 03:58:27.
