data_PCOD8203026
_publ_section_title
;
Structure prediction by ZEFSAII (Michael W. Deem and Ramdas Pophale) SiO2 
 PCOD8203026
Probable space group: P C C M
;
_chemical_formula_sum "Si O2"
_cell_formula_units_Z 56
_cell_length_a 18.900781
_cell_length_b 18.577824
_cell_length_c 8.702818
_cell_angle_alpha 90.000000
_cell_angle_beta 90.000000
_cell_angle_gamma 90.000000
_cell_volume 3055.867331
_symmetry_space_group_name_H-M "P C C M"
_symmetry_group_IT_number 49
_symmetry_cell_setting 'orthorhombic'
loop_
_space_group_symop_operation_xyz
x,y,z
-x,-y,z
x,-y,1/2-z
-x,y,1/2-z
-x,-y,-z
x,y,-z
-x,y,1/2+z
x,-y,1/2+z
loop_
_atom_site_type_symbol
_atom_site_label
_atom_site_fract_x
_atom_site_fract_y
_atom_site_fract_z
Si Si1 0.927301 0.806665 0.819060
Si Si2 0.650901 0.076882 0.818666
Si Si3 0.926356 0.350195 0.182520
Si Si4 0.427160 0.208710 0.821736
Si Si5 0.714015 0.284568 0.324311
Si Si6 0.789931 0.156472 0.178487
Si Si7 0.206016 0.425791 0.179114
O O1 0.910781 0.728387 0.750558
O O2 0.862150 0.858637 0.772499
O O3 0.000000 0.838393 0.750000
O O4 0.934836 0.800933 0.000000
O O5 0.594841 0.133734 0.755287
O O6 0.730573 0.099154 0.768914
O O7 0.632034 0.000000 0.750000
O O8 0.643729 0.074761 0.000000
O O9 0.865272 0.404313 0.232969
O O10 0.000000 0.380147 0.250000
O O11 0.930955 0.345057 0.000000
O O12 0.500000 0.237136 0.750000
O O13 0.368697 0.270486 0.790604
O O14 0.437895 0.193825 0.000000
O O15 0.732683 0.263061 0.500000
O O16 0.761697 0.236510 0.212622
O O17 0.731844 0.367694 0.292616
O O18 0.807353 0.149975 0.000000
O O19 0.234475 0.500000 0.250000
O O20 0.188747 0.434338 0.000000
#
# Coordination Sequence:
#
# PCOD8203026 Si02
#       7
#     8   8   8   8   8   8   8
#     4  11  20  31  49  74 103 136 176 223 272 316
#     4  10  21  36  55  82 114 147 179 214 254 310
#     4  11  21  34  51  73 102 138 177 222 271 322
#     4  10  20  36  58  85 112 142 175 214 259 310
#     4   9  19  35  55  76 104 137 175 217 262 313
#     4  10  19  32  53  78 104 136 178 220 264 312
#     4  11  22  36  53  76 104 139 179 222 271 322
#
# _framework density 18.325403000000001
#
# number of rings (size 3 to 8) (size 9 to 14) (size 15 to 20)
#    0.000    1.714    1.429    5.143    0.000    3.429 
#    0.000    2.857    0.000    0.857    0.000    6.000 
#    0.000    0.000    0.000    0.000    0.000    0.000 
#
# Total GULP energy -694541.258262 kJ/mol
# GULP energy per Si atom -12402.522469 kJ/mol
# Density = 1.828369 g / cm^3
# Si number density = 18.325403 Si / 1000 Ang^3
#
#
#
# Elastic Constant Matrix: (Units=GPa)
#
#
# Indices 1 2 3 4 5 6 
#
# 1 124.0285 35.8942 44.3054 0.0000 0.0000 0.0000
# 2 35.8942 64.5227 24.5092 0.0000 0.0000 0.0000
# 3 44.3054 24.5092 112.6673 0.0000 0.0000 0.0000
# 4 0.0000 0.0000 0.0000 24.7278 0.0000 0.0000
# 5 0.0000 0.0000 0.0000 0.0000 30.5474 0.0000
# 6 0.0000 0.0000 0.0000 0.0000 0.0000 18.5675
#
#
#
# Elastic Compliance Matrix: (Units=1/GPa)
#
#
# Indices 1 2 3 4 5 6 
#
# 1 0.010531 -0.004671 -0.003125 0.000000 0.000000 0.000000
# 2 -0.004671 0.018967 -0.002289 0.000000 0.000000 0.000000
# 3 -0.003125 -0.002289 0.010602 0.000000 0.000000 0.000000
# 4 0.000000 0.000000 0.000000 0.040440 0.000000 0.000000
# 5 0.000000 0.000000 0.000000 0.000000 0.032736 0.000000
# 6 0.000000 0.000000 0.000000 0.000000 0.000000 0.053858
#
#
# Mechanical properties :
#
#
# Convention : Reuss Voigt Hill
#
# Bulk Modulus (GPa) = 50.17714 56.73735 53.45725
# Shear Modulus (GPa) = 25.78018 27.86919 26.82468
#
# Velocity S-wave (km/s) = 3.75480 3.90397 3.83011
# Velocity P-wave (km/s) = 6.79990 7.16586 6.98528
#
# Compressibility (1/GPa) = 0.01992939
#
# Stress axis : x y z
#
# Youngs Moduli (GPa) = 94.95902 52.72440 94.31751
#
# Poissons Ratio (x) = 0.24629 0.29474
# Poissons Ratio (y) = 0.44358 0.21589
# Poissons Ratio (z) = 0.29675 0.12068
#
# Static dielectric constant tensor:
#      x y z
#    x 3.567520 0.000000 0.000000 
#    y 0.000000 3.215000 0.000000 
#    z 0.000000 0.000000 3.483220 
# 
# 
# High freq. dielectric constant tensor:
#      x y z
#    x 1.713430 0.000000 0.000000 
#    y 0.000000 1.676120 0.000000 
#    z 0.000000 0.000000 1.727920 
# 
# From -- ./inp_files/5175.got.cif
#   From: 2010.03.12/outbox.cif.g09.slc.cpg/sg49_3_cif.got.tgz:5175.got - 2010.04.14 03:58:27.
