data_PCOD8203320
_publ_section_title
;
Structure prediction by ZEFSAII (Michael W. Deem and Ramdas Pophale) SiO2 
 PCOD8203320
Probable space group: P C C M
;
_chemical_formula_sum "Si O2"
_cell_formula_units_Z 48
_cell_length_a 8.893253
_cell_length_b 29.510197
_cell_length_c 9.434356
_cell_angle_alpha 90.000000
_cell_angle_beta 90.000000
_cell_angle_gamma 90.000000
_cell_volume 2475.967936
_symmetry_space_group_name_H-M "P C C M"
_symmetry_group_IT_number 49
_symmetry_cell_setting 'orthorhombic'
loop_
_space_group_symop_operation_xyz
x,y,z
-x,-y,z
x,-y,1/2-z
-x,y,1/2-z
-x,-y,-z
x,y,-z
-x,y,1/2+z
x,-y,1/2+z
loop_
_atom_site_type_symbol
_atom_site_label
_atom_site_fract_x
_atom_site_fract_y
_atom_site_fract_z
Si Si1 0.655288 0.539514 0.664628
Si Si2 0.174724 0.047853 0.000000
Si Si3 0.850860 0.288440 0.665023
Si Si4 0.350689 0.799866 0.662061
Si Si5 0.656812 0.640660 0.666707
Si Si6 0.818204 0.052895 0.000000
Si Si7 0.177741 0.112045 0.245048
O O1 0.749753 0.500000 0.750000
O O2 0.500000 0.542408 0.750000
O O3 0.633811 0.525529 0.500000
O O4 0.725476 0.589696 0.674083
O O5 0.231941 0.077070 0.128765
O O6 0.995577 0.044925 0.000000
O O7 0.250723 0.997877 0.000000
O O8 0.883226 0.301778 0.500000
O O9 0.743124 0.245678 0.670570
O O10 0.777634 0.329419 0.751637
O O11 0.000000 0.274974 0.750000
O O12 0.500000 0.791549 0.750000
O O13 0.389637 0.812081 0.500000
O O14 0.256436 0.839851 0.733063
O O15 0.500000 0.645451 0.750000
O O16 0.635655 0.654762 0.500000
O O17 0.760593 0.084221 0.875720
O O18 0.000000 0.121233 0.250000
#
# Coordination Sequence:
#
# PCOD8203320 Si02
#       7
#     8   4   8   8   8   4   8
#     4   9  16  26  45  75 113 153 196 239 284 333
#     4   9  16  32  53  83 121 145 183 233 272 323
#     4  11  24  42  63  87 113 146 189 238 292 352
#     4  11  25  42  60  83 113 148 186 230 282 339
#     4  10  20  35  56  86 121 158 197 242 292 343
#     4   9  18  28  55  89 111 149 187 225 278 323
#     4  10  19  35  57  85 116 146 186 233 277 328
#
# _framework density 19.386358000000001
#
# number of rings (size 3 to 8) (size 9 to 14) (size 15 to 20)
#    0.000    2.000    0.833    3.500    1.167    6.667 
#    0.000    0.000    0.000    3.500    0.000    3.500 
#    0.000    0.000    0.000    0.000    0.000    0.000 
#
# Total GULP energy -594629.056986 kJ/mol
# GULP energy per Si atom -12388.105354 kJ/mol
# Density = 1.934223 g / cm^3
# Si number density = 19.386358 Si / 1000 Ang^3
#
#
#
# Elastic Constant Matrix: (Units=GPa)
#
#
# Indices 1 2 3 4 5 6 
#
# 1 62.1372 28.1158 41.1541 0.0000 0.0000 0.0000
# 2 28.1158 129.9041 68.5942 0.0000 0.0000 0.0000
# 3 41.1541 68.5942 182.2436 0.0000 0.0000 0.0000
# 4 0.0000 0.0000 0.0000 60.3302 0.0000 0.0000
# 5 0.0000 0.0000 0.0000 0.0000 23.9572 0.0000
# 6 0.0000 0.0000 0.0000 0.0000 0.0000 27.2227
#
#
#
# Elastic Compliance Matrix: (Units=1/GPa)
#
#
# Indices 1 2 3 4 5 6 
#
# 1 0.019489 -0.002364 -0.003511 0.000000 0.000000 0.000000
# 2 -0.002364 0.009894 -0.003190 0.000000 0.000000 0.000000
# 3 -0.003511 -0.003190 0.007481 0.000000 0.000000 0.000000
# 4 0.000000 0.000000 0.000000 0.016575 0.000000 0.000000
# 5 0.000000 0.000000 0.000000 0.000000 0.041741 0.000000
# 6 0.000000 0.000000 0.000000 0.000000 0.000000 0.036734
#
#
# Mechanical properties :
#
#
# Convention : Reuss Voigt Hill
#
# Bulk Modulus (GPa) = 53.38212 72.22368 62.80290
# Shear Modulus (GPa) = 31.99204 38.06342 35.02773
#
# Velocity S-wave (km/s) = 4.06672 4.43585 4.25529
# Velocity P-wave (km/s) = 7.04603 7.97317 7.52390
#
# Compressibility (1/GPa) = 0.01873286
#
# Stress axis : x y z
#
# Youngs Moduli (GPa) = 51.31230 101.06939 133.67563
#
# Poissons Ratio (x) = 0.23893 0.46935
# Poissons Ratio (y) = 0.12130 0.42645
# Poissons Ratio (z) = 0.18016 0.32243
#
# Static dielectric constant tensor:
#      x y z
#    x 3.043310 0.000000 0.000000 
#    y 0.000000 4.134650 0.000000 
#    z 0.000000 0.000000 3.841250 
# 
# 
# High freq. dielectric constant tensor:
#      x y z
#    x 1.703780 0.000000 0.000000 
#    y 0.000000 1.779340 0.000000 
#    z 0.000000 0.000000 1.779310 
# 
# From -- ./inp_files/2176.got.cif
#   From: 2010.03.12/outbox.cif.g09.slc.cpg/sg49_2_cif.got.tgz:2176.got - 2010.04.14 03:58:27.
