data_PCOD8203684
_publ_section_title
;
Structure prediction by ZEFSAII (Michael W. Deem and Ramdas Pophale) SiO2 
 PCOD8203684
Probable space group: P C C M
;
_chemical_formula_sum "Si O2"
_cell_formula_units_Z 56
_cell_length_a 7.745043
_cell_length_b 23.271140
_cell_length_c 13.936009
_cell_angle_alpha 90.000000
_cell_angle_beta 90.000000
_cell_angle_gamma 90.000000
_cell_volume 2511.770239
_symmetry_space_group_name_H-M "P C C M"
_symmetry_group_IT_number 49
_symmetry_cell_setting 'orthorhombic'
loop_
_space_group_symop_operation_xyz
x,y,z
-x,-y,z
x,-y,1/2-z
-x,y,1/2-z
-x,-y,-z
x,y,-z
-x,y,1/2+z
x,-y,1/2+z
loop_
_atom_site_type_symbol
_atom_site_label
_atom_site_fract_x
_atom_site_fract_y
_atom_site_fract_z
Si Si1 0.825531 0.833524 0.110396
Si Si2 0.071197 0.440664 0.887628
Si Si3 0.546568 0.436945 0.613561
Si Si4 0.767741 0.849188 0.606401
Si Si5 0.764836 0.356000 0.113993
Si Si6 0.312889 0.749866 0.767805
Si Si7 0.203069 0.063333 0.245117
O O1 0.771580 0.776833 0.171233
O O2 0.751806 0.893600 0.155754
O O3 0.031432 0.833489 0.115440
O O4 0.761430 0.828482 0.000000
O O5 0.260409 0.422101 0.847672
O O6 0.000000 0.500000 0.841850
O O7 0.935443 0.391842 0.862707
O O8 0.092742 0.450585 0.000000
O O9 0.500000 0.500000 0.653397
O O10 0.538534 0.437376 0.500000
O O11 0.405844 0.390577 0.649208
O O12 0.700525 0.856071 0.500000
O O13 0.655569 0.800207 0.655656
O O14 0.726521 0.908884 0.657652
O O15 0.795533 0.299811 0.179406
O O16 0.753796 0.340738 0.000000
O O17 0.500000 0.722939 0.750000
O O18 0.000000 0.055915 0.250000
O O19 0.289903 0.000000 0.250000
#
# Coordination Sequence:
#
# PCOD8203684 Si02
#       7
#     8   8   8   8   8   8   8
#     4   9  19  37  60  83 113 159 208 252 300 358
#     4   9  15  27  51  84 123 165 197 233 299 377
#     4   9  15  27  50  83 124 163 199 239 293 375
#     4   9  18  36  60  84 116 158 199 245 304 361
#     4  10  20  34  54  86 125 160 200 250 309 377
#     4  11  23  39  57  81 115 153 201 258 307 356
#     4   8  14  26  50  90 131 158 190 243 301 358
#
# _framework density 22.295034000000001
#
# number of rings (size 3 to 8) (size 9 to 14) (size 15 to 20)
#    0.000    2.714    1.429    1.714    0.000    1.714 
#    5.143    2.857    0.000    7.286    0.000    9.000 
#    0.000    1.143    0.000    0.000    0.000    0.143 
#
# Total GULP energy -693868.682946 kJ/mol
# GULP energy per Si atom -12390.512195 kJ/mol
# Density = 2.224429 g / cm^3
# Si number density = 22.295034 Si / 1000 Ang^3
#
#
#
# Elastic Constant Matrix: (Units=GPa)
#
#
# Indices 1 2 3 4 5 6 
#
# 1 99.3049 36.7534 23.8478 0.0000 0.0000 0.0000
# 2 36.7534 149.3388 62.1858 0.0000 0.0000 0.0000
# 3 23.8478 62.1858 136.6683 0.0000 0.0000 0.0000
# 4 0.0000 0.0000 0.0000 35.4438 0.0000 0.0000
# 5 0.0000 0.0000 0.0000 0.0000 16.5515 0.0000
# 6 0.0000 0.0000 0.0000 0.0000 0.0000 17.6598
#
#
#
# Elastic Compliance Matrix: (Units=1/GPa)
#
#
# Indices 1 2 3 4 5 6 
#
# 1 0.011161 -0.002388 -0.000861 0.000000 0.000000 0.000000
# 2 -0.002388 0.008773 -0.003575 0.000000 0.000000 0.000000
# 3 -0.000861 -0.003575 0.009094 0.000000 0.000000 0.000000
# 4 0.000000 0.000000 0.000000 0.028214 0.000000 0.000000
# 5 0.000000 0.000000 0.000000 0.000000 0.060418 0.000000
# 6 0.000000 0.000000 0.000000 0.000000 0.000000 0.056626
#
#
# Mechanical properties :
#
#
# Convention : Reuss Voigt Hill
#
# Bulk Modulus (GPa) = 65.02321 70.09846 67.56083
# Shear Modulus (GPa) = 25.89889 31.43267 28.66578
#
# Velocity S-wave (km/s) = 3.41199 3.75887 3.58962
# Velocity P-wave (km/s) = 6.68957 7.09566 6.89561
#
# Compressibility (1/GPa) = 0.01537913
#
# Stress axis : x y z
#
# Youngs Moduli (GPa) = 89.60066 113.99162 109.96498
#
# Poissons Ratio (x) = 0.27225 0.09465
# Poissons Ratio (y) = 0.21399 0.39311
# Poissons Ratio (z) = 0.07712 0.40751
#
# Static dielectric constant tensor:
#      x y z
#    x 3.872310 0.000000 0.000000 
#    y 0.000000 4.127700 0.000000 
#    z 0.000000 0.000000 4.039240 
# 
# 
# High freq. dielectric constant tensor:
#      x y z
#    x 1.866630 0.000000 0.000000 
#    y 0.000000 1.871660 0.000000 
#    z 0.000000 0.000000 1.876540 
# 
# From -- ./inp_files/12049.got.cif
#   From: 2010.03.12/outbox.cif.g09.slc.cpg/sg49_7_cif.got.tgz:12049.got - 2010.04.14 03:58:27.
