data_PCOD8203511
_publ_section_title
;
Structure prediction by ZEFSAII (Michael W. Deem and Ramdas Pophale) SiO2 
 PCOD8203511
Probable space group: P C C M
;
_chemical_formula_sum "Si O2"
_cell_formula_units_Z 64
_cell_length_a 18.466001
_cell_length_b 22.716420
_cell_length_c 8.688214
_cell_angle_alpha 90.000000
_cell_angle_beta 90.000000
_cell_angle_gamma 90.000000
_cell_volume 3644.544471
_symmetry_space_group_name_H-M "P C C M"
_symmetry_group_IT_number 49
_symmetry_cell_setting 'orthorhombic'
loop_
_space_group_symop_operation_xyz
x,y,z
-x,-y,z
x,-y,1/2-z
-x,y,1/2-z
-x,-y,-z
x,y,-z
-x,y,1/2+z
x,-y,1/2+z
loop_
_atom_site_type_symbol
_atom_site_label
_atom_site_fract_x
_atom_site_fract_y
_atom_site_fract_z
Si Si1 0.575740 0.936080 0.181081
Si Si2 0.876334 0.438111 0.682244
Si Si3 0.781555 0.750272 0.319181
Si Si4 0.432276 0.753093 0.168349
Si Si5 0.719405 0.442122 0.820307
Si Si6 0.685566 0.851922 0.668145
Si Si7 0.664712 0.332171 0.677606
Si Si8 0.926292 0.683891 0.319161
O O1 0.500000 0.910067 0.250000
O O2 0.648338 0.898102 0.216126
O O3 0.589950 0.000000 0.250000
O O4 0.565644 0.939949 0.000000
O O5 0.907665 0.500000 0.750000
O O6 0.884904 0.439841 0.500000
O O7 0.793223 0.430920 0.728740
O O8 0.916595 0.380792 0.746581
O O9 0.764876 0.738857 0.500000
O O10 0.761443 0.819700 0.279300
O O11 0.733352 0.708521 0.213672
O O12 0.864052 0.732244 0.280067
O O13 0.500000 0.784936 0.250000
O O14 0.367884 0.797905 0.151191
O O15 0.409850 0.699807 0.279765
O O16 0.453833 0.729400 0.000000
O O17 0.681801 0.500000 0.750000
O O18 0.665816 0.388867 0.786832
O O19 0.736282 0.448664 0.000000
O O20 0.695732 0.882317 0.500000
O O21 0.665736 0.350248 0.500000
O O22 0.932577 0.675002 0.500000
O O23 0.000000 0.711054 0.250000
#
# Coordination Sequence:
#
# PCOD8203511 Si02
#       8
#     8   8   8   8   8   8   8   8
#     4  11  21  33  50  74 107 147 183 217 250 291
#     4  11  21  34  51  72  95 125 161 202 249 305
#     4   9  19  35  53  71  97 130 166 207 251 295
#     4  10  20  33  49  71  99 129 162 202 247 291
#     4  11  20  32  49  70  93 118 152 195 242 293
#     4   9  18  33  52  74 100 134 172 211 249 288
#     4  11  20  31  50  72  94 122 157 197 244 293
#     4  11  22  36  53  73 100 133 166 206 255 309
#
# _framework density 17.560495
#
# number of rings (size 3 to 8) (size 9 to 14) (size 15 to 20)
#    0.000    1.625    1.250    7.500    0.000    4.250 
#    0.000    1.250    0.000    0.375    0.000    2.625 
#    0.000    0.500    0.000    5.750    0.000    1.750 
#
# Total GULP energy -793100.493599 kJ/mol
# GULP energy per Si atom -12392.195212 kJ/mol
# Density = 1.752053 g / cm^3
# Si number density = 17.560495 Si / 1000 Ang^3
#
#
#
# Elastic Constant Matrix: (Units=GPa)
#
#
# Indices 1 2 3 4 5 6 
#
# 1 69.1470 34.8657 34.1270 0.0000 0.0000 0.0000
# 2 34.8657 75.9180 34.5742 0.0000 0.0000 0.0000
# 3 34.1270 34.5742 124.0764 0.0000 0.0000 0.0000
# 4 0.0000 0.0000 0.0000 24.4351 0.0000 0.0000
# 5 0.0000 0.0000 0.0000 0.0000 21.2755 0.0000
# 6 0.0000 0.0000 0.0000 0.0000 0.0000 20.7839
#
#
#
# Elastic Compliance Matrix: (Units=1/GPa)
#
#
# Indices 1 2 3 4 5 6 
#
# 1 0.019976 -0.007641 -0.003365 0.000000 0.000000 0.000000
# 2 -0.007641 0.018010 -0.002917 0.000000 0.000000 0.000000
# 3 -0.003365 -0.002917 0.009798 0.000000 0.000000 0.000000
# 4 0.000000 0.000000 0.000000 0.040925 0.000000 0.000000
# 5 0.000000 0.000000 0.000000 0.000000 0.047003 0.000000
# 6 0.000000 0.000000 0.000000 0.000000 0.000000 0.048114
#
#
# Mechanical properties :
#
#
# Convention : Reuss Voigt Hill
#
# Bulk Modulus (GPa) = 50.15786 52.91945 51.53865
# Shear Modulus (GPa) = 22.90249 24.33718 23.61984
#
# Velocity S-wave (km/s) = 3.61530 3.72681 3.67148
# Velocity P-wave (km/s) = 6.78617 6.97996 6.88374
#
# Compressibility (1/GPa) = 0.01993705
#
# Stress axis : x y z
#
# Youngs Moduli (GPa) = 50.06074 55.52529 102.06341
#
# Poissons Ratio (x) = 0.42430 0.34344
# Poissons Ratio (y) = 0.38254 0.29769
# Poissons Ratio (z) = 0.16845 0.16195
#
# Static dielectric constant tensor:
#      x y z
#    x 3.314310 0.000000 0.000000 
#    y 0.000000 3.463170 0.000000 
#    z 0.000000 0.000000 3.439040 
# 
# 
# High freq. dielectric constant tensor:
#      x y z
#    x 1.651620 0.000000 0.000000 
#    y 0.000000 1.656420 0.000000 
#    z 0.000000 0.000000 1.694230 
# 
# From -- ./inp_files/5336.got.cif
#   From: 2010.03.12/outbox.cif.g09.slc.cpg/sg49_3_cif.got.tgz:5336.got - 2010.04.14 03:58:27.
