data_PCOD8203486
_publ_section_title
;
Structure prediction by ZEFSAII (Michael W. Deem and Ramdas Pophale) SiO2 
 PCOD8203486
Probable space group: P C C M
;
_chemical_formula_sum "Si O2"
_cell_formula_units_Z 64
_cell_length_a 30.839786
_cell_length_b 15.281960
_cell_length_c 8.917209
_cell_angle_alpha 90.000000
_cell_angle_beta 90.000000
_cell_angle_gamma 90.000000
_cell_volume 4202.612617
_symmetry_space_group_name_H-M "P C C M"
_symmetry_group_IT_number 49
_symmetry_cell_setting 'orthorhombic'
loop_
_space_group_symop_operation_xyz
x,y,z
-x,-y,z
x,-y,1/2-z
-x,y,1/2-z
-x,-y,-z
x,y,-z
-x,y,1/2+z
x,-y,1/2+z
loop_
_atom_site_type_symbol
_atom_site_label
_atom_site_fract_x
_atom_site_fract_y
_atom_site_fract_z
Si Si1 0.363440 0.595161 0.824113
Si Si2 0.959208 0.405637 0.824982
Si Si3 0.136049 0.593084 0.825138
Si Si4 0.792051 0.728081 0.679764
Si Si5 0.695702 0.085283 0.832160
Si Si6 0.798305 0.918141 0.336432
Si Si7 0.459721 0.406545 0.672715
Si Si8 0.299905 0.266802 0.178790
O O1 0.358973 0.500000 0.750000
O O2 0.412089 0.635352 0.805415
O O3 0.332544 0.660211 0.736152
O O4 0.351024 0.588766 0.000000
O O5 0.957997 0.500000 0.750000
O O6 0.911651 0.364415 0.792858
O O7 0.000000 0.352775 0.750000
O O8 0.968303 0.413930 0.000000
O O9 0.142948 0.500000 0.750000
O O10 0.172382 0.658995 0.764603
O O11 0.142063 0.577340 0.000000
O O12 0.784995 0.728884 0.500000
O O13 0.809027 0.823477 0.735304
O O14 0.747044 0.705597 0.759134
O O15 0.746846 0.072484 0.843938
O O16 0.684582 0.172511 0.739311
O O17 0.675405 0.000000 0.750000
O O18 0.676029 0.093201 0.000000
O O19 0.819273 0.922728 0.500000
O O20 0.819257 0.000000 0.250000
O O21 0.457668 0.500000 0.750000
O O22 0.500000 0.352929 0.750000
O O23 0.471108 0.417463 0.500000
O O24 0.298908 0.264141 0.000000
#
# Coordination Sequence:
#
# PCOD8203486 Si02
#       8
#     8   8   8   8   8   8   8   8
#     4  10  20  33  46  62  85 116 150 183 216 253
#     4   9  15  24  39  58  77  99 127 162 203 246
#     4   9  18  30  43  58  79 108 141 171 203 243
#     4   9  18  32  44  56  80 113 143 174 209 247
#     4   9  16  28  45  64  85 109 138 176 218 259
#     4   8  14  24  40  58  76  99 127 162 206 246
#     4   9  16  26  43  63  83 106 135 172 216 259
#     4  11  21  31  44  63  86 116 150 182 215 253
#
# _framework density 15.228622
#
# number of rings (size 3 to 8) (size 9 to 14) (size 15 to 20)
#    0.000    2.750    0.000    4.125    0.000    6.000 
#    0.000    1.250    0.000    0.000    0.000    0.000 
#    0.000    1.000    0.000   11.500    0.000    3.125 
#
# Total GULP energy -792877.114758 kJ/mol
# GULP energy per Si atom -12388.704918 kJ/mol
# Density = 1.519396 g / cm^3
# Si number density = 15.228622 Si / 1000 Ang^3
#
#
#
# Elastic Constant Matrix: (Units=GPa)
#
#
# Indices 1 2 3 4 5 6 
#
# 1 94.5560 55.5342 48.9815 0.0000 0.0000 0.0000
# 2 55.5342 85.5005 40.3077 0.0000 0.0000 0.0000
# 3 48.9815 40.3077 98.0302 0.0000 0.0000 0.0000
# 4 0.0000 0.0000 0.0000 22.4892 0.0000 0.0000
# 5 0.0000 0.0000 0.0000 0.0000 -302.1088 0.0000
# 6 0.0000 0.0000 0.0000 0.0000 0.0000 -0.4791
#
#
#
# Elastic Compliance Matrix: (Units=1/GPa)
#
#
# Indices 1 2 3 4 5 6 
#
# 1 0.019265 -0.009893 -0.005558 0.000000 0.000000 0.000000
# 2 -0.009893 0.019588 -0.003111 0.000000 0.000000 0.000000
# 3 -0.005558 -0.003111 0.014257 0.000000 0.000000 0.000000
# 4 0.000000 0.000000 0.000000 0.044466 0.000000 0.000000
# 5 0.000000 0.000000 0.000000 0.000000 -0.003310 0.000000
# 6 0.000000 0.000000 0.000000 0.000000 0.000000 -2.087265
#
#
# Mechanical properties :
#
#
# Convention : Reuss Voigt Hill
#
# Bulk Modulus (GPa) = 62.55388 63.08150 62.81769
# Shear Modulus (GPa) = -2.56339 -47.13552 -24.84945
#
# Velocity S-wave (km/s) = -1.29882 -5.56948 -4.04389
# Velocity P-wave (km/s) = 6.23831 0.39254 4.41987
#
# Compressibility (1/GPa) = 0.01598622
#
# Stress axis : x y z
#
# Youngs Moduli (GPa) = 51.90698 51.05144 70.13887
#
# Poissons Ratio (x) = 0.50504 0.38986
# Poissons Ratio (y) = 0.51350 0.21821
# Poissons Ratio (z) = 0.28852 0.15883
#
# Static dielectric constant tensor:
#      x y z
#    x 3.446030 0.000000 0.000000 
#    y 0.000000 2.840440 0.000000 
#    z 0.000000 0.000000 3.149240 
# 
# 
# High freq. dielectric constant tensor:
#      x y z
#    x 1.563110 0.000000 0.000000 
#    y 0.000000 1.552170 0.000000 
#    z 0.000000 0.000000 1.597870 
# 
# From -- ./inp_files/7075.got.cif
#   From: 2010.03.12/outbox.cif.g09.slc.cpg/sg49_4_cif.got.tgz:7075.got - 2010.04.14 03:58:27.
