data_PCOD8203908
_publ_section_title
;
Structure prediction by ZEFSAII (Michael W. Deem and Ramdas Pophale) SiO2 
 PCOD8203908
Probable space group: P C C M
;
_chemical_formula_sum "Si O2"
_cell_formula_units_Z 56
_cell_length_a 5.025213
_cell_length_b 31.480675
_cell_length_c 16.746531
_cell_angle_alpha 90.000000
_cell_angle_beta 90.000000
_cell_angle_gamma 90.000000
_cell_volume 2649.252593
_symmetry_space_group_name_H-M "P C C M"
_symmetry_group_IT_number 49
_symmetry_cell_setting 'orthorhombic'
loop_
_space_group_symop_operation_xyz
x,y,z
-x,-y,z
x,-y,1/2-z
-x,y,1/2-z
-x,-y,-z
x,y,-z
-x,y,1/2+z
x,-y,1/2+z
loop_
_atom_site_type_symbol
_atom_site_label
_atom_site_fract_x
_atom_site_fract_y
_atom_site_fract_z
Si Si1 0.781559 0.690850 0.407863
Si Si2 0.240061 0.527914 0.909816
Si Si3 0.753508 0.609058 0.696257
Si Si4 0.719752 0.254171 0.408113
Si Si5 0.899786 0.096887 0.591181
Si Si6 0.754723 0.175001 0.301582
Si Si7 0.615033 0.957456 0.590002
O O1 0.812632 0.677357 0.500000
O O2 0.834047 0.649902 0.354848
O O3 0.491340 0.709077 0.389029
O O4 0.992725 0.727333 0.385830
O O5 0.500000 0.500000 0.907775
O O6 0.306510 0.569926 0.861121
O O7 0.000000 0.500000 0.872519
O O8 0.164009 0.541424 0.000000
O O9 0.500000 0.619531 0.750000
O O10 0.000000 0.595851 0.750000
O O11 0.702803 0.240057 0.500000
O O12 0.650578 0.212860 0.356979
O O13 0.982447 0.109122 0.500000
O O14 0.888292 0.137936 0.646202
O O15 0.607463 0.078070 0.592441
O O16 0.116355 0.063179 0.627487
O O17 0.500000 0.159103 0.250000
O O18 0.000000 0.192594 0.250000
O O19 0.691679 0.971153 0.500000
O O20 0.500000 0.000000 0.634183
#
# Coordination Sequence:
#
# PCOD8203908 Si02
#       7
#     8   8   8   8   8   8   8
#     4  10  22  41  63  86 116 153 194 240 289 350
#     4  10  22  41  63  85 114 156 202 245 292 350
#     4  12  25  38  59  90 123 156 191 240 297 353
#     4  10  22  41  64  87 113 152 200 245 291 346
#     4  10  20  36  58  83 115 152 190 234 283 342
#     4  12  25  39  58  85 119 156 193 240 293 347
#     4   9  17  31  56  88 114 141 187 242 286 327
#
# _framework density 21.138038000000002
#
# number of rings (size 3 to 8) (size 9 to 14) (size 15 to 20)
#    0.000    1.571    0.000    4.714    0.000    6.857 
#    0.000   11.429    0.000    6.429    0.000    0.000 
#    0.000    0.000    0.000    0.000    0.000    0.000 
#
# Total GULP energy -694507.558918 kJ/mol
# GULP energy per Si atom -12401.920695 kJ/mol
# Density = 2.108993 g / cm^3
# Si number density = 21.138038 Si / 1000 Ang^3
#
#
#
# Elastic Constant Matrix: (Units=GPa)
#
#
# Indices 1 2 3 4 5 6 
#
# 1 108.1090 9.0025 25.6774 0.0000 0.0000 0.0000
# 2 9.0025 101.0748 52.9640 0.0000 0.0000 0.0000
# 3 25.6774 52.9640 73.2529 0.0000 0.0000 0.0000
# 4 0.0000 0.0000 0.0000 -25.0793 0.0000 0.0000
# 5 0.0000 0.0000 0.0000 0.0000 38.5816 0.0000
# 6 0.0000 0.0000 0.0000 0.0000 0.0000 26.6787
#
#
#
# Elastic Compliance Matrix: (Units=1/GPa)
#
#
# Indices 1 2 3 4 5 6 
#
# 1 0.010240 0.001560 -0.004717 0.000000 0.000000 0.000000
# 2 0.001560 0.016166 -0.012235 0.000000 0.000000 0.000000
# 3 -0.004717 -0.012235 0.024152 0.000000 0.000000 0.000000
# 4 0.000000 0.000000 0.000000 -0.039874 0.000000 0.000000
# 5 0.000000 0.000000 0.000000 0.000000 0.025919 0.000000
# 6 0.000000 0.000000 0.000000 0.000000 0.000000 0.037483
#
#
# Mechanical properties :
#
#
# Convention : Reuss Voigt Hill
#
# Bulk Modulus (GPa) = 50.57599 50.85828 50.71714
# Shear Modulus (GPa) = 44.85770 21.02238 32.94004
#
# Velocity S-wave (km/s) = 4.61166 3.15704 3.95185
# Velocity P-wave (km/s) = 7.23429 6.11567 6.69838
#
# Compressibility (1/GPa) = 0.01977223
#
# Stress axis : x y z
#
# Youngs Moduli (GPa) = 97.65159 61.85748 41.40522
#
# Poissons Ratio (x) = -0.09649 0.19533
# Poissons Ratio (y) = -0.15233 0.50661
# Poissons Ratio (z) = 0.46067 0.75685
#
# Static dielectric constant tensor:
#      x y z
#    x 3.839370 0.000000 0.000000 
#    y 0.000000 3.628820 0.000000 
#    z 0.000000 0.000000 3.835820 
# 
# 
# High freq. dielectric constant tensor:
#      x y z
#    x 1.846550 0.000000 0.000000 
#    y 0.000000 1.829580 0.000000 
#    z 0.000000 0.000000 1.814100 
# 
# From -- ./inp_files/10771.got.cif
#   From: 2010.03.12/outbox.cif.g09.slc.cpg/sg49_6_cif.got.tgz:10771.got - 2010.04.14 03:58:27.
