data_PCOD8203358
_publ_section_title
;
Structure prediction by ZEFSAII (Michael W. Deem and Ramdas Pophale) SiO2 
 PCOD8203358
Probable space group: P C C M
;
_chemical_formula_sum "Si O2"
_cell_formula_units_Z 58
_cell_length_a 19.049779
_cell_length_b 19.241378
_cell_length_c 8.745217
_cell_angle_alpha 90.000000
_cell_angle_beta 90.000000
_cell_angle_gamma 90.000000
_cell_volume 3205.506807
_symmetry_space_group_name_H-M "P C C M"
_symmetry_group_IT_number 49
_symmetry_cell_setting 'orthorhombic'
loop_
_space_group_symop_operation_xyz
x,y,z
-x,-y,z
x,-y,1/2-z
-x,y,1/2-z
-x,-y,-z
x,y,-z
-x,y,1/2+z
x,-y,1/2+z
loop_
_atom_site_type_symbol
_atom_site_label
_atom_site_fract_x
_atom_site_fract_y
_atom_site_fract_z
Si Si1 0.500000 0.000000 0.750000
Si Si2 0.076603 0.319765 0.680870
Si Si3 0.385387 0.894927 0.669096
Si Si4 0.756337 0.069995 0.179388
Si Si5 0.705277 0.673917 0.682328
Si Si6 0.187377 0.575456 0.317818
Si Si7 0.573712 0.258992 0.681020
Si Si8 0.813005 0.788380 0.320936
O O1 0.549962 0.051193 0.653344
O O2 0.075043 0.333813 0.500000
O O3 0.122234 0.378821 0.760472
O O4 0.110905 0.244088 0.717692
O O5 0.000000 0.320320 0.750000
O O6 0.352733 0.886538 0.500000
O O7 0.325992 0.923117 0.782326
O O8 0.410402 0.820209 0.732081
O O9 0.801320 0.134670 0.248520
O O10 0.788271 0.000000 0.250000
O O11 0.764147 0.064495 0.000000
O O12 0.704674 0.666883 0.500000
O O13 0.738641 0.604361 0.754023
O O14 0.628109 0.686470 0.746957
O O15 0.752557 0.737956 0.742603
O O16 0.175115 0.500000 0.250000
O O17 0.188568 0.573578 0.500000
O O18 0.500000 0.281825 0.750000
O O19 0.572873 0.266558 0.500000
O O20 0.801650 0.794065 0.500000
#
# Coordination Sequence:
#
# PCOD8203358 Si02
#       8
#     2   8   8   8   8   8   8   8
#     4  12  22  36  48  66 102 148 182 224 290 356
#     4  10  20  37  59  88 119 153 187 225 271 327
#     4  11  23  34  47  69  98 136 181 229 279 340
#     4  11  21  34  51  73 100 136 179 231 285 337
#     4  10  19  36  58  81 108 146 188 235 282 332
#     4  11  22  38  60  90 122 156 188 224 265 322
#     4  11  22  35  51  76 105 140 186 237 287 339
#     4   8  17  33  54  76 105 142 181 224 278 332
#
# _framework density 18.093862000000001
#
# number of rings (size 3 to 8) (size 9 to 14) (size 15 to 20)
#    0.000    1.655    2.759    3.931    0.000    1.379 
#    0.000    3.448    0.000    0.828    0.000    5.793 
#    0.000    0.000    0.000    0.000    0.000    0.000 
#
# Total GULP energy -719085.013661 kJ/mol
# GULP energy per Si atom -12398.017477 kJ/mol
# Density = 1.805268 g / cm^3
# Si number density = 18.093862 Si / 1000 Ang^3
#
#
#
# Elastic Constant Matrix: (Units=GPa)
#
#
# Indices 1 2 3 4 5 6 
#
# 1 110.3091 60.1905 42.0268 0.0000 0.0000 0.0000
# 2 60.1905 114.4042 44.5402 0.0000 0.0000 0.0000
# 3 42.0268 44.5402 104.4626 0.0000 0.0000 0.0000
# 4 0.0000 0.0000 0.0000 26.0841 0.0000 0.0000
# 5 0.0000 0.0000 0.0000 0.0000 24.3265 0.0000
# 6 0.0000 0.0000 0.0000 0.0000 0.0000 25.1434
#
#
#
# Elastic Compliance Matrix: (Units=1/GPa)
#
#
# Indices 1 2 3 4 5 6 
#
# 1 0.013392 -0.005933 -0.002858 0.000000 0.000000 0.000000
# 2 -0.005933 0.013109 -0.003203 0.000000 0.000000 0.000000
# 3 -0.002858 -0.003203 0.012088 0.000000 0.000000 0.000000
# 4 0.000000 0.000000 0.000000 0.038338 0.000000 0.000000
# 5 0.000000 0.000000 0.000000 0.000000 0.041107 0.000000
# 6 0.000000 0.000000 0.000000 0.000000 0.000000 0.039772
#
#
# Mechanical properties :
#
#
# Convention : Reuss Voigt Hill
#
# Bulk Modulus (GPa) = 68.48372 69.18789 68.83580
# Shear Modulus (GPa) = 26.78666 27.27202 27.02934
#
# Velocity S-wave (km/s) = 3.85181 3.88655 3.86922
# Velocity P-wave (km/s) = 7.59692 7.64602 7.62151
#
# Compressibility (1/GPa) = 0.01460201
#
# Stress axis : x y z
#
# Youngs Moduli (GPa) = 74.67351 76.28232 82.72607
#
# Poissons Ratio (x) = 0.45258 0.23643
# Poissons Ratio (y) = 0.44303 0.26493
# Poissons Ratio (z) = 0.21342 0.24430
#
# Static dielectric constant tensor:
#      x y z
#    x 3.232630 0.000000 0.000000 
#    y 0.000000 3.578330 0.000000 
#    z 0.000000 0.000000 3.273470 
# 
# 
# High freq. dielectric constant tensor:
#      x y z
#    x 1.684120 0.000000 0.000000 
#    y 0.000000 1.696830 0.000000 
#    z 0.000000 0.000000 1.703260 
# 
# From -- ./inp_files/5065.got.cif
#   From: 2010.03.12/outbox.cif.g09.slc.cpg/sg49_3_cif.got.tgz:5065.got - 2010.04.14 03:58:27.
