data_PCOD8203630
_publ_section_title
;
Structure prediction by ZEFSAII (Michael W. Deem and Ramdas Pophale) SiO2 
 PCOD8203630
Probable space group: P C C M
;
_chemical_formula_sum "Si O2"
_cell_formula_units_Z 58
_cell_length_a 23.131090
_cell_length_b 14.946027
_cell_length_c 9.146164
_cell_angle_alpha 90.000000
_cell_angle_beta 90.000000
_cell_angle_gamma 90.000000
_cell_volume 3161.992572
_symmetry_space_group_name_H-M "P C C M"
_symmetry_group_IT_number 49
_symmetry_cell_setting 'orthorhombic'
loop_
_space_group_symop_operation_xyz
x,y,z
-x,-y,z
x,-y,1/2-z
-x,y,1/2-z
-x,-y,-z
x,y,-z
-x,y,1/2+z
x,-y,1/2+z
loop_
_atom_site_type_symbol
_atom_site_label
_atom_site_fract_x
_atom_site_fract_y
_atom_site_fract_z
Si Si1 0.721045 0.909252 0.169934
Si Si2 0.763368 0.411634 0.171576
Si Si3 0.675434 0.260551 0.826511
Si Si4 0.500000 0.500000 0.250000
Si Si5 0.144020 0.091510 0.171081
Si Si6 0.058646 0.222108 0.326932
Si Si7 0.552395 0.326955 0.838931
Si Si8 0.105064 0.413183 0.668975
O O1 0.683467 0.831746 0.242433
O O2 0.788557 0.889205 0.193285
O O3 0.703052 0.000000 0.250000
O O4 0.705482 0.917567 0.000000
O O5 0.739261 0.500000 0.250000
O O6 0.725947 0.327465 0.223689
O O7 0.829346 0.393255 0.219840
O O8 0.757051 0.426743 0.000000
O O9 0.614820 0.303147 0.772688
O O10 0.677510 0.244154 0.000000
O O11 0.457788 0.564987 0.156078
O O12 0.111514 0.171325 0.252237
O O13 0.125441 0.000000 0.250000
O O14 0.127262 0.086498 0.000000
O O15 0.057273 0.201802 0.500000
O O16 0.066326 0.327273 0.294887
O O17 0.000000 0.189270 0.250000
O O18 0.500000 0.280305 0.750000
O O19 0.549374 0.286869 0.000000
O O20 0.079288 0.500000 0.750000
O O21 0.103790 0.436834 0.500000
#
# Coordination Sequence:
#
# PCOD8203630 Si02
#       8
#     8   8   8   2   8   8   8   8
#     4  10  21  37  59  86 111 141 176 218 269 322
#     4   9  18  31  49  74 105 138 173 215 266 318
#     4  10  20  34  52  79 112 145 182 226 272 321
#     4   8  18  32  50  72 108 148 198 228 272 312
#     4  10  21  38  60  85 112 140 174 213 263 324
#     4  11  23  38  56  79 106 139 179 222 270 317
#     4   9  19  32  50  74 105 146 187 227 268 311
#     4   9  19  35  53  73 100 137 176 218 266 317
#
# _framework density 18.342863999999999
#
# number of rings (size 3 to 8) (size 9 to 14) (size 15 to 20)
#    0.414    1.931    0.000    2.276    0.966    5.517 
#    0.000    5.517    0.000    0.414    0.000    2.897 
#    0.000    0.000    0.000    0.000    0.000    0.000 
#
# Total GULP energy -719103.956809 kJ/mol
# GULP energy per Si atom -12398.344083 kJ/mol
# Density = 1.830111 g / cm^3
# Si number density = 18.342864 Si / 1000 Ang^3
#
#
#
# Elastic Constant Matrix: (Units=GPa)
#
#
# Indices 1 2 3 4 5 6 
#
# 1 66.3168 37.6421 34.7271 0.0000 0.0000 0.0000
# 2 37.6421 104.2069 48.2322 0.0000 0.0000 0.0000
# 3 34.7271 48.2322 82.4288 0.0000 0.0000 0.0000
# 4 0.0000 0.0000 0.0000 35.8733 0.0000 0.0000
# 5 0.0000 0.0000 0.0000 0.0000 16.7729 0.0000
# 6 0.0000 0.0000 0.0000 0.0000 0.0000 23.7523
#
#
#
# Elastic Compliance Matrix: (Units=1/GPa)
#
#
# Indices 1 2 3 4 5 6 
#
# 1 0.020948 -0.004775 -0.006031 0.000000 0.000000 0.000000
# 2 -0.004775 0.014249 -0.006326 0.000000 0.000000 0.000000
# 3 -0.006031 -0.006326 0.018374 0.000000 0.000000 0.000000
# 4 0.000000 0.000000 0.000000 0.027876 0.000000 0.000000
# 5 0.000000 0.000000 0.000000 0.000000 0.059620 0.000000
# 6 0.000000 0.000000 0.000000 0.000000 0.000000 0.042101
#
#
# Mechanical properties :
#
#
# Convention : Reuss Voigt Hill
#
# Bulk Modulus (GPa) = 51.79603 54.90614 53.35109
# Shear Modulus (GPa) = 22.33453 24.10310 23.21882
#
# Velocity S-wave (km/s) = 3.49322 3.62889 3.56170
# Velocity P-wave (km/s) = 6.67601 6.89614 6.78696
#
# Compressibility (1/GPa) = 0.01930650
#
# Stress axis : x y z
#
# Youngs Moduli (GPa) = 47.73753 70.17925 54.42456
#
# Poissons Ratio (x) = 0.33514 0.32824
# Poissons Ratio (y) = 0.22797 0.34428
# Poissons Ratio (z) = 0.28791 0.44395
#
# Static dielectric constant tensor:
#      x y z
#    x 3.314410 0.000000 0.000000 
#    y 0.000000 3.279720 0.000000 
#    z 0.000000 0.000000 3.339450 
# 
# 
# High freq. dielectric constant tensor:
#      x y z
#    x 1.701720 0.000000 0.000000 
#    y 0.000000 1.704390 0.000000 
#    z 0.000000 0.000000 1.712960 
# 
# From -- ./inp_files/4272.got.cif
#   From: 2010.03.12/outbox.cif.g09.slc.cpg/sg49_3_cif.got.tgz:4272.got - 2010.04.14 03:58:27.
