data_PCOD8203651
_publ_section_title
;
Structure prediction by ZEFSAII (Michael W. Deem and Ramdas Pophale) SiO2 
 PCOD8203651
Probable space group: P C C M
;
_chemical_formula_sum "Si O2"
_cell_formula_units_Z 48
_cell_length_a 9.181844
_cell_length_b 30.817953
_cell_length_c 8.702154
_cell_angle_alpha 90.000000
_cell_angle_beta 90.000000
_cell_angle_gamma 90.000000
_cell_volume 2462.410549
_symmetry_space_group_name_H-M "P C C M"
_symmetry_group_IT_number 49
_symmetry_cell_setting 'orthorhombic'
loop_
_space_group_symop_operation_xyz
x,y,z
-x,-y,z
x,-y,1/2-z
-x,y,1/2-z
-x,-y,-z
x,y,-z
-x,y,1/2+z
x,-y,1/2+z
loop_
_atom_site_type_symbol
_atom_site_label
_atom_site_fract_x
_atom_site_fract_y
_atom_site_fract_z
Si Si1 0.158577 0.213533 0.682021
Si Si2 0.659991 0.137375 0.320020
Si Si3 0.157454 0.378796 0.682530
Si Si4 0.658175 0.041403 0.322421
Si Si5 0.653134 0.547135 0.816841
Si Si6 0.341422 0.295514 0.680712
O O1 0.147842 0.212828 0.500000
O O2 0.227207 0.168962 0.739540
O O3 0.255863 0.253493 0.742415
O O4 0.000000 0.219683 0.750000
O O5 0.500000 0.143405 0.250000
O O6 0.648962 0.147694 0.500000
O O7 0.726242 0.088946 0.290819
O O8 0.150903 0.385097 0.500000
O O9 0.218277 0.421821 0.762349
O O10 0.257533 0.338621 0.732332
O O11 0.000000 0.369049 0.750000
O O12 0.500000 0.042437 0.250000
O O13 0.644039 0.032097 0.500000
O O14 0.746380 0.000000 0.250000
O O15 0.688213 0.500000 0.750000
O O16 0.500000 0.564577 0.750000
O O17 0.644308 0.545189 0.000000
O O18 0.500000 0.296181 0.750000
O O19 0.356270 0.293271 0.500000
#
# Coordination Sequence:
#
# PCOD8203651 Si02
#       6
#     8   8   8   8   8   8
#     4  11  23  39  58  82 111 147 186 229 279 334
#     4  10  20  34  53  80 111 145 184 229 276 329
#     4  11  23  40  60  87 120 155 193 236 285 338
#     4   9  16  26  44  71 104 138 176 221 272 322
#     4  11  22  39  62  89 119 155 197 242 288 338
#     4  10  23  40  61  87 115 147 187 231 279 332
#
# _framework density 19.493092999999998
#
# number of rings (size 3 to 8) (size 9 to 14) (size 15 to 20)
#    0.000    1.667    0.000    6.000    0.000    7.667 
#    0.000    1.667    0.000    0.500    0.000    3.500 
#    0.000    0.000    0.000    0.000    0.000    0.000 
#
# Total GULP energy -595183.483530 kJ/mol
# GULP energy per Si atom -12399.655907 kJ/mol
# Density = 1.944873 g / cm^3
# Si number density = 19.493093 Si / 1000 Ang^3
#
#
#
# Elastic Constant Matrix: (Units=GPa)
#
#
# Indices 1 2 3 4 5 6 
#
# 1 137.0345 75.6329 51.3327 0.0000 0.0000 0.0000
# 2 75.6329 143.1948 62.5601 0.0000 0.0000 0.0000
# 3 51.3327 62.5601 116.4059 0.0000 0.0000 0.0000
# 4 0.0000 0.0000 0.0000 31.1950 0.0000 0.0000
# 5 0.0000 0.0000 0.0000 0.0000 34.8485 0.0000
# 6 0.0000 0.0000 0.0000 0.0000 0.0000 12.6114
#
#
#
# Elastic Compliance Matrix: (Units=1/GPa)
#
#
# Indices 1 2 3 4 5 6 
#
# 1 0.010715 -0.004698 -0.002200 0.000000 0.000000 0.000000
# 2 -0.004698 0.011186 -0.003940 0.000000 0.000000 0.000000
# 3 -0.002200 -0.003940 0.011678 0.000000 0.000000 0.000000
# 4 0.000000 0.000000 0.000000 0.032056 0.000000 0.000000
# 5 0.000000 0.000000 0.000000 0.000000 0.028696 0.000000
# 6 0.000000 0.000000 0.000000 0.000000 0.000000 0.079293
#
#
# Mechanical properties :
#
#
# Convention : Reuss Voigt Hill
#
# Bulk Modulus (GPa) = 84.01388 86.18739 85.10063
# Shear Modulus (GPa) = 25.09177 29.53828 27.31503
#
# Velocity S-wave (km/s) = 3.59167 3.89693 3.74741
# Velocity P-wave (km/s) = 7.77129 8.03483 7.90416
#
# Compressibility (1/GPa) = 0.01190280
#
# Stress axis : x y z
#
# Youngs Moduli (GPa) = 93.33113 89.39486 85.62865
#
# Poissons Ratio (x) = 0.41998 0.18838
# Poissons Ratio (y) = 0.43848 0.33739
# Poissons Ratio (z) = 0.20533 0.35223
#
# Static dielectric constant tensor:
#      x y z
#    x 3.361570 0.000000 0.000000 
#    y 0.000000 4.334260 0.000000 
#    z 0.000000 0.000000 3.681820 
# 
# 
# High freq. dielectric constant tensor:
#      x y z
#    x 1.737440 0.000000 0.000000 
#    y 0.000000 1.784110 0.000000 
#    z 0.000000 0.000000 1.773520 
# 
# From -- ./inp_files/2054.got.cif
#   From: 2010.03.12/outbox.cif.g09.slc.cpg/sg49_2_cif.got.tgz:2054.got - 2010.04.14 03:58:27.
