data_PCOD8203326
_publ_section_title
;
Structure prediction by ZEFSAII (Michael W. Deem and Ramdas Pophale) SiO2 
 PCOD8203326
Probable space group: P C C M
;
_chemical_formula_sum "Si O2"
_cell_formula_units_Z 56
_cell_length_a 31.982310
_cell_length_b 5.085468
_cell_length_c 17.428509
_cell_angle_alpha 90.000000
_cell_angle_beta 90.000000
_cell_angle_gamma 90.000000
_cell_volume 2834.660092
_symmetry_space_group_name_H-M "P C C M"
_symmetry_group_IT_number 49
_symmetry_cell_setting 'orthorhombic'
loop_
_space_group_symop_operation_xyz
x,y,z
-x,-y,z
x,-y,1/2-z
-x,y,1/2-z
-x,-y,-z
x,y,-z
-x,y,1/2+z
x,-y,1/2+z
loop_
_atom_site_type_symbol
_atom_site_label
_atom_site_fract_x
_atom_site_fract_y
_atom_site_fract_z
Si Si1 0.304816 0.755619 0.800409
Si Si2 0.526065 0.750431 0.590270
Si Si3 0.088134 0.944818 0.590221
Si Si4 0.181123 0.116961 0.087540
Si Si5 0.601241 0.241116 0.800636
Si Si6 0.766671 0.399610 0.912453
Si Si7 0.049129 0.455894 0.663451
O O1 0.306289 0.500000 0.750000
O O2 0.351617 0.816896 0.830583
O O3 0.275397 0.692400 0.871628
O O4 0.287674 0.000000 0.750000
O O5 0.500000 0.500000 0.617533
O O6 0.532942 0.757664 0.500000
O O7 0.572047 0.736517 0.625613
O O8 0.500000 0.000000 0.619483
O O9 0.087916 0.015506 0.500000
O O10 0.135171 0.913295 0.624000
O O11 0.067476 0.663559 0.603648
O O12 0.062549 0.165425 0.636598
O O13 0.211001 0.342122 0.125549
O O14 0.200659 0.832752 0.095161
O O15 0.175435 0.208843 0.000000
O O16 0.598844 0.500000 0.750000
O O17 0.584983 0.000000 0.750000
O O18 0.753870 0.457985 0.000000
O O19 0.065954 0.500000 0.750000
O O20 0.000000 0.500000 0.661527
#
# Coordination Sequence:
#
# PCOD8203326 Si02
#       7
#     8   8   8   8   8   8   8
#     4  10  21  37  54  78 112 142 176 227 277 314
#     4  10  21  36  54  79 110 140 175 225 276 320
#     4  11  22  39  63  87 113 148 192 238 278 328
#     4   9  19  35  56  83 112 140 176 226 275 317
#     4  10  21  36  55  78 106 143 182 221 268 325
#     4  10  19  35  58  80 105 143 184 216 263 331
#     4  11  24  41  59  83 119 155 185 229 288 339
#
# _framework density 19.755452999999999
#
# number of rings (size 3 to 8) (size 9 to 14) (size 15 to 20)
#    0.000    1.857    0.000    3.857    0.000    7.429 
#    0.000    7.143    0.000   10.286    0.000    0.000 
#    0.000    0.000    0.000    0.000    0.000    0.000 
#
# Total GULP energy -694377.032768 kJ/mol
# GULP energy per Si atom -12399.589871 kJ/mol
# Density = 1.971049 g / cm^3
# Si number density = 19.755453 Si / 1000 Ang^3
#
#
#
# Elastic Constant Matrix: (Units=GPa)
#
#
# Indices 1 2 3 4 5 6 
#
# 1 116.5206 25.9610 45.9719 0.0000 0.0000 0.0000
# 2 25.9610 112.7367 19.0679 0.0000 0.0000 0.0000
# 3 45.9719 19.0679 58.0346 0.0000 0.0000 0.0000
# 4 0.0000 0.0000 0.0000 12.2269 0.0000 0.0000
# 5 0.0000 0.0000 0.0000 0.0000 47.8621 0.0000
# 6 0.0000 0.0000 0.0000 0.0000 0.0000 34.3643
#
#
#
# Elastic Compliance Matrix: (Units=1/GPa)
#
#
# Indices 1 2 3 4 5 6 
#
# 1 0.012659 -0.001291 -0.009603 0.000000 0.000000 0.000000
# 2 -0.001291 0.009524 -0.002107 0.000000 0.000000 0.000000
# 3 -0.009603 -0.002107 0.025531 0.000000 0.000000 0.000000
# 4 0.000000 0.000000 0.000000 0.081787 0.000000 0.000000
# 5 0.000000 0.000000 0.000000 0.000000 0.020893 0.000000
# 6 0.000000 0.000000 0.000000 0.000000 0.000000 0.029100
#
#
# Mechanical properties :
#
#
# Convention : Reuss Voigt Hill
#
# Bulk Modulus (GPa) = 46.05891 52.14370 49.10130
# Shear Modulus (GPa) = 23.50377 31.97674 27.74025
#
# Velocity S-wave (km/s) = 3.45300 4.02758 3.75131
# Velocity P-wave (km/s) = 6.26600 6.93401 6.60845
#
# Compressibility (1/GPa) = 0.02171133
#
# Stress axis : x y z
#
# Youngs Moduli (GPa) = 78.99725 105.00038 39.16876
#
# Poissons Ratio (x) = 0.13553 0.37615
# Poissons Ratio (y) = 0.10197 0.08252
# Poissons Ratio (z) = 0.75864 0.22120
#
# Static dielectric constant tensor:
#      x y z
#    x 3.835150 0.000000 0.000000 
#    y 0.000000 3.786390 0.000000 
#    z 0.000000 0.000000 3.387620 
# 
# 
# High freq. dielectric constant tensor:
#      x y z
#    x 1.779730 0.000000 0.000000 
#    y 0.000000 1.792500 0.000000 
#    z 0.000000 0.000000 1.746400 
# 
# From -- ./inp_files/14620.got.cif
#   From: 2010.03.12/outbox.cif.g09.slc.cpg/sg49_8_cif.got.tgz:14620.got - 2010.04.14 03:58:27.
