data_PCOD8203972
_publ_section_title
;
Structure prediction by ZEFSAII (Michael W. Deem and Ramdas Pophale) SiO2 
 PCOD8203972
Probable space group: P C C M
;
_chemical_formula_sum "Si O2"
_cell_formula_units_Z 48
_cell_length_a 9.440960
_cell_length_b 30.239772
_cell_length_c 8.557693
_cell_angle_alpha 90.000000
_cell_angle_beta 90.000000
_cell_angle_gamma 90.000000
_cell_volume 2443.156979
_symmetry_space_group_name_H-M "P C C M"
_symmetry_group_IT_number 49
_symmetry_cell_setting 'orthorhombic'
loop_
_space_group_symop_operation_xyz
x,y,z
-x,-y,z
x,-y,1/2-z
-x,y,1/2-z
-x,-y,-z
x,y,-z
-x,y,1/2+z
x,-y,1/2+z
loop_
_atom_site_type_symbol
_atom_site_label
_atom_site_fract_x
_atom_site_fract_y
_atom_site_fract_z
Si Si1 0.149618 0.451398 0.314598
Si Si2 0.343546 0.622908 0.684913
Si Si3 0.157137 0.701427 0.185090
Si Si4 0.352113 0.780876 0.817237
Si Si5 0.843797 0.044886 0.684294
Si Si6 0.650261 0.119525 0.814835
O O1 0.178702 0.500000 0.250000
O O2 0.142081 0.452466 0.500000
O O3 0.278486 0.421238 0.258849
O O4 0.000000 0.432720 0.250000
O O5 0.500000 0.630442 0.750000
O O6 0.348991 0.617980 0.500000
O O7 0.247295 0.663968 0.731662
O O8 0.224766 0.748611 0.231757
O O9 0.000000 0.700418 0.250000
O O10 0.157709 0.693233 0.000000
O O11 0.500000 0.762871 0.750000
O O12 0.317943 0.830368 0.757216
O O13 0.372667 0.781594 0.000000
O O14 0.846136 0.042438 0.500000
O O15 0.766395 0.088647 0.739339
O O16 0.000000 0.048087 0.750000
O O17 0.770272 0.000000 0.750000
O O18 0.500000 0.103658 0.750000
O O19 0.653888 0.115112 0.000000
#
# Coordination Sequence:
#
# PCOD8203972 Si02
#       6
#     8   8   8   8   8   8
#     4  11  22  40  64  92 123 159 198 242 291 345
#     4  12  25  42  62  88 119 156 197 243 293 347
#     4  11  23  40  60  87 118 154 195 240 288 341
#     4   9  20  37  59  84 115 150 189 233 285 341
#     4  11  22  38  58  82 111 148 188 234 285 340
#     4  10  20  37  58  85 116 150 189 234 283 339
#
# _framework density 19.646711
#
# number of rings (size 3 to 8) (size 9 to 14) (size 15 to 20)
#    0.000    1.333    0.000    7.500    0.000    4.667 
#    0.000    5.000    0.000    0.000    0.000    0.000 
#    0.000    0.000    0.000    0.000    0.000    0.000 
#
# Total GULP energy -595367.883052 kJ/mol
# GULP energy per Si atom -12403.497564 kJ/mol
# Density = 1.960199 g / cm^3
# Si number density = 19.646711 Si / 1000 Ang^3
#
#
#
# Elastic Constant Matrix: (Units=GPa)
#
#
# Indices 1 2 3 4 5 6 
#
# 1 134.6721 72.1391 50.0740 0.0000 0.0000 0.0000
# 2 72.1391 112.0444 51.3581 0.0000 0.0000 0.0000
# 3 50.0740 51.3581 146.1386 0.0000 0.0000 0.0000
# 4 0.0000 0.0000 0.0000 32.6081 0.0000 0.0000
# 5 0.0000 0.0000 0.0000 0.0000 38.4855 0.0000
# 6 0.0000 0.0000 0.0000 0.0000 0.0000 52.9794
#
#
#
# Elastic Compliance Matrix: (Units=1/GPa)
#
#
# Indices 1 2 3 4 5 6 
#
# 1 0.011646 -0.006758 -0.001616 0.000000 0.000000 0.000000
# 2 -0.006758 0.014560 -0.002801 0.000000 0.000000 0.000000
# 3 -0.001616 -0.002801 0.008381 0.000000 0.000000 0.000000
# 4 0.000000 0.000000 0.000000 0.030667 0.000000 0.000000
# 5 0.000000 0.000000 0.000000 0.000000 0.025984 0.000000
# 6 0.000000 0.000000 0.000000 0.000000 0.000000 0.018875
#
#
# Mechanical properties :
#
#
# Convention : Reuss Voigt Hill
#
# Bulk Modulus (GPa) = 81.71534 82.22196 81.96865
# Shear Modulus (GPa) = 36.61886 39.43354 38.02620
#
# Velocity S-wave (km/s) = 4.32194 4.48496 4.40420
# Velocity P-wave (km/s) = 8.16016 8.29222 8.22646
#
# Compressibility (1/GPa) = 0.01223760
#
# Stress axis : x y z
#
# Youngs Moduli (GPa) = 85.86637 68.68134 119.31889
#
# Poissons Ratio (x) = 0.46413 0.19277
# Poissons Ratio (y) = 0.58026 0.33426
# Poissons Ratio (z) = 0.13873 0.19240
#
# Static dielectric constant tensor:
#      x y z
#    x 3.660190 0.000000 0.000000 
#    y 0.000000 4.040950 0.000000 
#    z 0.000000 0.000000 3.741220 
# 
# 
# High freq. dielectric constant tensor:
#      x y z
#    x 1.766690 0.000000 0.000000 
#    y 0.000000 1.780510 0.000000 
#    z 0.000000 0.000000 1.783310 
# 
# From -- ./inp_files/2063.got.cif
#   From: 2010.03.12/outbox.cif.g09.slc.cpg/sg49_2_cif.got.tgz:2063.got - 2010.04.14 03:58:27.
