data_PCOD8203318
_publ_section_title
;
Structure prediction by ZEFSAII (Michael W. Deem and Ramdas Pophale) SiO2 
 PCOD8203318
Probable space group: P C C M
;
_chemical_formula_sum "Si O2"
_cell_formula_units_Z 64
_cell_length_a 16.896858
_cell_length_b 9.865112
_cell_length_c 18.596190
_cell_angle_alpha 90.000000
_cell_angle_beta 90.000000
_cell_angle_gamma 90.000000
_cell_volume 3099.787690
_symmetry_space_group_name_H-M "P C C M"
_symmetry_group_IT_number 49
_symmetry_cell_setting 'orthorhombic'
loop_
_space_group_symop_operation_xyz
x,y,z
-x,-y,z
x,-y,1/2-z
-x,y,1/2-z
-x,-y,-z
x,y,-z
-x,y,1/2+z
x,-y,1/2+z
loop_
_atom_site_type_symbol
_atom_site_label
_atom_site_fract_x
_atom_site_fract_y
_atom_site_fract_z
Si Si1 0.906477 0.491095 0.332863
Si Si2 0.332928 0.725722 0.922800
Si Si3 0.582809 0.352533 0.280363
Si Si4 0.182525 0.737762 0.585169
Si Si5 0.348504 0.413537 0.080679
Si Si6 0.851294 0.252262 0.920204
Si Si7 0.166326 0.984210 0.827339
Si Si8 0.661986 0.875988 0.290904
O O1 0.876614 0.500000 0.250000
O O2 0.881506 0.352861 0.372770
O O3 0.869313 0.613090 0.377008
O O4 0.000000 0.500000 0.335584
O O5 0.336084 0.570006 0.898415
O O6 0.241907 0.766514 0.928781
O O7 0.376507 0.827992 0.866982
O O8 0.374624 0.746022 0.000000
O O9 0.600388 0.500000 0.250000
O O10 0.500000 0.294723 0.250000
O O11 0.582655 0.357232 0.367215
O O12 0.655487 0.255361 0.259744
O O13 0.160826 0.754890 0.500000
O O14 0.267462 0.667448 0.592250
O O15 0.182786 0.881400 0.626253
O O16 0.379866 0.395983 0.000000
O O17 0.883603 0.120551 0.876758
O O18 0.890243 0.258365 0.000000
O O19 0.247610 0.912519 0.803332
O O20 0.120862 0.000000 0.750000
O O21 0.617196 0.000000 0.250000
#
# Coordination Sequence:
#
# PCOD8203318 Si02
#       8
#     8   8   8   8   8   8   8   8
#     4  11  24  40  59  88 124 162 203 251 307 366
#     4   9  17  32  55  86 116 147 191 244 303 357
#     4  11  23  39  58  86 122 157 204 255 308 373
#     4  11  22  38  63  94 123 156 202 259 307 358
#     4  10  19  35  60  90 119 152 198 253 310 359
#     4  10  19  35  57  83 116 155 195 241 297 362
#     4  10  20  35  56  89 121 154 198 249 309 362
#     4  10  20  36  55  84 115 153 198 242 300 359
#
# _framework density 20.646576
#
# number of rings (size 3 to 8) (size 9 to 14) (size 15 to 20)
#    0.000    1.750    2.500    3.000    0.000    3.250 
#    0.000    3.125    0.000    3.750    0.000    3.500 
#    0.000    0.000    0.000    0.000    0.000    0.000 
#
# Total GULP energy -792901.993643 kJ/mol
# GULP energy per Si atom -12389.093651 kJ/mol
# Density = 2.059958 g / cm^3
# Si number density = 20.646576 Si / 1000 Ang^3
#
#
#
# Elastic Constant Matrix: (Units=GPa)
#
#
# Indices 1 2 3 4 5 6 
#
# 1 35.7302 14.0464 28.8114 0.0000 0.0000 0.0000
# 2 14.0464 104.0037 51.5099 0.0000 0.0000 0.0000
# 3 28.8114 51.5099 191.3799 0.0000 0.0000 0.0000
# 4 0.0000 0.0000 0.0000 37.0336 0.0000 0.0000
# 5 0.0000 0.0000 0.0000 0.0000 -12.1676 0.0000
# 6 0.0000 0.0000 0.0000 0.0000 0.0000 7.1515
#
#
#
# Elastic Compliance Matrix: (Units=1/GPa)
#
#
# Indices 1 2 3 4 5 6 
#
# 1 0.032306 -0.002255 -0.004257 0.000000 0.000000 0.000000
# 2 -0.002255 0.011251 -0.002689 0.000000 0.000000 0.000000
# 3 -0.004257 -0.002689 0.006590 0.000000 0.000000 0.000000
# 4 0.000000 0.000000 0.000000 0.027002 0.000000 0.000000
# 5 0.000000 0.000000 0.000000 0.000000 -0.082186 0.000000
# 6 0.000000 0.000000 0.000000 0.000000 0.000000 0.139831
#
#
# Mechanical properties :
#
#
# Convention : Reuss Voigt Hill
#
# Bulk Modulus (GPa) = 31.49954 57.76103 44.63028
# Shear Modulus (GPa) = 30.52912 22.18659 26.35786
#
# Velocity S-wave (km/s) = 3.84950 3.28165 3.57686
# Velocity P-wave (km/s) = 5.92012 6.51120 6.22268
#
# Compressibility (1/GPa) = 0.03174650
#
# Stress axis : x y z
#
# Youngs Moduli (GPa) = 30.95360 88.87881 151.75149
#
# Poissons Ratio (x) = 0.20042 0.64595
# Poissons Ratio (y) = 0.06980 0.40803
# Poissons Ratio (z) = 0.13176 0.23898
#
# Static dielectric constant tensor:
#      x y z
#    x 3.024730 0.000000 0.000000 
#    y 0.000000 4.104630 0.000000 
#    z 0.000000 0.000000 4.907380 
# 
# 
# High freq. dielectric constant tensor:
#      x y z
#    x 1.750680 0.000000 0.000000 
#    y 0.000000 1.815120 0.000000 
#    z 0.000000 0.000000 1.841220 
# 
# From -- ./inp_files/21043.got.cif
#   From: 2010.03.12/outbox.cif.g09.slc.cpg/sg49_11_cif.got.tgz:21043.got - 2010.04.14 03:58:27.
