data_PCOD8203992
_publ_section_title
;
Structure prediction by ZEFSAII (Michael W. Deem and Ramdas Pophale) SiO2 
 PCOD8203992
Probable space group: P C C M
;
_chemical_formula_sum "Si O2"
_cell_formula_units_Z 58
_cell_length_a 19.121940
_cell_length_b 18.877219
_cell_length_c 8.727196
_cell_angle_alpha 90.000000
_cell_angle_beta 90.000000
_cell_angle_gamma 90.000000
_cell_volume 3150.247641
_symmetry_space_group_name_H-M "P C C M"
_symmetry_group_IT_number 49
_symmetry_cell_setting 'orthorhombic'
loop_
_space_group_symop_operation_xyz
x,y,z
-x,-y,z
x,-y,1/2-z
-x,y,1/2-z
-x,-y,-z
x,y,-z
-x,y,1/2+z
x,-y,1/2+z
loop_
_atom_site_type_symbol
_atom_site_label
_atom_site_fract_x
_atom_site_fract_y
_atom_site_fract_z
Si Si1 0.108395 0.887157 0.329719
Si Si2 0.252989 0.928953 0.820457
Si Si3 0.576234 0.682164 0.181333
Si Si4 0.315643 0.200425 0.173235
Si Si5 0.000000 0.000000 0.750000
Si Si6 0.315795 0.422558 0.318574
Si Si7 0.072344 0.741435 0.818796
Si Si8 0.794154 0.678502 0.175737
O O1 0.123733 0.857375 0.500000
O O2 0.178862 0.918051 0.260088
O O3 0.082031 0.823521 0.224138
O O4 0.050398 0.948838 0.348060
O O5 0.307210 0.865669 0.786577
O O6 0.286612 0.000000 0.750000
O O7 0.241159 0.936504 0.000000
O O8 0.500000 0.688739 0.250000
O O9 0.617089 0.754221 0.224055
O O10 0.615049 0.615443 0.254909
O O11 0.574380 0.670685 0.000000
O O12 0.246345 0.247517 0.187674
O O13 0.324567 0.172749 0.000000
O O14 0.313142 0.500000 0.250000
O O15 0.320165 0.425788 0.500000
O O16 0.245855 0.382013 0.268675
O O17 0.130746 0.689797 0.750491
O O18 0.000000 0.713208 0.750000
O O19 0.072131 0.734992 0.000000
O O20 0.800939 0.653925 0.000000
#
# Coordination Sequence:
#
# PCOD8203992 Si02
#       8
#     8   8   8   8   2   8   8   8
#     4  12  24  37  52  72 103 141 187 238 290 350
#     4  12  24  36  54  77 106 142 189 239 293 348
#     4  10  21  38  61  91 125 159 194 232 281 336
#     4   9  19  36  58  81 112 148 189 236 287 341
#     4  12  26  36  56  70 106 148 194 228 302 368
#     4  11  22  38  61  91 126 161 198 234 278 335
#     4  12  24  37  55  79 108 145 191 241 294 346
#     4  10  20  37  60  84 114 150 192 242 291 342
#
# _framework density 18.411251
#
# number of rings (size 3 to 8) (size 9 to 14) (size 15 to 20)
#    0.000    1.103    2.759    6.000    0.000    4.138 
#    0.000    1.379    0.000    0.828    0.000    5.793 
#    0.000    0.000    0.000    0.000    0.000    0.000 
#
# Total GULP energy -719377.390014 kJ/mol
# GULP energy per Si atom -12403.058449 kJ/mol
# Density = 1.836935 g / cm^3
# Si number density = 18.411251 Si / 1000 Ang^3
#
#
#
# Elastic Constant Matrix: (Units=GPa)
#
#
# Indices 1 2 3 4 5 6 
#
# 1 119.0765 54.6282 41.5217 0.0000 0.0000 0.0000
# 2 54.6282 97.9176 41.6353 0.0000 0.0000 0.0000
# 3 41.5217 41.6353 128.0860 0.0000 0.0000 0.0000
# 4 0.0000 0.0000 0.0000 29.2580 0.0000 0.0000
# 5 0.0000 0.0000 0.0000 0.0000 29.6987 0.0000
# 6 0.0000 0.0000 0.0000 0.0000 0.0000 17.3059
#
#
#
# Elastic Compliance Matrix: (Units=1/GPa)
#
#
# Indices 1 2 3 4 5 6 
#
# 1 0.011687 -0.005696 -0.001937 0.000000 0.000000 0.000000
# 2 -0.005696 0.014627 -0.002908 0.000000 0.000000 0.000000
# 3 -0.001937 -0.002908 0.009380 0.000000 0.000000 0.000000
# 4 0.000000 0.000000 0.000000 0.034179 0.000000 0.000000
# 5 0.000000 0.000000 0.000000 0.000000 0.033672 0.000000
# 6 0.000000 0.000000 0.000000 0.000000 0.000000 0.057784
#
#
# Mechanical properties :
#
#
# Convention : Reuss Voigt Hill
#
# Bulk Modulus (GPa) = 68.43846 68.96118 68.69982
# Shear Modulus (GPa) = 26.69778 29.07216 27.88497
#
# Velocity S-wave (km/s) = 3.81212 3.97803 3.89596
# Velocity P-wave (km/s) = 7.52523 7.65748 7.59164
#
# Compressibility (1/GPa) = 0.01461167
#
# Stress axis : x y z
#
# Youngs Moduli (GPa) = 85.56770 68.36561 106.60521
#
# Poissons Ratio (x) = 0.38944 0.20647
# Poissons Ratio (y) = 0.48743 0.31002
# Poissons Ratio (z) = 0.16573 0.19881
#
# Static dielectric constant tensor:
#      x y z
#    x 3.449100 0.000000 0.000000 
#    y 0.000000 3.350400 0.000000 
#    z 0.000000 0.000000 3.480990 
# 
# 
# High freq. dielectric constant tensor:
#      x y z
#    x 1.704900 0.000000 0.000000 
#    y 0.000000 1.702310 0.000000 
#    z 0.000000 0.000000 1.730460 
# 
# From -- ./inp_files/5118.got.cif
#   From: 2010.03.12/outbox.cif.g09.slc.cpg/sg49_3_cif.got.tgz:5118.got - 2010.04.14 03:58:27.
