data_PCOD8203584
_publ_section_title
;
Structure prediction by ZEFSAII (Michael W. Deem and Ramdas Pophale) SiO2 
 PCOD8203584
Probable space group: P C C M
;
_chemical_formula_sum "Si O2"
_cell_formula_units_Z 64
_cell_length_a 16.286779
_cell_length_b 22.486328
_cell_length_c 9.033318
_cell_angle_alpha 90.000000
_cell_angle_beta 90.000000
_cell_angle_gamma 90.000000
_cell_volume 3308.270738
_symmetry_space_group_name_H-M "P C C M"
_symmetry_group_IT_number 49
_symmetry_cell_setting 'orthorhombic'
loop_
_space_group_symop_operation_xyz
x,y,z
-x,-y,z
x,-y,1/2-z
-x,y,1/2-z
-x,-y,-z
x,y,-z
-x,y,1/2+z
x,-y,1/2+z
loop_
_atom_site_type_symbol
_atom_site_label
_atom_site_fract_x
_atom_site_fract_y
_atom_site_fract_z
Si Si1 0.875208 0.770272 0.676351
Si Si2 0.584815 0.600956 0.824665
Si Si3 0.074749 0.108982 0.169549
Si Si4 0.725737 0.186579 0.333077
Si Si5 0.765653 0.560537 0.824923
Si Si6 0.249180 0.057963 0.833406
Si Si7 0.571994 0.267068 0.338668
Si Si8 0.082997 0.353378 0.177071
O O1 0.886477 0.766339 0.500000
O O2 0.916498 0.828973 0.742780
O O3 0.779584 0.775092 0.720157
O O4 0.911721 0.712286 0.754186
O O5 0.500000 0.574879 0.750000
O O6 0.671501 0.572716 0.769672
O O7 0.596454 0.669146 0.771076
O O8 0.576082 0.592477 0.000000
O O9 0.151758 0.065558 0.185538
O O10 0.000000 0.074898 0.250000
O O11 0.054267 0.123047 0.000000
O O12 0.766623 0.182163 0.500000
O O13 0.710598 0.119454 0.273654
O O14 0.641912 0.219610 0.344644
O O15 0.796061 0.500000 0.750000
O O16 0.833546 0.610518 0.780386
O O17 0.765439 0.553312 0.000000
O O18 0.281766 0.000000 0.750000
O O19 0.276157 0.046906 0.000000
O O20 0.500000 0.235468 0.250000
O O21 0.537745 0.281189 0.500000
O O22 0.000000 0.382444 0.250000
O O23 0.073030 0.350050 0.000000
#
# Coordination Sequence:
#
# PCOD8203584 Si02
#       8
#     8   8   8   8   8   8   8   8
#     4  11  21  33  53  81 107 134 171 217 264 316
#     4   9  18  34  56  84 113 144 174 210 262 320
#     4  10  20  34  50  71 100 133 166 206 258 314
#     4   9  18  34  53  74 104 142 174 211 264 318
#     4  10  23  41  60  80 108 145 185 225 269 317
#     4   9  19  33  49  68  93 129 173 215 258 304
#     4   9  17  31  53  79 109 137 167 206 255 313
#     4  11  23  40  59  80 108 144 183 227 277 328
#
# _framework density 19.345454
#
# number of rings (size 3 to 8) (size 9 to 14) (size 15 to 20)
#    0.000    2.250    0.000    3.750    0.000    7.250 
#    0.000    6.250    0.000    0.375    0.000    2.625 
#    0.000    0.000    0.000    0.000    0.000    0.000 
#
# Total GULP energy -792932.927790 kJ/mol
# GULP energy per Si atom -12389.576997 kJ/mol
# Density = 1.930142 g / cm^3
# Si number density = 19.345454 Si / 1000 Ang^3
#
#
#
# Elastic Constant Matrix: (Units=GPa)
#
#
# Indices 1 2 3 4 5 6 
#
# 1 80.5561 24.2653 35.4768 0.0000 0.0000 0.0000
# 2 24.2653 71.4523 28.9882 0.0000 0.0000 0.0000
# 3 35.4768 28.9882 80.4006 0.0000 0.0000 0.0000
# 4 0.0000 0.0000 0.0000 28.7130 0.0000 0.0000
# 5 0.0000 0.0000 0.0000 0.0000 27.2184 0.0000
# 6 0.0000 0.0000 0.0000 0.0000 0.0000 12.6958
#
#
#
# Elastic Compliance Matrix: (Units=1/GPa)
#
#
# Indices 1 2 3 4 5 6 
#
# 1 0.015938 -0.002998 -0.005952 0.000000 0.000000 0.000000
# 2 -0.002998 0.016957 -0.004791 0.000000 0.000000 0.000000
# 3 -0.005952 -0.004791 0.016791 0.000000 0.000000 0.000000
# 4 0.000000 0.000000 0.000000 0.034827 0.000000 0.000000
# 5 0.000000 0.000000 0.000000 0.000000 0.036740 0.000000
# 6 0.000000 0.000000 0.000000 0.000000 0.000000 0.078766
#
#
# Mechanical properties :
#
#
# Convention : Reuss Voigt Hill
#
# Bulk Modulus (GPa) = 45.03481 45.54107 45.28794
# Shear Modulus (GPa) = 21.28538 23.30401 22.29469
#
# Velocity S-wave (km/s) = 3.32064 3.47454 3.39846
# Velocity P-wave (km/s) = 6.16701 6.29989 6.23380
#
# Compressibility (1/GPa) = 0.02220505
#
# Stress axis : x y z
#
# Youngs Moduli (GPa) = 62.74356 58.97208 59.55458
#
# Poissons Ratio (x) = 0.17679 0.35445
# Poissons Ratio (y) = 0.18810 0.28533
# Poissons Ratio (z) = 0.37343 0.28254
#
# Static dielectric constant tensor:
#      x y z
#    x 3.918530 0.000000 0.000000 
#    y 0.000000 3.406440 0.000000 
#    z 0.000000 0.000000 3.894750 
# 
# 
# High freq. dielectric constant tensor:
#      x y z
#    x 1.747010 0.000000 0.000000 
#    y 0.000000 1.746220 0.000000 
#    z 0.000000 0.000000 1.749080 
# 
# From -- ./inp_files/4343.got.cif
#   From: 2010.03.12/outbox.cif.g09.slc.cpg/sg49_3_cif.got.tgz:4343.got - 2010.04.14 03:58:27.
