data_PCOD8203948
_publ_section_title
;
Structure prediction by ZEFSAII (Michael W. Deem and Ramdas Pophale) SiO2 
 PCOD8203948
Probable space group: P C C M
;
_chemical_formula_sum "Si O2"
_cell_formula_units_Z 64
_cell_length_a 11.093712
_cell_length_b 14.932141
_cell_length_c 19.612464
_cell_angle_alpha 90.000000
_cell_angle_beta 90.000000
_cell_angle_gamma 90.000000
_cell_volume 3248.860985
_symmetry_space_group_name_H-M "P C C M"
_symmetry_group_IT_number 49
_symmetry_cell_setting 'orthorhombic'
loop_
_space_group_symop_operation_xyz
x,y,z
-x,-y,z
x,-y,1/2-z
-x,y,1/2-z
-x,-y,-z
x,y,-z
-x,y,1/2+z
x,-y,1/2+z
loop_
_atom_site_type_symbol
_atom_site_label
_atom_site_fract_x
_atom_site_fract_y
_atom_site_fract_z
Si Si1 0.533200 0.716071 0.827953
Si Si2 0.665137 0.205819 0.920465
Si Si3 0.868942 0.523776 0.423752
Si Si4 0.901062 0.725559 0.805452
Si Si5 0.285716 0.432453 0.813400
Si Si6 0.916654 0.725576 0.424323
Si Si7 0.291480 0.133865 0.798601
Si Si8 0.628249 0.044629 0.162926
O O1 0.500000 0.724508 0.750000
O O2 0.418640 0.725377 0.877827
O O3 0.591999 0.617459 0.837555
O O4 0.624855 0.798374 0.842621
O O5 0.805852 0.213155 0.898142
O O6 0.630031 0.102101 0.906240
O O7 0.647310 0.227364 0.000000
O O8 0.858830 0.481898 0.500000
O O9 0.761956 0.486693 0.377891
O O10 0.854644 0.629193 0.426013
O O11 0.000000 0.500000 0.392097
O O12 0.808196 0.645022 0.794080
O O13 0.839463 0.821434 0.792383
O O14 0.000000 0.707164 0.750000
O O15 0.963220 0.728448 0.879342
O O16 0.307411 0.500000 0.750000
O O17 0.958434 0.754431 0.500000
O O18 0.344670 0.115189 0.723363
O O19 0.277926 0.038651 0.838226
O O20 0.500000 0.000000 0.176413
#
# Coordination Sequence:
#
# PCOD8203948 Si02
#       8
#     8   8   8   8   8   8   8   8
#     4  11  22  41  60  84 123 161 200 245 311 366
#     4  11  24  41  64  92 122 162 209 254 307 375
#     4  10  20  38  61  84 114 158 208 245 295 363
#     4  11  22  36  59  89 124 155 204 254 300 364
#     4  11  25  36  58  93 123 155 200 263 311 350
#     4  10  22  41  62  85 122 168 202 245 307 370
#     4  10  20  36  61  92 112 158 199 246 306 364
#     4  11  19  37  65  88 123 153 204 254 306 363
#
# _framework density 19.699210000000001
#
# number of rings (size 3 to 8) (size 9 to 14) (size 15 to 20)
#    0.000    1.375    3.750    2.250    3.500    1.000 
#    0.000    6.875    0.000    3.750    0.000    0.000 
#    0.000    0.000    0.000    0.000    0.000    0.000 
#
# Total GULP energy -793426.858204 kJ/mol
# GULP energy per Si atom -12397.294659 kJ/mol
# Density = 1.965437 g / cm^3
# Si number density = 19.699210 Si / 1000 Ang^3
#
#
#
# Elastic Constant Matrix: (Units=GPa)
#
#
# Indices 1 2 3 4 5 6 
#
# 1 55.5102 32.6054 24.0480 0.0000 0.0000 0.0000
# 2 32.6054 96.7285 28.0637 0.0000 0.0000 0.0000
# 3 24.0480 28.0637 76.1800 0.0000 0.0000 0.0000
# 4 0.0000 0.0000 0.0000 19.5166 0.0000 0.0000
# 5 0.0000 0.0000 0.0000 0.0000 24.3319 0.0000
# 6 0.0000 0.0000 0.0000 0.0000 0.0000 35.2116
#
#
#
# Elastic Compliance Matrix: (Units=1/GPa)
#
#
# Indices 1 2 3 4 5 6 
#
# 1 0.024159 -0.006641 -0.005180 0.000000 0.000000 0.000000
# 2 -0.006641 0.013401 -0.002840 0.000000 0.000000 0.000000
# 3 -0.005180 -0.002840 0.015808 0.000000 0.000000 0.000000
# 4 0.000000 0.000000 0.000000 0.051238 0.000000 0.000000
# 5 0.000000 0.000000 0.000000 0.000000 0.041098 0.000000
# 6 0.000000 0.000000 0.000000 0.000000 0.000000 0.028400
#
#
# Mechanical properties :
#
#
# Convention : Reuss Voigt Hill
#
# Bulk Modulus (GPa) = 41.58679 44.20587 42.89633
# Shear Modulus (GPa) = 23.64702 25.39211 24.51956
#
# Velocity S-wave (km/s) = 3.46844 3.59415 3.53185
# Velocity P-wave (km/s) = 6.09892 6.30183 6.20120
#
# Compressibility (1/GPa) = 0.02404610
#
# Stress axis : x y z
#
# Youngs Moduli (GPa) = 41.39159 74.62250 63.25757
#
# Poissons Ratio (x) = 0.49555 0.32768
# Poissons Ratio (y) = 0.27487 0.17967
# Poissons Ratio (z) = 0.21441 0.21195
#
# Static dielectric constant tensor:
#      x y z
#    x 3.672630 0.000000 0.000000 
#    y 0.000000 3.923250 0.000000 
#    z 0.000000 0.000000 3.533580 
# 
# 
# High freq. dielectric constant tensor:
#      x y z
#    x 1.761560 0.000000 0.000000 
#    y 0.000000 1.774920 0.000000 
#    z 0.000000 0.000000 1.753020 
# 
# From -- ./inp_files/17320.got.cif
#   From: 2010.03.12/outbox.cif.g09.slc.cpg/sg49_9_cif.got.tgz:17320.got - 2010.04.14 03:58:27.
