data_PCOD8203981
_publ_section_title
;
Structure prediction by ZEFSAII (Michael W. Deem and Ramdas Pophale) SiO2 
 PCOD8203981
Probable space group: P C C M
;
_chemical_formula_sum "Si O2"
_cell_formula_units_Z 64
_cell_length_a 23.675558
_cell_length_b 8.577843
_cell_length_c 16.385714
_cell_angle_alpha 90.000000
_cell_angle_beta 90.000000
_cell_angle_gamma 90.000000
_cell_volume 3327.696324
_symmetry_space_group_name_H-M "P C C M"
_symmetry_group_IT_number 49
_symmetry_cell_setting 'orthorhombic'
loop_
_space_group_symop_operation_xyz
x,y,z
-x,-y,z
x,-y,1/2-z
-x,y,1/2-z
-x,-y,-z
x,y,-z
-x,y,1/2+z
x,-y,1/2+z
loop_
_atom_site_type_symbol
_atom_site_label
_atom_site_fract_x
_atom_site_fract_y
_atom_site_fract_z
Si Si1 0.934202 0.322226 0.262847
Si Si2 0.565798 0.677774 0.237153
Si Si3 0.250000 0.348649 0.095983
Si Si4 0.350775 0.102954 0.673312
Si Si5 0.850775 0.897046 0.326688
Si Si6 0.366656 0.796384 0.406467
Si Si7 0.866656 0.796384 0.906467
Si Si8 0.250000 0.708954 0.097026
O O1 0.916201 0.500000 0.250000
O O2 0.903399 0.209535 0.198805
O O3 0.917336 0.279695 0.355334
O O4 0.000000 0.295586 0.250000
O O5 0.583799 0.500000 0.250000
O O6 0.500000 0.704414 0.250000
O O7 0.596601 0.790465 0.301195
O O8 0.582664 0.720305 0.144666
O O9 0.306521 0.265384 0.129789
O O10 0.193479 0.265384 0.129789
O O11 0.250000 0.528357 0.121477
O O12 0.250000 0.326104 0.000000
O O13 0.303999 0.215353 0.637680
O O14 0.329016 0.000000 0.750000
O O15 0.369113 0.983507 0.602096
O O16 0.803999 0.784647 0.362320
O O17 0.829016 0.000000 0.250000
O O18 0.869113 0.016493 0.397904
O O19 0.375233 0.746937 0.500000
O O20 0.875233 0.746937 0.000000
O O21 0.250000 0.734733 0.000000
#
# Coordination Sequence:
#
# PCOD8203981 Si02
#       8
#     8   8   8   8   8   8   8   8
#     4  10  22  41  60  80 110 148 189 233 279 330
#     4  10  22  41  60  80 110 148 189 233 279 330
#     4   9  19  33  54  82 113 142 176 223 276 324
#     4  10  21  35  55  81 112 147 184 227 280 334
#     4  10  21  35  55  81 112 147 184 227 280 334
#     4  10  20  37  59  85 114 147 184 230 279 330
#     4  10  20  37  59  85 114 147 184 230 279 330
#     4  11  20  33  53  82 115 148 185 227 271 330
#
# _framework density 19.232523
#
# number of rings (size 3 to 8) (size 9 to 14) (size 15 to 20)
#    0.000    2.000    0.000    3.375    0.000    8.500 
#    0.000   13.750    0.000    0.000    0.000    0.000 
#    0.000    0.000    0.000    0.000    0.000    0.000 
#
# Total GULP energy -793617.834772 kJ/mol
# GULP energy per Si atom -12400.278668 kJ/mol
# Density = 1.918875 g / cm^3
# Si number density = 19.232523 Si / 1000 Ang^3
#
#
#
# Elastic Constant Matrix: (Units=GPa)
#
#
# Indices 1 2 3 4 5 6 
#
# 1 119.5753 72.6982 62.5696 0.0000 0.0000 0.0000
# 2 72.6982 154.2998 45.7373 0.0000 0.0000 0.0000
# 3 62.5696 45.7373 84.6607 0.0000 0.0000 0.0000
# 4 0.0000 0.0000 0.0000 29.5581 0.0000 0.0000
# 5 0.0000 0.0000 0.0000 0.0000 27.2794 0.0000
# 6 0.0000 0.0000 0.0000 0.0000 0.0000 45.2927
#
#
#
# Elastic Compliance Matrix: (Units=1/GPa)
#
#
# Indices 1 2 3 4 5 6 
#
# 1 0.016218 -0.004868 -0.009357 0.000000 0.000000 0.000000
# 2 -0.004868 0.009178 -0.001361 0.000000 0.000000 0.000000
# 3 -0.009357 -0.001361 0.019462 0.000000 0.000000 0.000000
# 4 0.000000 0.000000 0.000000 0.033832 0.000000 0.000000
# 5 0.000000 0.000000 0.000000 0.000000 0.036658 0.000000
# 6 0.000000 0.000000 0.000000 0.000000 0.000000 0.022079
#
#
# Mechanical properties :
#
#
# Convention : Reuss Voigt Hill
#
# Bulk Modulus (GPa) = 73.05606 80.06065 76.55835
# Shear Modulus (GPa) = 28.87525 32.26143 30.56834
#
# Velocity S-wave (km/s) = 3.87896 4.10010 3.99106
# Velocity P-wave (km/s) = 7.62430 8.00828 7.81865
#
# Compressibility (1/GPa) = 0.01368812
#
# Stress axis : x y z
#
# Youngs Moduli (GPa) = 61.65831 108.96040 51.38220
#
# Poissons Ratio (x) = 0.53040 0.48076
# Poissons Ratio (y) = 0.30014 0.06991
# Poissons Ratio (z) = 0.57691 0.14824
#
# Static dielectric constant tensor:
#      x y z
#    x 3.416860 0.000000 0.000000 
#    y 0.000000 3.821580 0.000000 
#    z 0.000000 0.000000 3.496800 
# 
# 
# High freq. dielectric constant tensor:
#      x y z
#    x 1.738620 0.000000 0.000000 
#    y 0.000000 1.769780 0.000000 
#    z 0.000000 0.000000 1.744820 
# 
# From -- ./inp_files/18351.got.cif
#   From: 2010.03.12/outbox.cif.g09.slc.cpg/sg49_10_cif.got.tgz:18351.got - 2010.04.14 03:58:27.
