data_PCOD8203693
_publ_section_title
;
Structure prediction by ZEFSAII (Michael W. Deem and Ramdas Pophale) SiO2 
 PCOD8203693
Probable space group: P C C M
;
_chemical_formula_sum "Si O2"
_cell_formula_units_Z 58
_cell_length_a 25.520435
_cell_length_b 14.461472
_cell_length_c 8.735980
_cell_angle_alpha 90.000000
_cell_angle_beta 90.000000
_cell_angle_gamma 90.000000
_cell_volume 3224.127478
_symmetry_space_group_name_H-M "P C C M"
_symmetry_group_IT_number 49
_symmetry_cell_setting 'orthorhombic'
loop_
_space_group_symop_operation_xyz
x,y,z
-x,-y,z
x,-y,1/2-z
-x,y,1/2-z
-x,-y,-z
x,y,-z
-x,y,1/2+z
x,-y,1/2+z
loop_
_atom_site_type_symbol
_atom_site_label
_atom_site_fract_x
_atom_site_fract_y
_atom_site_fract_z
Si Si1 0.443599 0.097137 0.181972
Si Si2 0.253355 0.898985 0.180483
Si Si3 0.318472 0.596764 0.680978
Si Si4 0.802587 0.595140 0.820997
Si Si5 0.156872 0.777190 0.819753
Si Si6 0.645462 0.782444 0.318795
Si Si7 0.000000 0.000000 0.750000
Si Si8 0.949791 0.824205 0.831587
O O1 0.500000 0.122346 0.250000
O O2 0.404160 0.176722 0.231469
O O3 0.423276 0.000000 0.250000
O O4 0.447066 0.089549 0.000000
O O5 0.201406 0.847285 0.242224
O O6 0.303248 0.839176 0.232829
O O7 0.257244 0.000000 0.250000
O O8 0.251484 0.909450 0.000000
O O9 0.338698 0.500000 0.750000
O O10 0.328221 0.599037 0.500000
O O11 0.257768 0.611043 0.723823
O O12 0.350453 0.677054 0.764501
O O13 0.823615 0.500000 0.750000
O O14 0.837015 0.677228 0.754297
O O15 0.810838 0.590127 0.000000
O O16 0.100475 0.815575 0.775256
O O17 0.161686 0.766670 0.000000
O O18 0.636913 0.786842 0.500000
O O19 0.037144 0.933484 0.647921
O O20 0.000000 0.774528 0.750000
O O21 0.939899 0.781236 0.000000
#
# Coordination Sequence:
#
# PCOD8203693 Si02
#       8
#     8   8   8   8   8   8   2   8
#     4  11  22  38  59  85 113 149 195 242 286 336
#     4  10  23  36  50  75 111 151 186 223 275 332
#     4  10  20  34  55  83 113 149 189 234 282 338
#     4  10  20  35  57  83 112 147 186 232 281 334
#     4  11  22  37  55  81 113 148 187 231 279 334
#     4  11  21  37  57  81 114 152 189 235 284 337
#     4   8  22  36  58  76 104 140 190 236 276 328
#     4  10  21  36  55  78 105 139 182 230 276 325
#
# _framework density 17.989363000000001
#
# number of rings (size 3 to 8) (size 9 to 14) (size 15 to 20)
#    0.414    1.241    1.379    4.345    0.966    4.414 
#    0.000    0.000    0.000    0.828    0.000    5.793 
#    0.000    0.000    0.000    0.000    0.000    0.000 
#
# Total GULP energy -719240.527824 kJ/mol
# GULP energy per Si atom -12400.698756 kJ/mol
# Density = 1.794842 g / cm^3
# Si number density = 17.989363 Si / 1000 Ang^3
#
#
#
# Elastic Constant Matrix: (Units=GPa)
#
#
# Indices 1 2 3 4 5 6 
#
# 1 97.0557 56.6043 35.6796 0.0000 0.0000 0.0000
# 2 56.6043 132.6403 39.2069 0.0000 0.0000 0.0000
# 3 35.6796 39.2069 91.7058 0.0000 0.0000 0.0000
# 4 0.0000 0.0000 0.0000 34.5914 0.0000 0.0000
# 5 0.0000 0.0000 0.0000 0.0000 -3.7971 0.0000
# 6 0.0000 0.0000 0.0000 0.0000 0.0000 24.7717
#
#
#
# Elastic Compliance Matrix: (Units=1/GPa)
#
#
# Indices 1 2 3 4 5 6 
#
# 1 0.014616 -0.005216 -0.003457 0.000000 0.000000 0.000000
# 2 -0.005216 0.010491 -0.002456 0.000000 0.000000 0.000000
# 3 -0.003457 -0.002456 0.013299 0.000000 0.000000 0.000000
# 4 0.000000 0.000000 0.000000 0.028909 0.000000 0.000000
# 5 0.000000 0.000000 0.000000 0.000000 -0.263359 0.000000
# 6 0.000000 0.000000 0.000000 0.000000 0.000000 0.040369
#
#
# Mechanical properties :
#
#
# Convention : Reuss Voigt Hill
#
# Bulk Modulus (GPa) = 61.92109 64.93148 63.42629
# Shear Modulus (GPa) = -39.05172 23.77392 -7.63890
#
# Velocity S-wave (km/s) = -4.66426 3.63926 -2.06290
# Velocity P-wave (km/s) = 2.34276 7.33701 5.44611
#
# Compressibility (1/GPa) = 0.01614959
#
# Stress axis : x y z
#
# Youngs Moduli (GPa) = 68.41849 95.32081 75.19173
#
# Poissons Ratio (x) = 0.49715 0.25992
# Poissons Ratio (y) = 0.35684 0.18467
# Poissons Ratio (z) = 0.23651 0.23410
#
# Static dielectric constant tensor:
#      x y z
#    x 3.233200 0.000000 0.000000 
#    y 0.000000 3.290440 0.000000 
#    z 0.000000 0.000000 3.340440 
# 
# 
# High freq. dielectric constant tensor:
#      x y z
#    x 1.683240 0.000000 0.000000 
#    y 0.000000 1.691870 0.000000 
#    z 0.000000 0.000000 1.710200 
# 
# From -- ./inp_files/6476.got.cif
#   From: 2010.03.12/outbox.cif.g09.slc.cpg/sg49_4_cif.got.tgz:6476.got - 2010.04.14 03:58:27.
