data_PCOD8203619
_publ_section_title
;
Structure prediction by ZEFSAII (Michael W. Deem and Ramdas Pophale) SiO2 
 PCOD8203619
Probable space group: P C C M
;
_chemical_formula_sum "Si O2"
_cell_formula_units_Z 58
_cell_length_a 14.753179
_cell_length_b 23.547949
_cell_length_c 8.778041
_cell_angle_alpha 90.000000
_cell_angle_beta 90.000000
_cell_angle_gamma 90.000000
_cell_volume 3049.553826
_symmetry_space_group_name_H-M "P C C M"
_symmetry_group_IT_number 49
_symmetry_cell_setting 'orthorhombic'
loop_
_space_group_symop_operation_xyz
x,y,z
-x,-y,z
x,-y,1/2-z
-x,y,1/2-z
-x,-y,-z
x,y,-z
-x,y,1/2+z
x,-y,1/2+z
loop_
_atom_site_type_symbol
_atom_site_label
_atom_site_fract_x
_atom_site_fract_y
_atom_site_fract_z
Si Si1 0.225011 0.057495 0.819635
Si Si2 0.905305 0.852548 0.321456
Si Si3 0.405262 0.226760 0.677476
Si Si4 0.413062 0.390915 0.668446
Si Si5 0.500000 0.500000 0.250000
Si Si6 0.094965 0.279306 0.321449
Si Si7 0.595248 0.905091 0.321745
Si Si8 0.725527 0.683134 0.819687
O O1 0.174258 0.112289 0.755651
O O2 0.328938 0.059673 0.766513
O O3 0.181455 0.000000 0.750000
O O4 0.217574 0.056137 0.000000
O O5 0.906946 0.865012 0.500000
O O6 0.886600 0.786746 0.285820
O O7 0.000000 0.872359 0.250000
O O8 0.500000 0.245095 0.750000
O O9 0.407178 0.241141 0.500000
O O10 0.385377 0.161048 0.707384
O O11 0.325789 0.261939 0.756096
O O12 0.500000 0.361511 0.750000
O O13 0.402490 0.365291 0.500000
O O14 0.431965 0.458952 0.655169
O O15 0.323677 0.374908 0.764167
O O16 0.093234 0.291439 0.500000
O O17 0.172659 0.317004 0.243917
O O18 0.000000 0.298749 0.250000
O O19 0.500000 0.923499 0.250000
O O20 0.596845 0.920020 0.500000
O O21 0.727582 0.684571 0.000000
#
# Coordination Sequence:
#
# PCOD8203619 Si02
#       8
#     8   8   8   8   2   8   8   8
#     4  12  25  40  58  80 106 136 175 224 274 328
#     4  10  21  39  62  86 111 141 176 218 273 337
#     4  10  20  34  52  76 109 144 179 222 272 329
#     4  10  20  35  55  80 114 153 195 238 282 327
#     4   8  22  36  62  80 116 160 202 244 284 328
#     4  10  21  38  59  83 113 146 183 227 277 333
#     4  10  21  38  58  79 104 138 178 220 271 329
#     4  12  23  33  51  80 114 151 191 231 277 328
#
# _framework density 19.019176000000002
#
# number of rings (size 3 to 8) (size 9 to 14) (size 15 to 20)
#    0.414    1.103    0.000    6.000    0.000    7.172 
#    0.000    2.759    0.000    0.000    0.000    0.483 
#    0.000    3.310    0.000    0.000    0.000    0.000 
#
# Total GULP energy -719215.834163 kJ/mol
# GULP energy per Si atom -12400.273003 kJ/mol
# Density = 1.897589 g / cm^3
# Si number density = 19.019176 Si / 1000 Ang^3
#
#
#
# Elastic Constant Matrix: (Units=GPa)
#
#
# Indices 1 2 3 4 5 6 
#
# 1 135.7454 37.3194 63.8480 0.0000 0.0000 0.0000
# 2 37.3194 61.4628 30.2033 0.0000 0.0000 0.0000
# 3 63.8480 30.2033 146.8957 0.0000 0.0000 0.0000
# 4 0.0000 0.0000 0.0000 8.5499 0.0000 0.0000
# 5 0.0000 0.0000 0.0000 0.0000 39.0518 0.0000
# 6 0.0000 0.0000 0.0000 0.0000 0.0000 23.8256
#
#
#
# Elastic Compliance Matrix: (Units=1/GPa)
#
#
# Indices 1 2 3 4 5 6 
#
# 1 0.010267 -0.004495 -0.003538 0.000000 0.000000 0.000000
# 2 -0.004495 0.020067 -0.002172 0.000000 0.000000 0.000000
# 3 -0.003538 -0.002172 0.008792 0.000000 0.000000 0.000000
# 4 0.000000 0.000000 0.000000 0.116961 0.000000 0.000000
# 5 0.000000 0.000000 0.000000 0.000000 0.025607 0.000000
# 6 0.000000 0.000000 0.000000 0.000000 0.000000 0.041972
#
#
# Mechanical properties :
#
#
# Convention : Reuss Voigt Hill
#
# Bulk Modulus (GPa) = 53.43402 67.42724 60.43063
# Shear Modulus (GPa) = 19.97491 28.46768 24.22130
#
# Velocity S-wave (km/s) = 3.24427 3.87303 3.57251
# Velocity P-wave (km/s) = 6.49535 7.45183 6.98997
#
# Compressibility (1/GPa) = 0.01871467
#
# Stress axis : x y z
#
# Youngs Moduli (GPa) = 97.40197 49.83354 113.73939
#
# Poissons Ratio (x) = 0.22401 0.40243
# Poissons Ratio (y) = 0.43784 0.24706
# Poissons Ratio (z) = 0.34463 0.10825
#
# Static dielectric constant tensor:
#      x y z
#    x 3.520660 0.000000 0.000000 
#    y 0.000000 3.290040 0.000000 
#    z 0.000000 0.000000 3.562530 
# 
# 
# High freq. dielectric constant tensor:
#      x y z
#    x 1.736630 0.000000 0.000000 
#    y 0.000000 1.717740 0.000000 
#    z 0.000000 0.000000 1.757060 
# 
# From -- ./inp_files/4230.got.cif
#   From: 2010.03.12/outbox.cif.g09.slc.cpg/sg49_3_cif.got.tgz:4230.got - 2010.04.14 03:58:27.
