data_PCOD8203680
_publ_section_title
;
Structure prediction by ZEFSAII (Michael W. Deem and Ramdas Pophale) SiO2 
 PCOD8203680
Probable space group: P C C M
;
_chemical_formula_sum "Si O2"
_cell_formula_units_Z 60
_cell_length_a 24.662396
_cell_length_b 4.938309
_cell_length_c 23.547095
_cell_angle_alpha 90.000000
_cell_angle_beta 90.000000
_cell_angle_gamma 90.000000
_cell_volume 2867.813230
_symmetry_space_group_name_H-M "P C C M"
_symmetry_group_IT_number 49
_symmetry_cell_setting 'orthorhombic'
loop_
_space_group_symop_operation_xyz
x,y,z
-x,-y,z
x,-y,1/2-z
-x,y,1/2-z
-x,-y,-z
x,y,-z
-x,y,1/2+z
x,-y,1/2+z
loop_
_atom_site_type_symbol
_atom_site_label
_atom_site_fract_x
_atom_site_fract_y
_atom_site_fract_z
Si Si1 0.252078 0.014814 0.434280
Si Si2 0.772369 0.498427 0.636521
Si Si3 0.039114 0.249175 0.877982
Si Si4 0.868771 0.740166 0.211425
Si Si5 0.038663 0.252028 0.000000
Si Si6 0.339739 0.485201 0.185722
Si Si7 0.637201 0.019565 0.880272
Si Si8 0.536113 0.258157 0.562252
O O1 0.235813 0.037907 0.500000
O O2 0.214602 0.223231 0.397654
O O3 0.316714 0.075169 0.427772
O O4 0.241992 0.713066 0.412643
O O5 0.819219 0.384237 0.676189
O O6 0.722421 0.578361 0.677637
O O7 0.083266 0.182907 0.830757
O O8 0.071002 0.270270 0.939638
O O9 0.000000 0.500000 0.863676
O O10 0.000000 0.000000 0.880817
O O11 0.891653 0.500000 0.250000
O O12 0.851802 0.000000 0.250000
O O13 0.000000 0.500000 0.000000
O O14 0.000000 0.000000 0.000000
O O15 0.359555 0.500000 0.250000
O O16 0.377755 0.687751 0.147454
O O17 0.339981 0.170720 0.169261
O O18 0.587104 0.842887 0.902246
O O19 0.500000 0.500000 0.591134
O O20 0.555757 0.363710 0.500000
O O21 0.500000 0.000000 0.553657
#
# Coordination Sequence:
#
# PCOD8203680 Si02
#       8
#     8   8   8   8   4   8   8   8
#     4  10  20  37  59  85 119 151 189 240 293 356
#     4  10  22  38  57  84 118 152 195 233 296 351
#     4  10  21  39  62  87 116 150 198 243 299 357
#     4  12  25  40  61  86 122 158 197 247 299 360
#     4   8  16  34  58  80 108 144 184 238 282 344
#     4  10  20  35  57  81 106 147 195 242 282 337
#     4  10  20  34  56  83 112 146 188 239 288 340
#     4  10  20  34  54  81 113 147 183 224 280 346
#
# _framework density 20.921866000000001
#
# number of rings (size 3 to 8) (size 9 to 14) (size 15 to 20)
#    0.000    1.867    0.000    4.000    0.000    3.733 
#    2.400    4.000    2.933    6.000    0.000    0.000 
#    0.000    0.000    0.000    0.000    0.000    0.000 
#
# Total GULP energy -743345.934901 kJ/mol
# GULP energy per Si atom -12389.098915 kJ/mol
# Density = 2.087425 g / cm^3
# Si number density = 20.921866 Si / 1000 Ang^3
#
#
#
# Elastic Constant Matrix: (Units=GPa)
#
#
# Indices 1 2 3 4 5 6 
#
# 1 70.0440 13.7694 36.9815 0.0000 0.0000 0.0000
# 2 13.7694 118.6928 25.3256 0.0000 0.0000 0.0000
# 3 36.9815 25.3256 118.1689 0.0000 0.0000 0.0000
# 4 0.0000 0.0000 0.0000 27.1124 0.0000 0.0000
# 5 0.0000 0.0000 0.0000 0.0000 19.3348 0.0000
# 6 0.0000 0.0000 0.0000 0.0000 0.0000 28.3049
#
#
#
# Elastic Compliance Matrix: (Units=1/GPa)
#
#
# Indices 1 2 3 4 5 6 
#
# 1 0.017191 -0.000887 -0.005190 0.000000 0.000000 0.000000
# 2 -0.000887 0.008875 -0.001624 0.000000 0.000000 0.000000
# 3 -0.005190 -0.001624 0.010435 0.000000 0.000000 0.000000
# 4 0.000000 0.000000 0.000000 0.036883 0.000000 0.000000
# 5 0.000000 0.000000 0.000000 0.000000 0.051720 0.000000
# 6 0.000000 0.000000 0.000000 0.000000 0.000000 0.035330
#
#
# Mechanical properties :
#
#
# Convention : Reuss Voigt Hill
#
# Bulk Modulus (GPa) = 47.39778 51.00650 49.20214
# Shear Modulus (GPa) = 27.34191 30.33903 28.84047
#
# Velocity S-wave (km/s) = 3.61897 3.81216 3.71682
# Velocity P-wave (km/s) = 6.33770 6.61885 6.47980
#
# Compressibility (1/GPa) = 0.02109804
#
# Stress axis : x y z
#
# Youngs Moduli (GPa) = 58.16896 112.68103 95.83281
#
# Poissons Ratio (x) = 0.09994 0.49737
# Poissons Ratio (y) = 0.05159 0.15567
# Poissons Ratio (z) = 0.30190 0.18304
#
# Static dielectric constant tensor:
#      x y z
#    x 3.341330 0.000000 0.000000 
#    y 0.000000 4.047590 0.000000 
#    z 0.000000 0.000000 4.012020 
# 
# 
# High freq. dielectric constant tensor:
#      x y z
#    x 1.782590 0.000000 0.000000 
#    y 0.000000 1.845970 0.000000 
#    z 0.000000 0.000000 1.821740 
# 
# From -- ./inp_files/21235.got.cif
#   From: 2010.03.12/outbox.cif.g09.slc.cpg/sg49_11_cif.got.tgz:21235.got - 2010.04.14 03:58:27.
