data_PCOD8203847
_publ_section_title
;
Structure prediction by ZEFSAII (Michael W. Deem and Ramdas Pophale) SiO2 
 PCOD8203847
Probable space group: P C C M
;
_chemical_formula_sum "Si O2"
_cell_formula_units_Z 48
_cell_length_a 9.055147
_cell_length_b 16.957723
_cell_length_c 15.669618
_cell_angle_alpha 90.000000
_cell_angle_beta 90.000000
_cell_angle_gamma 90.000000
_cell_volume 2406.143092
_symmetry_space_group_name_H-M "P C C M"
_symmetry_group_IT_number 49
_symmetry_cell_setting 'orthorhombic'
loop_
_space_group_symop_operation_xyz
x,y,z
-x,-y,z
x,-y,1/2-z
-x,y,1/2-z
-x,-y,-z
x,y,-z
-x,y,1/2+z
x,-y,1/2+z
loop_
_atom_site_type_symbol
_atom_site_label
_atom_site_fract_x
_atom_site_fract_y
_atom_site_fract_z
Si Si1 0.330265 0.500891 0.099573
Si Si2 0.324546 0.911968 0.750936
Si Si3 0.675205 0.808431 0.094510
Si Si4 0.335025 0.802888 0.095749
Si Si5 0.171338 0.653716 0.156224
Si Si6 0.164887 0.657448 0.352639
O O1 0.500000 0.500000 0.128001
O O2 0.250439 0.570009 0.150342
O O3 0.257108 0.419143 0.124486
O O4 0.313420 0.517832 0.000000
O O5 0.500000 0.916753 0.750000
O O6 0.265306 0.869136 0.665578
O O7 0.271038 0.865814 0.836002
O O8 0.256919 0.000000 0.750000
O O9 0.506377 0.785542 0.115241
O O10 0.771843 0.729746 0.093583
O O11 0.687757 0.847035 0.000000
O O12 0.251686 0.719919 0.100704
O O13 0.313571 0.837129 0.000000
O O14 0.178599 0.680333 0.253933
O O15 0.005010 0.643622 0.122211
#
# Coordination Sequence:
#
# PCOD8203847 Si02
#       6
#     8   8   8   8   8   8
#     4  11  24  39  56  82 114 149 192 238 285 337
#     4   9  18  34  57  86 119 150 183 233 290 339
#     4  10  20  35  58  86 115 151 193 234 283 342
#     4  10  20  35  58  86 115 151 193 234 283 342
#     4  11  23  38  57  82 113 151 194 237 284 337
#     4  11  23  38  57  82 113 151 194 237 284 337
#
# _framework density 19.948938999999999
#
# number of rings (size 3 to 8) (size 9 to 14) (size 15 to 20)
#    0.000    1.667    1.667    3.000    0.000   10.667 
#    0.000    3.333    0.000    2.000    0.000    2.333 
#    0.000    0.000    0.000    0.000    0.000    0.000 
#
# Total GULP energy -595355.872289 kJ/mol
# GULP energy per Si atom -12403.247339 kJ/mol
# Density = 1.990353 g / cm^3
# Si number density = 19.948939 Si / 1000 Ang^3
#
#
#
# Elastic Constant Matrix: (Units=GPa)
#
#
# Indices 1 2 3 4 5 6 
#
# 1 95.1854 40.2283 31.5045 0.0000 0.0000 0.0000
# 2 40.2283 140.8617 45.8927 0.0000 0.0000 0.0000
# 3 31.5045 45.8927 108.4144 0.0000 0.0000 0.0000
# 4 0.0000 0.0000 0.0000 21.8228 0.0000 0.0000
# 5 0.0000 0.0000 0.0000 0.0000 21.1632 0.0000
# 6 0.0000 0.0000 0.0000 0.0000 0.0000 -14.2194
#
#
#
# Elastic Compliance Matrix: (Units=1/GPa)
#
#
# Indices 1 2 3 4 5 6 
#
# 1 0.012488 -0.002766 -0.002458 0.000000 0.000000 0.000000
# 2 -0.002766 0.008847 -0.002941 0.000000 0.000000 0.000000
# 3 -0.002458 -0.002941 0.011183 0.000000 0.000000 0.000000
# 4 0.000000 0.000000 0.000000 0.045824 0.000000 0.000000
# 5 0.000000 0.000000 0.000000 0.000000 0.047252 0.000000
# 6 0.000000 0.000000 0.000000 0.000000 0.000000 -0.070326
#
#
# Mechanical properties :
#
#
# Convention : Reuss Voigt Hill
#
# Bulk Modulus (GPa) = 61.77329 64.41251 63.09290
# Shear Modulus (GPa) = 64.93937 20.87572 42.90754
#
# Velocity S-wave (km/s) = 5.71170 3.23841 4.64278
# Velocity P-wave (km/s) = 8.63313 6.80748 7.77408
#
# Compressibility (1/GPa) = 0.01618823
#
# Stress axis : x y z
#
# Youngs Moduli (GPa) = 80.07505 113.02872 89.41829
#
# Poissons Ratio (x) = 0.31259 0.21982
# Poissons Ratio (y) = 0.22145 0.26302
# Poissons Ratio (z) = 0.19685 0.33247
#
# Static dielectric constant tensor:
#      x y z
#    x 3.529110 0.000000 0.000000 
#    y 0.000000 3.604390 0.000000 
#    z 0.000000 0.000000 3.803740 
# 
# 
# High freq. dielectric constant tensor:
#      x y z
#    x 1.759780 0.000000 0.000000 
#    y 0.000000 1.771300 0.000000 
#    z 0.000000 0.000000 1.794480 
# 
# From -- ./inp_files/11756.got.cif
#   From: 2010.03.12/outbox.cif.g09.slc.cpg/sg49_6_cif.got.tgz:11756.got - 2010.04.14 03:58:27.
