data_PCOD8203097
_publ_section_title
;
Structure prediction by ZEFSAII (Michael W. Deem and Ramdas Pophale) SiO2 
 PCOD8203097
Probable space group: P C C M
;
_chemical_formula_sum "Si O2"
_cell_formula_units_Z 64
_cell_length_a 15.291228
_cell_length_b 24.960983
_cell_length_c 8.586282
_cell_angle_alpha 90.000000
_cell_angle_beta 90.000000
_cell_angle_gamma 90.000000
_cell_volume 3277.247164
_symmetry_space_group_name_H-M "P C C M"
_symmetry_group_IT_number 49
_symmetry_cell_setting 'orthorhombic'
loop_
_space_group_symop_operation_xyz
x,y,z
-x,-y,z
x,-y,1/2-z
-x,y,1/2-z
-x,-y,-z
x,y,-z
-x,y,1/2+z
x,-y,1/2+z
loop_
_atom_site_type_symbol
_atom_site_label
_atom_site_fract_x
_atom_site_fract_y
_atom_site_fract_z
Si Si1 0.357864 0.711508 0.182865
Si Si2 0.771483 0.556756 0.182206
Si Si3 0.823758 0.734059 0.182476
Si Si4 0.909378 0.637559 0.317949
Si Si5 0.587980 0.821390 0.815042
Si Si6 0.905813 0.057709 0.314475
Si Si7 0.586768 0.603092 0.183290
Si Si8 0.221921 0.149440 0.815749
O O1 0.269338 0.707436 0.282267
O O2 0.411803 0.763422 0.235007
O O3 0.412411 0.659131 0.224401
O O4 0.336725 0.714189 0.000000
O O5 0.801175 0.500000 0.250000
O O6 0.829336 0.603487 0.253842
O O7 0.670590 0.567269 0.226247
O O8 0.787431 0.556558 0.000000
O O9 0.897852 0.699985 0.270334
O O10 0.822185 0.795391 0.245068
O O11 0.842948 0.731274 0.000000
O O12 0.912331 0.631650 0.500000
O O13 0.000000 0.615363 0.250000
O O14 0.500000 0.850808 0.750000
O O15 0.675853 0.853908 0.764286
O O16 0.584291 0.815303 0.000000
O O17 0.909993 0.055822 0.500000
O O18 0.833020 0.099275 0.250717
O O19 0.000000 0.075529 0.250000
O O20 0.878401 0.000000 0.250000
O O21 0.500000 0.573270 0.250000
O O22 0.580854 0.613389 0.000000
O O23 0.217248 0.149836 0.000000
#
# Coordination Sequence:
#
# PCOD8203097 Si02
#       8
#     8   8   8   8   8   8   8   8
#     4  11  20  32  53  81 113 151 191 230 277 336
#     4  11  25  45  67  88 115 149 189 240 291 343
#     4  10  19  36  58  84 118 153 188 231 285 339
#     4  12  25  42  65  91 119 152 190 234 286 347
#     4  10  19  33  51  76 111 151 191 236 283 334
#     4  10  19  35  56  82 111 147 190 237 288 337
#     4  11  23  38  59  85 116 151 189 234 284 339
#     4   8  18  34  55  80 114 154 190 231 284 340
#
# _framework density 19.528585
#
# number of rings (size 3 to 8) (size 9 to 14) (size 15 to 20)
#    0.000    1.625    1.250    5.625    0.000    2.500 
#    0.000   11.250    0.000    0.375    0.000    2.625 
#    0.000    0.000    0.000    0.000    0.000    0.000 
#
# Total GULP energy -793607.489041 kJ/mol
# GULP energy per Si atom -12400.117016 kJ/mol
# Density = 1.948414 g / cm^3
# Si number density = 19.528585 Si / 1000 Ang^3
#
#
#
# Elastic Constant Matrix: (Units=GPa)
#
#
# Indices 1 2 3 4 5 6 
#
# 1 112.7007 59.1678 45.1473 0.0000 0.0000 0.0000
# 2 59.1678 99.3863 35.7005 0.0000 0.0000 0.0000
# 3 45.1473 35.7005 95.1778 0.0000 0.0000 0.0000
# 4 0.0000 0.0000 0.0000 20.1745 0.0000 0.0000
# 5 0.0000 0.0000 0.0000 0.0000 28.9473 0.0000
# 6 0.0000 0.0000 0.0000 0.0000 0.0000 16.8481
#
#
#
# Elastic Compliance Matrix: (Units=1/GPa)
#
#
# Indices 1 2 3 4 5 6 
#
# 1 0.014176 -0.006962 -0.004113 0.000000 0.000000 0.000000
# 2 -0.006962 0.015048 -0.002342 0.000000 0.000000 0.000000
# 3 -0.004113 -0.002342 0.013336 0.000000 0.000000 0.000000
# 4 0.000000 0.000000 0.000000 0.049568 0.000000 0.000000
# 5 0.000000 0.000000 0.000000 0.000000 0.034546 0.000000
# 6 0.000000 0.000000 0.000000 0.000000 0.000000 0.059354
#
#
# Mechanical properties :
#
#
# Convention : Reuss Voigt Hill
#
# Bulk Modulus (GPa) = 63.58874 65.25509 64.42192
# Shear Modulus (GPa) = 22.92513 24.34392 23.63453
#
# Velocity S-wave (km/s) = 3.42998 3.53452 3.48264
# Velocity P-wave (km/s) = 6.95118 7.08130 7.01654
#
# Compressibility (1/GPa) = 0.01572605
#
# Stress axis : x y z
#
# Youngs Moduli (GPa) = 70.54387 66.45585 74.98505
#
# Poissons Ratio (x) = 0.46265 0.30840
# Poissons Ratio (y) = 0.49111 0.17561
# Poissons Ratio (z) = 0.29013 0.15563
#
# Static dielectric constant tensor:
#      x y z
#    x 3.815990 0.000000 0.000000 
#    y 0.000000 3.547350 0.000000 
#    z 0.000000 0.000000 3.498840 
# 
# 
# High freq. dielectric constant tensor:
#      x y z
#    x 1.770340 0.000000 0.000000 
#    y 0.000000 1.735930 0.000000 
#    z 0.000000 0.000000 1.763110 
# 
# From -- ./inp_files/4397.got.cif
#   From: 2010.03.12/outbox.cif.g09.slc.cpg/sg49_3_cif.got.tgz:4397.got - 2010.04.14 03:58:27.
