data_PCOD8203403
_publ_section_title
;
Structure prediction by ZEFSAII (Michael W. Deem and Ramdas Pophale) SiO2 
 PCOD8203403
Probable space group: P C C M
;
_chemical_formula_sum "Si O2"
_cell_formula_units_Z 56
_cell_length_a 13.192980
_cell_length_b 11.908571
_cell_length_c 17.231790
_cell_angle_alpha 90.000000
_cell_angle_beta 90.000000
_cell_angle_gamma 90.000000
_cell_volume 2707.278584
_symmetry_space_group_name_H-M "P C C M"
_symmetry_group_IT_number 49
_symmetry_cell_setting 'orthorhombic'
loop_
_space_group_symop_operation_xyz
x,y,z
-x,-y,z
x,-y,1/2-z
-x,y,1/2-z
-x,-y,-z
x,y,-z
-x,y,1/2+z
x,-y,1/2+z
loop_
_atom_site_type_symbol
_atom_site_label
_atom_site_fract_x
_atom_site_fract_y
_atom_site_fract_z
Si Si1 0.733904 0.377789 0.828637
Si Si2 0.694891 0.378734 0.353236
Si Si3 0.576171 0.812860 0.089862
Si Si4 0.256146 0.960971 0.338308
Si Si5 0.345252 0.170829 0.587311
Si Si6 0.870121 0.224912 0.410811
Si Si7 0.969281 0.622171 0.660975
O O1 0.720262 0.374001 0.737136
O O2 0.689977 0.488839 0.871323
O O3 0.669217 0.275838 0.858547
O O4 0.850586 0.361458 0.850267
O O5 0.590591 0.316552 0.379882
O O6 0.785480 0.320333 0.400126
O O7 0.645178 0.884898 0.147836
O O8 0.463260 0.860851 0.097612
O O9 0.612576 0.823455 0.000000
O O10 0.157340 0.888275 0.362346
O O11 0.246707 0.000000 0.250000
O O12 0.269563 0.070592 0.391069
O O13 0.321377 0.206194 0.500000
O O14 0.877568 0.189627 0.500000
O O15 0.977155 0.275831 0.384035
O O16 0.000000 0.500000 0.627056
O O17 0.000000 0.628856 0.750000
#
# Coordination Sequence:
#
# PCOD8203403 Si02
#       7
#     8   8   8   8   8   8   8
#     4  11  22  37  62  91 124 166 206 254 317 372
#     4  10  19  38  60  90 125 159 207 260 310 368
#     4  10  22  40  63  89 122 164 207 257 314 371
#     4  11  23  40  66  91 117 160 212 262 305 365
#     4  11  24  40  59  88 128 166 202 254 315 376
#     4  11  22  38  64  95 124 159 206 261 314 366
#     4  11  20  40  67  93 127 163 206 258 312 371
#
# _framework density 20.684979999999999
#
# number of rings (size 3 to 8) (size 9 to 14) (size 15 to 20)
#    0.000    1.286    2.857    5.571    0.000    6.571 
#    0.000    3.571    0.000    1.714    0.000    0.000 
#    0.000    0.000    0.000    0.000    0.000    0.000 
#
# Total GULP energy -694299.721702 kJ/mol
# GULP energy per Si atom -12398.209316 kJ/mol
# Density = 2.063790 g / cm^3
# Si number density = 20.684980 Si / 1000 Ang^3
#
#
#
# Elastic Constant Matrix: (Units=GPa)
#
#
# Indices 1 2 3 4 5 6 
#
# 1 45.0371 33.1036 42.2056 0.0000 0.0000 0.0000
# 2 33.1036 133.3635 44.8527 0.0000 0.0000 0.0000
# 3 42.2056 44.8527 86.3833 0.0000 0.0000 0.0000
# 4 0.0000 0.0000 0.0000 14.2853 0.0000 0.0000
# 5 0.0000 0.0000 0.0000 0.0000 33.0240 0.0000
# 6 0.0000 0.0000 0.0000 0.0000 0.0000 66.7802
#
#
#
# Elastic Compliance Matrix: (Units=1/GPa)
#
#
# Indices 1 2 3 4 5 6 
#
# 1 0.042958 -0.004367 -0.018721 0.000000 0.000000 0.000000
# 2 -0.004367 0.009529 -0.002814 0.000000 0.000000 0.000000
# 3 -0.018721 -0.002814 0.022184 0.000000 0.000000 0.000000
# 4 0.000000 0.000000 0.000000 0.070002 0.000000 0.000000
# 5 0.000000 0.000000 0.000000 0.000000 0.030281 0.000000
# 6 0.000000 0.000000 0.000000 0.000000 0.000000 0.014975
#
#
# Mechanical properties :
#
#
# Convention : Reuss Voigt Hill
#
# Bulk Modulus (GPa) = 43.73145 56.12307 49.92726
# Shear Modulus (GPa) = 20.05181 32.45937 26.25559
#
# Velocity S-wave (km/s) = 3.11688 3.96564 3.56660
# Velocity P-wave (km/s) = 5.84301 6.93971 6.41484
#
# Compressibility (1/GPa) = 0.02286684
#
# Stress axis : x y z
#
# Youngs Moduli (GPa) = 23.27872 104.94696 45.07691
#
# Poissons Ratio (x) = 0.45827 0.84389
# Poissons Ratio (y) = 0.10165 0.12685
# Poissons Ratio (z) = 0.43580 0.29532
#
# Static dielectric constant tensor:
#      x y z
#    x 3.744310 0.000000 0.000000 
#    y 0.000000 4.426120 0.000000 
#    z 0.000000 0.000000 3.735470 
# 
# 
# High freq. dielectric constant tensor:
#      x y z
#    x 1.793580 0.000000 0.000000 
#    y 0.000000 1.818160 0.000000 
#    z 0.000000 0.000000 1.809850 
# 
# From -- ./inp_files/13592.got.cif
#   From: 2010.03.12/outbox.cif.g09.slc.cpg/sg49_7_cif.got.tgz:13592.got - 2010.04.14 03:58:27.
