data_PCOD8203220
_publ_section_title
;
Structure prediction by ZEFSAII (Michael W. Deem and Ramdas Pophale) SiO2 
 PCOD8203220
Probable space group: P C C M
;
_chemical_formula_sum "Si O2"
_cell_formula_units_Z 64
_cell_length_a 14.393646
_cell_length_b 31.614106
_cell_length_c 8.912824
_cell_angle_alpha 90.000000
_cell_angle_beta 90.000000
_cell_angle_gamma 90.000000
_cell_volume 4055.711490
_symmetry_space_group_name_H-M "P C C M"
_symmetry_group_IT_number 49
_symmetry_cell_setting 'orthorhombic'
loop_
_space_group_symop_operation_xyz
x,y,z
-x,-y,z
x,-y,1/2-z
-x,y,1/2-z
-x,-y,-z
x,y,-z
-x,y,1/2+z
x,-y,1/2+z
loop_
_atom_site_type_symbol
_atom_site_label
_atom_site_fract_x
_atom_site_fract_y
_atom_site_fract_z
Si Si1 0.905232 0.677756 0.323295
Si Si2 0.713480 0.543307 0.676628
Si Si3 0.598180 0.869362 0.174181
Si Si4 0.398503 0.959679 0.323238
Si Si5 0.399873 0.374679 0.677846
Si Si6 0.093390 0.420706 0.325086
Si Si7 0.719312 0.698944 0.178520
Si Si8 0.400324 0.221980 0.175832
O O1 0.904755 0.686832 0.500000
O O2 0.892870 0.628365 0.286706
O O3 0.822880 0.702764 0.242190
O O4 0.000000 0.694758 0.250000
O O5 0.678566 0.500000 0.750000
O O6 0.717667 0.537566 0.500000
O O7 0.639822 0.579337 0.720516
O O8 0.816207 0.555067 0.738323
O O9 0.500000 0.869455 0.250000
O O10 0.651207 0.913875 0.214299
O O11 0.645989 0.824286 0.217097
O O12 0.577208 0.870016 0.000000
O O13 0.500000 0.958279 0.250000
O O14 0.405824 0.967200 0.500000
O O15 0.343931 0.000000 0.250000
O O16 0.500000 0.368912 0.750000
O O17 0.405710 0.368194 0.500000
O O18 0.331098 0.340373 0.745440
O O19 0.082590 0.428037 0.500000
O O20 0.000000 0.438989 0.250000
O O21 0.669202 0.741901 0.231309
O O22 0.720226 0.693135 0.000000
O O23 0.500000 0.228763 0.250000
O O24 0.416785 0.226153 0.000000
#
# Coordination Sequence:
#
# PCOD8203220 Si02
#       8
#     8   8   8   8   8   8   8   8
#     4  10  19  34  54  76 101 124 149 181 218 263
#     4  10  22  39  55  73  98 123 150 182 220 262
#     4   8  14  24  35  48  71 104 139 180 225 265
#     4   9  14  19  29  44  64  93 132 177 224 265
#     4  11  23  40  56  73  97 122 153 191 227 267
#     4   9  18  34  53  75  99 123 145 173 211 254
#     4  11  21  33  52  76  97 122 153 185 226 269
#     4   9  18  30  43  62  88 117 153 191 227 269
#
# _framework density 15.780215999999999
#
# number of rings (size 3 to 8) (size 9 to 14) (size 15 to 20)
#    0.000    2.375    1.250    2.250    0.000    5.000 
#    0.000    2.500    0.000    0.000    0.000    0.000 
#    0.000    0.000    0.000    0.000    0.000    0.625 
#
# Total GULP energy -793007.024893 kJ/mol
# GULP energy per Si atom -12390.734764 kJ/mol
# Density = 1.574430 g / cm^3
# Si number density = 15.780216 Si / 1000 Ang^3
#
#
#
# Elastic Constant Matrix: (Units=GPa)
#
#
# Indices 1 2 3 4 5 6 
#
# 1 81.3129 42.4523 28.1960 0.0000 0.0000 0.0000
# 2 42.4523 128.1122 42.4786 0.0000 0.0000 0.0000
# 3 28.1960 42.4786 52.2527 0.0000 0.0000 0.0000
# 4 0.0000 0.0000 0.0000 22.1231 0.0000 0.0000
# 5 0.0000 0.0000 0.0000 0.0000 21.9634 0.0000
# 6 0.0000 0.0000 0.0000 0.0000 0.0000 2.6162
#
#
#
# Elastic Compliance Matrix: (Units=1/GPa)
#
#
# Indices 1 2 3 4 5 6 
#
# 1 0.016123 -0.003365 -0.005965 0.000000 0.000000 0.000000
# 2 -0.003365 0.011388 -0.007442 0.000000 0.000000 0.000000
# 3 -0.005965 -0.007442 0.028407 0.000000 0.000000 0.000000
# 4 0.000000 0.000000 0.000000 0.045202 0.000000 0.000000
# 5 0.000000 0.000000 0.000000 0.000000 0.045530 0.000000
# 6 0.000000 0.000000 0.000000 0.000000 0.000000 0.382240
#
#
# Mechanical properties :
#
#
# Convention : Reuss Voigt Hill
#
# Bulk Modulus (GPa) = 44.69438 54.21462 49.45450
# Shear Modulus (GPa) = 8.77359 19.24393 14.00876
#
# Velocity S-wave (km/s) = 2.36050 3.49592 2.98273
# Velocity P-wave (km/s) = 5.98446 7.12221 6.57798
#
# Compressibility (1/GPa) = 0.02237418
#
# Stress axis : x y z
#
# Youngs Moduli (GPa) = 62.02202 87.80851 35.20305
#
# Poissons Ratio (x) = 0.29548 0.20998
# Poissons Ratio (y) = 0.20871 0.26199
# Poissons Ratio (z) = 0.36994 0.65350
#
# Static dielectric constant tensor:
#      x y z
#    x 2.824060 0.000000 0.000000 
#    y 0.000000 3.756570 0.000000 
#    z 0.000000 0.000000 3.005520 
# 
# 
# High freq. dielectric constant tensor:
#      x y z
#    x 1.563130 0.000000 0.000000 
#    y 0.000000 1.610910 0.000000 
#    z 0.000000 0.000000 1.615750 
# 
# From -- ./inp_files/4547.got.cif
#   From: 2010.03.12/outbox.cif.g09.slc.cpg/sg49_3_cif.got.tgz:4547.got - 2010.04.14 03:58:27.
