data_PCOD8203003
_publ_section_title
;
Structure prediction by ZEFSAII (Michael W. Deem and Ramdas Pophale) SiO2 
 PCOD8203003
Probable space group: P C C M
;
_chemical_formula_sum "Si O2"
_cell_formula_units_Z 48
_cell_length_a 7.795088
_cell_length_b 18.723418
_cell_length_c 17.313613
_cell_angle_alpha 90.000000
_cell_angle_beta 90.000000
_cell_angle_gamma 90.000000
_cell_volume 2526.933781
_symmetry_space_group_name_H-M "P C C M"
_symmetry_group_IT_number 49
_symmetry_cell_setting 'orthorhombic'
loop_
_space_group_symop_operation_xyz
x,y,z
-x,-y,z
x,-y,1/2-z
-x,y,1/2-z
-x,-y,-z
x,y,-z
-x,y,1/2+z
x,-y,1/2+z
loop_
_atom_site_type_symbol
_atom_site_label
_atom_site_fract_x
_atom_site_fract_y
_atom_site_fract_z
Si Si1 0.257867 0.678030 0.591491
Si Si2 0.565438 0.424909 0.908788
Si Si3 0.191837 0.072669 0.274278
Si Si4 0.620380 0.810071 0.817150
Si Si5 0.050917 0.577943 0.908218
Si Si6 0.590944 0.923356 0.587918
O O1 0.249265 0.692257 0.500000
O O2 0.429800 0.635293 0.614222
O O3 0.268981 0.751638 0.637484
O O4 0.087795 0.636191 0.620823
O O5 0.500000 0.500000 0.873112
O O6 0.756293 0.403978 0.878080
O O7 0.577289 0.433930 0.000000
O O8 0.248750 0.141263 0.228377
O O9 0.228448 0.079644 0.365872
O O10 0.000000 0.061125 0.250000
O O11 0.293593 0.000000 0.250000
O O12 0.500000 0.775820 0.750000
O O13 0.524117 0.859289 0.879138
O O14 0.000000 0.500000 0.875927
O O15 0.043887 0.576549 0.000000
O O16 0.635262 0.905615 0.500000
O O17 0.500000 0.000000 0.595630
#
# Coordination Sequence:
#
# PCOD8203003 Si02
#       6
#     8   8   8   8   8   8
#     4  10  19  32  51  80 116 147 186 242 295 343
#     4   9  15  26  48  77 109 145 186 232 281 340
#     4  10  20  38  61  84 112 152 192 231 292 368
#     4  10  21  37  58  78 111 154 194 237 298 363
#     4   9  15  26  47  76 109 145 184 229 283 343
#     4  10  19  35  61  88 112 146 197 248 288 345
#
# _framework density 18.995353000000001
#
# number of rings (size 3 to 8) (size 9 to 14) (size 15 to 20)
#    0.000    2.333    3.333    0.500    0.000    0.000 
#    6.000    3.333    0.000    0.500    0.000    1.167 
#    0.000    0.000    0.000    0.000    0.000    4.833 
#
# Total GULP energy -594717.888054 kJ/mol
# GULP energy per Si atom -12389.956001 kJ/mol
# Density = 1.895212 g / cm^3
# Si number density = 18.995353 Si / 1000 Ang^3
#
#
#
# Elastic Constant Matrix: (Units=GPa)
#
#
# Indices 1 2 3 4 5 6 
#
# 1 139.7170 54.1268 44.3288 0.0000 0.0000 0.0000
# 2 54.1268 123.5522 49.6540 0.0000 0.0000 0.0000
# 3 44.3288 49.6540 101.5324 0.0000 0.0000 0.0000
# 4 0.0000 0.0000 0.0000 -9.5338 0.0000 0.0000
# 5 0.0000 0.0000 0.0000 0.0000 15.0764 0.0000
# 6 0.0000 0.0000 0.0000 0.0000 0.0000 82.2213
#
#
#
# Elastic Compliance Matrix: (Units=1/GPa)
#
#
# Indices 1 2 3 4 5 6 
#
# 1 0.009111 -0.002978 -0.002521 0.000000 0.000000 0.000000
# 2 -0.002978 0.011047 -0.004102 0.000000 0.000000 0.000000
# 3 -0.002521 -0.004102 0.012956 0.000000 0.000000 0.000000
# 4 0.000000 0.000000 0.000000 -0.104889 0.000000 0.000000
# 5 0.000000 0.000000 0.000000 0.000000 0.066329 0.000000
# 6 0.000000 0.000000 0.000000 0.000000 0.000000 0.012162
#
#
# Mechanical properties :
#
#
# Convention : Reuss Voigt Hill
#
# Bulk Modulus (GPa) = 71.88767 73.44675 72.66721
# Shear Modulus (GPa) = 163.63184 31.99889 97.81537
#
# Velocity S-wave (km/s) = 9.29140 4.10880 7.18374
# Velocity P-wave (km/s) = 12.37068 7.82683 10.35116
#
# Compressibility (1/GPa) = 0.01391059
#
# Stress axis : x y z
#
# Youngs Moduli (GPa) = 109.75683 90.52163 77.18356
#
# Poissons Ratio (x) = 0.26958 0.19461
# Poissons Ratio (y) = 0.32687 0.31663
# Poissons Ratio (z) = 0.27674 0.37135
#
# Static dielectric constant tensor:
#      x y z
#    x 3.432940 0.000000 0.000000 
#    y 0.000000 2.966850 0.000000 
#    z 0.000000 0.000000 3.282170 
# 
# 
# High freq. dielectric constant tensor:
#      x y z
#    x 1.737670 0.000000 0.000000 
#    y 0.000000 1.741230 0.000000 
#    z 0.000000 0.000000 1.707860 
# 
# From -- ./inp_files/11859.got.cif
#   From: 2010.03.12/outbox.cif.g09.slc.cpg/sg49_6_cif.got.tgz:11859.got - 2010.04.14 03:58:27.
