data_PCOD8203476
_publ_section_title
;
Structure prediction by ZEFSAII (Michael W. Deem and Ramdas Pophale) SiO2 
 PCOD8203476
Probable space group: P C C M
;
_chemical_formula_sum "Si O2"
_cell_formula_units_Z 56
_cell_length_a 19.547747
_cell_length_b 14.988189
_cell_length_c 10.218249
_cell_angle_alpha 90.000000
_cell_angle_beta 90.000000
_cell_angle_gamma 90.000000
_cell_volume 2993.797020
_symmetry_space_group_name_H-M "P C C M"
_symmetry_group_IT_number 49
_symmetry_cell_setting 'orthorhombic'
loop_
_space_group_symop_operation_xyz
x,y,z
-x,-y,z
x,-y,1/2-z
-x,y,1/2-z
-x,-y,-z
x,y,-z
-x,y,1/2+z
x,-y,1/2+z
loop_
_atom_site_type_symbol
_atom_site_label
_atom_site_fract_x
_atom_site_fract_y
_atom_site_fract_z
Si Si1 0.886264 0.500000 0.750000
Si Si2 0.555129 0.632974 0.646516
Si Si3 0.943297 0.322094 0.148267
Si Si4 0.229492 0.613877 0.359748
Si Si5 0.440079 0.160655 0.650624
Si Si6 0.660825 0.500000 0.250000
Si Si7 0.795565 0.249546 0.147517
Si Si8 0.707023 0.921832 0.650572
O O1 0.930676 0.428034 0.830373
O O2 0.839902 0.443043 0.651116
O O3 0.500000 0.598986 0.750000
O O4 0.525581 0.621173 0.500000
O O5 0.574758 0.735298 0.672611
O O6 0.620229 0.571926 0.665912
O O7 0.876971 0.259232 0.171063
O O8 0.000000 0.287249 0.250000
O O9 0.970231 0.310223 0.000000
O O10 0.227552 0.663368 0.500000
O O11 0.293104 0.547300 0.359044
O O12 0.242348 0.684322 0.245337
O O13 0.500000 0.127457 0.750000
O O14 0.462532 0.141223 0.500000
O O15 0.368926 0.112905 0.685066
O O16 0.766596 0.151059 0.172991
O O17 0.777378 0.279821 0.000000
O O18 0.708880 0.955054 0.500000
O O19 0.725754 0.000000 0.750000
#
# Coordination Sequence:
#
# PCOD8203476 Si02
#       8
#     4   8   8   8   8   4   8   8
#     4   9  19  32  48  72 109 147 180 220 265 301
#     4  10  21  36  51  67  93 132 174 215 260 308
#     4  10  20  33  52  77 107 145 183 220 262 308
#     4  10  20  32  50  75 101 136 183 226 260 303
#     4   9  19  36  56  77 104 137 170 207 255 312
#     4  11  21  30  46  70 101 135 174 222 270 309
#     4   9  20  39  57  75 107 144 174 212 269 325
#     4  10  21  38  60  84 107 134 168 208 260 319
#
# _framework density 18.705342999999999
#
# number of rings (size 3 to 8) (size 9 to 14) (size 15 to 20)
#    0.000    2.286    0.000    2.143    0.000   11.714 
#    0.000    4.286    0.000    0.429    0.000    3.000 
#    0.000    0.000    0.000    0.000    0.000    0.000 
#
# Total GULP energy -694202.551670 kJ/mol
# GULP energy per Si atom -12396.474137 kJ/mol
# Density = 1.866277 g / cm^3
# Si number density = 18.705343 Si / 1000 Ang^3
#
#
#
# Elastic Constant Matrix: (Units=GPa)
#
#
# Indices 1 2 3 4 5 6 
#
# 1 89.7386 46.0154 62.9585 0.0000 0.0000 0.0000
# 2 46.0154 77.7505 60.3403 0.0000 0.0000 0.0000
# 3 62.9585 60.3403 146.8006 0.0000 0.0000 0.0000
# 4 0.0000 0.0000 0.0000 25.1272 0.0000 0.0000
# 5 0.0000 0.0000 0.0000 0.0000 -176.1235 0.0000
# 6 0.0000 0.0000 0.0000 0.0000 0.0000 84.4366
#
#
#
# Elastic Compliance Matrix: (Units=1/GPa)
#
#
# Indices 1 2 3 4 5 6 
#
# 1 0.018156 -0.006905 -0.004948 0.000000 0.000000 0.000000
# 2 -0.006905 0.021512 -0.005881 0.000000 0.000000 0.000000
# 3 -0.004948 -0.005881 0.011351 0.000000 0.000000 0.000000
# 4 0.000000 0.000000 0.000000 0.039797 0.000000 0.000000
# 5 0.000000 0.000000 0.000000 0.000000 -0.005678 0.000000
# 6 0.000000 0.000000 0.000000 0.000000 0.000000 0.011843
#
#
# Mechanical properties :
#
#
# Convention : Reuss Voigt Hill
#
# Bulk Modulus (GPa) = 64.30437 72.54645 68.42541
# Shear Modulus (GPa) = 36.32811 -3.64689 16.34061
#
# Velocity S-wave (km/s) = 4.41174 -1.39781 2.95884
# Velocity P-wave (km/s) = 7.77196 6.02186 6.95220
#
# Compressibility (1/GPa) = 0.01555104
#
# Stress axis : x y z
#
# Youngs Moduli (GPa) = 55.07906 46.48501 88.09446
#
# Poissons Ratio (x) = 0.32097 0.43592
# Poissons Ratio (y) = 0.38032 0.51808
# Poissons Ratio (z) = 0.27255 0.27338
#
# Static dielectric constant tensor:
#      x y z
#    x 3.437510 0.000000 0.000000 
#    y 0.000000 3.214510 0.000000 
#    z 0.000000 0.000000 3.504310 
# 
# 
# High freq. dielectric constant tensor:
#      x y z
#    x 1.722860 0.000000 0.000000 
#    y 0.000000 1.698810 0.000000 
#    z 0.000000 0.000000 1.735780 
# 
# From -- ./inp_files/5834.got.cif
#   From: 2010.03.12/outbox.cif.g09.slc.cpg/sg49_3_cif.got.tgz:5834.got - 2010.04.14 03:58:27.
