data_PCOD8203665
_publ_section_title
;
Structure prediction by ZEFSAII (Michael W. Deem and Ramdas Pophale) SiO2 
 PCOD8203665
Probable space group: P C C M
;
_chemical_formula_sum "Si O2"
_cell_formula_units_Z 58
_cell_length_a 14.501551
_cell_length_b 21.276589
_cell_length_c 9.233153
_cell_angle_alpha 90.000000
_cell_angle_beta 90.000000
_cell_angle_gamma 90.000000
_cell_volume 2848.829717
_symmetry_space_group_name_H-M "P C C M"
_symmetry_group_IT_number 49
_symmetry_cell_setting 'orthorhombic'
loop_
_space_group_symop_operation_xyz
x,y,z
-x,-y,z
x,-y,1/2-z
-x,y,1/2-z
-x,-y,-z
x,y,-z
-x,y,1/2+z
x,-y,1/2+z
loop_
_atom_site_type_symbol
_atom_site_label
_atom_site_fract_x
_atom_site_fract_y
_atom_site_fract_z
Si Si1 0.913185 0.065910 0.328494
Si Si2 0.000000 0.500000 0.250000
Si Si3 0.227416 0.138660 0.661743
Si Si4 0.411506 0.690255 0.335610
Si Si5 0.339997 0.444327 0.163710
Si Si6 0.593351 0.936329 0.669938
Si Si7 0.162747 0.587995 0.160963
Si Si8 0.764523 0.718540 0.339014
O O1 0.927665 0.058368 0.500000
O O2 0.823819 0.106206 0.294548
O O3 0.000000 0.099597 0.250000
O O4 0.899516 0.000000 0.250000
O O5 0.066054 0.549551 0.166069
O O6 0.199092 0.114305 0.500000
O O7 0.334948 0.121522 0.685900
O O8 0.197239 0.211301 0.673181
O O9 0.500000 0.715513 0.250000
O O10 0.421989 0.712410 0.500000
O O11 0.405325 0.615307 0.320517
O O12 0.317574 0.717782 0.275143
O O13 0.390752 0.500000 0.250000
O O14 0.236366 0.436970 0.224832
O O15 0.326392 0.464913 0.000000
O O16 0.500000 0.914368 0.750000
O O17 0.575218 0.950867 0.500000
O O18 0.629790 0.000000 0.750000
O O19 0.157037 0.664430 0.190887
O O20 0.202193 0.578107 0.000000
O O21 0.723293 0.707669 0.500000
#
# Coordination Sequence:
#
# PCOD8203665 Si02
#       8
#     8   2   8   8   8   8   8   8
#     4  11  22  38  62  90 121 155 198 249 300 353
#     4  12  22  32  60  94 116 136 188 232 286 356
#     4  10  21  38  60  86 118 158 203 247 302 361
#     4  10  21  36  55  80 108 143 187 233 277 334
#     4  10  20  34  54  78 108 139 173 219 274 334
#     4  10  20  34  54  83 120 159 198 248 294 345
#     4  10  21  37  57  82 112 147 182 227 286 343
#     4   9  20  40  60  79 114 156 192 237 292 349
#
# _framework density 20.359238000000001
#
# number of rings (size 3 to 8) (size 9 to 14) (size 15 to 20)
#    0.000    1.931    0.690    3.931    0.000    5.793 
#    1.241    2.759    0.000    0.000    0.000    0.000 
#    0.000    0.000    0.000    0.000    0.000    0.000 
#
# Total GULP energy -718511.709907 kJ/mol
# GULP energy per Si atom -12388.132929 kJ/mol
# Density = 2.031290 g / cm^3
# Si number density = 20.359238 Si / 1000 Ang^3
#
#
#
# Elastic Constant Matrix: (Units=GPa)
#
#
# Indices 1 2 3 4 5 6 
#
# 1 84.8991 33.1646 42.3219 0.0000 0.0000 0.0000
# 2 33.1646 88.2596 36.5666 0.0000 0.0000 0.0000
# 3 42.3219 36.5666 153.8383 0.0000 0.0000 0.0000
# 4 0.0000 0.0000 0.0000 24.3260 0.0000 0.0000
# 5 0.0000 0.0000 0.0000 0.0000 29.5464 0.0000
# 6 0.0000 0.0000 0.0000 0.0000 0.0000 21.9259
#
#
#
# Elastic Compliance Matrix: (Units=1/GPa)
#
#
# Indices 1 2 3 4 5 6 
#
# 1 0.015027 -0.004364 -0.003097 0.000000 0.000000 0.000000
# 2 -0.004364 0.013835 -0.002088 0.000000 0.000000 0.000000
# 3 -0.003097 -0.002088 0.007849 0.000000 0.000000 0.000000
# 4 0.000000 0.000000 0.000000 0.041108 0.000000 0.000000
# 5 0.000000 0.000000 0.000000 0.000000 0.033845 0.000000
# 6 0.000000 0.000000 0.000000 0.000000 0.000000 0.045608
#
#
# Mechanical properties :
#
#
# Convention : Reuss Voigt Hill
#
# Bulk Modulus (GPa) = 56.77396 61.23369 59.00383
# Shear Modulus (GPa) = 27.43634 29.48927 28.46280
#
# Velocity S-wave (km/s) = 3.67497 3.80997 3.74308
# Velocity P-wave (km/s) = 6.77892 7.03537 6.90834
#
# Compressibility (1/GPa) = 0.01761371
#
# Stress axis : x y z
#
# Youngs Moduli (GPa) = 66.54691 72.28068 127.41099
#
# Poissons Ratio (x) = 0.31540 0.39457
# Poissons Ratio (y) = 0.29038 0.26604
# Poissons Ratio (z) = 0.20608 0.15093
#
# Static dielectric constant tensor:
#      x y z
#    x 3.532680 0.000000 0.000000 
#    y 0.000000 3.788270 0.000000 
#    z 0.000000 0.000000 3.838840 
# 
# 
# High freq. dielectric constant tensor:
#      x y z
#    x 1.773260 0.000000 0.000000 
#    y 0.000000 1.794030 0.000000 
#    z 0.000000 0.000000 1.805970 
# 
# From -- ./inp_files/4281.got.cif
#   From: 2010.03.12/outbox.cif.g09.slc.cpg/sg49_3_cif.got.tgz:4281.got - 2010.04.14 03:58:27.
