data_PCOD8203120
_publ_section_title
;
Structure prediction by ZEFSAII (Michael W. Deem and Ramdas Pophale) SiO2 
 PCOD8203120
Probable space group: P C C M
;
_chemical_formula_sum "Si O2"
_cell_formula_units_Z 64
_cell_length_a 20.798793
_cell_length_b 17.353479
_cell_length_c 8.768150
_cell_angle_alpha 90.000000
_cell_angle_beta 90.000000
_cell_angle_gamma 90.000000
_cell_volume 3164.700809
_symmetry_space_group_name_H-M "P C C M"
_symmetry_group_IT_number 49
_symmetry_cell_setting 'orthorhombic'
loop_
_space_group_symop_operation_xyz
x,y,z
-x,-y,z
x,-y,1/2-z
-x,y,1/2-z
-x,-y,-z
x,y,-z
-x,y,1/2+z
x,-y,1/2+z
loop_
_atom_site_type_symbol
_atom_site_label
_atom_site_fract_x
_atom_site_fract_y
_atom_site_fract_z
Si Si1 0.196255 0.790672 0.176897
Si Si2 0.934957 0.251705 0.681189
Si Si3 0.296808 0.921682 0.181798
Si Si4 0.437377 0.706172 0.676584
Si Si5 0.345112 0.426853 0.820442
Si Si6 0.090713 0.576824 0.323350
Si Si7 0.432405 0.120351 0.818101
Si Si8 0.782671 0.384390 0.175604
O O1 0.127354 0.796254 0.262348
O O2 0.249296 0.852464 0.236633
O O3 0.225513 0.706574 0.208357
O O4 0.182200 0.805411 0.000000
O O5 0.935941 0.248105 0.500000
O O6 0.934672 0.340949 0.741262
O O7 0.000000 0.213862 0.750000
O O8 0.369194 0.918780 0.248833
O O9 0.266120 0.000000 0.250000
O O10 0.301124 0.924125 0.000000
O O11 0.500000 0.668321 0.750000
O O12 0.450334 0.709273 0.500000
O O13 0.378304 0.653071 0.720627
O O14 0.425398 0.791695 0.738643
O O15 0.384301 0.500000 0.750000
O O16 0.281503 0.427443 0.719834
O O17 0.333209 0.435058 0.000000
O O18 0.058164 0.500000 0.250000
O O19 0.077308 0.571224 0.500000
O O20 0.165823 0.576570 0.286037
O O21 0.500000 0.086700 0.750000
O O22 0.432864 0.110085 0.000000
O O23 0.801522 0.399558 0.000000
#
# Coordination Sequence:
#
# PCOD8203120 Si02
#       8
#     8   8   8   8   8   8   8   8
#     4   9  20  38  60  84 112 145 184 227 274 328
#     4  10  21  36  57  83 112 147 190 235 282 332
#     4  11  23  39  60  89 121 152 183 221 269 325
#     4   9  20  36  54  73  96 129 171 218 268 320
#     4  11  22  34  47  68  97 131 172 221 274 326
#     4  10  20  33  49  73 106 145 183 225 274 325
#     4  10  20  37  60  86 115 149 187 228 272 325
#     4  10  19  33  53  75  99 133 175 221 268 319
#
# _framework density 20.223081000000001
#
# number of rings (size 3 to 8) (size 9 to 14) (size 15 to 20)
#    0.000    2.000    0.000    3.375    0.000    5.250 
#    0.000    3.750    0.000    0.375    0.000    2.625 
#    0.000    0.000    0.000    0.000    0.000    0.000 
#
# Total GULP energy -793264.521776 kJ/mol
# GULP energy per Si atom -12394.758153 kJ/mol
# Density = 2.017705 g / cm^3
# Si number density = 20.223081 Si / 1000 Ang^3
#
#
#
# Elastic Constant Matrix: (Units=GPa)
#
#
# Indices 1 2 3 4 5 6 
#
# 1 105.9280 34.2285 37.6373 0.0000 0.0000 0.0000
# 2 34.2285 83.8349 27.0343 0.0000 0.0000 0.0000
# 3 37.6373 27.0343 54.1691 0.0000 0.0000 0.0000
# 4 0.0000 0.0000 0.0000 28.3006 0.0000 0.0000
# 5 0.0000 0.0000 0.0000 0.0000 31.4686 0.0000
# 6 0.0000 0.0000 0.0000 0.0000 0.0000 -10.2528
#
#
#
# Elastic Compliance Matrix: (Units=1/GPa)
#
#
# Indices 1 2 3 4 5 6 
#
# 1 0.013091 -0.002874 -0.007662 0.000000 0.000000 0.000000
# 2 -0.002874 0.014847 -0.005413 0.000000 0.000000 0.000000
# 3 -0.007662 -0.005413 0.026485 0.000000 0.000000 0.000000
# 4 0.000000 0.000000 0.000000 0.035335 0.000000 0.000000
# 5 0.000000 0.000000 0.000000 0.000000 0.031778 0.000000
# 6 0.000000 0.000000 0.000000 0.000000 0.000000 -0.097534
#
#
# Mechanical properties :
#
#
# Convention : Reuss Voigt Hill
#
# Bulk Modulus (GPa) = 44.39163 49.08134 46.73648
# Shear Modulus (GPa) = 78.85371 19.57207 49.21289
#
# Velocity S-wave (km/s) = 6.25113 3.11434 4.93840
# Velocity P-wave (km/s) = 8.60818 6.10367 7.46175
#
# Compressibility (1/GPa) = 0.02252677
#
# Stress axis : x y z
#
# Youngs Moduli (GPa) = 76.38606 67.35273 37.75681
#
# Poissons Ratio (x) = 0.19360 0.28927
# Poissons Ratio (y) = 0.21956 0.20436
# Poissons Ratio (z) = 0.58523 0.36456
#
# Static dielectric constant tensor:
#      x y z
#    x 3.631740 0.000000 0.000000 
#    y 0.000000 4.032290 0.000000 
#    z 0.000000 0.000000 3.738450 
# 
# 
# High freq. dielectric constant tensor:
#      x y z
#    x 1.787140 0.000000 0.000000 
#    y 0.000000 1.781350 0.000000 
#    z 0.000000 0.000000 1.791350 
# 
# From -- ./inp_files/5247.got.cif
#   From: 2010.03.12/outbox.cif.g09.slc.cpg/sg49_3_cif.got.tgz:5247.got - 2010.04.14 03:58:27.
