data_PCOD8203533
_publ_section_title
;
Structure prediction by ZEFSAII (Michael W. Deem and Ramdas Pophale) SiO2 
 PCOD8203533
Probable space group: P C C M
;
_chemical_formula_sum "Si O2"
_cell_formula_units_Z 64
_cell_length_a 17.422498
_cell_length_b 20.695415
_cell_length_c 8.848272
_cell_angle_alpha 90.000000
_cell_angle_beta 90.000000
_cell_angle_gamma 90.000000
_cell_volume 3190.384506
_symmetry_space_group_name_H-M "P C C M"
_symmetry_group_IT_number 49
_symmetry_cell_setting 'orthorhombic'
loop_
_space_group_symop_operation_xyz
x,y,z
-x,-y,z
x,-y,1/2-z
-x,y,1/2-z
-x,-y,-z
x,y,-z
-x,y,1/2+z
x,-y,1/2+z
loop_
_atom_site_type_symbol
_atom_site_label
_atom_site_fract_x
_atom_site_fract_y
_atom_site_fract_z
Si Si1 0.760946 0.936468 0.178356
Si Si2 0.711202 0.795661 0.822300
Si Si3 0.370989 0.566750 0.178146
Si Si4 0.920879 0.089964 0.828240
Si Si5 0.790323 0.438891 0.327591
Si Si6 0.930236 0.347939 0.328644
Si Si7 0.420925 0.291733 0.679388
Si Si8 0.133017 0.768359 0.170133
O O1 0.713278 0.871879 0.225388
O O2 0.848046 0.937045 0.238114
O O3 0.719688 0.000000 0.250000
O O4 0.762991 0.942648 0.000000
O O5 0.645592 0.755778 0.737225
O O6 0.793428 0.766722 0.779433
O O7 0.698066 0.787215 0.000000
O O8 0.405697 0.500000 0.250000
O O9 0.284078 0.576965 0.230009
O O10 0.412298 0.632948 0.230876
O O11 0.375720 0.558471 0.000000
O O12 0.915552 0.166709 0.824424
O O13 0.000000 0.067036 0.750000
O O14 0.919028 0.063906 0.000000
O O15 0.831702 0.500000 0.250000
O O16 0.766288 0.453702 0.500000
O O17 0.848410 0.380859 0.316912
O O18 0.951967 0.332995 0.500000
O O19 0.926569 0.283599 0.230121
O O20 0.000000 0.388412 0.250000
O O21 0.500000 0.265946 0.750000
O O22 0.423096 0.286666 0.500000
O O23 0.161204 0.753351 0.000000
#
# Coordination Sequence:
#
# PCOD8203533 Si02
#       8
#     8   8   8   8   8   8   8   8
#     4  10  21  37  58  84 113 148 191 237 285 337
#     4  10  21  38  61  87 116 150 188 231 279 334
#     4  10  21  37  59  86 115 150 189 228 272 326
#     4  10  20  33  50  75 109 147 187 232 281 333
#     4  10  21  36  54  74  97 131 175 223 274 328
#     4  11  23  35  49  71  99 134 177 229 286 338
#     4  11  24  40  61  90 122 155 189 227 275 330
#     4  10  20  34  54  78 105 140 182 227 275 330
#
# _framework density 20.060278
#
# number of rings (size 3 to 8) (size 9 to 14) (size 15 to 20)
#    0.000    1.750    0.000    4.875    0.000   10.750 
#    0.000    3.750    0.000    0.375    0.000    2.625 
#    0.000    0.000    0.000    0.000    0.000    0.000 
#
# Total GULP energy -793344.741841 kJ/mol
# GULP energy per Si atom -12396.011591 kJ/mol
# Density = 2.001462 g / cm^3
# Si number density = 20.060278 Si / 1000 Ang^3
#
#
#
# Elastic Constant Matrix: (Units=GPa)
#
#
# Indices 1 2 3 4 5 6 
#
# 1 72.2959 38.3940 29.4860 0.0000 0.0000 0.0000
# 2 38.3940 104.8410 55.8465 0.0000 0.0000 0.0000
# 3 29.4860 55.8465 98.6722 0.0000 0.0000 0.0000
# 4 0.0000 0.0000 0.0000 30.1016 0.0000 0.0000
# 5 0.0000 0.0000 0.0000 0.0000 29.3777 0.0000
# 6 0.0000 0.0000 0.0000 0.0000 0.0000 6.7723
#
#
#
# Elastic Compliance Matrix: (Units=1/GPa)
#
#
# Indices 1 2 3 4 5 6 
#
# 1 0.017528 -0.005195 -0.002298 0.000000 0.000000 0.000000
# 2 -0.005195 0.015195 -0.007048 0.000000 0.000000 0.000000
# 3 -0.002298 -0.007048 0.014810 0.000000 0.000000 0.000000
# 4 0.000000 0.000000 0.000000 0.033221 0.000000 0.000000
# 5 0.000000 0.000000 0.000000 0.000000 0.034039 0.000000
# 6 0.000000 0.000000 0.000000 0.000000 0.000000 0.147660
#
#
# Mechanical properties :
#
#
# Convention : Reuss Voigt Hill
#
# Bulk Modulus (GPa) = 54.19345 58.14022 56.16683
# Shear Modulus (GPa) = 16.79631 23.38916 20.09274
#
# Velocity S-wave (km/s) = 2.89674 3.41830 3.16827
# Velocity P-wave (km/s) = 6.18564 6.68022 6.43768
#
# Compressibility (1/GPa) = 0.01845241
#
# Stress axis : x y z
#
# Youngs Moduli (GPa) = 57.05133 65.81182 67.52246
#
# Poissons Ratio (x) = 0.34190 0.15513
# Poissons Ratio (y) = 0.29639 0.47587
# Poissons Ratio (z) = 0.13108 0.46381
#
# Static dielectric constant tensor:
#      x y z
#    x 3.602910 0.000000 0.000000 
#    y 0.000000 4.276780 0.000000 
#    z 0.000000 0.000000 3.841440 
# 
# 
# High freq. dielectric constant tensor:
#      x y z
#    x 1.761820 0.000000 0.000000 
#    y 0.000000 1.789300 0.000000 
#    z 0.000000 0.000000 1.799560 
# 
# From -- ./inp_files/5279.got.cif
#   From: 2010.03.12/outbox.cif.g09.slc.cpg/sg49_3_cif.got.tgz:5279.got - 2010.04.14 03:58:27.
