data_PCOD8203675
_publ_section_title
;
Structure prediction by ZEFSAII (Michael W. Deem and Ramdas Pophale) SiO2 
 PCOD8203675
Probable space group: P C C M
;
_chemical_formula_sum "Si O2"
_cell_formula_units_Z 64
_cell_length_a 18.177459
_cell_length_b 20.531491
_cell_length_c 8.782926
_cell_angle_alpha 90.000000
_cell_angle_beta 90.000000
_cell_angle_gamma 90.000000
_cell_volume 3277.878762
_symmetry_space_group_name_H-M "P C C M"
_symmetry_group_IT_number 49
_symmetry_cell_setting 'orthorhombic'
loop_
_space_group_symop_operation_xyz
x,y,z
-x,-y,z
x,-y,1/2-z
-x,y,1/2-z
-x,-y,-z
x,y,-z
-x,y,1/2+z
x,-y,1/2+z
loop_
_atom_site_type_symbol
_atom_site_label
_atom_site_fract_x
_atom_site_fract_y
_atom_site_fract_z
Si Si1 0.189805 0.433112 0.678213
Si Si2 0.423850 0.694612 0.679998
Si Si3 0.846749 0.204632 0.321577
Si Si4 0.642305 0.568302 0.680420
Si Si5 0.309544 0.938318 0.176179
Si Si6 0.313031 0.793857 0.177335
Si Si7 0.076485 0.323659 0.681027
Si Si8 0.849326 0.061435 0.675087
O O1 0.160752 0.500000 0.750000
O O2 0.184286 0.442196 0.500000
O O3 0.273257 0.417958 0.728593
O O4 0.139105 0.374084 0.734231
O O5 0.500000 0.720503 0.750000
O O6 0.430167 0.689759 0.500000
O O7 0.407850 0.623820 0.748132
O O8 0.360606 0.745000 0.723613
O O9 0.831868 0.217063 0.500000
O O10 0.770901 0.211950 0.230436
O O11 0.905839 0.254194 0.254745
O O12 0.883591 0.132987 0.296003
O O13 0.615724 0.500000 0.750000
O O14 0.632159 0.567205 0.500000
O O15 0.345829 0.867099 0.201830
O O16 0.231491 0.935955 0.256401
O O17 0.354554 0.000000 0.250000
O O18 0.299154 0.952642 0.000000
O O19 0.316326 0.773708 0.000000
O O20 0.071438 0.317534 0.500000
O O21 0.000000 0.348979 0.750000
O O22 0.843539 0.045088 0.500000
O O23 0.893530 0.000000 0.750000
#
# Coordination Sequence:
#
# PCOD8203675 Si02
#       8
#     8   8   8   8   8   8   8   8
#     4   9  20  37  59  84 110 140 175 217 265 315
#     4  12  25  40  58  81 110 147 186 228 276 326
#     4  10  20  34  54  81 109 142 183 226 271 324
#     4  10  20  38  62  88 115 143 179 223 270 324
#     4   9  16  26  45  73 106 139 174 218 269 319
#     4  10  20  35  55  81 111 145 183 226 274 326
#     4  11  23  38  55  78 109 146 184 225 272 323
#     4   9  16  26  44  72 105 136 172 217 267 319
#
# _framework density 19.524820999999999
#
# number of rings (size 3 to 8) (size 9 to 14) (size 15 to 20)
#    0.000    2.000    0.000    4.875    0.000    6.000 
#    0.000    2.500    0.000    0.750    0.000    5.250 
#    0.000    0.000    0.000    0.000    0.000    0.000 
#
# Total GULP energy -793398.190494 kJ/mol
# GULP energy per Si atom -12396.846726 kJ/mol
# Density = 1.948038 g / cm^3
# Si number density = 19.524821 Si / 1000 Ang^3
#
#
#
# Elastic Constant Matrix: (Units=GPa)
#
#
# Indices 1 2 3 4 5 6 
#
# 1 37.5868 11.2851 14.0182 0.0000 0.0000 0.0000
# 2 11.2851 101.6433 42.9023 0.0000 0.0000 0.0000
# 3 14.0182 42.9023 104.3989 0.0000 0.0000 0.0000
# 4 0.0000 0.0000 0.0000 38.2137 0.0000 0.0000
# 5 0.0000 0.0000 0.0000 0.0000 25.0207 0.0000
# 6 0.0000 0.0000 0.0000 0.0000 0.0000 4.3839
#
#
#
# Elastic Compliance Matrix: (Units=1/GPa)
#
#
# Indices 1 2 3 4 5 6 
#
# 1 0.028296 -0.001861 -0.003035 0.000000 0.000000 0.000000
# 2 -0.001861 0.012025 -0.004692 0.000000 0.000000 0.000000
# 3 -0.003035 -0.004692 0.011914 0.000000 0.000000 0.000000
# 4 0.000000 0.000000 0.000000 0.026169 0.000000 0.000000
# 5 0.000000 0.000000 0.000000 0.000000 0.039967 0.000000
# 6 0.000000 0.000000 0.000000 0.000000 0.000000 0.228106
#
#
# Mechanical properties :
#
#
# Convention : Reuss Voigt Hill
#
# Bulk Modulus (GPa) = 30.24758 42.22669 36.23714
# Shear Modulus (GPa) = 13.27418 25.21856 19.24637
#
# Velocity S-wave (km/s) = 2.61024 3.59780 3.14305
# Velocity P-wave (km/s) = 4.96085 6.23964 5.63662
#
# Compressibility (1/GPa) = 0.03306049
#
# Stress axis : x y z
#
# Youngs Moduli (GPa) = 35.34122 83.15801 83.93297
#
# Poissons Ratio (x) = 0.15473 0.25472
# Poissons Ratio (y) = 0.06576 0.39381
# Poissons Ratio (z) = 0.10725 0.39017
#
# Static dielectric constant tensor:
#      x y z
#    x 3.215590 0.000000 0.000000 
#    y 0.000000 4.408910 0.000000 
#    z 0.000000 0.000000 3.653790 
# 
# 
# High freq. dielectric constant tensor:
#      x y z
#    x 1.716370 0.000000 0.000000 
#    y 0.000000 1.784240 0.000000 
#    z 0.000000 0.000000 1.775600 
# 
# From -- ./inp_files/5297.got.cif
#   From: 2010.03.12/outbox.cif.g09.slc.cpg/sg49_3_cif.got.tgz:5297.got - 2010.04.14 03:58:27.
