data_PCOD8203946
_publ_section_title
;
Structure prediction by ZEFSAII (Michael W. Deem and Ramdas Pophale) SiO2 
 PCOD8203946
Probable space group: P C C M
;
_chemical_formula_sum "Si O2"
_cell_formula_units_Z 32
_cell_length_a 10.419545
_cell_length_b 8.860166
_cell_length_c 15.565663
_cell_angle_alpha 90.000000
_cell_angle_beta 90.000000
_cell_angle_gamma 90.000000
_cell_volume 1437.004860
_symmetry_space_group_name_H-M "P C C M"
_symmetry_group_IT_number 49
_symmetry_cell_setting 'orthorhombic'
loop_
_space_group_symop_operation_xyz
x,y,z
-x,-y,z
x,-y,1/2-z
-x,y,1/2-z
-x,-y,-z
x,y,-z
-x,y,1/2+z
x,-y,1/2+z
loop_
_atom_site_type_symbol
_atom_site_label
_atom_site_fract_x
_atom_site_fract_y
_atom_site_fract_z
Si Si1 0.371281 0.579246 0.897697
Si Si2 0.129889 0.065446 0.844995
Si Si3 0.123074 0.399503 0.898723
Si Si4 0.619477 0.086980 0.098229
O O1 0.500000 0.500000 0.862661
O O2 0.247975 0.487815 0.865440
O O3 0.362598 0.748546 0.858667
O O4 0.369961 0.582785 0.000000
O O5 0.118551 0.245599 0.844935
O O6 0.145179 0.000000 0.750000
O O7 0.252646 0.012849 0.898609
O O8 0.000000 0.000000 0.887920
O O9 0.000000 0.500000 0.876099
O O10 0.128571 0.362166 0.000000
O O11 0.500000 0.000000 0.143263
O O12 0.581852 0.115434 0.000000
#
# Coordination Sequence:
#
# PCOD8203946 Si02
#       4
#     8   8   8   8
#     4   9  17  31  53  83 114 143 183 236 292 346
#     4  11  24  40  56  82 120 161 200 242 299 365
#     4  10  20  36  61  89 115 149 198 253 303 354
#     4  10  20  36  61  89 116 152 198 248 300 354
#
# _framework density 22.268540000000002
#
# number of rings (size 3 to 8) (size 9 to 14) (size 15 to 20)
#    0.000    2.000    0.000    3.750    0.000    8.500 
#    0.000    8.750    0.000    1.500    0.000    0.000 
#    0.000    0.000    0.000    0.000    0.000    0.000 
#
# Total GULP energy -396832.814831 kJ/mol
# GULP energy per Si atom -12401.025463 kJ/mol
# Density = 2.221786 g / cm^3
# Si number density = 22.268540 Si / 1000 Ang^3
#
#
#
# Elastic Constant Matrix: (Units=GPa)
#
#
# Indices 1 2 3 4 5 6 
#
# 1 220.9840 104.8681 6.2262 0.0000 0.0000 0.0000
# 2 104.8681 236.1059 29.7641 0.0000 0.0000 0.0000
# 3 6.2262 29.7641 31.0533 0.0000 0.0000 0.0000
# 4 0.0000 0.0000 0.0000 26.5324 0.0000 0.0000
# 5 0.0000 0.0000 0.0000 0.0000 9.5650 0.0000
# 6 0.0000 0.0000 0.0000 0.0000 0.0000 49.7614
#
#
#
# Elastic Compliance Matrix: (Units=1/GPa)
#
#
# Indices 1 2 3 4 5 6 
#
# 1 0.005793 -0.002760 0.001484 0.000000 0.000000 0.000000
# 2 -0.002760 0.006133 -0.005325 0.000000 0.000000 0.000000
# 3 0.001484 -0.005325 0.037009 0.000000 0.000000 0.000000
# 4 0.000000 0.000000 0.000000 0.037690 0.000000 0.000000
# 5 0.000000 0.000000 0.000000 0.000000 0.104548 0.000000
# 6 0.000000 0.000000 0.000000 0.000000 0.000000 0.020096
#
#
# Mechanical properties :
#
#
# Convention : Reuss Voigt Hill
#
# Bulk Modulus (GPa) = 27.98528 85.54000 56.76264
# Shear Modulus (GPa) = 21.15232 40.32406 30.73819
#
# Velocity S-wave (km/s) = 3.08535 4.25998 3.71933
# Velocity P-wave (km/s) = 5.02861 7.91788 6.63249
#
# Compressibility (1/GPa) = 0.03573307
#
# Stress axis : x y z
#
# Youngs Moduli (GPa) = 172.61446 163.06366 27.02072
#
# Poissons Ratio (x) = 0.45009 -0.04010
# Poissons Ratio (y) = 0.47645 0.14387
# Poissons Ratio (z) = -0.25617 0.86824
#
# Static dielectric constant tensor:
#      x y z
#    x 4.313790 0.000000 0.000000 
#    y 0.000000 4.252200 0.000000 
#    z 0.000000 0.000000 3.355780 
# 
# 
# High freq. dielectric constant tensor:
#      x y z
#    x 1.896420 0.000000 0.000000 
#    y 0.000000 1.894930 0.000000 
#    z 0.000000 0.000000 1.829110 
# 
# From -- ./inp_files/11190.got.cif
#   From: 2010.03.12/outbox.cif.g09.slc.cpg/sg49_6_cif.got.tgz:11190.got - 2010.04.14 03:58:27.
