data_PCOD8203206
_publ_section_title
;
Structure prediction by ZEFSAII (Michael W. Deem and Ramdas Pophale) SiO2 
 PCOD8203206
Probable space group: P C C M
;
_chemical_formula_sum "Si O2"
_cell_formula_units_Z 64
_cell_length_a 20.722830
_cell_length_b 19.510334
_cell_length_c 8.786016
_cell_angle_alpha 90.000000
_cell_angle_beta 90.000000
_cell_angle_gamma 90.000000
_cell_volume 3552.268284
_symmetry_space_group_name_H-M "P C C M"
_symmetry_group_IT_number 49
_symmetry_cell_setting 'orthorhombic'
loop_
_space_group_symop_operation_xyz
x,y,z
-x,-y,z
x,-y,1/2-z
-x,y,1/2-z
-x,-y,-z
x,y,-z
-x,y,1/2+z
x,-y,1/2+z
loop_
_atom_site_type_symbol
_atom_site_label
_atom_site_fract_x
_atom_site_fract_y
_atom_site_fract_z
Si Si1 0.618275 0.429011 0.179563
Si Si2 0.189965 0.293609 0.819663
Si Si3 0.933378 0.789627 0.177970
Si Si4 0.565585 0.705860 0.179495
Si Si5 0.766773 0.570566 0.678773
Si Si6 0.311946 0.795752 0.321009
Si Si7 0.872655 0.069497 0.320252
Si Si8 0.266842 0.929227 0.819478
O O1 0.592950 0.500000 0.250000
O O2 0.576346 0.368719 0.250013
O O3 0.692632 0.417262 0.226450
O O4 0.608786 0.430842 0.000000
O O5 0.125439 0.256305 0.760218
O O6 0.190616 0.367981 0.744133
O O7 0.251387 0.249478 0.765526
O O8 0.190995 0.301976 0.000000
O O9 0.920899 0.868966 0.220149
O O10 0.000000 0.764393 0.250000
O O11 0.938962 0.779751 0.000000
O O12 0.500000 0.736686 0.250000
O O13 0.623162 0.756553 0.225310
O O14 0.559499 0.698504 0.000000
O O15 0.792712 0.500000 0.750000
O O16 0.775522 0.566464 0.500000
O O17 0.307573 0.810510 0.500000
O O18 0.313176 0.867493 0.231566
O O19 0.862287 0.061537 0.500000
O O20 0.804053 0.085688 0.245506
O O21 0.902524 0.000000 0.250000
O O22 0.294263 0.000000 0.750000
O O23 0.264267 0.935116 0.000000
#
# Coordination Sequence:
#
# PCOD8203206 Si02
#       8
#     8   8   8   8   8   8   8   8
#     4  10  20  34  53  79 112 147 187 226 267 323
#     4  10  19  36  58  80 109 144 182 226 274 323
#     4  10  22  37  54  76 109 147 183 226 273 325
#     4  11  23  38  57  80 111 149 183 226 275 325
#     4  10  20  33  54  84 113 142 179 226 273 324
#     4  10  20  37  59  81 110 145 183 225 275 324
#     4  10  19  34  52  76 109 147 186 224 269 321
#     4  11  21  33  55  84 113 143 180 228 275 323
#
# _framework density 18.016658
#
# number of rings (size 3 to 8) (size 9 to 14) (size 15 to 20)
#    0.000    1.750    2.500    3.375    0.000    4.500 
#    0.000    2.500    0.000    0.750    0.000    5.250 
#    0.000    0.000    0.000    0.000    0.000    0.000 
#
# Total GULP energy -793845.022094 kJ/mol
# GULP energy per Si atom -12403.828470 kJ/mol
# Density = 1.797565 g / cm^3
# Si number density = 18.016658 Si / 1000 Ang^3
#
#
#
# Elastic Constant Matrix: (Units=GPa)
#
#
# Indices 1 2 3 4 5 6 
#
# 1 116.7489 66.0242 40.8972 0.0000 0.0000 0.0000
# 2 66.0242 129.1734 49.3203 0.0000 0.0000 0.0000
# 3 40.8972 49.3203 77.1689 0.0000 0.0000 0.0000
# 4 0.0000 0.0000 0.0000 34.7523 0.0000 0.0000
# 5 0.0000 0.0000 0.0000 0.0000 27.6582 0.0000
# 6 0.0000 0.0000 0.0000 0.0000 0.0000 23.1192
#
#
#
# Elastic Compliance Matrix: (Units=1/GPa)
#
#
# Indices 1 2 3 4 5 6 
#
# 1 0.012693 -0.005184 -0.003413 0.000000 0.000000 0.000000
# 2 -0.005184 0.012358 -0.005151 0.000000 0.000000 0.000000
# 3 -0.003413 -0.005151 0.018060 0.000000 0.000000 0.000000
# 4 0.000000 0.000000 0.000000 0.028775 0.000000 0.000000
# 5 0.000000 0.000000 0.000000 0.000000 0.036156 0.000000
# 6 0.000000 0.000000 0.000000 0.000000 0.000000 0.043254
#
#
# Mechanical properties :
#
#
# Convention : Reuss Voigt Hill
#
# Bulk Modulus (GPa) = 64.04733 70.61941 67.33337
# Shear Modulus (GPa) = 27.17433 28.22924 27.70178
#
# Velocity S-wave (km/s) = 3.88788 3.96263 3.92543
# Velocity P-wave (km/s) = 7.46862 7.76005 7.61573
#
# Compressibility (1/GPa) = 0.01561345
#
# Stress axis : x y z
#
# Youngs Moduli (GPa) = 78.78316 80.91874 55.37243
#
# Poissons Ratio (x) = 0.41952 0.18901
# Poissons Ratio (y) = 0.40845 0.28521
# Poissons Ratio (z) = 0.26892 0.41679
#
# Static dielectric constant tensor:
#      x y z
#    x 3.247240 0.000000 0.000000 
#    y 0.000000 3.381880 0.000000 
#    z 0.000000 0.000000 3.291790 
# 
# 
# High freq. dielectric constant tensor:
#      x y z
#    x 1.673110 0.000000 0.000000 
#    y 0.000000 1.702680 0.000000 
#    z 0.000000 0.000000 1.704120 
# 
# From -- ./inp_files/5262.got.cif
#   From: 2010.03.12/outbox.cif.g09.slc.cpg/sg49_3_cif.got.tgz:5262.got - 2010.04.14 03:58:27.
