data_PCOD8203430
_publ_section_title
;
Structure prediction by ZEFSAII (Michael W. Deem and Ramdas Pophale) SiO2 
 PCOD8203430
Probable space group: P C C M
;
_chemical_formula_sum "Si O2"
_cell_formula_units_Z 56
_cell_length_a 15.300079
_cell_length_b 20.068670
_cell_length_c 9.232139
_cell_angle_alpha 90.000000
_cell_angle_beta 90.000000
_cell_angle_gamma 90.000000
_cell_volume 2834.748927
_symmetry_space_group_name_H-M "P C C M"
_symmetry_group_IT_number 49
_symmetry_cell_setting 'orthorhombic'
loop_
_space_group_symop_operation_xyz
x,y,z
-x,-y,z
x,-y,1/2-z
-x,y,1/2-z
-x,-y,-z
x,y,-z
-x,y,1/2+z
x,-y,1/2+z
loop_
_atom_site_type_symbol
_atom_site_label
_atom_site_fract_x
_atom_site_fract_y
_atom_site_fract_z
Si Si1 0.918920 0.104315 0.668775
Si Si2 0.320145 0.193240 0.336028
Si Si3 0.412373 0.325253 0.670099
Si Si4 0.084454 0.618518 0.831130
Si Si5 0.876457 0.769032 0.336574
Si Si6 0.275312 0.934539 0.329363
Si Si7 0.270834 0.433450 0.671387
O O1 0.937064 0.101506 0.500000
O O2 0.917942 0.180691 0.721395
O O3 0.827428 0.070141 0.710148
O O4 0.000000 0.067655 0.750000
O O5 0.337047 0.168226 0.500000
O O6 0.390283 0.248711 0.287944
O O7 0.227790 0.230087 0.325832
O O8 0.326597 0.129882 0.229752
O O9 0.500000 0.347597 0.750000
O O10 0.427495 0.331650 0.500000
O O11 0.334327 0.373698 0.720096
O O12 0.091255 0.696338 0.793736
O O13 0.172365 0.582687 0.776192
O O14 0.000000 0.588249 0.750000
O O15 0.071450 0.606510 0.000000
O O16 0.905314 0.788947 0.500000
O O17 0.291233 0.939884 0.500000
O O18 0.312647 0.000000 0.250000
O O19 0.303466 0.500000 0.750000
O O20 0.274259 0.443660 0.500000
#
# Coordination Sequence:
#
# PCOD8203430 Si02
#       7
#     8   8   8   8   8   8   8
#     4  10  20  31  44  68 102 139 183 235 284 333
#     4   9  17  34  59  82 109 147 184 226 282 338
#     4  10  21  39  64  92 120 150 187 232 286 348
#     4  10  20  34  53  78 110 149 194 240 285 336
#     4   9  16  30  52  74 101 140 183 230 283 335
#     4  10  21  35  52  77 108 145 189 233 280 338
#     4  10  22  41  60  82 117 157 195 236 287 343
#
# _framework density 19.754836000000001
#
# number of rings (size 3 to 8) (size 9 to 14) (size 15 to 20)
#    0.000    2.286    1.429    1.286    0.000    6.000 
#    0.000    4.286    0.000    0.429    0.000    3.000 
#    0.000    0.000    0.000    0.000    0.000    0.000 
#
# Total GULP energy -694424.178460 kJ/mol
# GULP energy per Si atom -12400.431758 kJ/mol
# Density = 1.970987 g / cm^3
# Si number density = 19.754836 Si / 1000 Ang^3
#
#
#
# Elastic Constant Matrix: (Units=GPa)
#
#
# Indices 1 2 3 4 5 6 
#
# 1 93.2341 43.7406 37.5495 0.0000 0.0000 0.0000
# 2 43.7406 105.9563 52.3820 0.0000 0.0000 0.0000
# 3 37.5495 52.3820 70.2750 0.0000 0.0000 0.0000
# 4 0.0000 0.0000 0.0000 29.7688 0.0000 0.0000
# 5 0.0000 0.0000 0.0000 0.0000 29.6088 0.0000
# 6 0.0000 0.0000 0.0000 0.0000 0.0000 6.9085
#
#
#
# Elastic Compliance Matrix: (Units=1/GPa)
#
#
# Indices 1 2 3 4 5 6 
#
# 1 0.014396 -0.003389 -0.005166 0.000000 0.000000 0.000000
# 2 -0.003389 0.015743 -0.009924 0.000000 0.000000 0.000000
# 3 -0.005166 -0.009924 0.024387 0.000000 0.000000 0.000000
# 4 0.000000 0.000000 0.000000 0.033592 0.000000 0.000000
# 5 0.000000 0.000000 0.000000 0.000000 0.033774 0.000000
# 6 0.000000 0.000000 0.000000 0.000000 0.000000 0.144749
#
#
# Mechanical properties :
#
#
# Convention : Reuss Voigt Hill
#
# Bulk Modulus (GPa) = 56.91956 59.64550 58.28253
# Shear Modulus (GPa) = 16.15742 22.31011 19.23377
#
# Velocity S-wave (km/s) = 2.86299 3.36423 3.12368
# Velocity P-wave (km/s) = 6.30908 6.73417 6.52509
#
# Compressibility (1/GPa) = 0.01756865
#
# Stress axis : x y z
#
# Youngs Moduli (GPa) = 69.46244 63.52054 41.00517
#
# Poissons Ratio (x) = 0.21527 0.21184
# Poissons Ratio (y) = 0.23541 0.40692
# Poissons Ratio (z) = 0.35885 0.63036
#
# Static dielectric constant tensor:
#      x y z
#    x 3.504390 0.000000 0.000000 
#    y 0.000000 3.474580 0.000000 
#    z 0.000000 0.000000 3.425070 
# 
# 
# High freq. dielectric constant tensor:
#      x y z
#    x 1.755250 0.000000 0.000000 
#    y 0.000000 1.767540 0.000000 
#    z 0.000000 0.000000 1.761330 
# 
# From -- ./inp_files/4008.got.cif
#   From: 2010.03.12/outbox.cif.g09.slc.cpg/sg49_3_cif.got.tgz:4008.got - 2010.04.14 03:58:27.
