data_PCOD8203795
_publ_section_title
;
Structure prediction by ZEFSAII (Michael W. Deem and Ramdas Pophale) SiO2 
 PCOD8203795
Probable space group: P C C M
;
_chemical_formula_sum "Si O2"
_cell_formula_units_Z 32
_cell_length_a 20.784606
_cell_length_b 9.411297
_cell_length_c 8.932593
_cell_angle_alpha 90.000000
_cell_angle_beta 90.000000
_cell_angle_gamma 90.000000
_cell_volume 1747.305411
_symmetry_space_group_name_H-M "P C C M"
_symmetry_group_IT_number 49
_symmetry_cell_setting 'orthorhombic'
loop_
_space_group_symop_operation_xyz
x,y,z
-x,-y,z
x,-y,1/2-z
-x,y,1/2-z
-x,-y,-z
x,y,-z
-x,y,1/2+z
x,-y,1/2+z
loop_
_atom_site_type_symbol
_atom_site_label
_atom_site_fract_x
_atom_site_fract_y
_atom_site_fract_z
Si Si1 0.184335 0.348303 0.675513
Si Si2 0.066507 0.851275 0.177170
Si Si3 0.439695 0.847152 0.174343
Si Si4 0.298085 0.151916 0.674685
O O1 0.181517 0.500000 0.750000
O O2 0.191260 0.370289 0.500000
O O3 0.119801 0.264530 0.717363
O O4 0.245697 0.261631 0.738921
O O5 0.000000 0.797973 0.250000
O O6 0.087846 0.000000 0.250000
O O7 0.058018 0.871670 0.000000
O O8 0.500000 0.761005 0.250000
O O9 0.369177 0.779439 0.204064
O O10 0.437630 0.000000 0.250000
O O11 0.453949 0.861661 0.000000
O O12 0.286771 0.125678 0.500000
O O13 0.288943 0.000000 0.750000
#
# Coordination Sequence:
#
# PCOD8203795 Si02
#       4
#     8   8   8   8
#     4  10  22  37  52  73 101 133 168 205 245 290
#     4  10  20  35  56  80 104 130 163 202 244 292
#     4   9  15  24  41  66  96 124 154 196 243 290
#     4   9  18  32  50  73  99 128 164 205 247 292
#
# _framework density 18.313914
#
# number of rings (size 3 to 8) (size 9 to 14) (size 15 to 20)
#    0.000    2.500    0.000    3.750    0.000    4.500 
#    0.000    2.500    0.000    0.750    0.000    5.250 
#    0.000    0.000    0.000    0.000    0.000    0.000 
#
# Total GULP energy -396592.067324 kJ/mol
# GULP energy per Si atom -12393.502104 kJ/mol
# Density = 1.827223 g / cm^3
# Si number density = 18.313914 Si / 1000 Ang^3
#
#
#
# Elastic Constant Matrix: (Units=GPa)
#
#
# Indices 1 2 3 4 5 6 
#
# 1 180.1697 91.2267 67.1982 0.0000 0.0000 0.0000
# 2 91.2267 106.0982 44.6318 0.0000 0.0000 0.0000
# 3 67.1982 44.6318 80.6454 0.0000 0.0000 0.0000
# 4 0.0000 0.0000 0.0000 26.7898 0.0000 0.0000
# 5 0.0000 0.0000 0.0000 0.0000 29.4772 0.0000
# 6 0.0000 0.0000 0.0000 0.0000 0.0000 5.8425
#
#
#
# Elastic Compliance Matrix: (Units=1/GPa)
#
#
# Indices 1 2 3 4 5 6 
#
# 1 0.011325 -0.007518 -0.005276 0.000000 0.000000 0.000000
# 2 -0.007518 0.017276 -0.003297 0.000000 0.000000 0.000000
# 3 -0.005276 -0.003297 0.018620 0.000000 0.000000 0.000000
# 4 0.000000 0.000000 0.000000 0.037328 0.000000 0.000000
# 5 0.000000 0.000000 0.000000 0.000000 0.033925 0.000000
# 6 0.000000 0.000000 0.000000 0.000000 0.000000 0.171160
#
#
# Mechanical properties :
#
#
# Convention : Reuss Voigt Hill
#
# Bulk Modulus (GPa) = 66.48717 85.89185 76.18951
# Shear Modulus (GPa) = 15.29856 23.34567 19.32212
#
# Velocity S-wave (km/s) = 2.89338 3.57424 3.25168
# Velocity P-wave (km/s) = 6.89530 8.00220 7.46928
#
# Compressibility (1/GPa) = 0.01504049
#
# Stress axis : x y z
#
# Youngs Moduli (GPa) = 88.30314 57.88260 53.70445
#
# Poissons Ratio (x) = 0.43516 0.28332
# Poissons Ratio (y) = 0.66387 0.17706
# Poissons Ratio (z) = 0.46585 0.19083
#
# Static dielectric constant tensor:
#      x y z
#    x 4.413510 0.000000 0.000000 
#    y 0.000000 2.994600 0.000000 
#    z 0.000000 0.000000 3.414030 
# 
# 
# High freq. dielectric constant tensor:
#      x y z
#    x 1.740450 0.000000 0.000000 
#    y 0.000000 1.663770 0.000000 
#    z 0.000000 0.000000 1.715140 
# 
# From -- ./inp_files/1391.got.cif
#   From: 2010.03.12/outbox.cif.g09.slc.cpg/sg49_1_cif.got.tgz:1391.got - 2010.04.14 03:58:27.
