data_PCOD8203090
_publ_section_title
;
Structure prediction by ZEFSAII (Michael W. Deem and Ramdas Pophale) SiO2 
 PCOD8203090
Probable space group: P C C M
;
_chemical_formula_sum "Si O2"
_cell_formula_units_Z 56
_cell_length_a 18.365093
_cell_length_b 19.183722
_cell_length_c 8.912855
_cell_angle_alpha 90.000000
_cell_angle_beta 90.000000
_cell_angle_gamma 90.000000
_cell_volume 3140.095420
_symmetry_space_group_name_H-M "P C C M"
_symmetry_group_IT_number 49
_symmetry_cell_setting 'orthorhombic'
loop_
_space_group_symop_operation_xyz
x,y,z
-x,-y,z
x,-y,1/2-z
-x,y,1/2-z
-x,-y,-z
x,y,-z
-x,y,1/2+z
x,-y,1/2+z
loop_
_atom_site_type_symbol
_atom_site_label
_atom_site_fract_x
_atom_site_fract_y
_atom_site_fract_z
Si Si1 0.425075 0.649578 0.177809
Si Si2 0.801372 0.291592 0.175559
Si Si3 0.922856 0.207054 0.678484
Si Si4 0.145339 0.928791 0.823910
Si Si5 0.316005 0.069035 0.326625
Si Si6 0.344096 0.781945 0.821805
Si Si7 0.718026 0.571732 0.325887
O O1 0.500000 0.623801 0.250000
O O2 0.407369 0.729076 0.232159
O O3 0.359842 0.599859 0.234855
O O4 0.432113 0.646387 0.000000
O O5 0.870534 0.270674 0.274332
O O6 0.734157 0.244961 0.233908
O O7 0.781830 0.372434 0.204961
O O8 0.817482 0.277661 0.000000
O O9 0.928371 0.202060 0.500000
O O10 0.894844 0.134353 0.744122
O O11 0.000000 0.224937 0.750000
O O12 0.230942 0.921579 0.793083
O O13 0.115948 0.000000 0.750000
O O14 0.127275 0.928407 0.000000
O O15 0.331707 0.059581 0.500000
O O16 0.356621 0.138741 0.263949
O O17 0.348334 0.000000 0.250000
O O18 0.340854 0.780986 0.000000
O O19 0.740744 0.500000 0.250000
O O20 0.709574 0.557634 0.500000
#
# Coordination Sequence:
#
# PCOD8203090 Si02
#       7
#     8   8   8   8   8   8   8
#     4   9  18  32  50  74 104 139 173 204 244 296
#     4   9  17  35  56  74  98 132 170 209 254 303
#     4  12  24  36  52  75 102 136 174 214 259 308
#     4  10  19  33  51  72 101 135 171 214 263 312
#     4   9  16  27  46  69  94 125 161 209 257 302
#     4   8  14  29  51  69  92 131 170 204 253 303
#     4   9  19  34  56  81 108 139 169 202 248 302
#
# _framework density 17.833852
#
# number of rings (size 3 to 8) (size 9 to 14) (size 15 to 20)
#    0.000    2.571    1.429    3.429    0.000    2.286 
#    0.000    5.714    0.000    0.857    0.000    6.000 
#    0.000    0.000    0.000    0.000    0.000    0.000 
#
# Total GULP energy -694154.088344 kJ/mol
# GULP energy per Si atom -12395.608720 kJ/mol
# Density = 1.779326 g / cm^3
# Si number density = 17.833852 Si / 1000 Ang^3
#
#
#
# Elastic Constant Matrix: (Units=GPa)
#
#
# Indices 1 2 3 4 5 6 
#
# 1 56.3030 33.2832 33.6081 0.0000 0.0000 0.0000
# 2 33.2832 125.3511 35.7342 0.0000 0.0000 0.0000
# 3 33.6081 35.7342 64.7307 0.0000 0.0000 0.0000
# 4 0.0000 0.0000 0.0000 31.4207 0.0000 0.0000
# 5 0.0000 0.0000 0.0000 0.0000 16.2380 0.0000
# 6 0.0000 0.0000 0.0000 0.0000 0.0000 16.1148
#
#
#
# Elastic Compliance Matrix: (Units=1/GPa)
#
#
# Indices 1 2 3 4 5 6 
#
# 1 0.027174 -0.003790 -0.012017 0.000000 0.000000 0.000000
# 2 -0.003790 0.009996 -0.003551 0.000000 0.000000 0.000000
# 3 -0.012017 -0.003551 0.023648 0.000000 0.000000 0.000000
# 4 0.000000 0.000000 0.000000 0.031826 0.000000 0.000000
# 5 0.000000 0.000000 0.000000 0.000000 0.061584 0.000000
# 6 0.000000 0.000000 0.000000 0.000000 0.000000 0.062055
#
#
# Mechanical properties :
#
#
# Convention : Reuss Voigt Hill
#
# Bulk Modulus (GPa) = 45.24086 50.18178 47.71132
# Shear Modulus (GPa) = 19.05740 22.33866 20.69803
#
# Velocity S-wave (km/s) = 3.27250 3.54305 3.41046
# Velocity P-wave (km/s) = 6.30096 6.70352 6.50535
#
# Compressibility (1/GPa) = 0.02210391
#
# Stress axis : x y z
#
# Youngs Moduli (GPa) = 36.79952 100.03991 42.28714
#
# Poissons Ratio (x) = 0.37912 0.50816
# Poissons Ratio (y) = 0.13946 0.15015
# Poissons Ratio (z) = 0.44221 0.35521
#
# Static dielectric constant tensor:
#      x y z
#    x 3.172730 0.000000 0.000000 
#    y 0.000000 3.612120 0.000000 
#    z 0.000000 0.000000 3.112870 
# 
# 
# High freq. dielectric constant tensor:
#      x y z
#    x 1.662450 0.000000 0.000000 
#    y 0.000000 1.696830 0.000000 
#    z 0.000000 0.000000 1.674010 
# 
# From -- ./inp_files/4041.got.cif
#   From: 2010.03.12/outbox.cif.g09.slc.cpg/sg49_3_cif.got.tgz:4041.got - 2010.04.14 03:58:27.
