data_PCOD8203311
_publ_section_title
;
Structure prediction by ZEFSAII (Michael W. Deem and Ramdas Pophale) SiO2 
 PCOD8203311
Probable space group: P C C M
;
_chemical_formula_sum "Si O2"
_cell_formula_units_Z 58
_cell_length_a 19.307915
_cell_length_b 19.183287
_cell_length_c 8.526420
_cell_angle_alpha 90.000000
_cell_angle_beta 90.000000
_cell_angle_gamma 90.000000
_cell_volume 3158.094521
_symmetry_space_group_name_H-M "P C C M"
_symmetry_group_IT_number 49
_symmetry_cell_setting 'orthorhombic'
loop_
_space_group_symop_operation_xyz
x,y,z
-x,-y,z
x,-y,1/2-z
-x,y,1/2-z
-x,-y,-z
x,y,-z
-x,y,1/2+z
x,-y,1/2+z
loop_
_atom_site_type_symbol
_atom_site_label
_atom_site_fract_x
_atom_site_fract_y
_atom_site_fract_z
Si Si1 0.500000 0.500000 0.750000
Si Si2 0.075764 0.812118 0.183211
Si Si3 0.604400 0.605168 0.687049
Si Si4 0.708359 0.176431 0.684598
Si Si5 0.752283 0.428138 0.684381
Si Si6 0.813724 0.076072 0.185334
Si Si7 0.426344 0.236959 0.316076
Si Si8 0.178941 0.713191 0.682267
O O1 0.556981 0.557542 0.806962
O O2 0.124604 0.874123 0.248320
O O3 0.109472 0.737884 0.229964
O O4 0.000000 0.820954 0.250000
O O5 0.069740 0.816678 0.000000
O O6 0.586663 0.590257 0.500000
O O7 0.683527 0.587209 0.717320
O O8 0.590346 0.684258 0.736042
O O9 0.705000 0.171052 0.500000
O O10 0.740544 0.105172 0.752140
O O11 0.631194 0.185106 0.748886
O O12 0.754809 0.242180 0.740715
O O13 0.784529 0.500000 0.750000
O O14 0.735369 0.431722 0.500000
O O15 0.807932 0.367787 0.720362
O O16 0.828386 0.000000 0.250000
O O17 0.811546 0.074258 0.000000
O O18 0.500000 0.213013 0.250000
O O19 0.426878 0.229849 0.500000
O O20 0.166834 0.726258 0.500000
#
# Coordination Sequence:
#
# PCOD8203311 Si02
#       8
#     2   8   8   8   8   8   8   8
#     4  12  22  36  48  70 102 148 186 224 290 348
#     4  10  21  36  58  87 119 152 186 221 263 317
#     4  11  23  34  48  69  99 138 181 229 279 337
#     4  10  19  35  57  80 107 144 186 233 279 328
#     4  11  22  35  52  75 103 137 181 231 283 334
#     4  10  21  37  58  88 120 154 187 221 263 317
#     4  11  22  35  51  75 104 139 184 235 285 335
#     4   9  19  35  55  78 107 143 184 229 276 329
#
# _framework density 18.365506
#
# number of rings (size 3 to 8) (size 9 to 14) (size 15 to 20)
#    0.000    1.655    2.759    2.276    0.000    4.690 
#    0.000    1.379    0.000    0.828    0.000    5.793 
#    0.000    0.000    0.000    0.000    0.000    0.000 
#
# Total GULP energy -718684.777822 kJ/mol
# GULP energy per Si atom -12391.116859 kJ/mol
# Density = 1.832371 g / cm^3
# Si number density = 18.365506 Si / 1000 Ang^3
#
#
#
# Elastic Constant Matrix: (Units=GPa)
#
#
# Indices 1 2 3 4 5 6 
#
# 1 129.3055 73.0670 38.2681 0.0000 0.0000 0.0000
# 2 73.0670 105.1236 36.3721 0.0000 0.0000 0.0000
# 3 38.2681 36.3721 59.4689 0.0000 0.0000 0.0000
# 4 0.0000 0.0000 0.0000 25.4795 0.0000 0.0000
# 5 0.0000 0.0000 0.0000 0.0000 24.9877 0.0000
# 6 0.0000 0.0000 0.0000 0.0000 0.0000 24.6427
#
#
#
# Elastic Compliance Matrix: (Units=1/GPa)
#
#
# Indices 1 2 3 4 5 6 
#
# 1 0.013347 -0.007998 -0.003697 0.000000 0.000000 0.000000
# 2 -0.007998 0.016858 -0.005164 0.000000 0.000000 0.000000
# 3 -0.003697 -0.005164 0.022353 0.000000 0.000000 0.000000
# 4 0.000000 0.000000 0.000000 0.039247 0.000000 0.000000
# 5 0.000000 0.000000 0.000000 0.000000 0.040020 0.000000
# 6 0.000000 0.000000 0.000000 0.000000 0.000000 0.040580
#
#
# Mechanical properties :
#
#
# Convention : Reuss Voigt Hill
#
# Bulk Modulus (GPa) = 53.07841 65.47917 59.27879
# Shear Modulus (GPa) = 23.53998 24.76802 24.15400
#
# Velocity S-wave (km/s) = 3.58404 3.67634 3.63048
# Velocity P-wave (km/s) = 6.78903 7.33153 7.06549
#
# Compressibility (1/GPa) = 0.01884005
#
# Stress axis : x y z
#
# Youngs Moduli (GPa) = 74.92200 59.31772 44.73629
#
# Poissons Ratio (x) = 0.47441 0.16540
# Poissons Ratio (y) = 0.59922 0.23103
# Poissons Ratio (z) = 0.27701 0.30633
#
# Static dielectric constant tensor:
#      x y z
#    x -7.625180 0.000000 0.000000 
#    y 0.000000 3.454310 0.000000 
#    z 0.000000 0.000000 3.385600 
# 
# 
# High freq. dielectric constant tensor:
#      x y z
#    x 1.701700 0.000000 0.000000 
#    y 0.000000 1.703850 0.000000 
#    z 0.000000 0.000000 1.713140 
# 
# From -- ./inp_files/5121.got.cif
#   From: 2010.03.12/outbox.cif.g09.slc.cpg/sg49_3_cif.got.tgz:5121.got - 2010.04.14 03:58:27.
