data_PCOD8203939
_publ_section_title
;
Structure prediction by ZEFSAII (Michael W. Deem and Ramdas Pophale) SiO2 
 PCOD8203939
Probable space group: P C C M
;
_chemical_formula_sum "Si O2"
_cell_formula_units_Z 56
_cell_length_a 11.436089
_cell_length_b 14.891638
_cell_length_c 17.222270
_cell_angle_alpha 90.000000
_cell_angle_beta 90.000000
_cell_angle_gamma 90.000000
_cell_volume 2932.988705
_symmetry_space_group_name_H-M "P C C M"
_symmetry_group_IT_number 49
_symmetry_cell_setting 'orthorhombic'
loop_
_space_group_symop_operation_xyz
x,y,z
-x,-y,z
x,-y,1/2-z
-x,y,1/2-z
-x,-y,-z
x,y,-z
-x,y,1/2+z
x,-y,1/2+z
loop_
_atom_site_type_symbol
_atom_site_label
_atom_site_fract_x
_atom_site_fract_y
_atom_site_fract_z
Si Si1 0.925001 0.809280 0.170830
Si Si2 0.721455 0.336943 0.855830
Si Si3 0.133195 0.505875 0.911267
Si Si4 0.865999 0.024306 0.414461
Si Si5 0.741726 0.353029 0.678726
Si Si6 0.157188 0.827531 0.910516
Si Si7 0.480069 0.398225 0.910429
O O1 0.848871 0.899160 0.151469
O O2 0.834575 0.727275 0.168655
O O3 0.000000 0.817212 0.250000
O O4 0.021037 0.801064 0.102958
O O5 0.820443 0.393273 0.901126
O O6 0.710646 0.369174 0.767838
O O7 0.760095 0.233374 0.857018
O O8 0.599487 0.344508 0.900015
O O9 0.205110 0.443819 0.854106
O O10 0.000000 0.500000 0.885008
O O11 0.149222 0.474123 0.000000
O O12 0.817611 0.054506 0.500000
O O13 0.808275 0.929963 0.387431
O O14 0.000000 0.000000 0.425059
O O15 0.619066 0.340747 0.634164
O O16 0.184442 0.809050 0.000000
O O17 0.500000 0.500000 0.878580
O O18 0.442726 0.402580 0.000000
#
# Coordination Sequence:
#
# PCOD8203939 Si02
#       7
#     8   8   8   8   8   8   8
#     4  11  21  37  56  92 126 161 193 243 302 367
#     4  12  23  40  60  87 119 158 205 258 310 359
#     4  11  24  38  57  83 118 164 204 248 305 366
#     4   8  17  33  56  86 120 161 201 238 287 356
#     4  12  25  38  58  88 122 153 202 255 308 359
#     4  10  20  36  60  89 124 162 203 245 295 365
#     4  11  24  43  65  85 109 156 217 260 303 359
#
# _framework density 19.093152
#
# number of rings (size 3 to 8) (size 9 to 14) (size 15 to 20)
#    0.000    1.286    2.857    4.714    0.000    7.143 
#    0.000    0.000    0.000    0.857    0.000    5.000 
#    0.000    0.000    0.000    0.000    0.000    0.000 
#
# Total GULP energy -694237.727710 kJ/mol
# GULP energy per Si atom -12397.102281 kJ/mol
# Density = 1.904970 g / cm^3
# Si number density = 19.093152 Si / 1000 Ang^3
#
#
#
# Elastic Constant Matrix: (Units=GPa)
#
#
# Indices 1 2 3 4 5 6 
#
# 1 90.3532 32.7280 17.5502 0.0000 0.0000 0.0000
# 2 32.7280 104.4675 22.0228 0.0000 0.0000 0.0000
# 3 17.5502 22.0228 73.0358 0.0000 0.0000 0.0000
# 4 0.0000 0.0000 0.0000 51.9175 0.0000 0.0000
# 5 0.0000 0.0000 0.0000 0.0000 24.4696 0.0000
# 6 0.0000 0.0000 0.0000 0.0000 0.0000 16.6388
#
#
#
# Elastic Compliance Matrix: (Units=1/GPa)
#
#
# Indices 1 2 3 4 5 6 
#
# 1 0.012748 -0.003575 -0.001985 0.000000 0.000000 0.000000
# 2 -0.003575 0.011225 -0.002526 0.000000 0.000000 0.000000
# 3 -0.001985 -0.002526 0.014931 0.000000 0.000000 0.000000
# 4 0.000000 0.000000 0.000000 0.019261 0.000000 0.000000
# 5 0.000000 0.000000 0.000000 0.000000 0.040867 0.000000
# 6 0.000000 0.000000 0.000000 0.000000 0.000000 0.060101
#
#
# Mechanical properties :
#
#
# Convention : Reuss Voigt Hill
#
# Bulk Modulus (GPa) = 43.99202 45.82872 44.91037
# Shear Modulus (GPa) = 27.34000 31.64220 29.49110
#
# Velocity S-wave (km/s) = 3.78819 4.07535 3.93439
# Velocity P-wave (km/s) = 6.49804 6.79702 6.64921
#
# Compressibility (1/GPa) = 0.02273140
#
# Stress axis : x y z
#
# Youngs Moduli (GPa) = 78.44140 89.08793 66.97691
#
# Poissons Ratio (x) = 0.31852 0.13297
# Poissons Ratio (y) = 0.28046 0.16915
# Poissons Ratio (z) = 0.15573 0.22500
#
# Static dielectric constant tensor:
#      x y z
#    x 3.448510 0.000000 0.000000 
#    y 0.000000 3.801580 0.000000 
#    z 0.000000 0.000000 3.581840 
# 
# 
# High freq. dielectric constant tensor:
#      x y z
#    x 1.714700 0.000000 0.000000 
#    y 0.000000 1.739470 0.000000 
#    z 0.000000 0.000000 1.754270 
# 
# From -- ./inp_files/12913.got.cif
#   From: 2010.03.12/outbox.cif.g09.slc.cpg/sg49_7_cif.got.tgz:12913.got - 2010.04.14 03:58:27.
