data_PCOD8203108
_publ_section_title
;
Structure prediction by ZEFSAII (Michael W. Deem and Ramdas Pophale) SiO2 
 PCOD8203108
Probable space group: P C C M
;
_chemical_formula_sum "Si O2"
_cell_formula_units_Z 40
_cell_length_a 9.142545
_cell_length_b 14.679081
_cell_length_c 15.004830
_cell_angle_alpha 90.000000
_cell_angle_beta 90.000000
_cell_angle_gamma 90.000000
_cell_volume 2013.710585
_symmetry_space_group_name_H-M "P C C M"
_symmetry_group_IT_number 49
_symmetry_cell_setting 'orthorhombic'
loop_
_space_group_symop_operation_xyz
x,y,z
-x,-y,z
x,-y,1/2-z
-x,y,1/2-z
-x,-y,-z
x,y,-z
-x,y,1/2+z
x,-y,1/2+z
loop_
_atom_site_type_symbol
_atom_site_label
_atom_site_fract_x
_atom_site_fract_y
_atom_site_fract_z
Si Si1 0.845539 0.743646 0.397113
Si Si2 0.810778 0.736897 0.102866
Si Si3 0.394138 0.894242 0.664439
Si Si4 0.172712 0.399134 0.249689
Si Si5 0.317022 0.078306 0.597142
O O1 0.801736 0.723780 0.500000
O O2 0.783513 0.660987 0.336442
O O3 0.773775 0.837413 0.361515
O O4 0.018221 0.757505 0.387387
O O5 0.724196 0.816600 0.151967
O O6 0.772183 0.645834 0.157555
O O7 0.764450 0.724724 0.000000
O O8 0.500000 0.882432 0.750000
O O9 0.512166 0.893026 0.584233
O O10 0.307004 0.991126 0.662956
O O11 0.244351 0.500000 0.250000
O O12 0.000000 0.408516 0.250000
O O13 0.251872 0.053786 0.500000
#
# Coordination Sequence:
#
# PCOD8203108 Si02
#       5
#     8   8   8   8   8
#     4   9  19  34  55  82 111 141 178 224 274 322
#     4  10  20  35  55  82 111 141 179 225 273 323
#     4  11  21  33  51  75 105 143 183 219 260 316
#     4   9  18  33  53  78 108 141 179 224 272 323
#     4  10  19  33  52  76 105 140 177 215 262 321
#
# _framework density 19.863827000000001
#
# number of rings (size 3 to 8) (size 9 to 14) (size 15 to 20)
#    0.000    2.200    0.000    4.800    0.000    1.600 
#    0.000    7.000    0.000   13.800    0.000    8.400 
#    0.000    0.000    0.000    0.000    0.000    0.000 
#
# Total GULP energy -495569.479884 kJ/mol
# GULP energy per Si atom -12389.236997 kJ/mol
# Density = 1.981862 g / cm^3
# Si number density = 19.863827 Si / 1000 Ang^3
#
#
#
# Elastic Constant Matrix: (Units=GPa)
#
#
# Indices 1 2 3 4 5 6 
#
# 1 38.1879 54.5391 28.1578 0.0000 0.0000 0.0000
# 2 54.5391 193.6640 86.9852 0.0000 0.0000 0.0000
# 3 28.1578 86.9852 143.9122 0.0000 0.0000 0.0000
# 4 0.0000 0.0000 0.0000 29.6997 0.0000 0.0000
# 5 0.0000 0.0000 0.0000 0.0000 25.2923 0.0000
# 6 0.0000 0.0000 0.0000 0.0000 0.0000 -1.6790
#
#
#
# Elastic Compliance Matrix: (Units=1/GPa)
#
#
# Indices 1 2 3 4 5 6 
#
# 1 0.044051 -0.011715 -0.001538 0.000000 0.000000 0.000000
# 2 -0.011715 0.010203 -0.003875 0.000000 0.000000 0.000000
# 3 -0.001538 -0.003875 0.009592 0.000000 0.000000 0.000000
# 4 0.000000 0.000000 0.000000 0.033670 0.000000 0.000000
# 5 0.000000 0.000000 0.000000 0.000000 0.039538 0.000000
# 6 0.000000 0.000000 0.000000 0.000000 0.000000 -0.595584
#
#
# Mechanical properties :
#
#
# Convention : Reuss Voigt Hill
#
# Bulk Modulus (GPa) = 33.79496 79.45870 56.62683
# Shear Modulus (GPa) = -12.06534 24.40140 6.16803
#
# Velocity S-wave (km/s) = -2.46723 3.50870 1.76406
# Velocity P-wave (km/s) = 2.98897 7.51686 5.72002
#
# Compressibility (1/GPa) = 0.02959021
#
# Stress axis : x y z
#
# Youngs Moduli (GPa) = 22.70086 98.00931 104.25510
#
# Poissons Ratio (x) = 1.14814 0.16038
# Poissons Ratio (y) = 0.26593 0.40399
# Poissons Ratio (z) = 0.03492 0.37979
#
# Static dielectric constant tensor:
#      x y z
#    x 3.470040 0.000000 0.000000 
#    y 0.000000 3.820110 0.000000 
#    z 0.000000 0.000000 3.929350 
# 
# 
# High freq. dielectric constant tensor:
#      x y z
#    x 1.740690 0.000000 0.000000 
#    y 0.000000 1.768560 0.000000 
#    z 0.000000 0.000000 1.794370 
# 
# From -- ./inp_files/11527.got.cif
#   From: 2010.03.12/outbox.cif.g09.slc.cpg/sg49_6_cif.got.tgz:11527.got - 2010.04.14 03:58:27.
