data_PCOD8203926
_publ_section_title
;
Structure prediction by ZEFSAII (Michael W. Deem and Ramdas Pophale) SiO2 
 PCOD8203926
Probable space group: P C C M
;
_chemical_formula_sum "Si O2"
_cell_formula_units_Z 64
_cell_length_a 23.755880
_cell_length_b 15.406338
_cell_length_c 8.776798
_cell_angle_alpha 90.000000
_cell_angle_beta 90.000000
_cell_angle_gamma 90.000000
_cell_volume 3212.230102
_symmetry_space_group_name_H-M "P C C M"
_symmetry_group_IT_number 49
_symmetry_cell_setting 'orthorhombic'
loop_
_space_group_symop_operation_xyz
x,y,z
-x,-y,z
x,-y,1/2-z
-x,y,1/2-z
-x,-y,-z
x,y,-z
-x,y,1/2+z
x,-y,1/2+z
loop_
_atom_site_type_symbol
_atom_site_label
_atom_site_fract_x
_atom_site_fract_y
_atom_site_fract_z
Si Si1 0.059921 0.408423 0.180369
Si Si2 0.443652 0.848283 0.679233
Si Si3 0.128880 0.741430 0.175354
Si Si4 0.739180 0.250110 0.176959
Si Si5 0.323444 0.910547 0.680739
Si Si6 0.443804 0.349157 0.820938
Si Si7 0.060303 0.910402 0.820195
Si Si8 0.676382 0.410818 0.319347
O O1 0.080159 0.500000 0.250000
O O2 0.105209 0.335214 0.219975
O O3 0.000000 0.380727 0.250000
O O4 0.054209 0.417962 0.000000
O O5 0.500000 0.891148 0.750000
O O6 0.449460 0.852057 0.500000
O O7 0.388151 0.898602 0.734730
O O8 0.437553 0.749526 0.737576
O O9 0.194676 0.748548 0.204156
O O10 0.102287 0.833163 0.224225
O O11 0.114616 0.720050 0.000000
O O12 0.715078 0.165362 0.256444
O O13 0.713838 0.334403 0.254688
O O14 0.723165 0.248995 0.000000
O O15 0.318675 0.911227 0.500000
O O16 0.300548 0.000000 0.750000
O O17 0.500000 0.392194 0.750000
O O18 0.388464 0.400108 0.766415
O O19 0.449913 0.352415 0.000000
O O20 0.000000 0.887548 0.750000
O O21 0.084184 0.000000 0.750000
O O22 0.054186 0.921889 0.000000
O O23 0.699772 0.500000 0.250000
O O24 0.681925 0.411033 0.500000
#
# Coordination Sequence:
#
# PCOD8203926 Si02
#       8
#     8   8   8   8   8   8   8   8
#     4  11  22  38  63  93 127 164 200 243 296 350
#     4   9  18  34  56  83 115 150 187 237 295 357
#     4  10  23  41  61  88 121 156 202 251 295 352
#     4  11  24  43  64  87 117 157 202 252 305 353
#     4  11  23  41  62  87 119 155 199 248 300 360
#     4   9  18  34  56  83 115 149 187 235 294 355
#     4  10  20  36  59  88 123 157 191 236 284 339
#     4  11  23  41  62  87 118 154 198 246 297 358
#
# _framework density 19.923853000000001
#
# number of rings (size 3 to 8) (size 9 to 14) (size 15 to 20)
#    0.000    1.750    1.250    3.750    0.000    6.500 
#    0.000    3.750    0.000    0.000    0.000    0.000 
#    0.000    0.000    0.000    0.000    0.000    0.000 
#
# Total GULP energy -793808.888200 kJ/mol
# GULP energy per Si atom -12403.263878 kJ/mol
# Density = 1.987851 g / cm^3
# Si number density = 19.923853 Si / 1000 Ang^3
#
#
#
# Elastic Constant Matrix: (Units=GPa)
#
#
# Indices 1 2 3 4 5 6 
#
# 1 106.0075 71.7870 57.0797 0.0000 0.0000 0.0000
# 2 71.7870 152.4711 62.4542 0.0000 0.0000 0.0000
# 3 57.0797 62.4542 106.6385 0.0000 0.0000 0.0000
# 4 0.0000 0.0000 0.0000 32.6041 0.0000 0.0000
# 5 0.0000 0.0000 0.0000 0.0000 30.0636 0.0000
# 6 0.0000 0.0000 0.0000 0.0000 0.0000 41.1895
#
#
#
# Elastic Compliance Matrix: (Units=1/GPa)
#
#
# Indices 1 2 3 4 5 6 
#
# 1 0.015934 -0.005274 -0.005440 0.000000 0.000000 0.000000
# 2 -0.005274 0.010374 -0.003253 0.000000 0.000000 0.000000
# 3 -0.005440 -0.003253 0.014195 0.000000 0.000000 0.000000
# 4 0.000000 0.000000 0.000000 0.030671 0.000000 0.000000
# 5 0.000000 0.000000 0.000000 0.000000 0.033263 0.000000
# 6 0.000000 0.000000 0.000000 0.000000 0.000000 0.024278
#
#
# Mechanical properties :
#
#
# Convention : Reuss Voigt Hill
#
# Bulk Modulus (GPa) = 79.56170 83.08435 81.32302
# Shear Modulus (GPa) = 31.08732 32.35784 31.72258
#
# Velocity S-wave (km/s) = 3.95436 4.03435 3.99456
# Velocity P-wave (km/s) = 7.80185 7.96824 7.88548
#
# Compressibility (1/GPa) = 0.01256886
#
# Stress axis : x y z
#
# Youngs Moduli (GPa) = 62.75956 96.39486 70.44972
#
# Poissons Ratio (x) = 0.50835 0.38326
# Poissons Ratio (y) = 0.33097 0.22916
# Poissons Ratio (z) = 0.34143 0.31356
#
# Static dielectric constant tensor:
#      x y z
#    x 3.656090 0.000000 0.000000 
#    y 0.000000 3.684820 0.000000 
#    z 0.000000 0.000000 3.599370 
# 
# 
# High freq. dielectric constant tensor:
#      x y z
#    x 1.775710 0.000000 0.000000 
#    y 0.000000 1.784050 0.000000 
#    z 0.000000 0.000000 1.781950 
# 
# From -- ./inp_files/6507.got.cif
#   From: 2010.03.12/outbox.cif.g09.slc.cpg/sg49_4_cif.got.tgz:6507.got - 2010.04.14 03:58:27.
