data_PCOD8203983
_publ_section_title
;
Structure prediction by ZEFSAII (Michael W. Deem and Ramdas Pophale) SiO2 
 PCOD8203983
Probable space group: P C C M
;
_chemical_formula_sum "Si O2"
_cell_formula_units_Z 64
_cell_length_a 12.046582
_cell_length_b 16.198834
_cell_length_c 16.613773
_cell_angle_alpha 90.000000
_cell_angle_beta 90.000000
_cell_angle_gamma 90.000000
_cell_volume 3242.021334
_symmetry_space_group_name_H-M "P C C M"
_symmetry_group_IT_number 49
_symmetry_cell_setting 'orthorhombic'
loop_
_space_group_symop_operation_xyz
x,y,z
-x,-y,z
x,-y,1/2-z
-x,y,1/2-z
-x,-y,-z
x,y,-z
-x,y,1/2+z
x,-y,1/2+z
loop_
_atom_site_type_symbol
_atom_site_label
_atom_site_fract_x
_atom_site_fract_y
_atom_site_fract_z
Si Si1 0.281467 0.360076 0.335702
Si Si2 0.556108 0.763563 0.406756
Si Si3 0.626030 0.514212 0.092394
Si Si4 0.258673 0.118020 0.594051
Si Si5 0.862025 0.799011 0.094087
Si Si6 0.662128 0.308320 0.655637
Si Si7 0.119157 0.022286 0.157969
Si Si8 0.901034 0.263335 0.093918
O O1 0.358939 0.313054 0.400308
O O2 0.297406 0.457864 0.349510
O O3 0.317246 0.331766 0.247468
O O4 0.152928 0.337544 0.353977
O O5 0.519741 0.771851 0.500000
O O6 0.622192 0.845873 0.374865
O O7 0.449124 0.746801 0.351544
O O8 0.500000 0.500000 0.119216
O O9 0.654878 0.609486 0.103067
O O10 0.646025 0.489311 0.000000
O O11 0.269942 0.113586 0.500000
O O12 0.159529 0.178855 0.619792
O O13 0.225754 0.027599 0.624701
O O14 0.759576 0.743833 0.117632
O O15 0.855706 0.881940 0.145942
O O16 0.970683 0.746198 0.116977
O O17 0.861791 0.822395 0.000000
O O18 0.108666 0.000000 0.250000
O O19 0.000000 0.000000 0.115698
O O20 0.885091 0.282854 0.000000
#
# Coordination Sequence:
#
# PCOD8203983 Si02
#       8
#     8   8   8   8   8   8   8   8
#     4  11  22  36  62  91 122 158 203 255 307 356
#     4  10  20  37  59  85 118 161 205 245 298 368
#     4  11  22  39  63  89 121 161 209 256 299 363
#     4   9  18  35  60  84 112 154 206 250 289 354
#     4  11  24  41  63  90 125 167 203 249 311 373
#     4  12  25  38  60  93 131 158 198 258 317 366
#     4  11  23  36  59  91 125 155 203 259 317 357
#     4   9  19  37  62  89 118 159 207 246 299 371
#
# _framework density 19.740772
#
# number of rings (size 3 to 8) (size 9 to 14) (size 15 to 20)
#    0.000    1.500    2.500    4.125    3.500    1.500 
#    0.000    1.250    0.000    6.750    0.000    0.000 
#    0.000    0.000    0.000    0.000    0.000    0.000 
#
# Total GULP energy -793572.202095 kJ/mol
# GULP energy per Si atom -12399.565658 kJ/mol
# Density = 1.969584 g / cm^3
# Si number density = 19.740772 Si / 1000 Ang^3
#
#
#
# Elastic Constant Matrix: (Units=GPa)
#
#
# Indices 1 2 3 4 5 6 
#
# 1 129.8163 76.8402 29.8972 0.0000 0.0000 0.0000
# 2 76.8402 116.8296 34.9635 0.0000 0.0000 0.0000
# 3 29.8972 34.9635 50.5397 0.0000 0.0000 0.0000
# 4 0.0000 0.0000 0.0000 21.8654 0.0000 0.0000
# 5 0.0000 0.0000 0.0000 0.0000 20.5274 0.0000
# 6 0.0000 0.0000 0.0000 0.0000 0.0000 37.2767
#
#
#
# Elastic Compliance Matrix: (Units=1/GPa)
#
#
# Indices 1 2 3 4 5 6 
#
# 1 0.012806 -0.007763 -0.002205 0.000000 0.000000 0.000000
# 2 -0.007763 0.015500 -0.006131 0.000000 0.000000 0.000000
# 3 -0.002205 -0.006131 0.025332 0.000000 0.000000 0.000000
# 4 0.000000 0.000000 0.000000 0.045734 0.000000 0.000000
# 5 0.000000 0.000000 0.000000 0.000000 0.048715 0.000000
# 6 0.000000 0.000000 0.000000 0.000000 0.000000 0.026826
#
#
# Mechanical properties :
#
#
# Convention : Reuss Voigt Hill
#
# Bulk Modulus (GPa) = 46.64026 64.50969 55.57498
# Shear Modulus (GPa) = 23.33635 26.29955 24.81795
#
# Velocity S-wave (km/s) = 3.44196 3.65395 3.54954
# Velocity P-wave (km/s) = 6.28281 7.10994 6.70913
#
# Compressibility (1/GPa) = 0.02144070
#
# Stress axis : x y z
#
# Youngs Moduli (GPa) = 78.08916 64.51707 39.47540
#
# Poissons Ratio (x) = 0.50082 0.08705
# Poissons Ratio (y) = 0.60618 0.24201
# Poissons Ratio (z) = 0.17221 0.39554
#
# Static dielectric constant tensor:
#      x y z
#    x 4.002410 0.000000 0.000000 
#    y 0.000000 8.180890 0.000000 
#    z 0.000000 0.000000 3.500290 
# 
# 
# High freq. dielectric constant tensor:
#      x y z
#    x 1.763490 0.000000 0.000000 
#    y 0.000000 1.758820 0.000000 
#    z 0.000000 0.000000 1.768940 
# 
# From -- ./inp_files/17311.got.cif
#   From: 2010.03.12/outbox.cif.g09.slc.cpg/sg49_9_cif.got.tgz:17311.got - 2010.04.14 03:58:27.
