data_PCOD8203532
_publ_section_title
;
Structure prediction by ZEFSAII (Michael W. Deem and Ramdas Pophale) SiO2 
 PCOD8203532
Probable space group: P C C M
;
_chemical_formula_sum "Si O2"
_cell_formula_units_Z 48
_cell_length_a 9.650904
_cell_length_b 30.494153
_cell_length_c 8.915039
_cell_angle_alpha 90.000000
_cell_angle_beta 90.000000
_cell_angle_gamma 90.000000
_cell_volume 2623.661594
_symmetry_space_group_name_H-M "P C C M"
_symmetry_group_IT_number 49
_symmetry_cell_setting 'orthorhombic'
loop_
_space_group_symop_operation_xyz
x,y,z
-x,-y,z
x,-y,1/2-z
-x,y,1/2-z
-x,-y,-z
x,y,-z
-x,y,1/2+z
x,-y,1/2+z
loop_
_atom_site_type_symbol
_atom_site_label
_atom_site_fract_x
_atom_site_fract_y
_atom_site_fract_z
Si Si1 0.144457 0.045953 0.677893
Si Si2 0.856532 0.703380 0.676237
Si Si3 0.648728 0.362588 0.325002
Si Si4 0.648774 0.459008 0.673553
Si Si5 0.856898 0.803614 0.324428
Si Si6 0.648846 0.123172 0.824190
O O1 0.124792 0.040962 0.500000
O O2 0.263583 0.080337 0.719397
O O3 0.000000 0.062020 0.750000
O O4 0.190360 0.000000 0.750000
O O5 0.867302 0.695845 0.500000
O O6 0.738494 0.673581 0.743988
O O7 0.820417 0.753580 0.716927
O O8 0.000000 0.689019 0.750000
O O9 0.500000 0.361179 0.250000
O O10 0.634591 0.351306 0.500000
O O11 0.718295 0.411070 0.302846
O O12 0.732787 0.500000 0.750000
O O13 0.500000 0.456891 0.750000
O O14 0.631589 0.469725 0.500000
O O15 0.878125 0.810262 0.500000
O O16 0.731863 0.834030 0.265377
O O17 0.000000 0.818695 0.250000
O O18 0.500000 0.120810 0.750000
O O19 0.625380 0.126326 0.000000
#
# Coordination Sequence:
#
# PCOD8203532 Si02
#       6
#     8   8   8   8   8   8
#     4  10  20  35  56  80 105 136 175 215 254 300
#     4  10  20  35  55  77 103 135 171 212 257 308
#     4  10  20  33  50  75 105 136 171 211 257 306
#     4   9  16  26  43  67  96 129 165 206 250 298
#     4   9  19  36  56  78 101 130 171 212 252 302
#     4  10  22  37  53  77 108 139 171 209 256 306
#
# _framework density 18.295041999999999
#
# number of rings (size 3 to 8) (size 9 to 14) (size 15 to 20)
#    0.000    2.333    0.000    3.500    0.000    5.667 
#    0.000    3.333    0.000    0.500    0.000    3.500 
#    0.000    0.000    0.000    0.000    0.000    0.000 
#
# Total GULP energy -595032.472779 kJ/mol
# GULP energy per Si atom -12396.509850 kJ/mol
# Density = 1.825340 g / cm^3
# Si number density = 18.295042 Si / 1000 Ang^3
#
#
#
# Elastic Constant Matrix: (Units=GPa)
#
#
# Indices 1 2 3 4 5 6 
#
# 1 121.0261 84.9302 51.9025 0.0000 0.0000 0.0000
# 2 84.9302 132.7742 59.8111 0.0000 0.0000 0.0000
# 3 51.9025 59.8111 92.3673 0.0000 0.0000 0.0000
# 4 0.0000 0.0000 0.0000 30.1663 0.0000 0.0000
# 5 0.0000 0.0000 0.0000 0.0000 33.6845 0.0000
# 6 0.0000 0.0000 0.0000 0.0000 0.0000 -16.6636
#
#
#
# Elastic Compliance Matrix: (Units=1/GPa)
#
#
# Indices 1 2 3 4 5 6 
#
# 1 0.015661 -0.008546 -0.003266 0.000000 0.000000 0.000000
# 2 -0.008546 0.015297 -0.005103 0.000000 0.000000 0.000000
# 3 -0.003266 -0.005103 0.015966 0.000000 0.000000 0.000000
# 4 0.000000 0.000000 0.000000 0.033150 0.000000 0.000000
# 5 0.000000 0.000000 0.000000 0.000000 0.029687 0.000000
# 6 0.000000 0.000000 0.000000 0.000000 0.000000 -0.060011
#
#
# Mechanical properties :
#
#
# Convention : Reuss Voigt Hill
#
# Bulk Modulus (GPa) = 76.37641 82.16168 79.26905
# Shear Modulus (GPa) = 56.85399 19.40569 38.12984
#
# Velocity S-wave (km/s) = 5.58065 3.26038 4.57022
# Velocity P-wave (km/s) = 9.13031 7.69287 8.44224
#
# Compressibility (1/GPa) = 0.01309305
#
# Stress axis : x y z
#
# Youngs Moduli (GPa) = 63.85449 65.37196 62.63315
#
# Poissons Ratio (x) = 0.55868 0.20456
# Poissons Ratio (y) = 0.54572 0.31963
# Poissons Ratio (z) = 0.20854 0.33360
#
# Static dielectric constant tensor:
#      x y z
#    x 3.165110 0.000000 0.000000 
#    y 0.000000 3.958710 0.000000 
#    z 0.000000 0.000000 3.467890 
# 
# 
# High freq. dielectric constant tensor:
#      x y z
#    x 1.679660 0.000000 0.000000 
#    y 0.000000 1.729400 0.000000 
#    z 0.000000 0.000000 1.720530 
# 
# From -- ./inp_files/2110.got.cif
#   From: 2010.03.12/outbox.cif.g09.slc.cpg/sg49_2_cif.got.tgz:2110.got - 2010.04.14 03:58:27.
