data_PCOD8203899
_publ_section_title
;
Structure prediction by ZEFSAII (Michael W. Deem and Ramdas Pophale) SiO2 
 PCOD8203899
Probable space group: P C C M
;
_chemical_formula_sum "Si O2"
_cell_formula_units_Z 40
_cell_length_a 25.501416
_cell_length_b 9.160490
_cell_length_c 8.526651
_cell_angle_alpha 90.000000
_cell_angle_beta 90.000000
_cell_angle_gamma 90.000000
_cell_volume 1991.872282
_symmetry_space_group_name_H-M "P C C M"
_symmetry_group_IT_number 49
_symmetry_cell_setting 'orthorhombic'
loop_
_space_group_symop_operation_xyz
x,y,z
-x,-y,z
x,-y,1/2-z
-x,y,1/2-z
-x,-y,-z
x,y,-z
-x,y,1/2+z
x,-y,1/2+z
loop_
_atom_site_type_symbol
_atom_site_label
_atom_site_fract_x
_atom_site_fract_y
_atom_site_fract_z
Si Si1 0.944967 0.839578 0.813960
Si Si2 0.154060 0.339701 0.815181
Si Si3 0.557376 0.155212 0.685632
Si Si4 0.648784 0.340782 0.185213
Si Si5 0.255472 0.838916 0.686247
O O1 0.898852 0.735369 0.750716
O O2 0.000000 0.777238 0.750000
O O3 0.933876 0.000000 0.750000
O O4 0.946874 0.846122 0.000000
O O5 0.159187 0.500000 0.750000
O O6 0.204175 0.248559 0.759025
O O7 0.151971 0.346802 0.000000
O O8 0.500000 0.190324 0.750000
O O9 0.555708 0.147080 0.500000
O O10 0.594683 0.285212 0.740752
O O11 0.578233 0.000000 0.750000
O O12 0.662337 0.500000 0.250000
O O13 0.694489 0.231408 0.232650
O O14 0.643046 0.347072 0.000000
O O15 0.263171 0.838240 0.500000
O O16 0.248390 0.000000 0.750000
#
# Coordination Sequence:
#
# PCOD8203899 Si02
#       5
#     8   8   8   8   8
#     4  10  20  36  57  84 113 149 192 238 286 342
#     4  10  23  39  58  84 117 152 192 237 291 348
#     4  11  22  40  64  92 123 160 202 247 294 347
#     4  12  25  42  62  89 122 158 197 244 296 352
#     4  11  23  41  63  89 117 153 196 242 292 349
#
# _framework density 20.081609
#
# number of rings (size 3 to 8) (size 9 to 14) (size 15 to 20)
#    0.000    1.200    0.000    7.800    0.000    5.600 
#    0.000    4.000    0.000    0.000    0.000    0.000 
#    0.000    0.000    0.000    0.000    0.000    0.000 
#
# Total GULP energy -496230.657297 kJ/mol
# GULP energy per Si atom -12405.766432 kJ/mol
# Density = 2.003590 g / cm^3
# Si number density = 20.081609 Si / 1000 Ang^3
#
#
#
# Elastic Constant Matrix: (Units=GPa)
#
#
# Indices 1 2 3 4 5 6 
#
# 1 137.4621 73.1004 47.8598 0.0000 0.0000 0.0000
# 2 73.1004 136.8854 37.5430 0.0000 0.0000 0.0000
# 3 47.8598 37.5430 125.8661 0.0000 0.0000 0.0000
# 4 0.0000 0.0000 0.0000 35.5178 0.0000 0.0000
# 5 0.0000 0.0000 0.0000 0.0000 34.8568 0.0000
# 6 0.0000 0.0000 0.0000 0.0000 0.0000 44.9722
#
#
#
# Elastic Compliance Matrix: (Units=1/GPa)
#
#
# Indices 1 2 3 4 5 6 
#
# 1 0.010901 -0.005102 -0.002623 0.000000 0.000000 0.000000
# 2 -0.005102 0.010344 -0.001145 0.000000 0.000000 0.000000
# 3 -0.002623 -0.001145 0.009284 0.000000 0.000000 0.000000
# 4 0.000000 0.000000 0.000000 0.028155 0.000000 0.000000
# 5 0.000000 0.000000 0.000000 0.000000 0.028689 0.000000
# 6 0.000000 0.000000 0.000000 0.000000 0.000000 0.022236
#
#
# Mechanical properties :
#
#
# Convention : Reuss Voigt Hill
#
# Bulk Modulus (GPa) = 78.19849 79.69110 78.94479
# Shear Modulus (GPa) = 37.99001 39.18338 38.58670
#
# Velocity S-wave (km/s) = 4.35418 4.42204 4.38824
# Velocity P-wave (km/s) = 8.01894 8.11433 8.06678
#
# Compressibility (1/GPa) = 0.01278797
#
# Stress axis : x y z
#
# Youngs Moduli (GPa) = 91.73212 96.67273 107.71115
#
# Poissons Ratio (x) = 0.49323 0.28256
# Poissons Ratio (y) = 0.46803 0.12337
# Poissons Ratio (z) = 0.24064 0.11073
#
# Static dielectric constant tensor:
#      x y z
#    x 4.126690 0.000000 0.000000 
#    y 0.000000 3.670330 0.000000 
#    z 0.000000 0.000000 3.755970 
# 
# 
# High freq. dielectric constant tensor:
#      x y z
#    x 1.802590 0.000000 0.000000 
#    y 0.000000 1.789770 0.000000 
#    z 0.000000 0.000000 1.796850 
# 
# From -- ./inp_files/1677.got.cif
#   From: 2010.03.12/outbox.cif.g09.slc.cpg/sg49_1_cif.got.tgz:1677.got - 2010.04.14 03:58:27.
