data_PCOD8203905
_publ_section_title
;
Structure prediction by ZEFSAII (Michael W. Deem and Ramdas Pophale) SiO2 
 PCOD8203905
Probable space group: P C C M
;
_chemical_formula_sum "Si O2"
_cell_formula_units_Z 48
_cell_length_a 18.528052
_cell_length_b 15.268425
_cell_length_c 8.755473
_cell_angle_alpha 90.000000
_cell_angle_beta 90.000000
_cell_angle_gamma 90.000000
_cell_volume 2476.872288
_symmetry_space_group_name_H-M "P C C M"
_symmetry_group_IT_number 49
_symmetry_cell_setting 'orthorhombic'
loop_
_space_group_symop_operation_xyz
x,y,z
-x,-y,z
x,-y,1/2-z
-x,y,1/2-z
-x,-y,-z
x,y,-z
-x,y,1/2+z
x,-y,1/2+z
loop_
_atom_site_type_symbol
_atom_site_label
_atom_site_fract_x
_atom_site_fract_y
_atom_site_fract_z
Si Si1 0.685792 0.090814 0.819794
Si Si2 0.341447 0.590819 0.819198
Si Si3 0.850126 0.908046 0.319145
Si Si4 0.187003 0.408916 0.180396
Si Si5 0.423135 0.237673 0.679984
Si Si6 0.924078 0.741994 0.819725
O O1 0.767693 0.110875 0.768113
O O2 0.635034 0.168103 0.756717
O O3 0.657905 0.000000 0.750000
O O4 0.681087 0.083052 0.000000
O O5 0.370704 0.500000 0.750000
O O6 0.264044 0.615769 0.750999
O O7 0.397977 0.665486 0.771136
O O8 0.333536 0.582387 0.000000
O O9 0.858498 0.910725 0.500000
O O10 0.900820 0.833726 0.251612
O O11 0.876357 0.000000 0.250000
O O12 0.158093 0.500000 0.250000
O O13 0.132371 0.332758 0.227202
O O14 0.195035 0.419379 0.000000
O O15 0.500000 0.215615 0.750000
O O16 0.429073 0.229787 0.500000
O O17 0.000000 0.712899 0.750000
O O18 0.930461 0.752362 0.000000
#
# Coordination Sequence:
#
# PCOD8203905 Si02
#       6
#     8   8   8   8   8   8
#     4   9  19  36  57  81 107 139 179 222 269 319
#     4  10  20  36  58  82 108 140 181 226 272 323
#     4  10  20  37  61  85 111 143 182 229 276 325
#     4  10  21  37  59  85 111 142 183 228 273 324
#     4  10  22  37  53  77 110 146 181 219 268 323
#     4  11  24  39  56  82 114 148 185 224 271 326
#
# _framework density 19.379280999999999
#
# number of rings (size 3 to 8) (size 9 to 14) (size 15 to 20)
#    0.000    2.000    0.000    4.000    0.000    8.000 
#    0.000    6.667    0.000    0.000    0.000    0.000 
#    0.000    0.000    0.000    0.000    0.000    0.000 
#
# Total GULP energy -595388.482962 kJ/mol
# GULP energy per Si atom -12403.926728 kJ/mol
# Density = 1.933517 g / cm^3
# Si number density = 19.379281 Si / 1000 Ang^3
#
#
#
# Elastic Constant Matrix: (Units=GPa)
#
#
# Indices 1 2 3 4 5 6 
#
# 1 52.8737 21.2356 15.8442 0.0000 0.0000 0.0000
# 2 21.2356 85.0256 25.7223 0.0000 0.0000 0.0000
# 3 15.8442 25.7223 61.8301 0.0000 0.0000 0.0000
# 4 0.0000 0.0000 0.0000 31.2853 0.0000 0.0000
# 5 0.0000 0.0000 0.0000 0.0000 31.2288 0.0000
# 6 0.0000 0.0000 0.0000 0.0000 0.0000 16.2338
#
#
#
# Elastic Compliance Matrix: (Units=1/GPa)
#
#
# Indices 1 2 3 4 5 6 
#
# 1 0.021773 -0.004290 -0.003795 0.000000 0.000000 0.000000
# 2 -0.004290 0.014300 -0.004850 0.000000 0.000000 0.000000
# 3 -0.003795 -0.004850 0.019163 0.000000 0.000000 0.000000
# 4 0.000000 0.000000 0.000000 0.031964 0.000000 0.000000
# 5 0.000000 0.000000 0.000000 0.000000 0.032022 0.000000
# 6 0.000000 0.000000 0.000000 0.000000 0.000000 0.061600
#
#
# Mechanical properties :
#
#
# Convention : Reuss Voigt Hill
#
# Bulk Modulus (GPa) = 34.05121 36.14816 35.09968
# Shear Modulus (GPa) = 23.09691 24.87808 23.98750
#
# Velocity S-wave (km/s) = 3.45604 3.58683 3.52204
# Velocity P-wave (km/s) = 5.79092 5.98726 5.88991
#
# Compressibility (1/GPa) = 0.02936753
#
# Stress axis : x y z
#
# Youngs Moduli (GPa) = 45.92823 69.93153 52.18311
#
# Poissons Ratio (x) = 0.30000 0.19802
# Poissons Ratio (y) = 0.19703 0.25307
# Poissons Ratio (z) = 0.17429 0.33914
#
# Static dielectric constant tensor:
#      x y z
#    x 3.550760 0.000000 0.000000 
#    y 0.000000 3.738920 0.000000 
#    z 0.000000 0.000000 3.523060 
# 
# 
# High freq. dielectric constant tensor:
#      x y z
#    x 1.749960 0.000000 0.000000 
#    y 0.000000 1.767560 0.000000 
#    z 0.000000 0.000000 1.759610 
# 
# From -- ./inp_files/3684.got.cif
#   From: 2010.03.12/outbox.cif.g09.slc.cpg/sg49_2_cif.got.tgz:3684.got - 2010.04.14 03:58:27.
