data_PCOD8203750
_publ_section_title
;
Structure prediction by ZEFSAII (Michael W. Deem and Ramdas Pophale) SiO2 
 PCOD8203750
Probable space group: P C C M
;
_chemical_formula_sum "Si O2"
_cell_formula_units_Z 40
_cell_length_a 25.158353
_cell_length_b 9.669748
_cell_length_c 8.526134
_cell_angle_alpha 90.000000
_cell_angle_beta 90.000000
_cell_angle_gamma 90.000000
_cell_volume 2074.194683
_symmetry_space_group_name_H-M "P C C M"
_symmetry_group_IT_number 49
_symmetry_cell_setting 'orthorhombic'
loop_
_space_group_symop_operation_xyz
x,y,z
-x,-y,z
x,-y,1/2-z
-x,y,1/2-z
-x,-y,-z
x,y,-z
-x,y,1/2+z
x,-y,1/2+z
loop_
_atom_site_type_symbol
_atom_site_label
_atom_site_fract_x
_atom_site_fract_y
_atom_site_fract_z
Si Si1 0.941894 0.147208 0.685683
Si Si2 0.765896 0.850954 0.186238
Si Si3 0.853562 0.345791 0.185525
Si Si4 0.555256 0.348187 0.685862
Si Si5 0.354736 0.145307 0.815391
O O1 0.943624 0.139015 0.500000
O O2 0.903594 0.269034 0.739281
O O3 0.000000 0.181503 0.750000
O O4 0.921042 0.000000 0.750000
O O5 0.799758 0.731366 0.266434
O O6 0.705280 0.821287 0.238697
O O7 0.784547 0.000000 0.250000
O O8 0.773948 0.847365 0.000000
O O9 0.851236 0.500000 0.250000
O O10 0.859758 0.347977 0.000000
O O11 0.564266 0.500000 0.750000
O O12 0.500000 0.285013 0.750000
O O13 0.552910 0.350973 0.500000
O O14 0.604744 0.259524 0.750067
O O15 0.374376 0.000000 0.750000
O O16 0.357252 0.138295 0.000000
#
# Coordination Sequence:
#
# PCOD8203750 Si02
#       5
#     8   8   8   8   8
#     4  11  22  40  64  91 119 153 193 235 279 331
#     4  10  20  38  60  84 112 147 187 231 278 333
#     4  12  25  41  59  85 117 152 190 234 283 335
#     4  10  20  35  53  77 106 142 182 224 271 328
#     4   9  20  36  56  81 110 141 181 226 275 327
#
# _framework density 19.284593000000001
#
# number of rings (size 3 to 8) (size 9 to 14) (size 15 to 20)
#    0.000    1.600    0.000    6.600    0.000    4.000 
#    0.000    6.000    0.000    0.000    0.000    0.000 
#    0.000    0.000    0.000    0.000    0.000    0.000 
#
# Total GULP energy -496121.662034 kJ/mol
# GULP energy per Si atom -12403.041551 kJ/mol
# Density = 1.924070 g / cm^3
# Si number density = 19.284593 Si / 1000 Ang^3
#
#
#
# Elastic Constant Matrix: (Units=GPa)
#
#
# Indices 1 2 3 4 5 6 
#
# 1 133.4330 93.8631 46.0548 0.0000 0.0000 0.0000
# 2 93.8631 147.9828 50.1357 0.0000 0.0000 0.0000
# 3 46.0548 50.1357 120.3711 0.0000 0.0000 0.0000
# 4 0.0000 0.0000 0.0000 34.2419 0.0000 0.0000
# 5 0.0000 0.0000 0.0000 0.0000 43.8691 0.0000
# 6 0.0000 0.0000 0.0000 0.0000 0.0000 27.7237
#
#
#
# Elastic Compliance Matrix: (Units=1/GPa)
#
#
# Indices 1 2 3 4 5 6 
#
# 1 0.013902 -0.008168 -0.001917 0.000000 0.000000 0.000000
# 2 -0.008168 0.012667 -0.002151 0.000000 0.000000 0.000000
# 3 -0.001917 -0.002151 0.009937 0.000000 0.000000 0.000000
# 4 0.000000 0.000000 0.000000 0.029204 0.000000 0.000000
# 5 0.000000 0.000000 0.000000 0.000000 0.022795 0.000000
# 6 0.000000 0.000000 0.000000 0.000000 0.000000 0.036070
#
#
# Mechanical properties :
#
#
# Convention : Reuss Voigt Hill
#
# Bulk Modulus (GPa) = 83.09635 86.87712 84.98673
# Shear Modulus (GPa) = 32.66715 35.28249 33.97482
#
# Velocity S-wave (km/s) = 4.12023 4.28199 4.20189
# Velocity P-wave (km/s) = 8.11283 8.34236 8.22840
#
# Compressibility (1/GPa) = 0.01203422
#
# Stress axis : x y z
#
# Youngs Moduli (GPa) = 71.93175 78.94327 100.63574
#
# Poissons Ratio (x) = 0.64484 0.19290
# Poissons Ratio (y) = 0.58757 0.21644
# Poissons Ratio (z) = 0.13788 0.16979
#
# Static dielectric constant tensor:
#      x y z
#    x 3.907680 0.000000 0.000000 
#    y 0.000000 3.652270 0.000000 
#    z 0.000000 0.000000 3.622910 
# 
# 
# High freq. dielectric constant tensor:
#      x y z
#    x 1.764470 0.000000 0.000000 
#    y 0.000000 1.749310 0.000000 
#    z 0.000000 0.000000 1.765230 
# 
# From -- ./inp_files/1673.got.cif
#   From: 2010.03.12/outbox.cif.g09.slc.cpg/sg49_1_cif.got.tgz:1673.got - 2010.04.14 03:58:27.
