data_PCOD8203938
_publ_section_title
;
Structure prediction by ZEFSAII (Michael W. Deem and Ramdas Pophale) SiO2 
 PCOD8203938
Probable space group: P C C M
;
_chemical_formula_sum "Si O2"
_cell_formula_units_Z 40
_cell_length_a 23.972024
_cell_length_b 9.004377
_cell_length_c 9.592748
_cell_angle_alpha 90.000000
_cell_angle_beta 90.000000
_cell_angle_gamma 90.000000
_cell_volume 2070.624792
_symmetry_space_group_name_H-M "P C C M"
_symmetry_group_IT_number 49
_symmetry_cell_setting 'orthorhombic'
loop_
_space_group_symop_operation_xyz
x,y,z
-x,-y,z
x,-y,1/2-z
-x,y,1/2-z
-x,-y,-z
x,y,-z
-x,y,1/2+z
x,-y,1/2+z
loop_
_atom_site_type_symbol
_atom_site_label
_atom_site_fract_x
_atom_site_fract_y
_atom_site_fract_z
Si Si1 0.258091 0.146302 0.339774
Si Si2 0.577924 0.344556 0.500000
Si Si3 0.841356 0.645002 0.659950
Si Si4 0.947687 0.849223 0.666076
Si Si5 0.619154 0.824318 0.735669
Si Si6 0.553887 0.319012 0.000000
O O1 0.247974 0.102275 0.500000
O O2 0.213345 0.266881 0.289528
O O3 0.319491 0.215296 0.320667
O O4 0.249813 0.000000 0.250000
O O5 0.609572 0.268120 0.626021
O O6 0.585172 0.522078 0.500000
O O7 0.512256 0.320316 0.500000
O O8 0.848087 0.500000 0.750000
O O9 0.835104 0.597395 0.500000
O O10 0.895389 0.743962 0.684140
O O11 0.960277 0.876256 0.500000
O O12 0.000000 0.776182 0.750000
O O13 0.934170 0.000000 0.750000
O O14 0.571074 0.772410 0.633833
O O15 0.612778 0.000000 0.750000
#
# Coordination Sequence:
#
# PCOD8203938 Si02
#       6
#     8   4   8   8   8   4
#     4  10  22  41  63  87 117 152 195 244 296 351
#     4  11  25  39  63  87 121 163 196 237 310 359
#     4  10  23  40  58  88 122 158 200 245 295 353
#     4  10  20  36  60  88 120 157 204 249 298 354
#     4  11  23  40  63  90 119 153 202 252 300 355
#     4  11  23  43  59  89 123 157 198 245 294 375
#
# _framework density 19.31784
#
# number of rings (size 3 to 8) (size 9 to 14) (size 15 to 20)
#    0.000    1.600    1.000    3.600    4.200    8.400 
#    0.000    2.000    0.000    0.000    0.000    0.000 
#    0.000    0.000    0.000    0.000    0.000    0.000 
#
# Total GULP energy -495928.262663 kJ/mol
# GULP energy per Si atom -12398.206567 kJ/mol
# Density = 1.927387 g / cm^3
# Si number density = 19.317840 Si / 1000 Ang^3
#
#
#
# Elastic Constant Matrix: (Units=GPa)
#
#
# Indices 1 2 3 4 5 6 
#
# 1 96.1507 54.4726 33.6531 0.0000 0.0000 0.0000
# 2 54.4726 87.1946 41.8199 0.0000 0.0000 0.0000
# 3 33.6531 41.8199 118.3178 0.0000 0.0000 0.0000
# 4 0.0000 0.0000 0.0000 35.4483 0.0000 0.0000
# 5 0.0000 0.0000 0.0000 0.0000 35.2172 0.0000
# 6 0.0000 0.0000 0.0000 0.0000 0.0000 -12.9695
#
#
#
# Elastic Compliance Matrix: (Units=1/GPa)
#
#
# Indices 1 2 3 4 5 6 
#
# 1 0.016249 -0.009554 -0.001245 0.000000 0.000000 0.000000
# 2 -0.009554 0.019427 -0.004149 0.000000 0.000000 0.000000
# 3 -0.001245 -0.004149 0.010272 0.000000 0.000000 0.000000
# 4 0.000000 0.000000 0.000000 0.028210 0.000000 0.000000
# 5 0.000000 0.000000 0.000000 0.000000 0.028395 0.000000
# 6 0.000000 0.000000 0.000000 0.000000 0.000000 -0.077104
#
#
# Mechanical properties :
#
#
# Convention : Reuss Voigt Hill
#
# Bulk Modulus (GPa) = 62.29550 62.39494 62.34522
# Shear Modulus (GPa) = 82.37781 22.98703 52.68242
#
# Velocity S-wave (km/s) = 6.53727 3.45329 5.22787
# Velocity P-wave (km/s) = 9.44981 6.94763 8.29363
#
# Compressibility (1/GPa) = 0.01605252
#
# Stress axis : x y z
#
# Youngs Moduli (GPa) = 61.54364 51.47416 97.34815
#
# Poissons Ratio (x) = 0.49178 0.12117
# Poissons Ratio (y) = 0.58798 0.40392
# Poissons Ratio (z) = 0.07660 0.21358
#
# Static dielectric constant tensor:
#      x y z
#    x 3.795130 0.000000 0.000000 
#    y 0.000000 3.507490 0.000000 
#    z 0.000000 0.000000 3.673840 
# 
# 
# High freq. dielectric constant tensor:
#      x y z
#    x 1.768520 0.000000 0.000000 
#    y 0.000000 1.749710 0.000000 
#    z 0.000000 0.000000 1.766900 
# 
# From -- ./inp_files/6215.got.cif
#   From: 2010.03.12/outbox.cif.g09.slc.cpg/sg49_4_cif.got.tgz:6215.got - 2010.04.14 03:58:27.
