data_PCOD8203229
_publ_section_title
;
Structure prediction by ZEFSAII (Michael W. Deem and Ramdas Pophale) SiO2 
 PCOD8203229
Probable space group: P C C M
;
_chemical_formula_sum "Si O2"
_cell_formula_units_Z 64
_cell_length_a 19.518350
_cell_length_b 20.516242
_cell_length_c 8.744925
_cell_angle_alpha 90.000000
_cell_angle_beta 90.000000
_cell_angle_gamma 90.000000
_cell_volume 3501.845681
_symmetry_space_group_name_H-M "P C C M"
_symmetry_group_IT_number 49
_symmetry_cell_setting 'orthorhombic'
loop_
_space_group_symop_operation_xyz
x,y,z
-x,-y,z
x,-y,1/2-z
-x,y,1/2-z
-x,-y,-z
x,y,-z
-x,y,1/2+z
x,-y,1/2+z
loop_
_atom_site_type_symbol
_atom_site_label
_atom_site_fract_x
_atom_site_fract_y
_atom_site_fract_z
Si Si1 0.293175 0.567394 0.319540
Si Si2 0.291045 0.806735 0.679480
Si Si3 0.214252 0.685499 0.179855
Si Si4 0.793472 0.934295 0.179549
Si Si5 0.929439 0.883602 0.681330
Si Si6 0.571768 0.227484 0.178234
Si Si7 0.931132 0.264314 0.821295
Si Si8 0.571445 0.379993 0.177704
O O1 0.265461 0.500000 0.250000
O O2 0.294842 0.562642 0.500000
O O3 0.241439 0.623695 0.270249
O O4 0.369338 0.580059 0.259536
O O5 0.286730 0.791085 0.500000
O O6 0.254146 0.750253 0.773510
O O7 0.255933 0.874740 0.722556
O O8 0.369532 0.811882 0.733100
O O9 0.134360 0.692442 0.223825
O O10 0.225704 0.674919 0.000000
O O11 0.867810 0.925715 0.253356
O O12 0.760734 0.000000 0.250000
O O13 0.801844 0.941683 0.000000
O O14 0.930526 0.889059 0.500000
O O15 0.919564 0.809161 0.739204
O O16 0.000000 0.911717 0.750000
O O17 0.500000 0.205282 0.250000
O O18 0.584490 0.303852 0.206332
O O19 0.572606 0.209910 0.000000
O O20 0.000000 0.295304 0.750000
O O21 0.941904 0.262666 0.000000
O O22 0.500000 0.402497 0.250000
O O23 0.571242 0.397382 0.000000
#
# Coordination Sequence:
#
# PCOD8203229 Si02
#       8
#     8   8   8   8   8   8   8   8
#     4  12  25  40  58  82 114 153 192 236 283 335
#     4  11  22  36  58  86 114 147 190 235 282 335
#     4  11  21  37  59  86 115 149 189 232 283 335
#     4  11  24  39  56  81 113 152 193 237 284 339
#     4  10  19  34  54  80 113 151 190 232 278 334
#     4  10  20  34  57  85 117 149 184 231 281 332
#     4   9  19  33  55  84 115 147 183 229 280 333
#     4  10  20  35  55  82 115 152 191 231 275 332
#
# _framework density 18.276076
#
# number of rings (size 3 to 8) (size 9 to 14) (size 15 to 20)
#    0.000    1.500    2.500    3.375    0.000    4.500 
#    0.000    2.500    0.000    0.750    0.000    5.250 
#    0.000    0.000    0.000    0.000    0.000    0.000 
#
# Total GULP energy -793912.753872 kJ/mol
# GULP energy per Si atom -12404.886779 kJ/mol
# Density = 1.823448 g / cm^3
# Si number density = 18.276076 Si / 1000 Ang^3
#
#
#
# Elastic Constant Matrix: (Units=GPa)
#
#
# Indices 1 2 3 4 5 6 
#
# 1 117.1177 51.6320 47.3320 0.0000 0.0000 0.0000
# 2 51.6320 96.2836 44.4086 0.0000 0.0000 0.0000
# 3 47.3320 44.4086 92.6911 0.0000 0.0000 0.0000
# 4 0.0000 0.0000 0.0000 27.8472 0.0000 0.0000
# 5 0.0000 0.0000 0.0000 0.0000 33.5994 0.0000
# 6 0.0000 0.0000 0.0000 0.0000 0.0000 -2.7894
#
#
#
# Elastic Compliance Matrix: (Units=1/GPa)
#
#
# Indices 1 2 3 4 5 6 
#
# 1 0.012229 -0.004721 -0.003983 0.000000 0.000000 0.000000
# 2 -0.004721 0.015154 -0.004850 0.000000 0.000000 0.000000
# 3 -0.003983 -0.004850 0.015146 0.000000 0.000000 0.000000
# 4 0.000000 0.000000 0.000000 0.035910 0.000000 0.000000
# 5 0.000000 0.000000 0.000000 0.000000 0.029762 0.000000
# 6 0.000000 0.000000 0.000000 0.000000 0.000000 -0.358499
#
#
# Mechanical properties :
#
#
# Convention : Reuss Voigt Hill
#
# Bulk Modulus (GPa) = 64.84140 65.87084 65.35612
# Shear Modulus (GPa) = -22.93074 22.57944 -0.17565
#
# Velocity S-wave (km/s) = -3.54600 3.51873 -0.31035
# Velocity P-wave (km/s) = 4.33479 7.25458 5.97576
#
# Compressibility (1/GPa) = 0.01542225
#
# Stress axis : x y z
#
# Youngs Moduli (GPa) = 81.77054 65.98725 66.02401
#
# Poissons Ratio (x) = 0.31152 0.26297
# Poissons Ratio (y) = 0.38603 0.32021
# Poissons Ratio (z) = 0.32569 0.32003
#
# Static dielectric constant tensor:
#      x y z
#    x 3.551540 0.000000 0.000000 
#    y 0.000000 3.302040 0.000000 
#    z 0.000000 0.000000 3.447600 
# 
# 
# High freq. dielectric constant tensor:
#      x y z
#    x 1.713140 0.000000 0.000000 
#    y 0.000000 1.685410 0.000000 
#    z 0.000000 0.000000 1.724390 
# 
# From -- ./inp_files/5273.got.cif
#   From: 2010.03.12/outbox.cif.g09.slc.cpg/sg49_3_cif.got.tgz:5273.got - 2010.04.14 03:58:27.
