data_PCOD8203685
_publ_section_title
;
Structure prediction by ZEFSAII (Michael W. Deem and Ramdas Pophale) SiO2 
 PCOD8203685
Probable space group: P C C M
;
_chemical_formula_sum "Si O2"
_cell_formula_units_Z 64
_cell_length_a 24.246166
_cell_length_b 9.142162
_cell_length_c 15.283306
_cell_angle_alpha 90.000000
_cell_angle_beta 90.000000
_cell_angle_gamma 90.000000
_cell_volume 3387.733943
_symmetry_space_group_name_H-M "P C C M"
_symmetry_group_IT_number 49
_symmetry_cell_setting 'orthorhombic'
loop_
_space_group_symop_operation_xyz
x,y,z
-x,-y,z
x,-y,1/2-z
-x,y,1/2-z
-x,-y,-z
x,y,-z
-x,y,1/2+z
x,-y,1/2+z
loop_
_atom_site_type_symbol
_atom_site_label
_atom_site_fract_x
_atom_site_fract_y
_atom_site_fract_z
Si Si1 0.608816 0.671927 0.100354
Si Si2 0.891687 0.667476 0.097890
Si Si3 0.690277 0.326807 0.750000
Si Si4 0.608816 0.671927 0.600354
Si Si5 0.000000 0.172016 0.148874
Si Si6 0.500000 0.836091 0.603643
Si Si7 0.187093 0.673558 0.750000
Si Si8 0.108313 0.667476 0.097891
O O1 0.658934 0.724515 0.161994
O O2 0.597918 0.500000 0.109038
O O3 0.554292 0.752002 0.136051
O O4 0.622949 0.714527 0.000000
O O5 0.946439 0.762765 0.103275
O O6 0.845434 0.728567 0.164066
O O7 0.906755 0.500000 0.121354
O O8 0.867433 0.679551 0.000000
O O9 0.694627 0.500000 0.750000
O O10 0.658934 0.275486 0.838006
O O11 0.751595 0.257187 0.750000
O O12 0.622949 0.714527 0.500000
O O13 0.554292 0.752001 0.636052
O O14 0.000000 0.216279 0.250000
O O15 0.946439 0.237236 0.103275
O O16 0.000000 0.000000 0.134216
O O17 0.500001 0.838728 0.500000
O O18 0.500000 0.000000 0.642414
O O19 0.191799 0.500000 0.750000
O O20 0.154565 0.728567 0.835934
O O21 0.132567 0.679552 0.000000
#
# Coordination Sequence:
#
# PCOD8203685 Si02
#       8
#     8   8   8   8   8   8   8   8
#     4   9  17  30  49  72  98 128 162 201 244 292
#     4  10  20  34  55  80 104 135 171 206 252 305
#     4   9  18  31  49  74 100 129 166 205 246 289
#     4   9  17  30  49  72  98 128 162 201 244 292
#     4  11  22  35  54  79 107 138 169 206 255 305
#     4   9  17  30  49  72  99 129 160 199 249 300
#     4   9  18  33  51  74 104 131 164 213 252 287
#     4  10  20  34  55  80 104 135 171 206 252 305
#
# _framework density 18.891684000000001
#
# number of rings (size 3 to 8) (size 9 to 14) (size 15 to 20)
#    0.000    2.500    1.250    1.125    0.000    5.500 
#    0.000    8.125    0.000    3.000    0.000    3.500 
#    0.000    0.000    0.000    0.000    0.000    0.000 
#
# Total GULP energy -793576.724585 kJ/mol
# GULP energy per Si atom -12399.636322 kJ/mol
# Density = 1.884869 g / cm^3
# Si number density = 18.891684 Si / 1000 Ang^3
#
#
#
# Elastic Constant Matrix: (Units=GPa)
#
#
# Indices 1 2 3 4 5 6 
#
# 1 177.5144 36.3558 77.0236 0.0000 0.0000 0.0000
# 2 36.3558 46.2759 27.8032 0.0000 0.0000 0.0000
# 3 77.0236 27.8032 127.4894 0.0000 0.0000 0.0000
# 4 0.0000 0.0000 0.0000 13.1970 0.0000 0.0000
# 5 0.0000 0.0000 0.0000 0.0000 13.9044 0.0000
# 6 0.0000 0.0000 0.0000 0.0000 0.0000 -0.8731
#
#
#
# Elastic Compliance Matrix: (Units=1/GPa)
#
#
# Indices 1 2 3 4 5 6 
#
# 1 0.008233 -0.004004 -0.004101 0.000000 0.000000 0.000000
# 2 -0.004004 0.026815 -0.003429 0.000000 0.000000 0.000000
# 3 -0.004101 -0.003429 0.011069 0.000000 0.000000 0.000000
# 4 0.000000 0.000000 0.000000 0.075775 0.000000 0.000000
# 5 0.000000 0.000000 0.000000 0.000000 0.071920 0.000000
# 6 0.000000 0.000000 0.000000 0.000000 0.000000 -1.145345
#
#
# Mechanical properties :
#
#
# Convention : Reuss Voigt Hill
#
# Bulk Modulus (GPa) = 43.38421 70.40499 56.89460
# Shear Modulus (GPa) = -5.43016 19.25212 6.91098
#
# Velocity S-wave (km/s) = -1.69723 3.19577 1.91472
# Velocity P-wave (km/s) = 4.37879 7.13904 5.92198
#
# Compressibility (1/GPa) = 0.02304986
#
# Stress axis : x y z
#
# Youngs Moduli (GPa) = 121.46737 37.29207 90.34270
#
# Poissons Ratio (x) = 0.14932 0.37046
# Poissons Ratio (y) = 0.48637 0.30977
# Poissons Ratio (z) = 0.49809 0.12787
#
# Static dielectric constant tensor:
#      x y z
#    x 3.623230 0.000000 0.000000 
#    y 0.000000 3.199890 0.000000 
#    z 0.000000 0.000000 3.593930 
# 
# 
# High freq. dielectric constant tensor:
#      x y z
#    x 1.728980 0.000000 0.000000 
#    y 0.000000 1.698090 0.000000 
#    z 0.000000 0.000000 1.744090 
# 
# From -- ./inp_files/14515.got.cif
#   From: 2010.03.12/outbox.cif.g09.slc.cpg/sg49_8_cif.got.tgz:14515.got - 2010.04.14 03:58:27.
