data_PCOD8203158
_publ_section_title
;
Structure prediction by ZEFSAII (Michael W. Deem and Ramdas Pophale) SiO2 
 PCOD8203158
Probable space group: P C C M
;
_chemical_formula_sum "Si O2"
_cell_formula_units_Z 64
_cell_length_a 15.122662
_cell_length_b 24.789907
_cell_length_c 8.632224
_cell_angle_alpha 90.000000
_cell_angle_beta 90.000000
_cell_angle_gamma 90.000000
_cell_volume 3236.129143
_symmetry_space_group_name_H-M "P C C M"
_symmetry_group_IT_number 49
_symmetry_cell_setting 'orthorhombic'
loop_
_space_group_symop_operation_xyz
x,y,z
-x,-y,z
x,-y,1/2-z
-x,y,1/2-z
-x,-y,-z
x,y,-z
-x,y,1/2+z
x,-y,1/2+z
loop_
_atom_site_type_symbol
_atom_site_label
_atom_site_fract_x
_atom_site_fract_y
_atom_site_fract_z
Si Si1 0.674494 0.258929 0.818996
Si Si2 0.590590 0.641206 0.183007
Si Si3 0.593025 0.058537 0.183248
Si Si4 0.282565 0.147301 0.184023
Si Si5 0.089034 0.826286 0.675662
Si Si6 0.087162 0.601271 0.819483
Si Si7 0.723648 0.556916 0.680929
Si Si8 0.147581 0.291227 0.822298
O O1 0.599840 0.298923 0.754136
O O2 0.667337 0.202220 0.729988
O O3 0.768252 0.287492 0.789558
O O4 0.660055 0.249017 0.000000
O O5 0.500000 0.616017 0.250000
O O6 0.672118 0.604080 0.232657
O O7 0.586494 0.644467 0.000000
O O8 0.500000 0.080301 0.250000
O O9 0.672035 0.097443 0.232206
O O10 0.615088 0.000000 0.250000
O O11 0.585755 0.055218 0.000000
O O12 0.180731 0.149889 0.245168
O O13 0.287320 0.140673 0.000000
O O14 0.085521 0.844296 0.500000
O O15 0.087698 0.761799 0.696354
O O16 0.000000 0.850784 0.750000
O O17 0.172280 0.564522 0.786341
O O18 0.091365 0.657612 0.728078
O O19 0.000000 0.571531 0.750000
O O20 0.075924 0.612991 0.000000
O O21 0.693158 0.500000 0.750000
O O22 0.701137 0.559249 0.500000
O O23 0.180568 0.296575 0.000000
#
# Coordination Sequence:
#
# PCOD8203158 Si02
#       8
#     8   8   8   8   8   8   8   8
#     4  11  21  36  58  88 123 158 197 240 293 355
#     4  12  25  43  67  92 120 154 192 241 296 358
#     4  11  22  39  63  91 121 159 202 252 305 359
#     4  10  21  38  58  87 124 164 206 251 299 354
#     4   9  19  32  50  79 117 158 200 244 290 344
#     4  11  23  37  58  86 118 152 194 241 292 353
#     4  11  25  45  66  89 116 151 194 244 297 354
#     4  10  19  33  54  81 115 156 197 238 291 347
#
# _framework density 19.776714999999999
#
# number of rings (size 3 to 8) (size 9 to 14) (size 15 to 20)
#    0.000    1.375    1.250    6.375    0.000    6.500 
#    0.000    5.000    0.000    0.375    0.000    2.625 
#    0.000    0.000    0.000    0.000    0.000    0.000 
#
# Total GULP energy -793758.443775 kJ/mol
# GULP energy per Si atom -12402.475684 kJ/mol
# Density = 1.973170 g / cm^3
# Si number density = 19.776715 Si / 1000 Ang^3
#
#
#
# Elastic Constant Matrix: (Units=GPa)
#
#
# Indices 1 2 3 4 5 6 
#
# 1 91.8329 41.4924 46.4246 0.0000 0.0000 0.0000
# 2 41.4924 85.0218 33.8430 0.0000 0.0000 0.0000
# 3 46.4246 33.8430 120.0735 0.0000 0.0000 0.0000
# 4 0.0000 0.0000 0.0000 25.8321 0.0000 0.0000
# 5 0.0000 0.0000 0.0000 0.0000 35.5377 0.0000
# 6 0.0000 0.0000 0.0000 0.0000 0.0000 17.5792
#
#
#
# Elastic Compliance Matrix: (Units=1/GPa)
#
#
# Indices 1 2 3 4 5 6 
#
# 1 0.015825 -0.005956 -0.004440 0.000000 0.000000 0.000000
# 2 -0.005956 0.015489 -0.002063 0.000000 0.000000 0.000000
# 3 -0.004440 -0.002063 0.010626 0.000000 0.000000 0.000000
# 4 0.000000 0.000000 0.000000 0.038712 0.000000 0.000000
# 5 0.000000 0.000000 0.000000 0.000000 0.028139 0.000000
# 6 0.000000 0.000000 0.000000 0.000000 0.000000 0.056885
#
#
# Mechanical properties :
#
#
# Convention : Reuss Voigt Hill
#
# Bulk Modulus (GPa) = 58.74236 60.04982 59.39609
# Shear Modulus (GPa) = 25.47544 27.46769 26.47156
#
# Velocity S-wave (km/s) = 3.59298 3.73083 3.66255
# Velocity P-wave (km/s) = 6.85419 6.99918 6.92707
#
# Compressibility (1/GPa) = 0.01702349
#
# Stress axis : x y z
#
# Youngs Moduli (GPa) = 63.19254 64.56060 94.10618
#
# Poissons Ratio (x) = 0.38449 0.41781
# Poissons Ratio (y) = 0.37634 0.19415
# Poissons Ratio (z) = 0.28056 0.13319
#
# Static dielectric constant tensor:
#      x y z
#    x 3.724450 0.000000 0.000000 
#    y 0.000000 3.417430 0.000000 
#    z 0.000000 0.000000 3.653360 
# 
# 
# High freq. dielectric constant tensor:
#      x y z
#    x 1.776200 0.000000 0.000000 
#    y 0.000000 1.748380 0.000000 
#    z 0.000000 0.000000 1.784060 
# 
# From -- ./inp_files/4413.got.cif
#   From: 2010.03.12/outbox.cif.g09.slc.cpg/sg49_3_cif.got.tgz:4413.got - 2010.04.14 03:58:27.
