data_PCOD8203513
_publ_section_title
;
Structure prediction by ZEFSAII (Michael W. Deem and Ramdas Pophale) SiO2 
 PCOD8203513
Probable space group: P C C M
;
_chemical_formula_sum "Si O2"
_cell_formula_units_Z 64
_cell_length_a 17.249983
_cell_length_b 20.620014
_cell_length_c 9.205375
_cell_angle_alpha 90.000000
_cell_angle_beta 90.000000
_cell_angle_gamma 90.000000
_cell_volume 3274.304857
_symmetry_space_group_name_H-M "P C C M"
_symmetry_group_IT_number 49
_symmetry_cell_setting 'orthorhombic'
loop_
_space_group_symop_operation_xyz
x,y,z
-x,-y,z
x,-y,1/2-z
-x,y,1/2-z
-x,-y,-z
x,y,-z
-x,y,1/2+z
x,-y,1/2+z
loop_
_atom_site_type_symbol
_atom_site_label
_atom_site_fract_x
_atom_site_fract_y
_atom_site_fract_z
Si Si1 0.245983 0.061099 0.834192
Si Si2 0.810333 0.436887 0.332734
Si Si3 0.074255 0.358586 0.336778
Si Si4 0.721633 0.205837 0.328734
Si Si5 0.627738 0.436516 0.665770
Si Si6 0.927305 0.902680 0.169230
Si Si7 0.873784 0.218430 0.163586
Si Si8 0.576957 0.704597 0.828366
O O1 0.285182 0.129300 0.786669
O O2 0.153524 0.060728 0.804659
O O3 0.282946 0.000000 0.750000
O O4 0.264705 0.048065 0.000000
O O5 0.841421 0.500000 0.250000
O O6 0.835880 0.439326 0.500000
O O7 0.848692 0.376657 0.251766
O O8 0.719068 0.429705 0.316327
O O9 0.074785 0.387913 0.500000
O O10 0.072627 0.281328 0.344330
O O11 0.000000 0.385356 0.250000
O O12 0.740396 0.212717 0.500000
O O13 0.791629 0.236127 0.237425
O O14 0.644919 0.245429 0.285125
O O15 0.595886 0.500000 0.750000
O O16 0.603426 0.446795 0.500000
O O17 0.593277 0.368987 0.726929
O O18 0.920276 0.831854 0.238505
O O19 0.000000 0.938106 0.250000
O O20 0.946967 0.896262 0.000000
O O21 0.859584 0.191346 0.000000
O O22 0.500000 0.730333 0.750000
O O23 0.564932 0.704878 0.000000
#
# Coordination Sequence:
#
# PCOD8203513 Si02
#       8
#     8   8   8   8   8   8   8   8
#     4   9  19  34  53  77 104 138 179 225 273 322
#     4  10  20  36  56  74  95 127 168 213 262 313
#     4  11  23  35  48  70  98 129 169 217 267 316
#     4   9  19  37  58  79 107 142 178 218 266 319
#     4   9  19  35  56  81 109 143 177 212 255 306
#     4  10  20  33  49  72 105 143 180 220 268 317
#     4  10  20  33  52  77 102 132 174 220 264 315
#     4  10  21  37  57  83 114 145 177 213 258 310
#
# _framework density 19.546132
#
# number of rings (size 3 to 8) (size 9 to 14) (size 15 to 20)
#    0.000    2.250    0.000    3.375    0.000    8.750 
#    0.000    3.750    0.000    0.375    0.000    2.625 
#    0.000    0.000    0.000    0.000    0.000    0.000 
#
# Total GULP energy -793464.015035 kJ/mol
# GULP energy per Si atom -12397.875235 kJ/mol
# Density = 1.950164 g / cm^3
# Si number density = 19.546132 Si / 1000 Ang^3
#
#
#
# Elastic Constant Matrix: (Units=GPa)
#
#
# Indices 1 2 3 4 5 6 
#
# 1 68.5924 33.0117 38.0568 0.0000 0.0000 0.0000
# 2 33.0117 90.9893 37.8281 0.0000 0.0000 0.0000
# 3 38.0568 37.8281 99.1708 0.0000 0.0000 0.0000
# 4 0.0000 0.0000 0.0000 31.4623 0.0000 0.0000
# 5 0.0000 0.0000 0.0000 0.0000 27.9174 0.0000
# 6 0.0000 0.0000 0.0000 0.0000 0.0000 7.4300
#
#
#
# Elastic Compliance Matrix: (Units=1/GPa)
#
#
# Indices 1 2 3 4 5 6 
#
# 1 0.020194 -0.004878 -0.005889 0.000000 0.000000 0.000000
# 2 -0.004878 0.014240 -0.003560 0.000000 0.000000 0.000000
# 3 -0.005889 -0.003560 0.013701 0.000000 0.000000 0.000000
# 4 0.000000 0.000000 0.000000 0.031784 0.000000 0.000000
# 5 0.000000 0.000000 0.000000 0.000000 0.035820 0.000000
# 6 0.000000 0.000000 0.000000 0.000000 0.000000 0.134590
#
#
# Mechanical properties :
#
#
# Convention : Reuss Voigt Hill
#
# Bulk Modulus (GPa) = 51.32992 52.94954 52.13973
# Shear Modulus (GPa) = 17.51460 23.35233 20.43346
#
# Velocity S-wave (km/s) = 2.99668 3.46023 3.23677
# Velocity P-wave (km/s) = 6.18800 6.56602 6.37981
#
# Compressibility (1/GPa) = 0.01948182
#
# Stress axis : x y z
#
# Youngs Moduli (GPa) = 49.52007 70.22393 72.98632
#
# Poissons Ratio (x) = 0.34258 0.42978
# Poissons Ratio (y) = 0.24158 0.25981
# Poissons Ratio (z) = 0.29160 0.24998
#
# Static dielectric constant tensor:
#      x y z
#    x 3.358310 0.000000 0.000000 
#    y 0.000000 3.532360 0.000000 
#    z 0.000000 0.000000 3.648030 
# 
# 
# High freq. dielectric constant tensor:
#      x y z
#    x 1.738290 0.000000 0.000000 
#    y 0.000000 1.760420 0.000000 
#    z 0.000000 0.000000 1.765930 
# 
# From -- ./inp_files/5242.got.cif
#   From: 2010.03.12/outbox.cif.g09.slc.cpg/sg49_3_cif.got.tgz:5242.got - 2010.04.14 03:58:27.
