data_PCOD8203174
_publ_section_title
;
Structure prediction by ZEFSAII (Michael W. Deem and Ramdas Pophale) SiO2 
 PCOD8203174
Probable space group: P C C M
;
_chemical_formula_sum "Si O2"
_cell_formula_units_Z 64
_cell_length_a 19.536096
_cell_length_b 20.587739
_cell_length_c 8.804339
_cell_angle_alpha 90.000000
_cell_angle_beta 90.000000
_cell_angle_gamma 90.000000
_cell_volume 3541.140764
_symmetry_space_group_name_H-M "P C C M"
_symmetry_group_IT_number 49
_symmetry_cell_setting 'orthorhombic'
loop_
_space_group_symop_operation_xyz
x,y,z
-x,-y,z
x,-y,1/2-z
-x,y,1/2-z
-x,-y,-z
x,y,-z
-x,y,1/2+z
x,-y,1/2+z
loop_
_atom_site_type_symbol
_atom_site_label
_atom_site_fract_x
_atom_site_fract_y
_atom_site_fract_z
Si Si1 0.071291 0.267131 0.678330
Si Si2 0.293659 0.189196 0.821047
Si Si3 0.569760 0.772400 0.320817
Si Si4 0.288065 0.431740 0.319532
Si Si5 0.207204 0.686034 0.680254
Si Si6 0.794227 0.934151 0.820331
Si Si7 0.431058 0.375859 0.678297
Si Si8 0.929028 0.883821 0.322099
O O1 0.070935 0.281390 0.500000
O O2 0.130450 0.307835 0.759001
O O3 0.083496 0.191642 0.714622
O O4 0.000000 0.290716 0.750000
O O5 0.366811 0.186140 0.739920
O O6 0.251420 0.252037 0.765792
O O7 0.253261 0.125353 0.768298
O O8 0.305085 0.190965 0.000000
O O9 0.500000 0.801005 0.250000
O O10 0.565879 0.778436 0.500000
O O11 0.579491 0.698074 0.265982
O O12 0.265272 0.500000 0.250000
O O13 0.281617 0.432688 0.500000
O O14 0.238012 0.377985 0.253779
O O15 0.365833 0.416979 0.266953
O O16 0.206424 0.679802 0.500000
O O17 0.869969 0.925198 0.755517
O O18 0.762833 0.000000 0.750000
O O19 0.797950 0.939419 0.000000
O O20 0.500000 0.405947 0.750000
O O21 0.439755 0.378466 0.500000
O O22 0.930123 0.897869 0.500000
O O23 0.000000 0.907450 0.250000
#
# Coordination Sequence:
#
# PCOD8203174 Si02
#       8
#     8   8   8   8   8   8   8   8
#     4  10  20  34  56  85 116 147 184 231 279 331
#     4  10  21  36  57  83 112 145 185 231 279 331
#     4  10  19  33  55  83 113 144 182 228 279 331
#     4  11  23  39  55  80 113 150 192 233 281 333
#     4  11  21  36  59  85 112 147 187 233 283 330
#     4  11  23  39  56  80 113 149 189 232 280 335
#     4   9  19  33  51  76 109 146 185 226 269 324
#     4  10  20  34  54  80 112 150 189 229 275 328
#
# _framework density 18.073270999999998
#
# number of rings (size 3 to 8) (size 9 to 14) (size 15 to 20)
#    0.000    1.750    2.500    2.250    0.000    4.500 
#    0.000    2.500    0.000    0.750    0.000    5.250 
#    0.000    0.000    0.000    0.000    0.000    0.000 
#
# Total GULP energy -793914.854200 kJ/mol
# GULP energy per Si atom -12404.919597 kJ/mol
# Density = 1.803214 g / cm^3
# Si number density = 18.073271 Si / 1000 Ang^3
#
#
#
# Elastic Constant Matrix: (Units=GPa)
#
#
# Indices 1 2 3 4 5 6 
#
# 1 135.0354 64.3633 48.8977 0.0000 0.0000 0.0000
# 2 64.3633 111.8534 42.4391 0.0000 0.0000 0.0000
# 3 48.8977 42.4391 69.4850 0.0000 0.0000 0.0000
# 4 0.0000 0.0000 0.0000 25.5166 0.0000 0.0000
# 5 0.0000 0.0000 0.0000 0.0000 36.9734 0.0000
# 6 0.0000 0.0000 0.0000 0.0000 0.0000 24.1007
#
#
#
# Elastic Compliance Matrix: (Units=1/GPa)
#
#
# Indices 1 2 3 4 5 6 
#
# 1 0.011524 -0.004626 -0.005284 0.000000 0.000000 0.000000
# 2 -0.004626 0.013494 -0.004986 0.000000 0.000000 0.000000
# 3 -0.005284 -0.004986 0.021155 0.000000 0.000000 0.000000
# 4 0.000000 0.000000 0.000000 0.039190 0.000000 0.000000
# 5 0.000000 0.000000 0.000000 0.000000 0.027047 0.000000
# 6 0.000000 0.000000 0.000000 0.000000 0.000000 0.041492
#
#
# Mechanical properties :
#
#
# Convention : Reuss Voigt Hill
#
# Bulk Modulus (GPa) = 61.04790 69.75266 65.40028
# Shear Modulus (GPa) = 26.43322 28.02973 27.23147
#
# Velocity S-wave (km/s) = 3.82849 3.94241 3.88587
# Velocity P-wave (km/s) = 7.30715 7.70725 7.50986
#
# Compressibility (1/GPa) = 0.01638058
#
# Stress axis : x y z
#
# Youngs Moduli (GPa) = 86.77583 74.10567 47.26925
#
# Poissons Ratio (x) = 0.34284 0.24977
# Poissons Ratio (y) = 0.40146 0.23569
# Poissons Ratio (z) = 0.45852 0.36951
#
# Static dielectric constant tensor:
#      x y z
#    x 3.427490 0.000000 0.000000 
#    y 0.000000 3.214410 0.000000 
#    z 0.000000 0.000000 3.336350 
# 
# 
# High freq. dielectric constant tensor:
#      x y z
#    x 1.704410 0.000000 0.000000 
#    y 0.000000 1.677020 0.000000 
#    z 0.000000 0.000000 1.710820 
# 
# From -- ./inp_files/5275.got.cif
#   From: 2010.03.12/outbox.cif.g09.slc.cpg/sg49_3_cif.got.tgz:5275.got - 2010.04.14 03:58:27.
