data_PCOD8203719
_publ_section_title
;
Structure prediction by ZEFSAII (Michael W. Deem and Ramdas Pophale) SiO2 
 PCOD8203719
Probable space group: P C C M
;
_chemical_formula_sum "Si O2"
_cell_formula_units_Z 34
_cell_length_a 8.762708
_cell_length_b 11.189519
_cell_length_c 16.987038
_cell_angle_alpha 90.000000
_cell_angle_beta 90.000000
_cell_angle_gamma 90.000000
_cell_volume 1665.587360
_symmetry_space_group_name_H-M "P C C M"
_symmetry_group_IT_number 49
_symmetry_cell_setting 'orthorhombic'
loop_
_space_group_symop_operation_xyz
x,y,z
-x,-y,z
x,-y,1/2-z
-x,y,1/2-z
-x,-y,-z
x,y,-z
-x,y,1/2+z
x,-y,1/2+z
loop_
_atom_site_type_symbol
_atom_site_label
_atom_site_fract_x
_atom_site_fract_y
_atom_site_fract_z
Si Si1 0.327715 0.639654 0.235629
Si Si2 0.000000 0.000000 0.250000
Si Si3 0.181935 0.762027 0.091585
Si Si4 0.145313 0.802213 0.648567
Si Si5 0.334855 0.002067 0.088991
O O1 0.316084 0.500000 0.250000
O O2 0.500000 0.685379 0.250000
O O3 0.274208 0.669222 0.146510
O O4 0.216309 0.698491 0.299085
O O5 0.889048 0.916120 0.201416
O O6 0.224833 0.896109 0.121449
O O7 0.000227 0.748000 0.103716
O O8 0.220003 0.735077 0.000000
O O9 0.265997 0.863424 0.589231
O O10 0.500000 0.000000 0.132889
O O11 0.362514 0.963162 0.000000
#
# Coordination Sequence:
#
# PCOD8203719 Si02
#       5
#     8   2   8   8   8
#     4  11  25  45  65  87 119 167 218 258 299 359
#     4  12  20  32  58  92 120 148 208 238 304 368
#     4  11  22  39  62  93 126 159 201 258 314 365
#     4  12  20  37  61  89 124 161 205 253 306 366
#     4  10  20  34  57  92 129 162 197 247 312 373
#
# _framework density 20.413218000000001
#
# number of rings (size 3 to 8) (size 9 to 14) (size 15 to 20)
#    0.000    0.941    4.706    2.118    0.000    3.765 
#    0.000    9.412    0.000    0.000    0.000    0.000 
#    0.000    0.000    0.000    0.000    0.000    0.000 
#
# Total GULP energy -421450.249242 kJ/mol
# GULP energy per Si atom -12395.595566 kJ/mol
# Density = 2.036676 g / cm^3
# Si number density = 20.413218 Si / 1000 Ang^3
#
#
#
# Elastic Constant Matrix: (Units=GPa)
#
#
# Indices 1 2 3 4 5 6 
#
# 1 149.0007 40.2835 45.8096 0.0000 0.0000 0.0000
# 2 40.2835 83.4384 42.3771 0.0000 0.0000 0.0000
# 3 45.8096 42.3771 98.9391 0.0000 0.0000 0.0000
# 4 0.0000 0.0000 0.0000 19.8163 0.0000 0.0000
# 5 0.0000 0.0000 0.0000 0.0000 27.8035 0.0000
# 6 0.0000 0.0000 0.0000 0.0000 0.0000 34.6986
#
#
#
# Elastic Compliance Matrix: (Units=1/GPa)
#
#
# Indices 1 2 3 4 5 6 
#
# 1 0.008247 -0.002610 -0.002701 0.000000 0.000000 0.000000
# 2 -0.002610 0.016143 -0.005706 0.000000 0.000000 0.000000
# 3 -0.002701 -0.005706 0.013801 0.000000 0.000000 0.000000
# 4 0.000000 0.000000 0.000000 0.050464 0.000000 0.000000
# 5 0.000000 0.000000 0.000000 0.000000 0.035967 0.000000
# 6 0.000000 0.000000 0.000000 0.000000 0.000000 0.028820
#
#
# Mechanical properties :
#
#
# Convention : Reuss Voigt Hill
#
# Bulk Modulus (GPa) = 61.88605 65.36875 63.62740
# Shear Modulus (GPa) = 27.64556 29.99088 28.81822
#
# Velocity S-wave (km/s) = 3.68407 3.83716 3.76139
# Velocity P-wave (km/s) = 6.96268 7.19194 7.07824
#
# Compressibility (1/GPa) = 0.01615873
#
# Stress axis : x y z
#
# Youngs Moduli (GPa) = 121.25112 61.94671 72.45594
#
# Poissons Ratio (x) = 0.16169 0.19568
# Poissons Ratio (y) = 0.31648 0.41341
# Poissons Ratio (z) = 0.32745 0.35345
#
# Static dielectric constant tensor:
#      x y z
#    x 4.074940 0.000000 0.000000 
#    y 0.000000 3.774330 0.000000 
#    z 0.000000 0.000000 3.756280 
# 
# 
# High freq. dielectric constant tensor:
#      x y z
#    x 1.815640 0.000000 0.000000 
#    y 0.000000 1.777730 0.000000 
#    z 0.000000 0.000000 1.793840 
# 
# From -- ./inp_files/19452.got.cif
#   From: 2010.03.12/outbox.cif.g09.slc.cpg/sg49_10_cif.got.tgz:19452.got - 2010.04.14 03:58:27.
