data_PCOD8203936
_publ_section_title
;
Structure prediction by ZEFSAII (Michael W. Deem and Ramdas Pophale) SiO2 
 PCOD8203936
Probable space group: P C C M
;
_chemical_formula_sum "Si O2"
_cell_formula_units_Z 64
_cell_length_a 23.627368
_cell_length_b 15.009366
_cell_length_c 8.781119
_cell_angle_alpha 90.000000
_cell_angle_beta 90.000000
_cell_angle_gamma 90.000000
_cell_volume 3114.064159
_symmetry_space_group_name_H-M "P C C M"
_symmetry_group_IT_number 49
_symmetry_cell_setting 'orthorhombic'
loop_
_space_group_symop_operation_xyz
x,y,z
-x,-y,z
x,-y,1/2-z
-x,y,1/2-z
-x,-y,-z
x,y,-z
-x,y,1/2+z
x,-y,1/2+z
loop_
_atom_site_type_symbol
_atom_site_label
_atom_site_fract_x
_atom_site_fract_y
_atom_site_fract_z
Si Si1 0.773111 0.592472 0.681405
Si Si2 0.105483 0.405321 0.817572
Si Si3 0.725562 0.906663 0.177316
Si Si4 0.559290 0.280320 0.169778
Si Si5 0.058015 0.767780 0.818161
Si Si6 0.321594 0.731683 0.180638
Si Si7 0.440434 0.920803 0.168932
Si Si8 0.856795 0.094091 0.679244
O O1 0.750463 0.500000 0.750000
O O2 0.781195 0.584875 0.500000
O O3 0.831828 0.618375 0.760021
O O4 0.728939 0.667658 0.730435
O O5 0.085730 0.500000 0.750000
O O6 0.063883 0.330739 0.752172
O O7 0.103709 0.407432 0.000000
O O8 0.687194 0.827947 0.243881
O O9 0.791170 0.887093 0.213446
O O10 0.706927 0.000000 0.250000
O O11 0.713853 0.913591 0.000000
O O12 0.500000 0.302623 0.250000
O O13 0.618921 0.319708 0.232749
O O14 0.582639 0.178616 0.177287
O O15 0.546309 0.312041 0.000000
O O16 0.109628 0.828568 0.764242
O O17 0.000000 0.808335 0.750000
O O18 0.056208 0.763857 0.000000
O O19 0.323247 0.745263 0.000000
O O20 0.500000 0.914835 0.250000
O O21 0.403504 0.000000 0.250000
O O22 0.448775 0.954304 0.000000
O O23 0.870266 0.094537 0.500000
O O24 0.875665 0.000000 0.750000
#
# Coordination Sequence:
#
# PCOD8203936 Si02
#       8
#     8   8   8   8   8   8   8   8
#     4  10  20  36  60  88 116 146 181 229 284 340
#     4  11  22  39  62  89 120 153 189 231 282 343
#     4  10  21  36  57  84 115 149 188 232 281 336
#     4   9  19  34  49  69  98 135 177 221 268 326
#     4  12  25  41  60  86 119 157 200 244 288 337
#     4  10  21  36  55  80 112 146 182 227 282 336
#     4   9  15  24  39  57  81 113 154 200 244 290
#     4  10  21  39  61  86 115 152 196 245 295 344
#
# _framework density 20.551921
#
# number of rings (size 3 to 8) (size 9 to 14) (size 15 to 20)
#    0.000    1.875    0.000    5.625    0.000    6.500 
#    0.000    3.750    0.000    0.375    0.000    2.625 
#    0.000    0.000    0.000    0.000    0.000    0.000 
#
# Total GULP energy -793065.761659 kJ/mol
# GULP energy per Si atom -12391.652526 kJ/mol
# Density = 2.050514 g / cm^3
# Si number density = 20.551921 Si / 1000 Ang^3
#
#
#
# Elastic Constant Matrix: (Units=GPa)
#
#
# Indices 1 2 3 4 5 6 
#
# 1 92.5262 29.0651 45.1260 0.0000 0.0000 0.0000
# 2 29.0651 64.2864 30.3840 0.0000 0.0000 0.0000
# 3 45.1260 30.3840 135.4234 0.0000 0.0000 0.0000
# 4 0.0000 0.0000 0.0000 29.2331 0.0000 0.0000
# 5 0.0000 0.0000 0.0000 0.0000 29.7239 0.0000
# 6 0.0000 0.0000 0.0000 0.0000 0.0000 -0.4874
#
#
#
# Elastic Compliance Matrix: (Units=1/GPa)
#
#
# Indices 1 2 3 4 5 6 
#
# 1 0.014036 -0.004626 -0.003639 0.000000 0.000000 0.000000
# 2 -0.004626 0.018925 -0.002705 0.000000 0.000000 0.000000
# 3 -0.003639 -0.002705 0.009204 0.000000 0.000000 0.000000
# 4 0.000000 0.000000 0.000000 0.034208 0.000000 0.000000
# 5 0.000000 0.000000 0.000000 0.000000 0.033643 0.000000
# 6 0.000000 0.000000 0.000000 0.000000 0.000000 -2.051844
#
#
# Mechanical properties :
#
#
# Convention : Reuss Voigt Hill
#
# Bulk Modulus (GPa) = 49.44306 55.70957 52.57632
# Shear Modulus (GPa) = -2.61349 24.20467 10.79559
#
# Velocity S-wave (km/s) = -1.12890 3.43553 2.29439
# Velocity P-wave (km/s) = 4.73399 6.55002 5.71461
#
# Compressibility (1/GPa) = 0.02022528
#
# Stress axis : x y z
#
# Youngs Moduli (GPa) = 71.24693 52.83983 108.65178
#
# Poissons Ratio (x) = 0.24443 0.39540
# Poissons Ratio (y) = 0.32958 0.29387
# Poissons Ratio (z) = 0.25928 0.14291
#
# Static dielectric constant tensor:
#      x y z
#    x 3.803780 0.000000 0.000000 
#    y 0.000000 3.249320 0.000000 
#    z 0.000000 0.000000 3.784100 
# 
# 
# High freq. dielectric constant tensor:
#      x y z
#    x 1.815250 0.000000 0.000000 
#    y 0.000000 1.788640 0.000000 
#    z 0.000000 0.000000 1.811270 
# 
# From -- ./inp_files/6553.got.cif
#   From: 2010.03.12/outbox.cif.g09.slc.cpg/sg49_4_cif.got.tgz:6553.got - 2010.04.14 03:58:27.
