data_PCOD8203801
_publ_section_title
;
Structure prediction by ZEFSAII (Michael W. Deem and Ramdas Pophale) SiO2 
 PCOD8203801
Probable space group: P C C M
;
_chemical_formula_sum "Si O2"
_cell_formula_units_Z 48
_cell_length_a 30.660702
_cell_length_b 9.120205
_cell_length_c 8.790686
_cell_angle_alpha 90.000000
_cell_angle_beta 90.000000
_cell_angle_gamma 90.000000
_cell_volume 2458.156120
_symmetry_space_group_name_H-M "P C C M"
_symmetry_group_IT_number 49
_symmetry_cell_setting 'orthorhombic'
loop_
_space_group_symop_operation_xyz
x,y,z
-x,-y,z
x,-y,1/2-z
-x,y,1/2-z
-x,-y,-z
x,y,-z
-x,y,1/2+z
x,-y,1/2+z
loop_
_atom_site_type_symbol
_atom_site_label
_atom_site_fract_x
_atom_site_fract_y
_atom_site_fract_z
Si Si1 0.871459 0.341095 0.678025
Si Si2 0.289618 0.341334 0.679197
Si Si3 0.371731 0.158346 0.679248
Si Si4 0.045398 0.153279 0.822250
Si Si5 0.794693 0.841401 0.320036
Si Si6 0.454898 0.657040 0.180305
O O1 0.866848 0.500000 0.750000
O O2 0.861416 0.351495 0.500000
O O3 0.919547 0.279217 0.711132
O O4 0.837820 0.231125 0.754182
O O5 0.287602 0.500000 0.750000
O O6 0.292289 0.358843 0.500000
O O7 0.332088 0.256891 0.742029
O O8 0.246752 0.254092 0.729727
O O9 0.368328 0.142440 0.500000
O O10 0.417231 0.231008 0.728728
O O11 0.368111 0.000000 0.750000
O O12 0.000000 0.206528 0.750000
O O13 0.061140 0.000000 0.750000
O O14 0.038767 0.127008 0.000000
O O15 0.799129 0.854638 0.500000
O O16 0.788202 0.000000 0.250000
O O17 0.443147 0.500000 0.250000
O O18 0.500000 0.717604 0.250000
O O19 0.459362 0.641292 0.000000
#
# Coordination Sequence:
#
# PCOD8203801 Si02
#       6
#     8   8   8   8   8   8
#     4  11  24  40  59  85 117 153 192 235 284 337
#     4  10  22  39  59  85 114 146 186 230 278 332
#     4  10  22  38  56  81 112 146 185 228 276 330
#     4  10  21  37  59  85 113 148 189 234 283 336
#     4  11  23  39  61  87 116 150 189 233 281 335
#     4  10  20  35  56  81 109 143 184 228 276 330
#
# _framework density 19.526831000000001
#
# number of rings (size 3 to 8) (size 9 to 14) (size 15 to 20)
#    0.000    1.667    0.000    5.000    0.000    9.333 
#    0.000    3.333    0.000    0.000    0.000    0.000 
#    0.000    0.000    0.000    0.000    0.000    0.000 
#
# Total GULP energy -595418.667137 kJ/mol
# GULP energy per Si atom -12404.555565 kJ/mol
# Density = 1.948239 g / cm^3
# Si number density = 19.526831 Si / 1000 Ang^3
#
#
#
# Elastic Constant Matrix: (Units=GPa)
#
#
# Indices 1 2 3 4 5 6 
#
# 1 138.7521 83.2412 60.1062 0.0000 0.0000 0.0000
# 2 83.2412 160.0363 54.0163 0.0000 0.0000 0.0000
# 3 60.1062 54.0163 80.4498 0.0000 0.0000 0.0000
# 4 0.0000 0.0000 0.0000 37.8016 0.0000 0.0000
# 5 0.0000 0.0000 0.0000 0.0000 28.8478 0.0000
# 6 0.0000 0.0000 0.0000 0.0000 0.0000 48.4596
#
#
#
# Elastic Compliance Matrix: (Units=1/GPa)
#
#
# Indices 1 2 3 4 5 6 
#
# 1 0.012660 -0.004387 -0.006514 0.000000 0.000000 0.000000
# 2 -0.004387 0.009600 -0.003168 0.000000 0.000000 0.000000
# 3 -0.006514 -0.003168 0.019424 0.000000 0.000000 0.000000
# 4 0.000000 0.000000 0.000000 0.026454 0.000000 0.000000
# 5 0.000000 0.000000 0.000000 0.000000 0.034665 0.000000
# 6 0.000000 0.000000 0.000000 0.000000 0.000000 0.020636
#
#
# Mechanical properties :
#
#
# Convention : Reuss Voigt Hill
#
# Bulk Modulus (GPa) = 73.81661 85.99618 79.90639
# Shear Modulus (GPa) = 32.03275 35.14676 33.58975
#
# Velocity S-wave (km/s) = 4.05464 4.24715 4.15201
# Velocity P-wave (km/s) = 7.73336 8.25752 7.99973
#
# Compressibility (1/GPa) = 0.01354709
#
# Stress axis : x y z
#
# Youngs Moduli (GPa) = 78.98629 104.17148 51.48361
#
# Poissons Ratio (x) = 0.45697 0.33534
# Poissons Ratio (y) = 0.34649 0.16310
# Poissons Ratio (z) = 0.51448 0.33002
#
# Static dielectric constant tensor:
#      x y z
#    x 3.911790 0.000000 0.000000 
#    y 0.000000 3.549460 0.000000 
#    z 0.000000 0.000000 3.648880 
# 
# 
# High freq. dielectric constant tensor:
#      x y z
#    x 1.779470 0.000000 0.000000 
#    y 0.000000 1.767270 0.000000 
#    z 0.000000 0.000000 1.767860 
# 
# From -- ./inp_files/2042.got.cif
#   From: 2010.03.12/outbox.cif.g09.slc.cpg/sg49_2_cif.got.tgz:2042.got - 2010.04.14 03:58:27.
