data_PCOD8203478
_publ_section_title
;
Structure prediction by ZEFSAII (Michael W. Deem and Ramdas Pophale) SiO2 
 PCOD8203478
Probable space group: P C C M
;
_chemical_formula_sum "Si O2"
_cell_formula_units_Z 56
_cell_length_a 14.813655
_cell_length_b 22.763329
_cell_length_c 8.699101
_cell_angle_alpha 90.000000
_cell_angle_beta 90.000000
_cell_angle_gamma 90.000000
_cell_volume 2933.407341
_symmetry_space_group_name_H-M "P C C M"
_symmetry_group_IT_number 49
_symmetry_cell_setting 'orthorhombic'
loop_
_space_group_symop_operation_xyz
x,y,z
-x,-y,z
x,-y,1/2-z
-x,y,1/2-z
-x,-y,-z
x,y,-z
-x,y,1/2+z
x,-y,1/2+z
loop_
_atom_site_type_symbol
_atom_site_label
_atom_site_fract_x
_atom_site_fract_y
_atom_site_fract_z
Si Si1 0.592606 0.885737 0.680507
Si Si2 0.223519 0.939297 0.819799
Si Si3 0.903542 0.295357 0.182693
Si Si4 0.905739 0.838015 0.681579
Si Si5 0.726540 0.656816 0.819404
Si Si6 0.592719 0.760145 0.820324
Si Si7 0.594182 0.564101 0.682686
O O1 0.500000 0.910997 0.750000
O O2 0.581745 0.878841 0.500000
O O3 0.671844 0.930622 0.725141
O O4 0.617400 0.822259 0.746615
O O5 0.168527 0.883500 0.754039
O O6 0.187395 0.000000 0.750000
O O7 0.209478 0.942778 0.000000
O O8 0.882497 0.228274 0.234648
O O9 0.827754 0.337326 0.255369
O O10 0.000000 0.315225 0.250000
O O11 0.904279 0.302361 0.000000
O O12 0.912092 0.840303 0.500000
O O13 0.000000 0.859057 0.750000
O O14 0.673516 0.716439 0.780852
O O15 0.677981 0.603834 0.732417
O O16 0.728473 0.643444 0.000000
O O17 0.500000 0.734709 0.750000
O O18 0.578231 0.768641 0.000000
O O19 0.612162 0.500000 0.750000
O O20 0.500000 0.589671 0.750000
O O21 0.586867 0.561355 0.500000
#
# Coordination Sequence:
#
# PCOD8203478 Si02
#       7
#     8   8   8   8   8   8   8
#     4  10  20  35  53  72  98 131 169 212 261 316
#     4  10  22  37  52  72  98 130 168 212 259 313
#     4  10  20  36  58  83 111 143 179 224 275 328
#     4   9  19  36  56  78 104 134 169 210 264 323
#     4  11  22  35  54  83 115 148 187 228 271 323
#     4  10  20  32  50  77 108 139 173 215 265 320
#     4  11  22  38  59  84 117 157 197 236 276 319
#
# _framework density 19.090427999999999
#
# number of rings (size 3 to 8) (size 9 to 14) (size 15 to 20)
#    0.000    1.857    0.000    5.571    0.000    7.429 
#    0.000    2.857    0.000    0.429    0.000    3.000 
#    0.000    0.000    0.000    0.000    0.000    0.000 
#
# Total GULP energy -694529.416219 kJ/mol
# GULP energy per Si atom -12402.311004 kJ/mol
# Density = 1.904698 g / cm^3
# Si number density = 19.090428 Si / 1000 Ang^3
#
#
#
# Elastic Constant Matrix: (Units=GPa)
#
#
# Indices 1 2 3 4 5 6 
#
# 1 131.5033 60.0058 49.4488 0.0000 0.0000 0.0000
# 2 60.0058 75.8594 36.6805 0.0000 0.0000 0.0000
# 3 49.4488 36.6805 95.8723 0.0000 0.0000 0.0000
# 4 0.0000 0.0000 0.0000 25.7475 0.0000 0.0000
# 5 0.0000 0.0000 0.0000 0.0000 32.3363 0.0000
# 6 0.0000 0.0000 0.0000 0.0000 0.0000 32.6031
#
#
#
# Elastic Compliance Matrix: (Units=1/GPa)
#
#
# Indices 1 2 3 4 5 6 
#
# 1 0.012707 -0.008445 -0.003323 0.000000 0.000000 0.000000
# 2 -0.008445 0.021787 -0.003980 0.000000 0.000000 0.000000
# 3 -0.003323 -0.003980 0.013667 0.000000 0.000000 0.000000
# 4 0.000000 0.000000 0.000000 0.038839 0.000000 0.000000
# 5 0.000000 0.000000 0.000000 0.000000 0.030925 0.000000
# 6 0.000000 0.000000 0.000000 0.000000 0.000000 0.030672
#
#
# Mechanical properties :
#
#
# Convention : Reuss Voigt Hill
#
# Bulk Modulus (GPa) = 60.00423 66.16723 63.08573
# Shear Modulus (GPa) = 26.93266 28.61070 27.77168
#
# Velocity S-wave (km/s) = 3.76013 3.87550 3.81825
# Velocity P-wave (km/s) = 7.09586 7.40007 7.24956
#
# Compressibility (1/GPa) = 0.01666549
#
# Stress axis : x y z
#
# Youngs Moduli (GPa) = 78.69393 45.89960 73.16752
#
# Poissons Ratio (x) = 0.38762 0.24315
# Poissons Ratio (y) = 0.66456 0.29119
# Poissons Ratio (z) = 0.26152 0.18267
#
# Static dielectric constant tensor:
#      x y z
#    x 3.567270 0.000000 0.000000 
#    y 0.000000 3.411980 0.000000 
#    z 0.000000 0.000000 3.498180 
# 
# 
# High freq. dielectric constant tensor:
#      x y z
#    x 1.746100 0.000000 0.000000 
#    y 0.000000 1.727080 0.000000 
#    z 0.000000 0.000000 1.751080 
# 
# From -- ./inp_files/4078.got.cif
#   From: 2010.03.12/outbox.cif.g09.slc.cpg/sg49_3_cif.got.tgz:4078.got - 2010.04.14 03:58:27.
