data_PCOD8203130
_publ_section_title
;
Structure prediction by ZEFSAII (Michael W. Deem and Ramdas Pophale) SiO2 
 PCOD8203130
Probable space group: P C C M
;
_chemical_formula_sum "Si O2"
_cell_formula_units_Z 48
_cell_length_a 14.497568
_cell_length_b 20.671031
_cell_length_c 8.611445
_cell_angle_alpha 90.000000
_cell_angle_beta 90.000000
_cell_angle_gamma 90.000000
_cell_volume 2580.675061
_symmetry_space_group_name_H-M "P C C M"
_symmetry_group_IT_number 49
_symmetry_cell_setting 'orthorhombic'
loop_
_space_group_symop_operation_xyz
x,y,z
-x,-y,z
x,-y,1/2-z
-x,y,1/2-z
-x,-y,-z
x,y,-z
-x,y,1/2+z
x,-y,1/2+z
loop_
_atom_site_type_symbol
_atom_site_label
_atom_site_fract_x
_atom_site_fract_y
_atom_site_fract_z
Si Si1 0.211965 0.808837 0.184560
Si Si2 0.101600 0.684748 0.184162
Si Si3 0.594732 0.762620 0.681996
Si Si4 0.782375 0.567425 0.816482
Si Si5 0.100389 0.067998 0.684392
Si Si6 0.596409 0.386869 0.183701
O O1 0.149670 0.750007 0.248035
O O2 0.316825 0.801862 0.247624
O O3 0.170313 0.876661 0.242948
O O4 0.212627 0.805650 0.000000
O O5 0.159412 0.624053 0.240229
O O6 0.000000 0.680771 0.250000
O O7 0.098365 0.684315 0.000000
O O8 0.500000 0.791695 0.750000
O O9 0.588171 0.769950 0.500000
O O10 0.607647 0.688153 0.730123
O O11 0.821223 0.500000 0.750000
O O12 0.675806 0.573383 0.768669
O O13 0.793776 0.569352 0.000000
O O14 0.094314 0.064511 0.500000
O O15 0.000000 0.084491 0.750000
O O16 0.137309 0.000000 0.750000
O O17 0.500000 0.413502 0.250000
O O18 0.602688 0.397616 0.000000
#
# Coordination Sequence:
#
# PCOD8203130 Si02
#       6
#     8   8   8   8   8   8
#     4   9  18  34  57  81 112 148 180 221 275 323
#     4  11  22  40  60  83 110 141 181 230 280 331
#     4   9  17  32  53  80 110 142 176 219 270 322
#     4  12  25  41  59  81 108 145 186 228 280 335
#     4  10  19  33  53  79 113 150 185 223 269 321
#     4  10  19  35  58  83 113 144 179 226 278 333
#
# _framework density 18.599785000000001
#
# number of rings (size 3 to 8) (size 9 to 14) (size 15 to 20)
#    0.000    1.833    1.667    4.000    0.000    1.333 
#    0.000    7.500    0.000    0.500    0.000    3.500 
#    0.000    0.000    0.000    0.000    0.000    0.000 
#
# Total GULP energy -595271.207855 kJ/mol
# GULP energy per Si atom -12401.483497 kJ/mol
# Density = 1.855745 g / cm^3
# Si number density = 18.599785 Si / 1000 Ang^3
#
#
#
# Elastic Constant Matrix: (Units=GPa)
#
#
# Indices 1 2 3 4 5 6 
#
# 1 114.2507 56.9117 21.1660 0.0000 0.0000 0.0000
# 2 56.9117 120.9345 28.5907 0.0000 0.0000 0.0000
# 3 21.1660 28.5907 63.2156 0.0000 0.0000 0.0000
# 4 0.0000 0.0000 0.0000 17.3301 0.0000 0.0000
# 5 0.0000 0.0000 0.0000 0.0000 32.3410 0.0000
# 6 0.0000 0.0000 0.0000 0.0000 0.0000 25.8318
#
#
#
# Elastic Compliance Matrix: (Units=1/GPa)
#
#
# Indices 1 2 3 4 5 6 
#
# 1 0.011572 -0.005072 -0.001581 0.000000 0.000000 0.000000
# 2 -0.005072 0.011482 -0.003495 0.000000 0.000000 0.000000
# 3 -0.001581 -0.003495 0.017929 0.000000 0.000000 0.000000
# 4 0.000000 0.000000 0.000000 0.057703 0.000000 0.000000
# 5 0.000000 0.000000 0.000000 0.000000 0.030921 0.000000
# 6 0.000000 0.000000 0.000000 0.000000 0.000000 0.038712
#
#
# Mechanical properties :
#
#
# Convention : Reuss Voigt Hill
#
# Bulk Modulus (GPa) = 48.33758 56.85972 52.59865
# Shear Modulus (GPa) = 25.57421 27.88274 26.72848
#
# Velocity S-wave (km/s) = 3.71209 3.87601 3.79493
# Velocity P-wave (km/s) = 6.66464 7.11813 6.89511
#
# Compressibility (1/GPa) = 0.02068784
#
# Stress axis : x y z
#
# Youngs Moduli (GPa) = 86.41483 87.09209 55.77656
#
# Poissons Ratio (x) = 0.44174 0.08816
# Poissons Ratio (y) = 0.43831 0.19493
# Poissons Ratio (z) = 0.13659 0.30437
#
# Static dielectric constant tensor:
#      x y z
#    x 3.670670 0.000000 0.000000 
#    y 0.000000 3.543590 0.000000 
#    z 0.000000 0.000000 3.334640 
# 
# 
# High freq. dielectric constant tensor:
#      x y z
#    x 1.729190 0.000000 0.000000 
#    y 0.000000 1.711440 0.000000 
#    z 0.000000 0.000000 1.717400 
# 
# From -- ./inp_files/3697.got.cif
#   From: 2010.03.12/outbox.cif.g09.slc.cpg/sg49_2_cif.got.tgz:3697.got - 2010.04.14 03:58:27.
