data_PCOD8203287
_publ_section_title
;
Structure prediction by ZEFSAII (Michael W. Deem and Ramdas Pophale) SiO2 
 PCOD8203287
Probable space group: P C C M
;
_chemical_formula_sum "Si O2"
_cell_formula_units_Z 28
_cell_length_a 5.088545
_cell_length_b 8.388316
_cell_length_c 30.496618
_cell_angle_alpha 90.000000
_cell_angle_beta 90.000000
_cell_angle_gamma 90.000000
_cell_volume 1301.727507
_symmetry_space_group_name_H-M "P C C M"
_symmetry_group_IT_number 49
_symmetry_cell_setting 'orthorhombic'
loop_
_space_group_symop_operation_xyz
x,y,z
-x,-y,z
x,-y,1/2-z
-x,y,1/2-z
-x,-y,-z
x,y,-z
-x,y,1/2+z
x,-y,1/2+z
loop_
_atom_site_type_symbol
_atom_site_label
_atom_site_fract_x
_atom_site_fract_y
_atom_site_fract_z
Si Si1 0.752751 0.322194 0.230076
Si Si2 0.105687 0.326960 0.629952
Si Si3 0.392754 0.178184 0.092748
Si Si4 0.747567 0.889361 0.000000
O O1 0.751885 0.500000 0.250000
O O2 0.500000 0.231908 0.250000
O O3 0.766373 0.322617 0.177975
O O4 0.000000 0.227921 0.250000
O O5 0.352742 0.290020 0.598603
O O6 0.000000 0.500000 0.617437
O O7 0.853437 0.209082 0.625650
O O8 0.269728 0.213937 0.044483
O O9 0.500000 0.000000 0.099861
O O10 0.500000 0.000000 0.000000
O O11 0.000000 0.000000 0.000000
#
# Coordination Sequence:
#
# PCOD8203287 Si02
#       4
#     8   8   8   4
#     4  10  19  34  59  90 118 162 220 253 291 382
#     4  12  23  39  65 103 129 163 221 274 320 375
#     4  11  24  42  66  95 132 171 217 264 324 386
#     4  10  20  42  69  90 121 182 229 242 301 422
#
# _framework density 21.509876999999999
#
# number of rings (size 3 to 8) (size 9 to 14) (size 15 to 20)
#    0.000    1.143    2.857    6.857    4.000    0.000 
#    0.000    4.286    0.000   12.857    0.000    0.000 
#    0.000    0.000    0.000    0.000    0.000    0.000 
#
# Total GULP energy -346916.839536 kJ/mol
# GULP energy per Si atom -12389.887126 kJ/mol
# Density = 2.146092 g / cm^3
# Si number density = 21.509877 Si / 1000 Ang^3
#
#
#
# Elastic Constant Matrix: (Units=GPa)
#
#
# Indices 1 2 3 4 5 6 
#
# 1 230.2265 46.2384 77.5220 0.0000 0.0000 0.0000
# 2 46.2384 58.8565 60.3126 0.0000 0.0000 0.0000
# 3 77.5220 60.3126 137.8467 0.0000 0.0000 0.0000
# 4 0.0000 0.0000 0.0000 16.2295 0.0000 0.0000
# 5 0.0000 0.0000 0.0000 0.0000 51.0418 0.0000
# 6 0.0000 0.0000 0.0000 0.0000 0.0000 22.2361
#
#
#
# Elastic Compliance Matrix: (Units=1/GPa)
#
#
# Indices 1 2 3 4 5 6 
#
# 1 0.005496 -0.002085 -0.002178 0.000000 0.000000 0.000000
# 2 -0.002085 0.031591 -0.012649 0.000000 0.000000 0.000000
# 3 -0.002178 -0.012649 0.014014 0.000000 0.000000 0.000000
# 4 0.000000 0.000000 0.000000 0.061616 0.000000 0.000000
# 5 0.000000 0.000000 0.000000 0.000000 0.019592 0.000000
# 6 0.000000 0.000000 0.000000 0.000000 0.000000 0.044972
#
#
# Mechanical properties :
#
#
# Convention : Reuss Voigt Hill
#
# Bulk Modulus (GPa) = 57.88788 88.34175 73.11481
# Shear Modulus (GPa) = 23.05577 34.09194 28.57386
#
# Velocity S-wave (km/s) = 3.27749 3.98545 3.64869
# Velocity P-wave (km/s) = 6.42598 7.89544 7.19831
#
# Compressibility (1/GPa) = 0.01727477
#
# Stress axis : x y z
#
# Youngs Moduli (GPa) = 181.95507 31.65437 71.35703
#
# Poissons Ratio (x) = 0.06601 0.15544
# Poissons Ratio (y) = 0.37945 0.90263
# Poissons Ratio (z) = 0.39636 0.40041
#
# Static dielectric constant tensor:
#      x y z
#    x 2.842200 0.000000 0.000000 
#    y 0.000000 3.494790 0.000000 
#    z 0.000000 0.000000 7.325930 
# 
# 
# High freq. dielectric constant tensor:
#      x y z
#    x 1.890410 0.000000 0.000000 
#    y 0.000000 1.792230 0.000000 
#    z 0.000000 0.000000 1.848700 
# 
# From -- ./inp_files/23636.got.cif
#   From: 2010.03.12/outbox.cif.g09.slc.cpg/sg49_12_cif.got.tgz:23636.got - 2010.04.14 03:58:27.
