data_PCOD8203467
_publ_section_title
;
Structure prediction by ZEFSAII (Michael W. Deem and Ramdas Pophale) SiO2 
 PCOD8203467
Probable space group: P C C M
;
_chemical_formula_sum "Si O2"
_cell_formula_units_Z 48
_cell_length_a 18.376858
_cell_length_b 13.275320
_cell_length_c 9.325369
_cell_angle_alpha 90.000000
_cell_angle_beta 90.000000
_cell_angle_gamma 90.000000
_cell_volume 2275.004624
_symmetry_space_group_name_H-M "P C C M"
_symmetry_group_IT_number 49
_symmetry_cell_setting 'orthorhombic'
loop_
_space_group_symop_operation_xyz
x,y,z
-x,-y,z
x,-y,1/2-z
-x,y,1/2-z
-x,-y,-z
x,y,-z
-x,y,1/2+z
x,-y,1/2+z
loop_
_atom_site_type_symbol
_atom_site_label
_atom_site_fract_x
_atom_site_fract_y
_atom_site_fract_z
Si Si1 0.210525 0.188967 0.832651
Si Si2 0.277546 0.599246 0.332715
Si Si3 0.074778 0.811656 0.163626
Si Si4 0.074219 0.415557 0.338078
Si Si5 0.429352 0.692521 0.332317
Si Si6 0.363834 0.901882 0.666861
O O1 0.226473 0.305908 0.791861
O O2 0.142992 0.138284 0.745591
O O3 0.280339 0.122291 0.794090
O O4 0.191230 0.182804 0.000000
O O5 0.251447 0.500000 0.250000
O O6 0.271609 0.576242 0.500000
O O7 0.360584 0.624487 0.289270
O O8 0.103686 0.696937 0.162205
O O9 0.000000 0.830563 0.250000
O O10 0.064940 0.851240 0.000000
O O11 0.122316 0.500000 0.250000
O O12 0.063572 0.454539 0.500000
O O13 0.000000 0.409020 0.250000
O O14 0.500000 0.651939 0.250000
O O15 0.444475 0.685032 0.500000
O O16 0.413736 0.807972 0.287403
O O17 0.371634 0.923823 0.500000
O O18 0.391151 0.000000 0.750000
#
# Coordination Sequence:
#
# PCOD8203467 Si02
#       6
#     8   8   8   8   8   8
#     4   9  19  36  54  73 102 137 172 215 264 314
#     4   9  19  35  53  74 104 143 184 222 260 304
#     4  10  20  32  48  71  97 128 167 211 262 317
#     4   9  16  25  37  55  81 113 150 191 235 285
#     4   9  19  35  53  78 112 145 177 215 259 306
#     4   9  19  36  57  80 106 137 172 211 260 315
#
# _framework density 21.098858
#
# number of rings (size 3 to 8) (size 9 to 14) (size 15 to 20)
#    0.000    2.833    0.000    3.500    0.000    6.000 
#    0.000   10.000    0.000    0.500    0.000    3.500 
#    0.000    0.000    0.000    0.000    0.000    0.000 
#
# Total GULP energy -594737.793198 kJ/mol
# GULP energy per Si atom -12390.370692 kJ/mol
# Density = 2.105084 g / cm^3
# Si number density = 21.098858 Si / 1000 Ang^3
#
#
#
# Elastic Constant Matrix: (Units=GPa)
#
#
# Indices 1 2 3 4 5 6 
#
# 1 101.8815 -17.1404 44.6486 0.0000 0.0000 0.0000
# 2 -17.1404 38.1289 6.9736 0.0000 0.0000 0.0000
# 3 44.6486 6.9736 98.3265 0.0000 0.0000 0.0000
# 4 0.0000 0.0000 0.0000 43.6209 0.0000 0.0000
# 5 0.0000 0.0000 0.0000 0.0000 15.4046 0.0000
# 6 0.0000 0.0000 0.0000 0.0000 0.0000 5.3696
#
#
#
# Elastic Compliance Matrix: (Units=1/GPa)
#
#
# Indices 1 2 3 4 5 6 
#
# 1 0.014154 0.007638 -0.006969 0.000000 0.000000 0.000000
# 2 0.007638 0.030693 -0.005645 0.000000 0.000000 0.000000
# 3 -0.006969 -0.005645 0.013735 0.000000 0.000000 0.000000
# 4 0.000000 0.000000 0.000000 0.022925 0.000000 0.000000
# 5 0.000000 0.000000 0.000000 0.000000 0.064916 0.000000
# 6 0.000000 0.000000 0.000000 0.000000 0.000000 0.186234
#
#
# Mechanical properties :
#
#
# Convention : Reuss Voigt Hill
#
# Bulk Modulus (GPa) = 20.56373 34.14449 27.35411
# Shear Modulus (GPa) = 13.93462 26.46936 20.20199
#
# Velocity S-wave (km/s) = 2.57270 3.54579 3.09769
# Velocity P-wave (km/s) = 4.31191 5.74297 5.07811
#
# Compressibility (1/GPa) = 0.04862931
#
# Stress axis : x y z
#
# Youngs Moduli (GPa) = 70.64973 32.58115 72.80640
#
# Poissons Ratio (x) = -0.24884 0.50738
# Poissons Ratio (y) = -0.53959 0.41099
# Poissons Ratio (z) = 0.49235 0.18392
#
# Static dielectric constant tensor:
#      x y z
#    x 3.625570 0.000000 0.000000 
#    y 0.000000 4.478650 0.000000 
#    z 0.000000 0.000000 3.702710 
# 
# 
# High freq. dielectric constant tensor:
#      x y z
#    x 1.826080 0.000000 0.000000 
#    y 0.000000 1.806260 0.000000 
#    z 0.000000 0.000000 1.821080 
# 
# From -- ./inp_files/4882.got.cif
#   From: 2010.03.12/outbox.cif.g09.slc.cpg/sg49_3_cif.got.tgz:4882.got - 2010.04.14 03:58:27.
