data_PCOD8203617
_publ_section_title
;
Structure prediction by ZEFSAII (Michael W. Deem and Ramdas Pophale) SiO2 
 PCOD8203617
Probable space group: P C C M
;
_chemical_formula_sum "Si O2"
_cell_formula_units_Z 56
_cell_length_a 15.742603
_cell_length_b 19.639103
_cell_length_c 8.999882
_cell_angle_alpha 90.000000
_cell_angle_beta 90.000000
_cell_angle_gamma 90.000000
_cell_volume 2782.498934
_symmetry_space_group_name_H-M "P C C M"
_symmetry_group_IT_number 49
_symmetry_cell_setting 'orthorhombic'
loop_
_space_group_symop_operation_xyz
x,y,z
-x,-y,z
x,-y,1/2-z
-x,y,1/2-z
-x,-y,-z
x,y,-z
-x,y,1/2+z
x,-y,1/2+z
loop_
_atom_site_type_symbol
_atom_site_label
_atom_site_fract_x
_atom_site_fract_y
_atom_site_fract_z
Si Si1 0.587363 0.199857 0.825675
Si Si2 0.591858 0.351892 0.822140
Si Si3 0.086774 0.815153 0.675061
Si Si4 0.087539 0.339697 0.826061
Si Si5 0.150946 0.062741 0.662821
Si Si6 0.749012 0.427689 0.677700
Si Si7 0.655296 0.061492 0.160235
O O1 0.500000 0.182647 0.750000
O O2 0.620152 0.274841 0.778249
O O3 0.648078 0.138047 0.771130
O O4 0.574035 0.201785 0.000000
O O5 0.500000 0.368873 0.750000
O O6 0.662597 0.399598 0.749089
O O7 0.587533 0.363791 0.000000
O O8 0.082115 0.823644 0.500000
O O9 0.108350 0.737883 0.721370
O O10 0.154138 0.867377 0.743228
O O11 0.000000 0.839059 0.750000
O O12 0.169139 0.382863 0.776150
O O13 0.000000 0.365310 0.750000
O O14 0.071320 0.345816 0.000000
O O15 0.107863 0.072523 0.500000
O O16 0.247545 0.041781 0.639107
O O17 0.105215 0.000000 0.750000
O O18 0.767401 0.500000 0.750000
O O19 0.738729 0.432041 0.500000
O O20 0.610354 0.000000 0.250000
O O21 0.609597 0.062986 0.000000
#
# Coordination Sequence:
#
# PCOD8203617 Si02
#       7
#     8   8   8   8   8   8   8
#     4   9  19  35  54  79 109 143 186 231 281 337
#     4  10  21  39  63  90 122 159 198 246 298 351
#     4  10  20  36  56  81 109 142 184 230 281 336
#     4   9  21  40  62  89 123 158 196 243 292 348
#     4  10  20  34  52  75 106 144 185 233 283 336
#     4  11  24  42  63  93 125 157 198 239 287 350
#     4   9  19  34  50  73 106 143 185 230 279 334
#
# _framework density 20.125795
#
# number of rings (size 3 to 8) (size 9 to 14) (size 15 to 20)
#    0.000    2.286    0.000    1.714    2.000    4.571 
#    0.000    5.714    0.000    0.000    0.000    0.000 
#    0.000    0.000    0.000    0.000    0.000    0.000 
#
# Total GULP energy -693949.272586 kJ/mol
# GULP energy per Si atom -12391.951296 kJ/mol
# Density = 2.007999 g / cm^3
# Si number density = 20.125795 Si / 1000 Ang^3
#
#
#
# Elastic Constant Matrix: (Units=GPa)
#
#
# Indices 1 2 3 4 5 6 
#
# 1 83.2881 52.5658 41.9725 0.0000 0.0000 0.0000
# 2 52.5658 130.8409 55.8999 0.0000 0.0000 0.0000
# 3 41.9725 55.8999 92.9389 0.0000 0.0000 0.0000
# 4 0.0000 0.0000 0.0000 33.3407 0.0000 0.0000
# 5 0.0000 0.0000 0.0000 0.0000 27.5736 0.0000
# 6 0.0000 0.0000 0.0000 0.0000 0.0000 22.8862
#
#
#
# Elastic Compliance Matrix: (Units=1/GPa)
#
#
# Indices 1 2 3 4 5 6 
#
# 1 0.017651 -0.004960 -0.004988 0.000000 0.000000 0.000000
# 2 -0.004960 0.011680 -0.004785 0.000000 0.000000 0.000000
# 3 -0.004988 -0.004785 0.015890 0.000000 0.000000 0.000000
# 4 0.000000 0.000000 0.000000 0.029993 0.000000 0.000000
# 5 0.000000 0.000000 0.000000 0.000000 0.036267 0.000000
# 6 0.000000 0.000000 0.000000 0.000000 0.000000 0.043694
#
#
# Mechanical properties :
#
#
# Convention : Reuss Voigt Hill
#
# Bulk Modulus (GPa) = 63.47275 67.54937 65.51106
# Shear Modulus (GPa) = 26.33056 27.20208 26.76632
#
# Velocity S-wave (km/s) = 3.62097 3.68040 3.65081
# Velocity P-wave (km/s) = 7.00631 7.19006 7.09878
#
# Compressibility (1/GPa) = 0.01575479
#
# Stress axis : x y z
#
# Youngs Moduli (GPa) = 56.65505 85.61643 62.93105
#
# Poissons Ratio (x) = 0.42468 0.31389
# Poissons Ratio (y) = 0.28102 0.30113
# Poissons Ratio (z) = 0.28259 0.40968
#
# Static dielectric constant tensor:
#      x y z
#    x 3.433610 0.000000 0.000000 
#    y 0.000000 3.865590 0.000000 
#    z 0.000000 0.000000 3.992060 
# 
# 
# High freq. dielectric constant tensor:
#      x y z
#    x 1.767990 0.000000 0.000000 
#    y 0.000000 1.795720 0.000000 
#    z 0.000000 0.000000 1.791960 
# 
# From -- ./inp_files/4042.got.cif
#   From: 2010.03.12/outbox.cif.g09.slc.cpg/sg49_3_cif.got.tgz:4042.got - 2010.04.14 03:58:27.
