data_PCOD8203911
_publ_section_title
;
Structure prediction by ZEFSAII (Michael W. Deem and Ramdas Pophale) SiO2 
 PCOD8203911
Probable space group: P C C M
;
_chemical_formula_sum "Si O2"
_cell_formula_units_Z 48
_cell_length_a 9.085985
_cell_length_b 28.443111
_cell_length_c 9.252006
_cell_angle_alpha 90.000000
_cell_angle_beta 90.000000
_cell_angle_gamma 90.000000
_cell_volume 2391.029957
_symmetry_space_group_name_H-M "P C C M"
_symmetry_group_IT_number 49
_symmetry_cell_setting 'orthorhombic'
loop_
_space_group_symop_operation_xyz
x,y,z
-x,-y,z
x,-y,1/2-z
-x,y,1/2-z
-x,-y,-z
x,y,-z
-x,y,1/2+z
x,-y,1/2+z
loop_
_atom_site_type_symbol
_atom_site_label
_atom_site_fract_x
_atom_site_fract_y
_atom_site_fract_z
Si Si1 0.153671 0.453095 0.173536
Si Si2 0.823540 0.957030 0.500000
Si Si3 0.649682 0.635065 0.165841
Si Si4 0.671333 0.098382 0.768136
Si Si5 0.348742 0.796054 0.165601
Si Si6 0.151255 0.724793 0.670710
Si Si7 0.150305 0.931631 0.500000
O O1 0.217288 0.500000 0.250000
O O2 0.264961 0.411696 0.212905
O O3 0.000000 0.440631 0.250000
O O4 0.133527 0.459451 0.000000
O O5 0.730156 0.944030 0.637908
O O6 0.974041 0.926155 0.500000
O O7 0.833875 0.012604 0.500000
O O8 0.500000 0.639967 0.250000
O O9 0.747484 0.680114 0.199866
O O10 0.606763 0.632339 0.000000
O O11 0.500000 0.088079 0.750000
O O12 0.692511 0.149178 0.839944
O O13 0.770825 0.095841 0.627588
O O14 0.500000 0.786923 0.250000
O O15 0.221095 0.770033 0.252804
O O16 0.362707 0.777710 0.000000
O O17 0.127909 0.734312 0.500000
O O18 0.000000 0.713547 0.750000
#
# Coordination Sequence:
#
# PCOD8203911 Si02
#       7
#     8   4   8   8   8   8   4
#     4  10  20  36  58  87 121 160 207 255 311 368
#     4  11  23  45  59  93 127 165 207 255 314 373
#     4  10  23  40  60  88 122 163 207 257 312 370
#     4  11  24  41  65  93 124 162 209 256 312 373
#     4  11  24  43  66  92 126 162 202 254 313 373
#     4  11  24  42  65  94 126 162 208 256 310 372
#     4  11  25  39  67  89 127 167 205 257 312 373
#
# _framework density 20.075030999999999
#
# number of rings (size 3 to 8) (size 9 to 14) (size 15 to 20)
#    0.000    1.333    0.833    4.500    4.667    9.000 
#    0.000    1.667    0.000    0.000    0.000    0.000 
#    0.000    0.000    0.000    0.000    0.000    0.000 
#
# Total GULP energy -595133.488042 kJ/mol
# GULP energy per Si atom -12398.614334 kJ/mol
# Density = 2.002934 g / cm^3
# Si number density = 20.075031 Si / 1000 Ang^3
#
#
#
# Elastic Constant Matrix: (Units=GPa)
#
#
# Indices 1 2 3 4 5 6 
#
# 1 120.5316 54.1116 57.5271 0.0000 0.0000 0.0000
# 2 54.1116 61.3390 34.4399 0.0000 0.0000 0.0000
# 3 57.5271 34.4399 137.3185 0.0000 0.0000 0.0000
# 4 0.0000 0.0000 0.0000 32.4169 0.0000 0.0000
# 5 0.0000 0.0000 0.0000 0.0000 37.9354 0.0000
# 6 0.0000 0.0000 0.0000 0.0000 0.0000 -50.9669
#
#
#
# Elastic Compliance Matrix: (Units=1/GPa)
#
#
# Indices 1 2 3 4 5 6 
#
# 1 0.015026 -0.011315 -0.003457 0.000000 0.000000 0.000000
# 2 -0.011315 0.027495 -0.002156 0.000000 0.000000 0.000000
# 3 -0.003457 -0.002156 0.009271 0.000000 0.000000 0.000000
# 4 0.000000 0.000000 0.000000 0.030848 0.000000 0.000000
# 5 0.000000 0.000000 0.000000 0.000000 0.026361 0.000000
# 6 0.000000 0.000000 0.000000 0.000000 0.000000 -0.019621
#
#
# Mechanical properties :
#
#
# Convention : Reuss Voigt Hill
#
# Bulk Modulus (GPa) = 55.75019 67.92735 61.83877
# Shear Modulus (GPa) = 38.69540 15.41780 27.05660
#
# Velocity S-wave (km/s) = 4.39514 2.77430 3.67519
# Velocity P-wave (km/s) = 7.32035 6.64624 6.99143
#
# Compressibility (1/GPa) = 0.01793716
#
# Stress axis : x y z
#
# Youngs Moduli (GPa) = 66.55036 36.37073 107.85938
#
# Poissons Ratio (x) = 0.41152 0.37289
# Poissons Ratio (y) = 0.75299 0.23251
# Poissons Ratio (z) = 0.23008 0.07840
#
# Static dielectric constant tensor:
#      x y z
#    x 3.807580 0.000000 0.000000 
#    y 0.000000 3.737550 0.000000 
#    z 0.000000 0.000000 3.787520 
# 
# 
# High freq. dielectric constant tensor:
#      x y z
#    x 1.791200 0.000000 0.000000 
#    y 0.000000 1.792610 0.000000 
#    z 0.000000 0.000000 1.799820 
# 
# From -- ./inp_files/2157.got.cif
#   From: 2010.03.12/outbox.cif.g09.slc.cpg/sg49_2_cif.got.tgz:2157.got - 2010.04.14 03:58:27.
