data_PCOD8203314
_publ_section_title
;
Structure prediction by ZEFSAII (Michael W. Deem and Ramdas Pophale) SiO2 
 PCOD8203314
Probable space group: P C C M
;
_chemical_formula_sum "Si O2"
_cell_formula_units_Z 48
_cell_length_a 18.678194
_cell_length_b 14.690233
_cell_length_c 8.737532
_cell_angle_alpha 90.000000
_cell_angle_beta 90.000000
_cell_angle_gamma 90.000000
_cell_volume 2397.465384
_symmetry_space_group_name_H-M "P C C M"
_symmetry_group_IT_number 49
_symmetry_cell_setting 'orthorhombic'
loop_
_space_group_symop_operation_xyz
x,y,z
-x,-y,z
x,-y,1/2-z
-x,y,1/2-z
-x,-y,-z
x,y,-z
-x,y,1/2+z
x,-y,1/2+z
loop_
_atom_site_type_symbol
_atom_site_label
_atom_site_fract_x
_atom_site_fract_y
_atom_site_fract_z
Si Si1 0.576816 0.902535 0.681974
Si Si2 0.692565 0.228704 0.677941
Si Si3 0.780693 0.911898 0.672894
Si Si4 0.934130 0.858769 0.330987
Si Si5 0.925149 0.344816 0.817670
Si Si6 0.775916 0.406608 0.318629
O O1 0.500000 0.877153 0.750000
O O2 0.572026 0.911412 0.500000
O O3 0.628892 0.818346 0.725164
O O4 0.603212 0.000000 0.750000
O O5 0.672901 0.221964 0.500000
O O6 0.763746 0.172888 0.719370
O O7 0.715115 0.331170 0.725551
O O8 0.750422 0.899728 0.500000
O O9 0.865782 0.923836 0.672488
O O10 0.745001 0.000000 0.750000
O O11 0.961051 0.840019 0.500000
O O12 0.918219 0.759507 0.259736
O O13 0.000000 0.909555 0.250000
O O14 0.854832 0.393514 0.751849
O O15 0.000000 0.385831 0.750000
O O16 0.924302 0.356416 0.000000
O O17 0.744491 0.500000 0.250000
O O18 0.784246 0.410859 0.500000
#
# Coordination Sequence:
#
# PCOD8203314 Si02
#       6
#     8   8   8   8   8   8
#     4  11  22  39  65  97 133 167 200 238 280 334
#     4  11  23  40  61  87 119 156 194 237 290 347
#     4  11  22  36  53  79 110 148 192 237 288 344
#     4   9  19  33  51  72 101 141 185 235 289 344
#     4  10  19  35  57  81 110 145 192 247 308 366
#     4  11  24  40  61  87 116 152 197 248 302 360
#
# _framework density 20.021142999999999
#
# number of rings (size 3 to 8) (size 9 to 14) (size 15 to 20)
#    0.000    1.500    1.667    4.500    0.000    4.667 
#    0.000    3.333    0.000    0.500    0.000    3.500 
#    0.000    0.000    0.000    0.000    0.000    0.000 
#
# Total GULP energy -594820.026751 kJ/mol
# GULP energy per Si atom -12392.083891 kJ/mol
# Density = 1.997557 g / cm^3
# Si number density = 20.021143 Si / 1000 Ang^3
#
#
#
# Elastic Constant Matrix: (Units=GPa)
#
#
# Indices 1 2 3 4 5 6 
#
# 1 116.0053 44.2695 49.9259 0.0000 0.0000 0.0000
# 2 44.2695 120.5171 56.1724 0.0000 0.0000 0.0000
# 3 49.9259 56.1724 108.1269 0.0000 0.0000 0.0000
# 4 0.0000 0.0000 0.0000 26.3473 0.0000 0.0000
# 5 0.0000 0.0000 0.0000 0.0000 30.4370 0.0000
# 6 0.0000 0.0000 0.0000 0.0000 0.0000 53.2252
#
#
#
# Elastic Compliance Matrix: (Units=1/GPa)
#
#
# Indices 1 2 3 4 5 6 
#
# 1 0.011202 -0.002248 -0.004004 0.000000 0.000000 0.000000
# 2 -0.002248 0.011400 -0.004884 0.000000 0.000000 0.000000
# 3 -0.004004 -0.004884 0.013635 0.000000 0.000000 0.000000
# 4 0.000000 0.000000 0.000000 0.037955 0.000000 0.000000
# 5 0.000000 0.000000 0.000000 0.000000 0.032855 0.000000
# 6 0.000000 0.000000 0.000000 0.000000 0.000000 0.018788
#
#
# Mechanical properties :
#
#
# Convention : Reuss Voigt Hill
#
# Bulk Modulus (GPa) = 71.61891 71.70943 71.66417
# Shear Modulus (GPa) = 32.73083 34.95399 33.84241
#
# Velocity S-wave (km/s) = 4.04767 4.18287 4.11583
# Velocity P-wave (km/s) = 7.59566 7.69566 7.64583
#
# Compressibility (1/GPa) = 0.01396279
#
# Stress axis : x y z
#
# Youngs Moduli (GPa) = 89.27304 87.71954 73.34291
#
# Poissons Ratio (x) = 0.19723 0.29367
# Poissons Ratio (y) = 0.20072 0.35822
# Poissons Ratio (z) = 0.35746 0.42844
#
# Static dielectric constant tensor:
#      x y z
#    x 3.587830 0.000000 0.000000 
#    y 0.000000 3.645720 0.000000 
#    z 0.000000 0.000000 3.749010 
# 
# 
# High freq. dielectric constant tensor:
#      x y z
#    x 1.771220 0.000000 0.000000 
#    y 0.000000 1.769340 0.000000 
#    z 0.000000 0.000000 1.792880 
# 
# From -- ./inp_files/4893.got.cif
#   From: 2010.03.12/outbox.cif.g09.slc.cpg/sg49_3_cif.got.tgz:4893.got - 2010.04.14 03:58:27.
