data_PCOD8203625
_publ_section_title
;
Structure prediction by ZEFSAII (Michael W. Deem and Ramdas Pophale) SiO2 
 PCOD8203625
Probable space group: P C C M
;
_chemical_formula_sum "Si O2"
_cell_formula_units_Z 48
_cell_length_a 30.901963
_cell_length_b 9.544244
_cell_length_c 8.690199
_cell_angle_alpha 90.000000
_cell_angle_beta 90.000000
_cell_angle_gamma 90.000000
_cell_volume 2563.051446
_symmetry_space_group_name_H-M "P C C M"
_symmetry_group_IT_number 49
_symmetry_cell_setting 'orthorhombic'
loop_
_space_group_symop_operation_xyz
x,y,z
-x,-y,z
x,-y,1/2-z
-x,y,1/2-z
-x,-y,-z
x,y,-z
-x,y,1/2+z
x,-y,1/2+z
loop_
_atom_site_type_symbol
_atom_site_label
_atom_site_fract_x
_atom_site_fract_y
_atom_site_fract_z
Si Si1 0.707756 0.350064 0.318239
Si Si2 0.798622 0.348723 0.182805
Si Si3 0.045832 0.349893 0.317274
Si Si4 0.458679 0.847742 0.822675
Si Si5 0.363410 0.153808 0.319628
Si Si6 0.876465 0.846564 0.318707
O O1 0.695442 0.500000 0.250000
O O2 0.712665 0.361879 0.500000
O O3 0.752787 0.295313 0.247419
O O4 0.670057 0.244969 0.274873
O O5 0.810879 0.500000 0.250000
O O6 0.834372 0.237788 0.238512
O O7 0.796371 0.360830 0.000000
O O8 0.059528 0.500000 0.250000
O O9 0.042832 0.362770 0.500000
O O10 0.080950 0.236231 0.263537
O O11 0.000000 0.300177 0.250000
O O12 0.500000 0.763359 0.750000
O O13 0.411459 0.778381 0.794571
O O14 0.456991 0.000000 0.750000
O O15 0.468428 0.863469 0.000000
O O16 0.351527 0.149684 0.500000
O O17 0.361362 0.000000 0.250000
O O18 0.875988 0.860083 0.500000
O O19 0.876402 0.000000 0.250000
#
# Coordination Sequence:
#
# PCOD8203625 Si02
#       6
#     8   8   8   8   8   8
#     4  11  22  37  57  80 106 140 177 219 267 319
#     4  10  20  37  58  80 104 135 176 220 261 313
#     4  10  20  36  57  83 109 141 182 222 262 309
#     4   9  16  26  44  69 100 134 171 213 258 307
#     4  10  20  34  52  78 108 140 177 219 265 316
#     4  10  23  38  55  80 111 143 177 216 264 316
#
# _framework density 18.727677
#
# number of rings (size 3 to 8) (size 9 to 14) (size 15 to 20)
#    0.000    2.000    0.000    6.000    0.000    5.667 
#    0.000    3.333    0.000    0.500    0.000    3.500 
#    0.000    0.000    0.000    0.000    0.000    0.000 
#
# Total GULP energy -595067.362900 kJ/mol
# GULP energy per Si atom -12397.236727 kJ/mol
# Density = 1.868505 g / cm^3
# Si number density = 18.727677 Si / 1000 Ang^3
#
#
#
# Elastic Constant Matrix: (Units=GPa)
#
#
# Indices 1 2 3 4 5 6 
#
# 1 164.1766 87.3006 56.5010 0.0000 0.0000 0.0000
# 2 87.3006 97.7419 38.5196 0.0000 0.0000 0.0000
# 3 56.5010 38.5196 103.9240 0.0000 0.0000 0.0000
# 4 0.0000 0.0000 0.0000 30.9783 0.0000 0.0000
# 5 0.0000 0.0000 0.0000 0.0000 30.7884 0.0000
# 6 0.0000 0.0000 0.0000 0.0000 0.0000 64.6149
#
#
#
# Elastic Compliance Matrix: (Units=1/GPa)
#
#
# Indices 1 2 3 4 5 6 
#
# 1 0.012392 -0.009852 -0.003085 0.000000 0.000000 0.000000
# 2 -0.009852 0.019814 -0.001988 0.000000 0.000000 0.000000
# 3 -0.003085 -0.001988 0.012037 0.000000 0.000000 0.000000
# 4 0.000000 0.000000 0.000000 0.032281 0.000000 0.000000
# 5 0.000000 0.000000 0.000000 0.000000 0.032480 0.000000
# 6 0.000000 0.000000 0.000000 0.000000 0.000000 0.015476
#
#
# Mechanical properties :
#
#
# Convention : Reuss Voigt Hill
#
# Bulk Modulus (GPa) = 69.48338 81.16501 75.32419
# Shear Modulus (GPa) = 31.42160 37.51108 34.46634
#
# Velocity S-wave (km/s) = 4.10056 4.48032 4.29464
# Velocity P-wave (km/s) = 7.72023 8.37843 8.05605
#
# Compressibility (1/GPa) = 0.01439193
#
# Stress axis : x y z
#
# Youngs Moduli (GPa) = 80.70012 50.46965 83.07958
#
# Poissons Ratio (x) = 0.49722 0.25633
# Poissons Ratio (y) = 0.79505 0.16515
# Poissons Ratio (z) = 0.24899 0.10032
#
# Static dielectric constant tensor:
#      x y z
#    x 4.099340 0.000000 0.000000 
#    y 0.000000 3.325440 0.000000 
#    z 0.000000 0.000000 3.510440 
# 
# 
# High freq. dielectric constant tensor:
#      x y z
#    x 1.750590 0.000000 0.000000 
#    y 0.000000 1.696230 0.000000 
#    z 0.000000 0.000000 1.742900 
# 
# From -- ./inp_files/6858.got.cif
#   From: 2010.03.12/outbox.cif.g09.slc.cpg/sg49_4_cif.got.tgz:6858.got - 2010.04.14 03:58:27.
