data_PCOD8203552
_publ_section_title
;
Structure prediction by ZEFSAII (Michael W. Deem and Ramdas Pophale) SiO2 
 PCOD8203552
Probable space group: P C C M
;
_chemical_formula_sum "Si O2"
_cell_formula_units_Z 48
_cell_length_a 9.645748
_cell_length_b 30.374055
_cell_length_c 8.658742
_cell_angle_alpha 90.000000
_cell_angle_beta 90.000000
_cell_angle_gamma 90.000000
_cell_volume 2536.842390
_symmetry_space_group_name_H-M "P C C M"
_symmetry_group_IT_number 49
_symmetry_cell_setting 'orthorhombic'
loop_
_space_group_symop_operation_xyz
x,y,z
-x,-y,z
x,-y,1/2-z
-x,y,1/2-z
-x,-y,-z
x,y,-z
-x,y,1/2+z
x,-y,1/2+z
loop_
_atom_site_type_symbol
_atom_site_label
_atom_site_fract_x
_atom_site_fract_y
_atom_site_fract_z
Si Si1 0.151890 0.542505 0.679522
Si Si2 0.151136 0.361391 0.180427
Si Si3 0.353195 0.952004 0.184331
Si Si4 0.356053 0.292664 0.679536
Si Si5 0.352280 0.191171 0.317808
Si Si6 0.846151 0.879445 0.816158
O O1 0.234497 0.500000 0.750000
O O2 0.139601 0.534541 0.500000
O O3 0.220588 0.590352 0.715160
O O4 0.000000 0.543441 0.750000
O O5 0.236230 0.322420 0.254222
O O6 0.000000 0.359291 0.250000
O O7 0.140539 0.352981 0.000000
O O8 0.500000 0.934614 0.250000
O O9 0.231217 0.920641 0.240479
O O10 0.320160 0.000000 0.250000
O O11 0.360036 0.953221 0.000000
O O12 0.500000 0.308531 0.750000
O O13 0.366068 0.300141 0.500000
O O14 0.324722 0.242097 0.720910
O O15 0.500000 0.175993 0.250000
O O16 0.349999 0.181180 0.500000
O O17 0.230966 0.165172 0.232259
O O18 0.000000 0.877792 0.750000
O O19 0.849163 0.884191 0.000000
#
# Coordination Sequence:
#
# PCOD8203552 Si02
#       6
#     8   8   8   8   8   8
#     4   9  16  26  43  68  98 133 171 215 262 314
#     4  10  20  33  51  77 108 140 178 221 270 322
#     4  11  22  40  64  91 120 154 195 237 278 326
#     4  10  21  37  58  81 108 142 181 223 272 326
#     4  10  21  39  61  85 110 143 185 228 272 325
#     4  12  25  41  60  86 118 153 189 231 282 333
#
# _framework density 18.921158999999999
#
# number of rings (size 3 to 8) (size 9 to 14) (size 15 to 20)
#    0.000    1.667    0.000    6.500    0.000    5.000 
#    0.000    1.667    0.000    0.500    0.000    3.500 
#    0.000    0.000    0.000    0.000    0.000    0.000 
#
# Total GULP energy -595107.990272 kJ/mol
# GULP energy per Si atom -12398.083131 kJ/mol
# Density = 1.887809 g / cm^3
# Si number density = 18.921159 Si / 1000 Ang^3
#
#
#
# Elastic Constant Matrix: (Units=GPa)
#
#
# Indices 1 2 3 4 5 6 
#
# 1 116.4308 72.5429 52.7736 0.0000 0.0000 0.0000
# 2 72.5429 121.4611 64.9168 0.0000 0.0000 0.0000
# 3 52.7736 64.9168 125.5465 0.0000 0.0000 0.0000
# 4 0.0000 0.0000 0.0000 37.2618 0.0000 0.0000
# 5 0.0000 0.0000 0.0000 0.0000 34.0628 0.0000
# 6 0.0000 0.0000 0.0000 0.0000 0.0000 109.8282
#
#
#
# Elastic Compliance Matrix: (Units=1/GPa)
#
#
# Indices 1 2 3 4 5 6 
#
# 1 0.014095 -0.007257 -0.002172 0.000000 0.000000 0.000000
# 2 -0.007257 0.015114 -0.004764 0.000000 0.000000 0.000000
# 3 -0.002172 -0.004764 0.011342 0.000000 0.000000 0.000000
# 4 0.000000 0.000000 0.000000 0.026837 0.000000 0.000000
# 5 0.000000 0.000000 0.000000 0.000000 0.029358 0.000000
# 6 0.000000 0.000000 0.000000 0.000000 0.000000 0.009105
#
#
# Mechanical properties :
#
#
# Convention : Reuss Voigt Hill
#
# Bulk Modulus (GPa) = 82.21764 82.65612 82.43688
# Shear Modulus (GPa) = 36.15506 47.77756 41.96631
#
# Velocity S-wave (km/s) = 4.37604 5.03048 4.71463
# Velocity P-wave (km/s) = 8.31144 8.80456 8.56155
#
# Compressibility (1/GPa) = 0.01216284
#
# Stress axis : x y z
#
# Youngs Moduli (GPa) = 70.94640 66.16401 88.16894
#
# Poissons Ratio (x) = 0.48017 0.19153
# Poissons Ratio (y) = 0.51488 0.42007
# Poissons Ratio (z) = 0.15412 0.31523
#
# Static dielectric constant tensor:
#      x y z
#    x 3.325280 0.000000 0.000000 
#    y 0.000000 4.074700 0.000000 
#    z 0.000000 0.000000 3.699510 
# 
# 
# High freq. dielectric constant tensor:
#      x y z
#    x 1.707620 0.000000 0.000000 
#    y 0.000000 1.756880 0.000000 
#    z 0.000000 0.000000 1.759020 
# 
# From -- ./inp_files/2073.got.cif
#   From: 2010.03.12/outbox.cif.g09.slc.cpg/sg49_2_cif.got.tgz:2073.got - 2010.04.14 03:58:27.
