data_PCOD8203418
_publ_section_title
;
Structure prediction by ZEFSAII (Michael W. Deem and Ramdas Pophale) SiO2 
 PCOD8203418
Probable space group: P C C M
;
_chemical_formula_sum "Si O2"
_cell_formula_units_Z 22
_cell_length_a 5.108821
_cell_length_b 6.187753
_cell_length_c 29.120770
_cell_angle_alpha 90.000000
_cell_angle_beta 90.000000
_cell_angle_gamma 90.000000
_cell_volume 920.569348
_symmetry_space_group_name_H-M "P C C M"
_symmetry_group_IT_number 49
_symmetry_cell_setting 'orthorhombic'
loop_
_space_group_symop_operation_xyz
x,y,z
-x,-y,z
x,-y,1/2-z
-x,y,1/2-z
-x,-y,-z
x,y,-z
-x,y,1/2+z
x,-y,1/2+z
loop_
_atom_site_type_symbol
_atom_site_label
_atom_site_fract_x
_atom_site_fract_y
_atom_site_fract_z
Si Si1 0.249692 0.651012 0.401143
Si Si2 0.251971 0.137755 0.192682
Si Si3 0.500000 0.500000 0.750000
Si Si4 0.250275 0.352239 0.000000
O O1 0.500000 0.500000 0.394451
O O2 0.238164 0.831805 0.362135
O O3 0.252570 0.776260 0.451191
O O4 0.000000 0.500000 0.396216
O O5 0.295310 0.365326 0.218507
O O6 0.500000 0.000000 0.206744
O O7 0.000000 0.000000 0.209188
O O8 0.500000 0.500000 0.000000
O O9 0.000000 0.500000 0.000000
#
# Coordination Sequence:
#
# PCOD8203418 Si02
#       4
#     8   8   2   4
#     4  10  19  40  67  98 139 181 220 280 340 404
#     4  12  28  48  73 105 136 181 238 287 353 426
#     4  12  30  54  72  98 148 186 234 306 372 402
#     4   8  16  30  62  98 130 179 225 256 335 416
#
# _framework density 23.898256
#
# number of rings (size 3 to 8) (size 9 to 14) (size 15 to 20)
#    0.000    1.455    1.818    2.727    0.000    4.364 
#    0.000    1.818    0.000    0.000    0.000    0.000 
#    0.000    0.000    0.000    0.000    0.000    0.000 
#
# Total GULP energy -272575.819799 kJ/mol
# GULP energy per Si atom -12389.809991 kJ/mol
# Density = 2.384386 g / cm^3
# Si number density = 23.898256 Si / 1000 Ang^3
#
#
#
# Elastic Constant Matrix: (Units=GPa)
#
#
# Indices 1 2 3 4 5 6 
#
# 1 202.5514 49.8104 26.8982 0.0000 0.0000 0.0000
# 2 49.8104 91.5763 61.1971 0.0000 0.0000 0.0000
# 3 26.8982 61.1971 210.3313 0.0000 0.0000 0.0000
# 4 0.0000 0.0000 0.0000 40.3496 0.0000 0.0000
# 5 0.0000 0.0000 0.0000 0.0000 34.6148 0.0000
# 6 0.0000 0.0000 0.0000 0.0000 0.0000 36.5594
#
#
#
# Elastic Compliance Matrix: (Units=1/GPa)
#
#
# Indices 1 2 3 4 5 6 
#
# 1 0.005707 -0.003248 0.000215 0.000000 0.000000 0.000000
# 2 -0.003248 0.015404 -0.004067 0.000000 0.000000 0.000000
# 3 0.000215 -0.004067 0.005910 0.000000 0.000000 0.000000
# 4 0.000000 0.000000 0.000000 0.024783 0.000000 0.000000
# 5 0.000000 0.000000 0.000000 0.000000 0.028889 0.000000
# 6 0.000000 0.000000 0.000000 0.000000 0.000000 0.027353
#
#
# Mechanical properties :
#
#
# Convention : Reuss Voigt Hill
#
# Bulk Modulus (GPa) = 77.98790 86.69670 82.34230
# Shear Modulus (GPa) = 39.51950 46.74165 43.13058
#
# Velocity S-wave (km/s) = 4.07093 4.42731 4.25285
# Velocity P-wave (km/s) = 7.40275 7.90512 7.65806
#
# Compressibility (1/GPa) = 0.01282250
#
# Stress axis : x y z
#
# Youngs Moduli (GPa) = 175.21758 64.91797 169.20297
#
# Poissons Ratio (x) = 0.21086 -0.03641
# Poissons Ratio (y) = 0.56912 0.68807
# Poissons Ratio (z) = -0.03770 0.26399
#
# Static dielectric constant tensor:
#      x y z
#    x 4.378650 0.000000 0.000000 
#    y 0.000000 3.761340 0.000000 
#    z 0.000000 0.000000 5.419670 
# 
# 
# High freq. dielectric constant tensor:
#      x y z
#    x 1.971730 0.000000 0.000000 
#    y 0.000000 1.892910 0.000000 
#    z 0.000000 0.000000 1.994270 
# 
# From -- ./inp_files/25333.got.cif
#   From: 2010.03.12/outbox.cif.g09.slc.cpg/sg49_13_cif.got.tgz:25333.got - 2010.04.14 03:58:27.
