data_PCOD8203742
_publ_section_title
;
Structure prediction by ZEFSAII (Michael W. Deem and Ramdas Pophale) SiO2 
 PCOD8203742
Probable space group: P C C M
;
_chemical_formula_sum "Si O2"
_cell_formula_units_Z 48
_cell_length_a 9.449901
_cell_length_b 30.435734
_cell_length_c 8.739453
_cell_angle_alpha 90.000000
_cell_angle_beta 90.000000
_cell_angle_gamma 90.000000
_cell_volume 2513.594918
_symmetry_space_group_name_H-M "P C C M"
_symmetry_group_IT_number 49
_symmetry_cell_setting 'orthorhombic'
loop_
_space_group_symop_operation_xyz
x,y,z
-x,-y,z
x,-y,1/2-z
-x,y,1/2-z
-x,-y,-z
x,y,-z
-x,y,1/2+z
x,-y,1/2+z
loop_
_atom_site_type_symbol
_atom_site_label
_atom_site_fract_x
_atom_site_fract_y
_atom_site_fract_z
Si Si1 0.653853 0.455752 0.681588
Si Si2 0.854480 0.378949 0.320567
Si Si3 0.654665 0.792472 0.681734
Si Si4 0.845537 0.126282 0.820064
Si Si5 0.150198 0.720782 0.681401
Si Si6 0.650801 0.953573 0.681659
O O1 0.725571 0.500000 0.750000
O O2 0.500000 0.450496 0.750000
O O3 0.647792 0.459602 0.500000
O O4 0.736278 0.412592 0.737786
O O5 0.871140 0.381015 0.500000
O O6 0.818053 0.329373 0.269025
O O7 0.000000 0.395289 0.250000
O O8 0.500000 0.799407 0.750000
O O9 0.643705 0.789684 0.500000
O O10 0.752121 0.832815 0.736964
O O11 0.722132 0.748108 0.746937
O O12 0.767696 0.081752 0.767714
O O13 0.000000 0.128754 0.750000
O O14 0.862666 0.127740 0.000000
O O15 0.145708 0.727224 0.500000
O O16 0.000000 0.736547 0.750000
O O17 0.500000 0.939162 0.750000
O O18 0.635834 0.957060 0.500000
O O19 0.700330 0.000000 0.750000
#
# Coordination Sequence:
#
# PCOD8203742 Si02
#       6
#     8   8   8   8   8   8
#     4  10  20  35  53  76 104 138 177 219 265 316
#     4   9  20  36  55  79 108 140 177 217 264 317
#     4  11  23  39  58  83 111 144 183 226 273 324
#     4  10  23  39  57  81 111 145 183 223 271 323
#     4  10  20  37  58  82 111 144 180 222 269 323
#     4  10  20  36  57  83 111 144 182 223 269 320
#
# _framework density 19.096157000000002
#
# number of rings (size 3 to 8) (size 9 to 14) (size 15 to 20)
#    0.000    2.000    0.000    4.000    0.000    7.333 
#    0.000    5.000    0.000    0.000    0.000    0.000 
#    0.000    0.000    0.000    0.000    0.000    0.000 
#
# Total GULP energy -595298.055745 kJ/mol
# GULP energy per Si atom -12402.042828 kJ/mol
# Density = 1.905269 g / cm^3
# Si number density = 19.096157 Si / 1000 Ang^3
#
#
#
# Elastic Constant Matrix: (Units=GPa)
#
#
# Indices 1 2 3 4 5 6 
#
# 1 148.8873 95.3489 47.4190 0.0000 0.0000 0.0000
# 2 95.3489 138.9110 47.1867 0.0000 0.0000 0.0000
# 3 47.4190 47.1867 67.9192 0.0000 0.0000 0.0000
# 4 0.0000 0.0000 0.0000 32.7045 0.0000 0.0000
# 5 0.0000 0.0000 0.0000 0.0000 34.7858 0.0000
# 6 0.0000 0.0000 0.0000 0.0000 0.0000 46.3386
#
#
#
# Elastic Compliance Matrix: (Units=1/GPa)
#
#
# Indices 1 2 3 4 5 6 
#
# 1 0.012644 -0.007435 -0.003662 0.000000 0.000000 0.000000
# 2 -0.007435 0.013794 -0.004393 0.000000 0.000000 0.000000
# 3 -0.003662 -0.004393 0.020332 0.000000 0.000000 0.000000
# 4 0.000000 0.000000 0.000000 0.030577 0.000000 0.000000
# 5 0.000000 0.000000 0.000000 0.000000 0.028747 0.000000
# 6 0.000000 0.000000 0.000000 0.000000 0.000000 0.021580
#
#
# Mechanical properties :
#
#
# Convention : Reuss Voigt Hill
#
# Bulk Modulus (GPa) = 63.32875 81.73629 72.53252
# Shear Modulus (GPa) = 30.50273 33.81663 32.15968
#
# Velocity S-wave (km/s) = 4.00099 4.21272 4.10822
# Velocity P-wave (km/s) = 7.38776 8.15832 7.78258
#
# Compressibility (1/GPa) = 0.01579062
#
# Stress axis : x y z
#
# Youngs Moduli (GPa) = 79.08619 72.49270 49.18297
#
# Poissons Ratio (x) = 0.53899 0.18013
# Poissons Ratio (y) = 0.58801 0.21605
# Poissons Ratio (z) = 0.28965 0.31844
#
# Static dielectric constant tensor:
#      x y z
#    x 3.481970 0.000000 0.000000 
#    y 0.000000 3.919460 0.000000 
#    z 0.000000 0.000000 3.530930 
# 
# 
# High freq. dielectric constant tensor:
#      x y z
#    x 1.741570 0.000000 0.000000 
#    y 0.000000 1.757690 0.000000 
#    z 0.000000 0.000000 1.749270 
# 
# From -- ./inp_files/2032.got.cif
#   From: 2010.03.12/outbox.cif.g09.slc.cpg/sg49_2_cif.got.tgz:2032.got - 2010.04.14 03:58:27.
