data_PCOD8203966
_publ_section_title
;
Structure prediction by ZEFSAII (Michael W. Deem and Ramdas Pophale) SiO2 
 PCOD8203966
Probable space group: P C C M
;
_chemical_formula_sum "Si O2"
_cell_formula_units_Z 64
_cell_length_a 14.522842
_cell_length_b 25.432212
_cell_length_c 8.949952
_cell_angle_alpha 90.000000
_cell_angle_beta 90.000000
_cell_angle_gamma 90.000000
_cell_volume 3305.646841
_symmetry_space_group_name_H-M "P C C M"
_symmetry_group_IT_number 49
_symmetry_cell_setting 'orthorhombic'
loop_
_space_group_symop_operation_xyz
x,y,z
-x,-y,z
x,-y,1/2-z
-x,y,1/2-z
-x,-y,-z
x,y,-z
-x,y,1/2+z
x,-y,1/2+z
loop_
_atom_site_type_symbol
_atom_site_label
_atom_site_fract_x
_atom_site_fract_y
_atom_site_fract_z
Si Si1 0.908507 0.401315 0.324623
Si Si2 0.287372 0.752568 0.676973
Si Si3 0.283108 0.553756 0.676606
Si Si4 0.908305 0.719792 0.824495
Si Si5 0.289793 0.056736 0.675316
Si Si6 0.401182 0.653114 0.677340
Si Si7 0.913975 0.056339 0.173288
Si Si8 0.597997 0.147061 0.678088
O O1 0.919448 0.406474 0.500000
O O2 0.820126 0.433412 0.267110
O O3 0.895358 0.340783 0.277256
O O4 0.000000 0.425383 0.250000
O O5 0.286311 0.748094 0.500000
O O6 0.181805 0.750836 0.735097
O O7 0.344004 0.702865 0.739771
O O8 0.334082 0.806424 0.730095
O O9 0.318084 0.500000 0.750000
O O10 0.285392 0.547874 0.500000
O O11 0.350385 0.600127 0.729245
O O12 0.000000 0.743944 0.750000
O O13 0.919711 0.725939 0.000000
O O14 0.312965 0.051973 0.500000
O O15 0.187079 0.081764 0.698413
O O16 0.363763 0.092939 0.756660
O O17 0.297316 0.000000 0.750000
O O18 0.500000 0.654557 0.750000
O O19 0.410683 0.655637 0.500000
O O20 0.000000 0.088252 0.250000
O O21 0.910228 0.000000 0.250000
O O22 0.936070 0.050126 0.000000
O O23 0.500000 0.159384 0.750000
O O24 0.589221 0.143282 0.500000
#
# Coordination Sequence:
#
# PCOD8203966 Si02
#       8
#     8   8   8   8   8   8   8   8
#     4   9  17  31  52  76 104 140 178 219 266 321
#     4   9  18  36  61  83 109 144 180 220 272 331
#     4  10  21  36  53  74 106 144 180 223 274 327
#     4   9  16  31  55  82 110 142 179 218 265 322
#     4  10  21  38  59  85 117 153 192 233 276 328
#     4  10  20  37  58  79 103 137 180 226 276 328
#     4   9  16  27  48  77 109 144 182 224 266 312
#     4  11  23  39  60  85 112 145 184 231 284 335
#
# _framework density 19.360809
#
# number of rings (size 3 to 8) (size 9 to 14) (size 15 to 20)
#    0.000    2.375    1.250    1.875    0.000    3.250 
#    0.000    6.875    0.000    3.000    0.000    0.000 
#    0.000    0.000    0.000    0.000    0.000    0.000 
#
# Total GULP energy -793415.974838 kJ/mol
# GULP energy per Si atom -12397.124607 kJ/mol
# Density = 1.931674 g / cm^3
# Si number density = 19.360809 Si / 1000 Ang^3
#
#
#
# Elastic Constant Matrix: (Units=GPa)
#
#
# Indices 1 2 3 4 5 6 
#
# 1 157.0058 63.4567 41.6226 0.0000 0.0000 0.0000
# 2 63.4567 100.5725 32.5883 0.0000 0.0000 0.0000
# 3 41.6226 32.5883 59.7717 0.0000 0.0000 0.0000
# 4 0.0000 0.0000 0.0000 12.5577 0.0000 0.0000
# 5 0.0000 0.0000 0.0000 0.0000 36.5393 0.0000
# 6 0.0000 0.0000 0.0000 0.0000 0.0000 25.7520
#
#
#
# Elastic Compliance Matrix: (Units=1/GPa)
#
#
# Indices 1 2 3 4 5 6 
#
# 1 0.009263 -0.004560 -0.003964 0.000000 0.000000 0.000000
# 2 -0.004560 0.014321 -0.004633 0.000000 0.000000 0.000000
# 3 -0.003964 -0.004633 0.022017 0.000000 0.000000 0.000000
# 4 0.000000 0.000000 0.000000 0.079633 0.000000 0.000000
# 5 0.000000 0.000000 0.000000 0.000000 0.027368 0.000000
# 6 0.000000 0.000000 0.000000 0.000000 0.000000 0.038832
#
#
# Mechanical properties :
#
#
# Convention : Reuss Voigt Hill
#
# Bulk Modulus (GPa) = 51.84823 65.85391 58.85107
# Shear Modulus (GPa) = 22.30380 26.94864 24.62622
#
# Velocity S-wave (km/s) = 3.39781 3.73489 3.57033
# Velocity P-wave (km/s) = 6.49858 7.25858 6.88907
#
# Compressibility (1/GPa) = 0.01928706
#
# Stress axis : x y z
#
# Youngs Moduli (GPa) = 107.95436 69.82544 45.42004
#
# Poissons Ratio (x) = 0.31841 0.18006
# Poissons Ratio (y) = 0.49228 0.21042
# Poissons Ratio (z) = 0.42796 0.32348
#
# Static dielectric constant tensor:
#      x y z
#    x 4.035010 0.000000 0.000000 
#    y 0.000000 3.391770 0.000000 
#    z 0.000000 0.000000 3.353670 
# 
# 
# High freq. dielectric constant tensor:
#      x y z
#    x 1.772480 0.000000 0.000000 
#    y 0.000000 1.732080 0.000000 
#    z 0.000000 0.000000 1.738440 
# 
# From -- ./inp_files/4369.got.cif
#   From: 2010.03.12/outbox.cif.g09.slc.cpg/sg49_3_cif.got.tgz:4369.got - 2010.04.14 03:58:27.
