data_PCOD8203583
_publ_section_title
;
Structure prediction by ZEFSAII (Michael W. Deem and Ramdas Pophale) SiO2 
 PCOD8203583
Probable space group: P C C M
;
_chemical_formula_sum "Si O2"
_cell_formula_units_Z 64
_cell_length_a 19.749364
_cell_length_b 19.876470
_cell_length_c 8.761584
_cell_angle_alpha 90.000000
_cell_angle_beta 90.000000
_cell_angle_gamma 90.000000
_cell_volume 3439.339131
_symmetry_space_group_name_H-M "P C C M"
_symmetry_group_IT_number 49
_symmetry_cell_setting 'orthorhombic'
loop_
_space_group_symop_operation_xyz
x,y,z
-x,-y,z
x,-y,1/2-z
-x,y,1/2-z
-x,-y,-z
x,y,-z
-x,y,1/2+z
x,-y,1/2+z
loop_
_atom_site_type_symbol
_atom_site_label
_atom_site_fract_x
_atom_site_fract_y
_atom_site_fract_z
Si Si1 0.283752 0.931069 0.682471
Si Si2 0.289872 0.433699 0.177710
Si Si3 0.382991 0.755843 0.673702
Si Si4 0.822157 0.327994 0.679693
Si Si5 0.074080 0.570007 0.182417
Si Si6 0.567376 0.100410 0.328494
Si Si7 0.246003 0.794296 0.179846
Si Si8 0.431988 0.612742 0.678186
O O1 0.280210 0.929124 0.500000
O O2 0.361814 0.926092 0.742352
O O3 0.240306 0.868821 0.747352
O O4 0.252760 0.000000 0.750000
O O5 0.256401 0.500000 0.250000
O O6 0.246564 0.368209 0.217087
O O7 0.365557 0.423988 0.245070
O O8 0.292401 0.445580 0.000000
O O9 0.354369 0.748421 0.500000
O O10 0.433151 0.818906 0.684914
O O11 0.319477 0.763563 0.785226
O O12 0.426337 0.691331 0.721242
O O13 0.837859 0.324628 0.500000
O O14 0.882653 0.365884 0.765325
O O15 0.812352 0.253035 0.746991
O O16 0.104465 0.500000 0.250000
O O17 0.000000 0.581108 0.250000
O O18 0.071977 0.565357 0.000000
O O19 0.500000 0.070901 0.250000
O O20 0.563263 0.075003 0.500000
O O21 0.234445 0.798923 0.000000
O O22 0.500000 0.582045 0.750000
O O23 0.436527 0.601423 0.500000
#
# Coordination Sequence:
#
# PCOD8203583 Si02
#       8
#     8   8   8   8   8   8   8   8
#     4  10  21  37  53  72 101 137 173 218 274 333
#     4  10  22  37  53  71  98 132 172 220 275 329
#     4   9  17  33  49  65  94 126 162 211 272 331
#     4  11  21  38  60  82 112 149 185 232 279 321
#     4  11  22  38  59  89 125 164 202 234 274 326
#     4   9  18  29  45  66  91 123 160 207 263 328
#     4  11  21  33  54  82 106 134 176 223 270 327
#     4  10  20  34  49  67  90 124 165 217 278 337
#
# _framework density 18.608226999999999
#
# number of rings (size 3 to 8) (size 9 to 14) (size 15 to 20)
#    0.000    1.875    1.250    4.875    0.000    6.000 
#    0.000    2.500    0.000    0.000    0.000    0.000 
#    0.000    0.500    0.000    5.000    0.000    3.000 
#
# Total GULP energy -793486.931925 kJ/mol
# GULP energy per Si atom -12398.233311 kJ/mol
# Density = 1.856587 g / cm^3
# Si number density = 18.608227 Si / 1000 Ang^3
#
#
#
# Elastic Constant Matrix: (Units=GPa)
#
#
# Indices 1 2 3 4 5 6 
#
# 1 65.8155 35.7614 37.4608 0.0000 0.0000 0.0000
# 2 35.7614 120.5883 50.1217 0.0000 0.0000 0.0000
# 3 37.4608 50.1217 99.6562 0.0000 0.0000 0.0000
# 4 0.0000 0.0000 0.0000 28.9143 0.0000 0.0000
# 5 0.0000 0.0000 0.0000 0.0000 25.8315 0.0000
# 6 0.0000 0.0000 0.0000 0.0000 0.0000 16.5520
#
#
#
# Elastic Compliance Matrix: (Units=1/GPa)
#
#
# Indices 1 2 3 4 5 6 
#
# 1 0.020520 -0.003640 -0.005883 0.000000 0.000000 0.000000
# 2 -0.003640 0.011130 -0.004229 0.000000 0.000000 0.000000
# 3 -0.005883 -0.004229 0.014373 0.000000 0.000000 0.000000
# 4 0.000000 0.000000 0.000000 0.034585 0.000000 0.000000
# 5 0.000000 0.000000 0.000000 0.000000 0.038712 0.000000
# 6 0.000000 0.000000 0.000000 0.000000 0.000000 0.060416
#
#
# Mechanical properties :
#
#
# Convention : Reuss Voigt Hill
#
# Bulk Modulus (GPa) = 54.00017 59.19421 56.59719
# Shear Modulus (GPa) = 23.42858 25.10729 24.26793
#
# Velocity S-wave (km/s) = 3.55215 3.67721 3.61522
# Velocity P-wave (km/s) = 6.77541 7.06463 6.92153
#
# Compressibility (1/GPa) = 0.01851846
#
# Stress axis : x y z
#
# Youngs Moduli (GPa) = 48.73218 89.84561 69.57493
#
# Poissons Ratio (x) = 0.32707 0.40929
# Poissons Ratio (y) = 0.17740 0.29427
# Poissons Ratio (z) = 0.28668 0.38000
#
# Static dielectric constant tensor:
#      x y z
#    x 3.185920 0.000000 0.000000 
#    y 0.000000 3.558850 0.000000 
#    z 0.000000 0.000000 3.357230 
# 
# 
# High freq. dielectric constant tensor:
#      x y z
#    x 1.680830 0.000000 0.000000 
#    y 0.000000 1.726630 0.000000 
#    z 0.000000 0.000000 1.722840 
# 
# From -- ./inp_files/6076.got.cif
#   From: 2010.03.12/outbox.cif.g09.slc.cpg/sg49_4_cif.got.tgz:6076.got - 2010.04.14 03:58:27.
