data_PCOD8203889
_publ_section_title
;
Structure prediction by ZEFSAII (Michael W. Deem and Ramdas Pophale) SiO2 
 PCOD8203889
Probable space group: P C C M
;
_chemical_formula_sum "Si O2"
_cell_formula_units_Z 48
_cell_length_a 30.085601
_cell_length_b 9.447923
_cell_length_c 8.707429
_cell_angle_alpha 90.000000
_cell_angle_beta 90.000000
_cell_angle_gamma 90.000000
_cell_volume 2475.055709
_symmetry_space_group_name_H-M "P C C M"
_symmetry_group_IT_number 49
_symmetry_cell_setting 'orthorhombic'
loop_
_space_group_symop_operation_xyz
x,y,z
-x,-y,z
x,-y,1/2-z
-x,y,1/2-z
-x,-y,-z
x,y,-z
-x,y,1/2+z
x,-y,1/2+z
loop_
_atom_site_type_symbol
_atom_site_label
_atom_site_fract_x
_atom_site_fract_y
_atom_site_fract_z
Si Si1 0.780671 0.149284 0.178391
Si Si2 0.547006 0.651255 0.182191
Si Si3 0.709804 0.345327 0.681844
Si Si4 0.627957 0.845090 0.819106
Si Si5 0.884156 0.851846 0.678646
Si Si6 0.955327 0.345317 0.681628
O O1 0.755593 0.278058 0.259443
O O2 0.832423 0.177727 0.207234
O O3 0.765574 0.000000 0.250000
O O4 0.768552 0.145324 0.000000
O O5 0.561333 0.500000 0.250000
O O6 0.500000 0.701363 0.250000
O O7 0.582945 0.767238 0.233787
O O8 0.543584 0.636936 0.000000
O O9 0.703154 0.500000 0.750000
O O10 0.710970 0.357641 0.500000
O O11 0.669512 0.246831 0.740200
O O12 0.630044 0.000000 0.750000
O O13 0.629702 0.859844 0.000000
O O14 0.896364 0.849737 0.500000
O O15 0.911105 0.734314 0.768958
O O16 0.898588 0.000000 0.750000
O O17 0.951273 0.500000 0.750000
O O18 0.958950 0.351420 0.500000
O O19 0.000000 0.271792 0.750000
#
# Coordination Sequence:
#
# PCOD8203889 Si02
#       6
#     8   8   8   8   8   8
#     4  10  21  38  60  85 115 149 185 229 279 333
#     4  10  20  36  57  83 112 145 185 227 276 329
#     4  11  23  39  59  84 113 147 188 232 280 333
#     4  10  23  39  57  82 112 147 186 229 278 332
#     4  10  21  38  59  85 115 148 187 230 279 332
#     4  11  22  38  59  83 113 149 189 233 282 334
#
# _framework density 19.393502000000002
#
# number of rings (size 3 to 8) (size 9 to 14) (size 15 to 20)
#    0.000    1.667    0.000    5.500    0.000    7.333 
#    0.000    3.333    0.000    0.000    0.000    0.000 
#    0.000    0.000    0.000    0.000    0.000    0.000 
#
# Total GULP energy -595405.940221 kJ/mol
# GULP energy per Si atom -12404.290421 kJ/mol
# Density = 1.934936 g / cm^3
# Si number density = 19.393502 Si / 1000 Ang^3
#
#
#
# Elastic Constant Matrix: (Units=GPa)
#
#
# Indices 1 2 3 4 5 6 
#
# 1 105.7699 79.7459 57.5619 0.0000 0.0000 0.0000
# 2 79.7459 144.3704 60.0064 0.0000 0.0000 0.0000
# 3 57.5619 60.0064 121.7873 0.0000 0.0000 0.0000
# 4 0.0000 0.0000 0.0000 39.5743 0.0000 0.0000
# 5 0.0000 0.0000 0.0000 0.0000 31.4850 0.0000
# 6 0.0000 0.0000 0.0000 0.0000 0.0000 43.6566
#
#
#
# Elastic Compliance Matrix: (Units=1/GPa)
#
#
# Indices 1 2 3 4 5 6 
#
# 1 0.017997 -0.008055 -0.004537 0.000000 0.000000 0.000000
# 2 -0.008055 0.012316 -0.002261 0.000000 0.000000 0.000000
# 3 -0.004537 -0.002261 0.011470 0.000000 0.000000 0.000000
# 4 0.000000 0.000000 0.000000 0.025269 0.000000 0.000000
# 5 0.000000 0.000000 0.000000 0.000000 0.031761 0.000000
# 6 0.000000 0.000000 0.000000 0.000000 0.000000 0.022906
#
#
# Mechanical properties :
#
#
# Convention : Reuss Voigt Hill
#
# Bulk Modulus (GPa) = 82.81163 85.17290 83.99226
# Shear Modulus (GPa) = 32.16462 34.58407 33.37435
#
# Velocity S-wave (km/s) = 4.07692 4.22747 4.15288
# Velocity P-wave (km/s) = 8.05947 8.23664 8.14854
#
# Compressibility (1/GPa) = 0.01207560
#
# Stress axis : x y z
#
# Youngs Moduli (GPa) = 55.56498 81.19660 87.18731
#
# Poissons Ratio (x) = 0.65405 0.39559
# Poissons Ratio (y) = 0.44758 0.19713
# Poissons Ratio (z) = 0.25211 0.18358
#
# Static dielectric constant tensor:
#      x y z
#    x 3.789650 0.000000 0.000000 
#    y 0.000000 3.546740 0.000000 
#    z 0.000000 0.000000 3.660130 
# 
# 
# High freq. dielectric constant tensor:
#      x y z
#    x 1.767580 0.000000 0.000000 
#    y 0.000000 1.755870 0.000000 
#    z 0.000000 0.000000 1.769020 
# 
# From -- ./inp_files/2039.got.cif
#   From: 2010.03.12/outbox.cif.g09.slc.cpg/sg49_2_cif.got.tgz:2039.got - 2010.04.14 03:58:27.
