data_PCOD8203916
_publ_section_title
;
Structure prediction by ZEFSAII (Michael W. Deem and Ramdas Pophale) SiO2 
 PCOD8203916
Probable space group: P C C M
;
_chemical_formula_sum "Si O2"
_cell_formula_units_Z 64
_cell_length_a 9.038846
_cell_length_b 19.041894
_cell_length_c 19.993022
_cell_angle_alpha 90.000000
_cell_angle_beta 90.000000
_cell_angle_gamma 90.000000
_cell_volume 3441.133918
_symmetry_space_group_name_H-M "P C C M"
_symmetry_group_IT_number 49
_symmetry_cell_setting 'orthorhombic'
loop_
_space_group_symop_operation_xyz
x,y,z
-x,-y,z
x,-y,1/2-z
-x,y,1/2-z
-x,-y,-z
x,y,-z
-x,y,1/2+z
x,-y,1/2+z
loop_
_atom_site_type_symbol
_atom_site_label
_atom_site_fract_x
_atom_site_fract_y
_atom_site_fract_z
Si Si1 0.322021 0.428180 0.576243
Si Si2 0.708169 0.167151 0.695915
Si Si3 0.373164 0.814995 0.839891
Si Si4 0.159495 0.689129 0.324165
Si Si5 0.662925 0.410024 0.576101
Si Si6 0.170431 0.980469 0.678958
Si Si7 0.364888 0.949288 0.077951
Si Si8 0.814915 0.678965 0.328740
O O1 0.283245 0.406799 0.500000
O O2 0.489713 0.406534 0.592351
O O3 0.287279 0.510021 0.586721
O O4 0.219788 0.390000 0.629375
O O5 0.716136 0.154161 0.776075
O O6 0.544493 0.192993 0.677734
O O7 0.808533 0.229062 0.668647
O O8 0.779744 0.098911 0.661447
O O9 0.380424 0.867605 0.902901
O O10 0.290596 0.741718 0.857121
O O11 0.247279 0.641313 0.376043
O O12 0.209627 0.664586 0.250027
O O13 0.987288 0.689897 0.340424
O O14 0.693420 0.386300 0.500000
O O15 0.247567 0.000000 0.750000
O O16 0.221407 0.026354 0.616982
O O17 0.000000 0.000000 0.685160
O O18 0.500000 0.000000 0.100787
O O19 0.337042 0.956087 0.000000
#
# Coordination Sequence:
#
# PCOD8203916 Si02
#       8
#     8   8   8   8   8   8   8   8
#     4   9  19  37  61  85 112 151 198 239 280 338
#     4  10  20  36  59  85 109 145 193 241 282 337
#     4  10  20  36  59  82 111 148 193 237 284 337
#     4  10  22  37  55  85 122 150 186 235 293 344
#     4   9  19  38  61  85 114 150 194 242 284 335
#     4  11  23  36  62  88 112 150 193 237 289 347
#     4  11  23  39  58  84 116 148 188 239 291 340
#     4  10  22  36  57  85 119 153 185 237 287 342
#
# _framework density 18.598520000000001
#
# number of rings (size 3 to 8) (size 9 to 14) (size 15 to 20)
#    0.000    2.000    2.500    1.500    1.750    5.000 
#    0.000    5.000    0.000    0.000    0.000    0.000 
#    0.000    0.000    0.000    0.000    0.000    0.000 
#
# Total GULP energy -793105.793532 kJ/mol
# GULP energy per Si atom -12392.278024 kJ/mol
# Density = 1.855619 g / cm^3
# Si number density = 18.598520 Si / 1000 Ang^3
#
#
#
# Elastic Constant Matrix: (Units=GPa)
#
#
# Indices 1 2 3 4 5 6 
#
# 1 86.9430 49.2476 46.8453 0.0000 0.0000 0.0000
# 2 49.2476 87.7083 56.3679 0.0000 0.0000 0.0000
# 3 46.8453 56.3679 94.4756 0.0000 0.0000 0.0000
# 4 0.0000 0.0000 0.0000 29.2709 0.0000 0.0000
# 5 0.0000 0.0000 0.0000 0.0000 23.2968 0.0000
# 6 0.0000 0.0000 0.0000 0.0000 0.0000 21.7579
#
#
#
# Elastic Compliance Matrix: (Units=1/GPa)
#
#
# Indices 1 2 3 4 5 6 
#
# 1 0.018074 -0.007118 -0.004715 0.000000 0.000000 0.000000
# 2 -0.007118 0.021296 -0.009176 0.000000 0.000000 0.000000
# 3 -0.004715 -0.009176 0.018398 0.000000 0.000000 0.000000
# 4 0.000000 0.000000 0.000000 0.034164 0.000000 0.000000
# 5 0.000000 0.000000 0.000000 0.000000 0.042924 0.000000
# 6 0.000000 0.000000 0.000000 0.000000 0.000000 0.045960
#
#
# Mechanical properties :
#
#
# Convention : Reuss Voigt Hill
#
# Bulk Modulus (GPa) = 63.49859 63.78315 63.64087
# Shear Modulus (GPa) = 21.92170 22.64286 22.28228
#
# Velocity S-wave (km/s) = 3.43691 3.49299 3.46507
# Velocity P-wave (km/s) = 7.06864 7.11598 7.09235
#
# Compressibility (1/GPa) = 0.01574838
#
# Stress axis : x y z
#
# Youngs Moduli (GPa) = 55.32694 46.95784 54.35518
#
# Poissons Ratio (x) = 0.33427 0.25628
# Poissons Ratio (y) = 0.39384 0.49877
# Poissons Ratio (z) = 0.26086 0.43089
#
# Static dielectric constant tensor:
#      x y z
#    x 2.896270 0.000000 0.000000 
#    y 0.000000 3.407840 0.000000 
#    z 0.000000 0.000000 3.342050 
# 
# 
# High freq. dielectric constant tensor:
#      x y z
#    x 1.723290 0.000000 0.000000 
#    y 0.000000 1.726440 0.000000 
#    z 0.000000 0.000000 1.712560 
# 
# From -- ./inp_files/20019.got.cif
#   From: 2010.03.12/outbox.cif.g09.slc.cpg/sg49_11_cif.got.tgz:20019.got - 2010.04.14 03:58:27.
