data_PCOD8203421
_publ_section_title
;
Structure prediction by ZEFSAII (Michael W. Deem and Ramdas Pophale) SiO2 
 PCOD8203421
Probable space group: P C C M
;
_chemical_formula_sum "Si O2"
_cell_formula_units_Z 58
_cell_length_a 10.726653
_cell_length_b 17.095983
_cell_length_c 14.146143
_cell_angle_alpha 90.000000
_cell_angle_beta 90.000000
_cell_angle_gamma 90.000000
_cell_volume 2594.157577
_symmetry_space_group_name_H-M "P C C M"
_symmetry_group_IT_number 49
_symmetry_cell_setting 'orthorhombic'
loop_
_space_group_symop_operation_xyz
x,y,z
-x,-y,z
x,-y,1/2-z
-x,y,1/2-z
-x,-y,-z
x,y,-z
-x,y,1/2+z
x,-y,1/2+z
loop_
_atom_site_type_symbol
_atom_site_label
_atom_site_fract_x
_atom_site_fract_y
_atom_site_fract_z
Si Si1 0.486273 0.609439 0.104328
Si Si2 0.547857 0.780893 0.103512
Si Si3 0.853360 0.112080 0.392185
Si Si4 0.000000 0.000000 0.750000
Si Si5 0.292281 0.154679 0.396243
Si Si6 0.362840 0.006864 0.860124
Si Si7 0.779984 0.753837 0.776135
Si Si8 0.290289 0.583469 0.737858
O O1 0.468491 0.701658 0.097827
O O2 0.374789 0.580564 0.169127
O O3 0.621608 0.585584 0.145757
O O4 0.475700 0.571642 0.000000
O O5 0.441242 0.844197 0.126579
O O6 0.639800 0.770882 0.190811
O O7 0.613322 0.794313 0.000000
O O8 0.905520 0.108092 0.500000
O O9 0.868957 0.201509 0.352333
O O10 0.919108 0.053523 0.319785
O O11 0.704377 0.088862 0.390193
O O12 0.261242 0.187945 0.500000
O O13 0.266416 0.061536 0.393063
O O14 0.205072 0.203296 0.324853
O O15 0.500000 0.000000 0.908268
O O16 0.378318 0.000000 0.750000
O O17 0.802343 0.659805 0.767291
O O18 0.216018 0.500000 0.750000
#
# Coordination Sequence:
#
# PCOD8203421 Si02
#       8
#     8   8   8   2   8   8   8   8
#     4   9  16  28  43  63 100 156 214 257 295 351
#     4   9  17  27  44  70 103 150 203 248 295 351
#     4  12  25  44  70  95 124 166 212 261 321 385
#     4  12  26  52  70  98 126 160 210 278 324 374
#     4  11  20  30  46  70 105 153 201 244 293 352
#     4  11  22  36  57  88 127 165 198 243 302 366
#     4  11  20  35  52  76 111 147 195 255 309 363
#     4  10  20  30  45  71 107 153 204 256 308 362
#
# _framework density 22.357931000000001
#
# number of rings (size 3 to 8) (size 9 to 14) (size 15 to 20)
#    0.000    1.517    3.448    3.103    1.931    3.862 
#    0.000    0.690    0.000    0.000    0.000    0.483 
#    0.000    1.103    0.000    0.000    0.000    0.000 
#
# Total GULP energy -718519.763815 kJ/mol
# GULP energy per Si atom -12388.271790 kJ/mol
# Density = 2.230704 g / cm^3
# Si number density = 22.357931 Si / 1000 Ang^3
#
#
#
# Elastic Constant Matrix: (Units=GPa)
#
#
# Indices 1 2 3 4 5 6 
#
# 1 28.1039 9.0590 8.5437 0.0000 0.0000 0.0000
# 2 9.0590 168.6037 31.1974 0.0000 0.0000 0.0000
# 3 8.5437 31.1974 151.4428 0.0000 0.0000 0.0000
# 4 0.0000 0.0000 0.0000 -7.8554 0.0000 0.0000
# 5 0.0000 0.0000 0.0000 0.0000 14.4964 0.0000
# 6 0.0000 0.0000 0.0000 0.0000 0.0000 8.9187
#
#
#
# Elastic Compliance Matrix: (Units=1/GPa)
#
#
# Indices 1 2 3 4 5 6 
#
# 1 0.036639 -0.001649 -0.001727 0.000000 0.000000 0.000000
# 2 -0.001649 0.006240 -0.001192 0.000000 0.000000 0.000000
# 3 -0.001727 -0.001192 0.006946 0.000000 0.000000 0.000000
# 4 0.000000 0.000000 0.000000 -0.127301 0.000000 0.000000
# 5 0.000000 0.000000 0.000000 0.000000 0.068983 0.000000
# 6 0.000000 0.000000 0.000000 0.000000 0.000000 0.112124
#
#
# Mechanical properties :
#
#
# Convention : Reuss Voigt Hill
#
# Bulk Modulus (GPa) = 24.57732 49.52786 37.05259
# Shear Modulus (GPa) = 39.57843 23.06862 31.32352
#
# Velocity S-wave (km/s) = 4.21196 3.21563 3.74706
# Velocity P-wave (km/s) = 5.88818 5.99895 5.94382
#
# Compressibility (1/GPa) = 0.04068793
#
# Stress axis : x y z
#
# Youngs Moduli (GPa) = 27.29339 160.24826 143.96250
#
# Poissons Ratio (x) = 0.26425 0.24867
# Poissons Ratio (y) = 0.04501 0.17167
# Poissons Ratio (z) = 0.04714 0.19109
#
# Static dielectric constant tensor:
#      x y z
#    x 3.389020 0.000000 0.000000 
#    y 0.000000 4.478450 0.000000 
#    z 0.000000 0.000000 4.355870 
# 
# 
# High freq. dielectric constant tensor:
#      x y z
#    x 1.791540 0.000000 0.000000 
#    y 0.000000 1.897250 0.000000 
#    z 0.000000 0.000000 1.899820 
# 
# From -- ./inp_files/13014.got.cif
#   From: 2010.03.12/outbox.cif.g09.slc.cpg/sg49_7_cif.got.tgz:13014.got - 2010.04.14 03:58:27.
