data_PCOD8203111
_publ_section_title
;
Structure prediction by ZEFSAII (Michael W. Deem and Ramdas Pophale) SiO2 
 PCOD8203111
Probable space group: P C C M
;
_chemical_formula_sum "Si O2"
_cell_formula_units_Z 64
_cell_length_a 19.144474
_cell_length_b 19.367445
_cell_length_c 9.017671
_cell_angle_alpha 90.000000
_cell_angle_beta 90.000000
_cell_angle_gamma 90.000000
_cell_volume 3343.567971
_symmetry_space_group_name_H-M "P C C M"
_symmetry_group_IT_number 49
_symmetry_cell_setting 'orthorhombic'
loop_
_space_group_symop_operation_xyz
x,y,z
-x,-y,z
x,-y,1/2-z
-x,y,1/2-z
-x,-y,-z
x,y,-z
-x,y,1/2+z
x,-y,1/2+z
loop_
_atom_site_type_symbol
_atom_site_label
_atom_site_fract_x
_atom_site_fract_y
_atom_site_fract_z
Si Si1 0.911742 0.063244 0.659616
Si Si2 0.432038 0.221130 0.827475
Si Si3 0.723263 0.428126 0.322086
Si Si4 0.569875 0.618812 0.172604
Si Si5 0.298338 0.184091 0.666661
Si Si6 0.927958 0.780503 0.179005
Si Si7 0.247707 0.937840 0.661180
Si Si8 0.804097 0.306030 0.170806
O O1 0.949629 0.066389 0.500000
O O2 0.919158 0.139564 0.733303
O O3 0.831991 0.042713 0.634910
O O4 0.947165 0.000000 0.750000
O O5 0.500000 0.189983 0.750000
O O6 0.423780 0.301141 0.786550
O O7 0.367555 0.179617 0.763341
O O8 0.437401 0.208082 0.000000
O O9 0.746034 0.500000 0.250000
O O10 0.729144 0.428608 0.500000
O O11 0.642702 0.414484 0.272077
O O12 0.779575 0.374036 0.258210
O O13 0.500000 0.587173 0.250000
O O14 0.559346 0.606092 0.000000
O O15 0.315667 0.161453 0.500000
O O16 0.245766 0.130723 0.741024
O O17 0.264256 0.258771 0.671769
O O18 0.867174 0.731900 0.244591
O O19 0.000000 0.752620 0.250000
O O20 0.926860 0.774683 0.000000
O O21 0.283994 0.927350 0.500000
O O22 0.285873 0.000000 0.750000
O O23 0.825674 0.322666 0.000000
#
# Coordination Sequence:
#
# PCOD8203111 Si02
#       8
#     8   8   8   8   8   8   8   8
#     4   9  19  33  52  78 114 155 193 232 278 332
#     4  10  19  33  52  78 111 148 189 235 288 339
#     4  11  23  40  60  86 118 155 194 238 289 342
#     4   9  19  33  52  78 114 155 193 232 278 332
#     4  11  21  33  55  84 111 146 191 239 287 338
#     4  11  23  40  60  86 118 155 194 238 289 342
#     4  10  19  33  52  78 111 148 189 235 288 339
#     4  11  23  39  61  88 115 148 191 239 285 338
#
# _framework density 19.14123
#
# number of rings (size 3 to 8) (size 9 to 14) (size 15 to 20)
#    0.000    1.750    2.500    2.250    0.000    4.500 
#    0.000    2.500    0.000    0.750    0.000    5.250 
#    0.000    0.000    0.000    0.000    0.000    0.000 
#
# Total GULP energy -793252.621093 kJ/mol
# GULP energy per Si atom -12394.572205 kJ/mol
# Density = 1.909766 g / cm^3
# Si number density = 19.141230 Si / 1000 Ang^3
#
#
#
# Elastic Constant Matrix: (Units=GPa)
#
#
# Indices 1 2 3 4 5 6 
#
# 1 97.9197 38.7702 47.9061 0.0000 0.0000 0.0000
# 2 38.7702 94.7549 55.7078 0.0000 0.0000 0.0000
# 3 47.9061 55.7078 117.9485 0.0000 0.0000 0.0000
# 4 0.0000 0.0000 0.0000 30.7979 0.0000 0.0000
# 5 0.0000 0.0000 0.0000 0.0000 29.3317 0.0000
# 6 0.0000 0.0000 0.0000 0.0000 0.0000 166.8716
#
#
#
# Elastic Compliance Matrix: (Units=1/GPa)
#
#
# Indices 1 2 3 4 5 6 
#
# 1 0.013395 -0.003159 -0.003948 0.000000 0.000000 0.000000
# 2 -0.003159 0.015356 -0.005969 0.000000 0.000000 0.000000
# 3 -0.003948 -0.005969 0.012901 0.000000 0.000000 0.000000
# 4 0.000000 0.000000 0.000000 0.032470 0.000000 0.000000
# 5 0.000000 0.000000 0.000000 0.000000 0.034093 0.000000
# 6 0.000000 0.000000 0.000000 0.000000 0.000000 0.005993
#
#
# Mechanical properties :
#
#
# Convention : Reuss Voigt Hill
#
# Bulk Modulus (GPa) = 64.52527 66.15459 65.33993
# Shear Modulus (GPa) = 34.35774 56.61617 45.48695
#
# Velocity S-wave (km/s) = 4.24129 5.44448 4.88011
# Velocity P-wave (km/s) = 7.60053 8.61159 8.12181
#
# Compressibility (1/GPa) = 0.01549780
#
# Stress axis : x y z
#
# Youngs Moduli (GPa) = 74.65424 65.12213 77.51163
#
# Poissons Ratio (x) = 0.20575 0.30604
# Poissons Ratio (y) = 0.23587 0.46269
# Poissons Ratio (z) = 0.29476 0.38874
#
# Static dielectric constant tensor:
#      x y z
#    x 3.344050 0.000000 0.000000 
#    y 0.000000 3.292140 0.000000 
#    z 0.000000 0.000000 3.803480 
# 
# 
# High freq. dielectric constant tensor:
#      x y z
#    x 1.733090 0.000000 0.000000 
#    y 0.000000 1.723420 0.000000 
#    z 0.000000 0.000000 1.759810 
# 
# From -- ./inp_files/5305.got.cif
#   From: 2010.03.12/outbox.cif.g09.slc.cpg/sg49_3_cif.got.tgz:5305.got - 2010.04.14 03:58:27.
