data_PCOD8203483
_publ_section_title
;
Structure prediction by ZEFSAII (Michael W. Deem and Ramdas Pophale) SiO2 
 PCOD8203483
Probable space group: P C C M
;
_chemical_formula_sum "Si O2"
_cell_formula_units_Z 64
_cell_length_a 14.988357
_cell_length_b 11.625180
_cell_length_c 19.111099
_cell_angle_alpha 90.000000
_cell_angle_beta 90.000000
_cell_angle_gamma 90.000000
_cell_volume 3329.962763
_symmetry_space_group_name_H-M "P C C M"
_symmetry_group_IT_number 49
_symmetry_cell_setting 'orthorhombic'
loop_
_space_group_symop_operation_xyz
x,y,z
-x,-y,z
x,-y,1/2-z
-x,y,1/2-z
-x,-y,-z
x,y,-z
-x,y,1/2+z
x,-y,1/2+z
loop_
_atom_site_type_symbol
_atom_site_label
_atom_site_fract_x
_atom_site_fract_y
_atom_site_fract_z
Si Si1 0.555568 0.325976 0.582969
Si Si2 0.097444 0.199637 0.830227
Si Si3 0.374955 0.435141 0.583562
Si Si4 0.591111 0.931735 0.917360
Si Si5 0.898612 0.190673 0.830648
Si Si6 0.236565 0.007421 0.832487
Si Si7 0.811039 0.631074 0.577308
Si Si8 0.078064 0.580515 0.577614
O O1 0.552745 0.318512 0.500000
O O2 0.457406 0.359401 0.611349
O O3 0.619770 0.430513 0.608457
O O4 0.584148 0.200075 0.611011
O O5 0.112305 0.227862 0.749259
O O6 0.103883 0.316408 0.872430
O O7 0.999291 0.142877 0.842607
O O8 0.176778 0.116600 0.854504
O O9 0.373568 0.436532 0.500000
O O10 0.287278 0.370018 0.612359
O O11 0.500000 0.000000 0.900395
O O12 0.671957 0.992715 0.876073
O O13 0.611796 0.936677 0.000000
O O14 0.823947 0.100528 0.854519
O O15 0.884310 0.303918 0.876733
O O16 0.257791 0.000000 0.750000
O O17 0.809652 0.687651 0.500000
O O18 0.834387 0.496962 0.571433
O O19 0.049760 0.626140 0.500000
O O20 0.000000 0.500000 0.608948
#
# Coordination Sequence:
#
# PCOD8203483 Si02
#       8
#     8   8   8   8   8   8   8   8
#     4   8  15  30  50  77 110 142 181 219 268 332
#     4  10  21  39  60  81 109 150 195 242 280 337
#     4   8  15  28  50  77 109 148 179 215 267 333
#     4  10  22  37  57  87 115 143 184 239 288 339
#     4  10  21  38  58  82 109 151 198 239 282 336
#     4  10  23  41  60  81 111 150 198 239 288 339
#     4  10  20  32  52  83 118 150 182 229 285 338
#     4  10  20  35  54  82 117 146 177 227 290 345
#
# _framework density 19.219432999999999
#
# number of rings (size 3 to 8) (size 9 to 14) (size 15 to 20)
#    0.000    2.500    1.250    1.125    3.500    3.250 
#    0.000    0.000    0.000    2.250    0.000    0.000 
#    0.000    0.000    0.000    0.000    0.000    0.000 
#
# Total GULP energy -793130.955963 kJ/mol
# GULP energy per Si atom -12392.671187 kJ/mol
# Density = 1.917569 g / cm^3
# Si number density = 19.219433 Si / 1000 Ang^3
#
#
#
# Elastic Constant Matrix: (Units=GPa)
#
#
# Indices 1 2 3 4 5 6 
#
# 1 127.6620 42.0161 45.4702 0.0000 0.0000 0.0000
# 2 42.0161 103.9413 45.0206 0.0000 0.0000 0.0000
# 3 45.4702 45.0206 51.8287 0.0000 0.0000 0.0000
# 4 0.0000 0.0000 0.0000 24.4079 0.0000 0.0000
# 5 0.0000 0.0000 0.0000 0.0000 26.9148 0.0000
# 6 0.0000 0.0000 0.0000 0.0000 0.0000 29.4804
#
#
#
# Elastic Compliance Matrix: (Units=1/GPa)
#
#
# Indices 1 2 3 4 5 6 
#
# 1 0.011406 -0.000443 -0.009622 0.000000 0.000000 0.000000
# 2 -0.000443 0.015441 -0.013024 0.000000 0.000000 0.000000
# 3 -0.009622 -0.013024 0.039049 0.000000 0.000000 0.000000
# 4 0.000000 0.000000 0.000000 0.040970 0.000000 0.000000
# 5 0.000000 0.000000 0.000000 0.000000 0.037154 0.000000
# 6 0.000000 0.000000 0.000000 0.000000 0.000000 0.033921
#
#
# Mechanical properties :
#
#
# Convention : Reuss Voigt Hill
#
# Bulk Modulus (GPa) = 50.71467 60.93841 55.82654
# Shear Modulus (GPa) = 21.67389 26.22231 23.94810
#
# Velocity S-wave (km/s) = 3.36178 3.69774 3.53375
# Velocity P-wave (km/s) = 6.44307 7.07153 6.76460
#
# Compressibility (1/GPa) = 0.01971816
#
# Stress axis : x y z
#
# Youngs Moduli (GPa) = 87.67238 64.76227 25.60887
#
# Poissons Ratio (x) = 0.02870 0.24640
# Poissons Ratio (y) = 0.03885 0.33353
# Poissons Ratio (z) = 0.84357 0.84347
#
# Static dielectric constant tensor:
#      x y z
#    x 3.746490 0.000000 0.000000 
#    y 0.000000 3.573850 0.000000 
#    z 0.000000 0.000000 3.126220 
# 
# 
# High freq. dielectric constant tensor:
#      x y z
#    x 1.761650 0.000000 0.000000 
#    y 0.000000 1.746670 0.000000 
#    z 0.000000 0.000000 1.705690 
# 
# From -- ./inp_files/17953.got.cif
#   From: 2010.03.12/outbox.cif.g09.slc.cpg/sg49_9_cif.got.tgz:17953.got - 2010.04.14 03:58:27.
