data_PCOD8203226
_publ_section_title
;
Structure prediction by ZEFSAII (Michael W. Deem and Ramdas Pophale) SiO2 
 PCOD8203226
Probable space group: P C C M
;
_chemical_formula_sum "Si O2"
_cell_formula_units_Z 56
_cell_length_a 25.309675
_cell_length_b 14.396942
_cell_length_c 8.769809
_cell_angle_alpha 90.000000
_cell_angle_beta 90.000000
_cell_angle_gamma 90.000000
_cell_volume 3195.559868
_symmetry_space_group_name_H-M "P C C M"
_symmetry_group_IT_number 49
_symmetry_cell_setting 'orthorhombic'
loop_
_space_group_symop_operation_xyz
x,y,z
-x,-y,z
x,-y,1/2-z
-x,y,1/2-z
-x,-y,-z
x,y,-z
-x,y,1/2+z
x,-y,1/2+z
loop_
_atom_site_type_symbol
_atom_site_label
_atom_site_fract_x
_atom_site_fract_y
_atom_site_fract_z
Si Si1 0.646724 0.788343 0.821081
Si Si2 0.443641 0.902537 0.180504
Si Si3 0.813121 0.595801 0.180681
Si Si4 0.844984 0.780672 0.678626
Si Si5 0.945121 0.097695 0.821419
Si Si6 0.248239 0.101008 0.179296
Si Si7 0.692320 0.405816 0.678804
O O1 0.597110 0.822089 0.723590
O O2 0.696934 0.850395 0.777552
O O3 0.657458 0.682203 0.770841
O O4 0.633997 0.795708 0.000000
O O5 0.500000 0.875144 0.250000
O O6 0.423530 0.000000 0.250000
O O7 0.448472 0.912541 0.000000
O O8 0.835077 0.500000 0.250000
O O9 0.847623 0.678106 0.251343
O O10 0.752432 0.610382 0.233170
O O11 0.819199 0.595369 0.000000
O O12 0.833695 0.776122 0.500000
O O13 0.900981 0.826669 0.716476
O O14 0.799089 0.838922 0.756246
O O15 0.000000 0.132981 0.750000
O O16 0.927279 0.000000 0.750000
O O17 0.952786 0.083005 0.000000
O O18 0.247363 0.000000 0.250000
O O19 0.240715 0.093388 0.000000
O O20 0.668436 0.500000 0.750000
O O21 0.691202 0.417943 0.500000
#
# Coordination Sequence:
#
# PCOD8203226 Si02
#       7
#     8   8   8   8   8   8   8
#     4  10  20  36  54  77 109 141 177 219 263 315
#     4  11  22  37  57  80 105 140 181 222 267 313
#     4  10  19  34  54  79 108 143 179 219 266 316
#     4  11  22  35  53  79 108 141 179 220 266 321
#     4  10  21  36  55  78 104 138 181 224 268 315
#     4  11  22  35  50  74 109 145 178 214 265 320
#     4   9  18  33  52  77 107 140 176 216 260 311
#
# _framework density 17.524315000000001
#
# number of rings (size 3 to 8) (size 9 to 14) (size 15 to 20)
#    0.000    1.714    1.429    4.714    0.000    6.857 
#    0.000    0.000    0.000    0.857    0.000    6.000 
#    0.000    0.000    0.000    0.000    0.000    0.000 
#
# Total GULP energy -694602.692714 kJ/mol
# GULP energy per Si atom -12403.619513 kJ/mol
# Density = 1.748443 g / cm^3
# Si number density = 17.524315 Si / 1000 Ang^3
#
#
#
# Elastic Constant Matrix: (Units=GPa)
#
#
# Indices 1 2 3 4 5 6 
#
# 1 95.3478 71.8577 53.6762 0.0000 0.0000 0.0000
# 2 71.8577 153.3470 51.4129 0.0000 0.0000 0.0000
# 3 53.6762 51.4129 81.7088 0.0000 0.0000 0.0000
# 4 0.0000 0.0000 0.0000 34.1317 0.0000 0.0000
# 5 0.0000 0.0000 0.0000 0.0000 23.2594 0.0000
# 6 0.0000 0.0000 0.0000 0.0000 0.0000 39.3707
#
#
#
# Elastic Compliance Matrix: (Units=1/GPa)
#
#
# Indices 1 2 3 4 5 6 
#
# 1 0.020790 -0.006544 -0.009540 0.000000 0.000000 0.000000
# 2 -0.006544 0.010324 -0.002198 0.000000 0.000000 0.000000
# 3 -0.009540 -0.002198 0.019888 0.000000 0.000000 0.000000
# 4 0.000000 0.000000 0.000000 0.029298 0.000000 0.000000
# 5 0.000000 0.000000 0.000000 0.000000 0.042993 0.000000
# 6 0.000000 0.000000 0.000000 0.000000 0.000000 0.025400
#
#
# Mechanical properties :
#
#
# Convention : Reuss Voigt Hill
#
# Bulk Modulus (GPa) = 69.25109 76.03301 72.64205
# Shear Modulus (GPa) = 26.30617 29.58283 27.94450
#
# Velocity S-wave (km/s) = 3.87864 4.11311 3.99759
# Velocity P-wave (km/s) = 7.72408 8.12639 7.92779
#
# Compressibility (1/GPa) = 0.01444021
#
# Stress axis : x y z
#
# Youngs Moduli (GPa) = 48.10018 96.85938 50.28063
#
# Poissons Ratio (x) = 0.63381 0.47968
# Poissons Ratio (y) = 0.31475 0.11050
# Poissons Ratio (z) = 0.45887 0.21286
#
# Static dielectric constant tensor:
#      x y z
#    x 3.218650 0.000000 0.000000 
#    y 0.000000 3.418920 0.000000 
#    z 0.000000 0.000000 3.340590 
# 
# 
# High freq. dielectric constant tensor:
#      x y z
#    x 1.659450 0.000000 0.000000 
#    y 0.000000 1.682960 0.000000 
#    z 0.000000 0.000000 1.690600 
# 
# From -- ./inp_files/5817.got.cif
#   From: 2010.03.12/outbox.cif.g09.slc.cpg/sg49_3_cif.got.tgz:5817.got - 2010.04.14 03:58:27.
