data_PCOD8203189
_publ_section_title
;
Structure prediction by ZEFSAII (Michael W. Deem and Ramdas Pophale) SiO2 
 PCOD8203189
Probable space group: P C C M
;
_chemical_formula_sum "Si O2"
_cell_formula_units_Z 56
_cell_length_a 4.954635
_cell_length_b 16.306815
_cell_length_c 34.563397
_cell_angle_alpha 90.000000
_cell_angle_beta 90.000000
_cell_angle_gamma 90.000000
_cell_volume 2792.526031
_symmetry_space_group_name_H-M "P C C M"
_symmetry_group_IT_number 49
_symmetry_cell_setting 'orthorhombic'
loop_
_space_group_symop_operation_xyz
x,y,z
-x,-y,z
x,-y,1/2-z
-x,y,1/2-z
-x,-y,-z
x,y,-z
-x,y,1/2+z
x,-y,1/2+z
loop_
_atom_site_type_symbol
_atom_site_label
_atom_site_fract_x
_atom_site_fract_y
_atom_site_fract_z
Si Si1 0.488732 0.165939 0.206223
Si Si2 0.940676 0.193549 0.087831
Si Si3 0.076427 0.641793 0.132593
Si Si4 0.424291 0.587982 0.589991
Si Si5 0.981884 0.275870 0.793510
Si Si6 0.443939 0.247899 0.955278
Si Si7 0.256939 0.052096 0.641890
O O1 0.500000 0.130771 0.250000
O O2 0.188926 0.200789 0.197315
O O3 0.585854 0.095611 0.177225
O O4 0.680771 0.243419 0.200769
O O5 0.927156 0.263734 0.119799
O O6 0.739218 0.212093 0.052450
O O7 0.866271 0.109408 0.108652
O O8 0.239173 0.192246 0.069703
O O9 0.373270 0.606236 0.125558
O O10 0.872648 0.585462 0.108283
O O11 0.990079 0.646129 0.177698
O O12 0.500000 0.500000 0.571303
O O13 0.437154 0.656345 0.556671
O O14 0.000000 0.309700 0.750000
O O15 0.370196 0.241507 0.000000
O O16 0.500000 0.000000 0.622381
O O17 0.000000 0.000000 0.657795
#
# Coordination Sequence:
#
# PCOD8203189 Si02
#       7
#     8   8   8   8   8   8   8
#     4  10  21  36  54  81 115 150 188 241 293 335
#     4  10  21  37  60  83 112 146 198 234 272 344
#     4  10  19  34  59  79 110 155 193 233 274 328
#     4  10  21  35  56  89 120 148 179 223 283 349
#     4  10  19  33  57  82 109 146 198 248 282 319
#     4  10  21  38  63  89 112 147 184 230 285 340
#     4  12  24  37  59  83 117 156 193 238 293 341
#
# _framework density 20.053529000000001
#
# number of rings (size 3 to 8) (size 9 to 14) (size 15 to 20)
#    0.000    1.714    1.429    3.429    4.000    0.571 
#    0.000    0.714    0.000   16.286    0.000    0.000 
#    0.000    0.000    0.000    0.000    0.000    0.000 
#
# Total GULP energy -694278.911318 kJ/mol
# GULP energy per Si atom -12397.837702 kJ/mol
# Density = 2.000789 g / cm^3
# Si number density = 20.053529 Si / 1000 Ang^3
#
#
#
# Elastic Constant Matrix: (Units=GPa)
#
#
# Indices 1 2 3 4 5 6 
#
# 1 88.4226 11.2318 14.6734 0.0000 0.0000 0.0000
# 2 11.2318 55.9432 30.6626 0.0000 0.0000 0.0000
# 3 14.6734 30.6626 91.0462 0.0000 0.0000 0.0000
# 4 0.0000 0.0000 0.0000 12.9513 0.0000 0.0000
# 5 0.0000 0.0000 0.0000 0.0000 20.3406 0.0000
# 6 0.0000 0.0000 0.0000 0.0000 0.0000 20.5028
#
#
#
# Elastic Compliance Matrix: (Units=1/GPa)
#
#
# Indices 1 2 3 4 5 6 
#
# 1 0.011738 -0.001619 -0.001347 0.000000 0.000000 0.000000
# 2 -0.001619 0.022145 -0.007197 0.000000 0.000000 0.000000
# 3 -0.001347 -0.007197 0.013624 0.000000 0.000000 0.000000
# 4 0.000000 0.000000 0.000000 0.077212 0.000000 0.000000
# 5 0.000000 0.000000 0.000000 0.000000 0.049163 0.000000
# 6 0.000000 0.000000 0.000000 0.000000 0.000000 0.048774
#
#
# Mechanical properties :
#
#
# Convention : Reuss Voigt Hill
#
# Bulk Modulus (GPa) = 36.78790 38.72752 37.75771
# Shear Modulus (GPa) = 19.83795 22.68190 21.25992
#
# Velocity S-wave (km/s) = 3.14865 3.36678 3.25954
# Velocity P-wave (km/s) = 5.62168 5.87091 5.74765
#
# Compressibility (1/GPa) = 0.02718285
#
# Stress axis : x y z
#
# Youngs Moduli (GPa) = 85.19045 45.15693 73.39816
#
# Poissons Ratio (x) = 0.07309 0.09885
# Poissons Ratio (y) = 0.13789 0.52826
# Poissons Ratio (z) = 0.11473 0.32500
#
# Static dielectric constant tensor:
#      x y z
#    x 3.952450 0.000000 0.000000 
#    y 0.000000 3.421780 0.000000 
#    z 0.000000 0.000000 3.483970 
# 
# 
# High freq. dielectric constant tensor:
#      x y z
#    x 1.808740 0.000000 0.000000 
#    y 0.000000 1.753620 0.000000 
#    z 0.000000 0.000000 1.766800 
# 
# From -- ./inp_files/25845.got.cif
#   From: 2010.03.12/outbox.cif.g09.slc.cpg/sg49_13_cif.got.tgz:25845.got - 2010.04.14 03:58:27.
