data_PCOD8203435
_publ_section_title
;
Structure prediction by ZEFSAII (Michael W. Deem and Ramdas Pophale) SiO2 
 PCOD8203435
Probable space group: P C C M
;
_chemical_formula_sum "Si O2"
_cell_formula_units_Z 56
_cell_length_a 15.145721
_cell_length_b 20.040034
_cell_length_c 8.818399
_cell_angle_alpha 90.000000
_cell_angle_beta 90.000000
_cell_angle_gamma 90.000000
_cell_volume 2676.567200
_symmetry_space_group_name_H-M "P C C M"
_symmetry_group_IT_number 49
_symmetry_cell_setting 'orthorhombic'
loop_
_space_group_symop_operation_xyz
x,y,z
-x,-y,z
x,-y,1/2-z
-x,y,1/2-z
-x,-y,-z
x,y,-z
-x,y,1/2+z
x,-y,1/2+z
loop_
_atom_site_type_symbol
_atom_site_label
_atom_site_fract_x
_atom_site_fract_y
_atom_site_fract_z
Si Si1 0.221952 0.067237 0.321650
Si Si2 0.173644 0.197122 0.171304
Si Si3 0.371142 0.764082 0.328114
Si Si4 0.229772 0.431551 0.319326
Si Si5 0.590798 0.612735 0.178818
Si Si6 0.413927 0.105828 0.323928
Si Si7 0.908218 0.667571 0.179042
O O1 0.220415 0.060573 0.500000
O O2 0.163780 0.131586 0.275977
O O3 0.322384 0.075846 0.258237
O O4 0.181495 0.000000 0.250000
O O5 0.266373 0.234110 0.194535
O O6 0.101381 0.253148 0.212937
O O7 0.162068 0.171813 0.000000
O O8 0.396639 0.784086 0.500000
O O9 0.404388 0.691157 0.285775
O O10 0.417124 0.815466 0.213413
O O11 0.191004 0.500000 0.250000
O O12 0.226716 0.433442 0.500000
O O13 0.329867 0.424250 0.262667
O O14 0.171108 0.371032 0.258887
O O15 0.500000 0.584939 0.250000
O O16 0.595738 0.597860 0.000000
O O17 0.500000 0.070619 0.250000
O O18 0.418932 0.093450 0.500000
O O19 0.000000 0.642797 0.250000
O O20 0.905357 0.653112 0.000000
#
# Coordination Sequence:
#
# PCOD8203435 Si02
#       7
#     8   8   8   8   8   8   8
#     4  10  21  35  53  79 111 152 202 249 303 368
#     4   9  18  36  61  87 120 158 196 246 302 359
#     4   9  17  32  54  79 111 152 196 248 304 358
#     4  12  26  45  68  94 128 171 212 261 316 373
#     4  11  22  38  59  89 125 166 215 264 314 371
#     4  10  20  31  45  70 104 145 195 251 303 361
#     4  11  23  43  70 103 134 164 204 252 310 377
#
# _framework density 20.922322999999999
#
# number of rings (size 3 to 8) (size 9 to 14) (size 15 to 20)
#    0.000    1.714    1.429    3.429    0.000    6.000 
#    0.000    4.286    0.000    0.429    0.000    3.000 
#    0.000    0.000    0.000    0.000    0.000    0.000 
#
# Total GULP energy -694495.687948 kJ/mol
# GULP energy per Si atom -12401.708713 kJ/mol
# Density = 2.087470 g / cm^3
# Si number density = 20.922323 Si / 1000 Ang^3
#
#
#
# Elastic Constant Matrix: (Units=GPa)
#
#
# Indices 1 2 3 4 5 6 
#
# 1 76.7590 22.3013 34.5834 0.0000 0.0000 0.0000
# 2 22.3013 94.6371 53.4237 0.0000 0.0000 0.0000
# 3 34.5834 53.4237 122.9402 0.0000 0.0000 0.0000
# 4 0.0000 0.0000 0.0000 32.8992 0.0000 0.0000
# 5 0.0000 0.0000 0.0000 0.0000 25.7273 0.0000
# 6 0.0000 0.0000 0.0000 0.0000 0.0000 5.5700
#
#
#
# Elastic Compliance Matrix: (Units=1/GPa)
#
#
# Indices 1 2 3 4 5 6 
#
# 1 0.015085 -0.001536 -0.003576 0.000000 0.000000 0.000000
# 2 -0.001536 0.014158 -0.005720 0.000000 0.000000 0.000000
# 3 -0.003576 -0.005720 0.011626 0.000000 0.000000 0.000000
# 4 0.000000 0.000000 0.000000 0.030396 0.000000 0.000000
# 5 0.000000 0.000000 0.000000 0.000000 0.038869 0.000000
# 6 0.000000 0.000000 0.000000 0.000000 0.000000 0.179533
#
#
# Mechanical properties :
#
#
# Convention : Reuss Voigt Hill
#
# Bulk Modulus (GPa) = 52.07221 57.21702 54.64462
# Shear Modulus (GPa) = 15.73651 25.10784 20.42217
#
# Velocity S-wave (km/s) = 2.74549 3.46793 3.12764
# Velocity P-wave (km/s) = 5.91546 6.59106 6.26238
#
# Compressibility (1/GPa) = 0.01920410
#
# Stress axis : x y z
#
# Youngs Moduli (GPa) = 66.28995 70.63268 86.01662
#
# Poissons Ratio (x) = 0.10850 0.30759
# Poissons Ratio (y) = 0.10183 0.49203
# Poissons Ratio (z) = 0.23705 0.40403
#
# Static dielectric constant tensor:
#      x y z
#    x 3.700960 0.000000 0.000000 
#    y 0.000000 3.759140 0.000000 
#    z 0.000000 0.000000 3.694270 
# 
# 
# High freq. dielectric constant tensor:
#      x y z
#    x 1.800980 0.000000 0.000000 
#    y 0.000000 1.819460 0.000000 
#    z 0.000000 0.000000 1.820850 
# 
# From -- ./inp_files/4045.got.cif
#   From: 2010.03.12/outbox.cif.g09.slc.cpg/sg49_3_cif.got.tgz:4045.got - 2010.04.14 03:58:27.
