data_PCOD8203333
_publ_section_title
;
Structure prediction by ZEFSAII (Michael W. Deem and Ramdas Pophale) SiO2 
 PCOD8203333
Probable space group: P C C M
;
_chemical_formula_sum "Si O2"
_cell_formula_units_Z 64
_cell_length_a 15.379202
_cell_length_b 23.779731
_cell_length_c 8.784995
_cell_angle_alpha 90.000000
_cell_angle_beta 90.000000
_cell_angle_gamma 90.000000
_cell_volume 3212.789394
_symmetry_space_group_name_H-M "P C C M"
_symmetry_group_IT_number 49
_symmetry_cell_setting 'orthorhombic'
loop_
_space_group_symop_operation_xyz
x,y,z
-x,-y,z
x,-y,1/2-z
-x,y,1/2-z
-x,-y,-z
x,y,-z
-x,y,1/2+z
x,-y,1/2+z
loop_
_atom_site_type_symbol
_atom_site_label
_atom_site_fract_x
_atom_site_fract_y
_atom_site_fract_z
Si Si1 0.090103 0.059941 0.320688
Si Si2 0.089358 0.325103 0.179659
Si Si3 0.591283 0.940102 0.819869
Si Si4 0.258963 0.129555 0.676156
Si Si5 0.357131 0.557485 0.320279
Si Si6 0.586728 0.328788 0.820152
Si Si7 0.156598 0.556663 0.678359
Si Si8 0.244922 0.739652 0.823095
O O1 0.077922 0.052964 0.500000
O O2 0.166078 0.103358 0.279124
O O3 0.000000 0.082892 0.250000
O O4 0.115177 0.000000 0.250000
O O5 0.107372 0.388306 0.241385
O O6 0.164775 0.282938 0.227059
O O7 0.000000 0.302698 0.250000
O O8 0.082538 0.325074 0.000000
O O9 0.500000 0.919147 0.750000
O O10 0.665744 0.895817 0.780317
O O11 0.618020 0.000000 0.750000
O O12 0.581565 0.945915 0.000000
O O13 0.280909 0.117483 0.500000
O O14 0.255480 0.195077 0.712117
O O15 0.395136 0.500000 0.250000
O O16 0.371136 0.558009 0.500000
O O17 0.407950 0.608603 0.245433
O O18 0.256555 0.563402 0.273275
O O19 0.500000 0.300563 0.750000
O O20 0.668336 0.291716 0.767002
O O21 0.579205 0.330833 0.000000
O O22 0.116042 0.500000 0.750000
O O23 0.146293 0.551291 0.500000
O O24 0.226803 0.728069 0.000000
#
# Coordination Sequence:
#
# PCOD8203333 Si02
#       8
#     8   8   8   8   8   8   8   8
#     4  10  20  35  58  86 121 156 191 237 286 341
#     4  11  23  40  61  87 117 154 198 245 298 355
#     4  11  22  38  62  92 126 163 200 244 296 350
#     4  10  22  40  61  88 121 157 200 248 296 351
#     4  10  19  35  58  86 117 148 187 234 292 354
#     4  11  23  39  61  86 114 152 194 240 294 352
#     4   9  19  34  56  84 115 149 185 234 291 353
#     4  10  23  43  63  85 117 156 199 248 298 347
#
# _framework density 19.920383999999999
#
# number of rings (size 3 to 8) (size 9 to 14) (size 15 to 20)
#    0.000    1.750    1.250    3.750    0.000    6.000 
#    0.000    5.000    0.000    0.000    0.000    0.000 
#    0.000    0.000    0.000    0.000    0.000    0.000 
#
# Total GULP energy -793886.090201 kJ/mol
# GULP energy per Si atom -12404.470159 kJ/mol
# Density = 1.987504 g / cm^3
# Si number density = 19.920384 Si / 1000 Ang^3
#
#
#
# Elastic Constant Matrix: (Units=GPa)
#
#
# Indices 1 2 3 4 5 6 
#
# 1 140.0394 69.0632 57.9413 0.0000 0.0000 0.0000
# 2 69.0632 112.2709 45.3693 0.0000 0.0000 0.0000
# 3 57.9413 45.3693 95.8491 0.0000 0.0000 0.0000
# 4 0.0000 0.0000 0.0000 26.4971 0.0000 0.0000
# 5 0.0000 0.0000 0.0000 0.0000 31.6810 0.0000
# 6 0.0000 0.0000 0.0000 0.0000 0.0000 -3.1861
#
#
#
# Elastic Compliance Matrix: (Units=1/GPa)
#
#
# Indices 1 2 3 4 5 6 
#
# 1 0.011639 -0.005337 -0.004509 0.000000 0.000000 0.000000
# 2 -0.005337 0.013461 -0.003145 0.000000 0.000000 0.000000
# 3 -0.004509 -0.003145 0.014648 0.000000 0.000000 0.000000
# 4 0.000000 0.000000 0.000000 0.037740 0.000000 0.000000
# 5 0.000000 0.000000 0.000000 0.000000 0.031565 0.000000
# 6 0.000000 0.000000 0.000000 0.000000 0.000000 -0.313859
#
#
# Mechanical properties :
#
#
# Convention : Reuss Voigt Hill
#
# Bulk Modulus (GPa) = 72.65386 76.98966 74.82176
# Shear Modulus (GPa) = -28.69704 22.71743 -2.98980
#
# Velocity S-wave (km/s) = -3.79962 3.38066 -1.22643
# Velocity P-wave (km/s) = 4.15954 7.34650 5.96963
#
# Compressibility (1/GPa) = 0.01376389
#
# Stress axis : x y z
#
# Youngs Moduli (GPa) = 85.91957 74.28694 68.26955
#
# Poissons Ratio (x) = 0.39649 0.30785
# Poissons Ratio (y) = 0.45858 0.21473
# Poissons Ratio (z) = 0.38744 0.23366
#
# Static dielectric constant tensor:
#      x y z
#    x 3.741180 0.000000 0.000000 
#    y 0.000000 3.634130 0.000000 
#    z 0.000000 0.000000 3.596740 
# 
# 
# High freq. dielectric constant tensor:
#      x y z
#    x 1.785710 0.000000 0.000000 
#    y 0.000000 1.773160 0.000000 
#    z 0.000000 0.000000 1.780150 
# 
# From -- ./inp_files/4342.got.cif
#   From: 2010.03.12/outbox.cif.g09.slc.cpg/sg49_3_cif.got.tgz:4342.got - 2010.04.14 03:58:27.
