data_PCOD8203870
_publ_section_title
;
Structure prediction by ZEFSAII (Michael W. Deem and Ramdas Pophale) SiO2 
 PCOD8203870
Probable space group: P C C M
;
_chemical_formula_sum "Si O2"
_cell_formula_units_Z 58
_cell_length_a 14.543627
_cell_length_b 25.164386
_cell_length_c 9.268315
_cell_angle_alpha 90.000000
_cell_angle_beta 90.000000
_cell_angle_gamma 90.000000
_cell_volume 3392.031304
_symmetry_space_group_name_H-M "P C C M"
_symmetry_group_IT_number 49
_symmetry_cell_setting 'orthorhombic'
loop_
_space_group_symop_operation_xyz
x,y,z
-x,-y,z
x,-y,1/2-z
-x,y,1/2-z
-x,-y,-z
x,y,-z
-x,y,1/2+z
x,-y,1/2+z
loop_
_atom_site_type_symbol
_atom_site_label
_atom_site_fract_x
_atom_site_fract_y
_atom_site_fract_z
Si Si1 0.596900 0.951991 0.669258
Si Si2 0.000000 0.500000 0.750000
Si Si3 0.594662 0.834652 0.333391
Si Si4 0.283082 0.263147 0.332921
Si Si5 0.855701 0.581779 0.661493
Si Si6 0.912566 0.698238 0.333952
Si Si7 0.321719 0.549811 0.665878
Si Si8 0.590935 0.660552 0.165947
O O1 0.500000 0.949951 0.750000
O O2 0.586691 0.965166 0.500000
O O3 0.639271 0.893232 0.693398
O O4 0.653591 0.000000 0.750000
O O5 0.063071 0.461527 0.653012
O O6 0.500000 0.824174 0.250000
O O7 0.568629 0.827966 0.500000
O O8 0.672558 0.792877 0.285271
O O9 0.304428 0.275940 0.500000
O O10 0.173724 0.262535 0.305537
O O11 0.322929 0.309943 0.235372
O O12 0.815186 0.588983 0.500000
O O13 0.891019 0.638499 0.720097
O O14 0.777462 0.562556 0.769185
O O15 0.939935 0.696977 0.500000
O O16 0.000000 0.721639 0.250000
O O17 0.365937 0.500000 0.750000
O O18 0.306142 0.534352 0.500000
O O19 0.392764 0.597928 0.682029
O O20 0.500000 0.678105 0.250000
O O21 0.580446 0.677589 0.000000
#
# Coordination Sequence:
#
# PCOD8203870 Si02
#       8
#     8   2   8   8   8   8   8   8
#     4   9  15  24  39  62  94 133 171 208 244 285
#     4  12  22  32  52  82 104 120 154 192 244 300
#     4   9  18  30  46  70 101 135 174 211 247 287
#     4  10  20  36  55  75 101 134 168 207 249 295
#     4  11  22  35  52  75 100 125 151 187 237 293
#     4  10  21  36  54  75  99 129 161 197 245 299
#     4  11  24  39  56  75  97 122 154 194 240 291
#     4  11  24  39  56  78 100 128 162 203 247 295
#
# _framework density 17.098897999999998
#
# number of rings (size 3 to 8) (size 9 to 14) (size 15 to 20)
#    0.000    1.793    2.759    2.276    0.000    5.793 
#    0.000    1.379    0.000    0.000    0.000    0.000 
#    0.000    0.552    0.000    6.897    0.000    0.000 
#
# Total GULP energy -719036.419067 kJ/mol
# GULP energy per Si atom -12397.179639 kJ/mol
# Density = 1.705998 g / cm^3
# Si number density = 17.098898 Si / 1000 Ang^3
#
#
#
# Elastic Constant Matrix: (Units=GPa)
#
#
# Indices 1 2 3 4 5 6 
#
# 1 71.3437 35.8753 35.0566 0.0000 0.0000 0.0000
# 2 35.8753 105.5216 41.4178 0.0000 0.0000 0.0000
# 3 35.0566 41.4178 95.6915 0.0000 0.0000 0.0000
# 4 0.0000 0.0000 0.0000 17.9415 0.0000 0.0000
# 5 0.0000 0.0000 0.0000 0.0000 22.1271 0.0000
# 6 0.0000 0.0000 0.0000 0.0000 0.0000 12.1917
#
#
#
# Elastic Compliance Matrix: (Units=1/GPa)
#
#
# Indices 1 2 3 4 5 6 
#
# 1 0.018654 -0.004409 -0.004926 0.000000 0.000000 0.000000
# 2 -0.004409 0.012458 -0.003777 0.000000 0.000000 0.000000
# 3 -0.004926 -0.003777 0.013890 0.000000 0.000000 0.000000
# 4 0.000000 0.000000 0.000000 0.055737 0.000000 0.000000
# 5 0.000000 0.000000 0.000000 0.000000 0.045193 0.000000
# 6 0.000000 0.000000 0.000000 0.000000 0.000000 0.082023
#
#
# Mechanical properties :
#
#
# Convention : Reuss Voigt Hill
#
# Bulk Modulus (GPa) = 53.25155 55.25070 54.25112
# Shear Modulus (GPa) = 19.19848 21.13253 20.16551
#
# Velocity S-wave (km/s) = 3.35444 3.51935 3.43789
# Velocity P-wave (km/s) = 6.79808 6.99264 6.89605
#
# Compressibility (1/GPa) = 0.01877880
#
# Stress axis : x y z
#
# Youngs Moduli (GPa) = 53.60807 80.26904 71.99627
#
# Poissons Ratio (x) = 0.35387 0.35463
# Poissons Ratio (y) = 0.23634 0.27194
# Poissons Ratio (z) = 0.26406 0.30318
#
# Static dielectric constant tensor:
#      x y z
#    x 2.947090 0.000000 0.000000 
#    y 0.000000 3.877670 0.000000 
#    z 0.000000 0.000000 3.267910 
# 
# 
# High freq. dielectric constant tensor:
#      x y z
#    x 1.626740 0.000000 0.000000 
#    y 0.000000 1.654130 0.000000 
#    z 0.000000 0.000000 1.669010 
# 
# From -- ./inp_files/4451.got.cif
#   From: 2010.03.12/outbox.cif.g09.slc.cpg/sg49_3_cif.got.tgz:4451.got - 2010.04.14 03:58:27.
