data_PCOD8203288
_publ_section_title
;
Structure prediction by ZEFSAII (Michael W. Deem and Ramdas Pophale) SiO2 
 PCOD8203288
Probable space group: P C C M
;
_chemical_formula_sum "Si O2"
_cell_formula_units_Z 64
_cell_length_a 25.277582
_cell_length_b 14.362578
_cell_length_c 8.874146
_cell_angle_alpha 90.000000
_cell_angle_beta 90.000000
_cell_angle_gamma 90.000000
_cell_volume 3221.769737
_symmetry_space_group_name_H-M "P C C M"
_symmetry_group_IT_number 49
_symmetry_cell_setting 'orthorhombic'
loop_
_space_group_symop_operation_xyz
x,y,z
-x,-y,z
x,-y,1/2-z
-x,y,1/2-z
-x,-y,-z
x,y,-z
-x,y,1/2+z
x,-y,1/2+z
loop_
_atom_site_type_symbol
_atom_site_label
_atom_site_fract_x
_atom_site_fract_y
_atom_site_fract_z
Si Si1 0.556940 0.587388 0.825396
Si Si2 0.251229 0.223215 0.675236
Si Si3 0.150905 0.900315 0.178838
Si Si4 0.055521 0.210168 0.179546
Si Si5 0.779313 0.593676 0.822867
Si Si6 0.649690 0.097404 0.177278
Si Si7 0.099798 0.593274 0.323344
Si Si8 0.442727 0.793001 0.323666
O O1 0.589113 0.500000 0.750000
O O2 0.500000 0.590664 0.750000
O O3 0.582363 0.689301 0.797748
O O4 0.551065 0.565838 0.000000
O O5 0.249031 0.247452 0.500000
O O6 0.199983 0.164639 0.723804
O O7 0.254240 0.318779 0.767194
O O8 0.303543 0.167494 0.719115
O O9 0.098412 0.858859 0.252095
O O10 0.162555 0.000000 0.250000
O O11 0.143964 0.909031 0.000000
O O12 0.067365 0.316388 0.229529
O O13 0.000000 0.179969 0.250000
O O14 0.055011 0.199591 0.000000
O O15 0.755661 0.500000 0.750000
O O16 0.839894 0.607094 0.769262
O O17 0.774224 0.585251 0.000000
O O18 0.594989 0.132574 0.246487
O O19 0.665348 0.000000 0.250000
O O20 0.642934 0.085265 0.000000
O O21 0.075166 0.500000 0.250000
O O22 0.096726 0.579899 0.500000
O O23 0.500000 0.802418 0.250000
O O24 0.447954 0.814950 0.500000
#
# Coordination Sequence:
#
# PCOD8203288 Si02
#       8
#     8   8   8   8   8   8   8   8
#     4   9  16  27  48  78 112 148 189 233 279 331
#     4  10  22  40  63  91 121 154 194 240 294 352
#     4  11  23  40  63  88 114 149 192 243 298 356
#     4  11  23  40  58  84 118 154 198 244 296 351
#     4  10  19  34  59  90 122 158 196 239 290 348
#     4  11  24  42  63  89 120 154 195 246 299 353
#     4   9  19  34  55  83 116 153 193 237 286 344
#     4  10  21  38  60  88 121 160 203 246 295 351
#
# _framework density 19.864858000000002
#
# number of rings (size 3 to 8) (size 9 to 14) (size 15 to 20)
#    0.000    1.875    1.250    3.000    0.000    5.250 
#    0.000    4.375    0.000    1.500    0.000    0.000 
#    0.000    0.000    0.000    0.000    0.000    0.000 
#
# Total GULP energy -793662.689778 kJ/mol
# GULP energy per Si atom -12400.979528 kJ/mol
# Density = 1.981964 g / cm^3
# Si number density = 19.864858 Si / 1000 Ang^3
#
#
#
# Elastic Constant Matrix: (Units=GPa)
#
#
# Indices 1 2 3 4 5 6 
#
# 1 91.8777 48.9269 44.6184 0.0000 0.0000 0.0000
# 2 48.9269 137.8754 65.3924 0.0000 0.0000 0.0000
# 3 44.6184 65.3924 102.0904 0.0000 0.0000 0.0000
# 4 0.0000 0.0000 0.0000 41.8518 0.0000 0.0000
# 5 0.0000 0.0000 0.0000 0.0000 19.9929 0.0000
# 6 0.0000 0.0000 0.0000 0.0000 0.0000 9.9133
#
#
#
# Elastic Compliance Matrix: (Units=1/GPa)
#
#
# Indices 1 2 3 4 5 6 
#
# 1 0.014692 -0.003114 -0.004426 0.000000 0.000000 0.000000
# 2 -0.003114 0.011078 -0.005735 0.000000 0.000000 0.000000
# 3 -0.004426 -0.005735 0.015403 0.000000 0.000000 0.000000
# 4 0.000000 0.000000 0.000000 0.023894 0.000000 0.000000
# 5 0.000000 0.000000 0.000000 0.000000 0.050018 0.000000
# 6 0.000000 0.000000 0.000000 0.000000 0.000000 0.100874
#
#
# Mechanical properties :
#
#
# Convention : Reuss Voigt Hill
#
# Bulk Modulus (GPa) = 68.38841 72.19099 70.28970
# Shear Modulus (GPa) = 20.21150 25.87864 23.04507
#
# Velocity S-wave (km/s) = 3.19321 3.61326 3.40971
# Velocity P-wave (km/s) = 6.93520 7.33672 7.13878
#
# Compressibility (1/GPa) = 0.01462236
#
# Stress axis : x y z
#
# Youngs Moduli (GPa) = 68.06420 90.26914 64.92235
#
# Poissons Ratio (x) = 0.28113 0.28736
# Poissons Ratio (y) = 0.21197 0.37231
# Poissons Ratio (z) = 0.30127 0.51767
#
# Static dielectric constant tensor:
#      x y z
#    x 3.390630 0.000000 0.000000 
#    y 0.000000 4.062490 0.000000 
#    z 0.000000 0.000000 3.637390 
# 
# 
# High freq. dielectric constant tensor:
#      x y z
#    x 1.752460 0.000000 0.000000 
#    y 0.000000 1.791420 0.000000 
#    z 0.000000 0.000000 1.784130 
# 
# From -- ./inp_files/6481.got.cif
#   From: 2010.03.12/outbox.cif.g09.slc.cpg/sg49_4_cif.got.tgz:6481.got - 2010.04.14 03:58:27.
