data_PCOD8203753
_publ_section_title
;
Structure prediction by ZEFSAII (Michael W. Deem and Ramdas Pophale) SiO2 
 PCOD8203753
Probable space group: P C C M
;
_chemical_formula_sum "Si O2"
_cell_formula_units_Z 64
_cell_length_a 20.207895
_cell_length_b 19.892725
_cell_length_c 8.709685
_cell_angle_alpha 90.000000
_cell_angle_beta 90.000000
_cell_angle_gamma 90.000000
_cell_volume 3501.207127
_symmetry_space_group_name_H-M "P C C M"
_symmetry_group_IT_number 49
_symmetry_cell_setting 'orthorhombic'
loop_
_space_group_symop_operation_xyz
x,y,z
-x,-y,z
x,-y,1/2-z
-x,y,1/2-z
-x,-y,-z
x,y,-z
-x,y,1/2+z
x,-y,1/2+z
loop_
_atom_site_type_symbol
_atom_site_label
_atom_site_fract_x
_atom_site_fract_y
_atom_site_fract_z
Si Si1 0.431542 0.827561 0.319017
Si Si2 0.318490 0.071256 0.182833
Si Si3 0.822762 0.071708 0.182472
Si Si4 0.431246 0.675641 0.318272
Si Si5 0.174945 0.570295 0.318178
Si Si6 0.931144 0.676289 0.180238
Si Si7 0.929984 0.830358 0.181856
Si Si8 0.675630 0.429834 0.681687
O O1 0.500000 0.855225 0.250000
O O2 0.437964 0.830278 0.500000
O O3 0.371659 0.873972 0.262166
O O4 0.417635 0.751673 0.261362
O O5 0.248472 0.093105 0.252746
O O6 0.341510 0.000000 0.250000
O O7 0.312279 0.066752 0.000000
O O8 0.873947 0.127403 0.235477
O O9 0.844842 0.000000 0.250000
O O10 0.820092 0.066870 0.000000
O O11 0.500000 0.648432 0.250000
O O12 0.435914 0.672354 0.500000
O O13 0.371662 0.629324 0.256389
O O14 0.149507 0.500000 0.250000
O O15 0.171817 0.565500 0.500000
O O16 0.128075 0.629846 0.255696
O O17 0.249686 0.585699 0.262089
O O18 0.916302 0.753030 0.226571
O O19 0.000000 0.650912 0.250000
O O20 0.937345 0.668943 0.000000
O O21 0.000000 0.853940 0.250000
O O22 0.928804 0.842419 0.000000
O O23 0.650168 0.500000 0.750000
O O24 0.672463 0.434808 0.500000
#
# Coordination Sequence:
#
# PCOD8203753 Si02
#       8
#     8   8   8   8   8   8   8   8
#     4   9  19  34  53  75 101 133 170 209 253 301
#     4  10  20  35  54  77 104 136 171 210 254 302
#     4  11  22  37  56  79 106 137 172 212 256 305
#     4   9  18  33  51  72  97 128 163 203 246 294
#     4   9  18  33  51  73  99 132 169 208 251 297
#     4   9  19  34  53  75 102 134 168 206 251 299
#     4  10  20  36  56  79 106 137 172 213 257 306
#     4   9  18  32  50  70  96 127 163 203 245 292
#
# _framework density 18.279409999999999
#
# number of rings (size 3 to 8) (size 9 to 14) (size 15 to 20)
#    0.000    2.500    0.000    2.625    0.000    4.500 
#    0.000    8.750    0.000    3.000    0.000    0.000 
#    0.000    0.000    0.000    0.000    0.000    0.000 
#
# Total GULP energy -793677.503693 kJ/mol
# GULP energy per Si atom -12401.210995 kJ/mol
# Density = 1.823781 g / cm^3
# Si number density = 18.279410 Si / 1000 Ang^3
#
#
#
# Elastic Constant Matrix: (Units=GPa)
#
#
# Indices 1 2 3 4 5 6 
#
# 1 147.4942 103.8166 40.5761 0.0000 0.0000 0.0000
# 2 103.8166 120.1080 35.6656 0.0000 0.0000 0.0000
# 3 40.5761 35.6656 54.0696 0.0000 0.0000 0.0000
# 4 0.0000 0.0000 0.0000 26.7084 0.0000 0.0000
# 5 0.0000 0.0000 0.0000 0.0000 31.4158 0.0000
# 6 0.0000 0.0000 0.0000 0.0000 0.0000 45.2621
#
#
#
# Elastic Compliance Matrix: (Units=1/GPa)
#
#
# Indices 1 2 3 4 5 6 
#
# 1 0.017994 -0.014355 -0.004034 0.000000 0.000000 0.000000
# 2 -0.014355 0.021806 -0.003611 0.000000 0.000000 0.000000
# 3 -0.004034 -0.003611 0.023904 0.000000 0.000000 0.000000
# 4 0.000000 0.000000 0.000000 0.037441 0.000000 0.000000
# 5 0.000000 0.000000 0.000000 0.000000 0.031831 0.000000
# 6 0.000000 0.000000 0.000000 0.000000 0.000000 0.022094
#
#
# Mechanical properties :
#
#
# Convention : Reuss Voigt Hill
#
# Bulk Modulus (GPa) = 50.75384 75.75426 63.25405
# Shear Modulus (GPa) = 24.31432 30.11817 27.21624
#
# Velocity S-wave (km/s) = 3.65108 4.06354 3.86281
# Velocity P-wave (km/s) = 6.75275 7.97175 7.38744
#
# Compressibility (1/GPa) = 0.01970294
#
# Stress axis : x y z
#
# Youngs Moduli (GPa) = 55.57367 45.85813 41.83362
#
# Poissons Ratio (x) = 0.65831 0.16877
# Poissons Ratio (y) = 0.79778 0.15107
# Poissons Ratio (z) = 0.22421 0.16560
#
# Static dielectric constant tensor:
#      x y z
#    x 3.582060 0.000000 0.000000 
#    y 0.000000 3.543900 0.000000 
#    z 0.000000 0.000000 3.303670 
# 
# 
# High freq. dielectric constant tensor:
#      x y z
#    x 1.714280 0.000000 0.000000 
#    y 0.000000 1.709410 0.000000 
#    z 0.000000 0.000000 1.706340 
# 
# From -- ./inp_files/5954.got.cif
#   From: 2010.03.12/outbox.cif.g09.slc.cpg/sg49_3_cif.got.tgz:5954.got - 2010.04.14 03:58:27.
