data_PCOD8203591
_publ_section_title
;
Structure prediction by ZEFSAII (Michael W. Deem and Ramdas Pophale) SiO2 
 PCOD8203591
Probable space group: P C C M
;
_chemical_formula_sum "Si O2"
_cell_formula_units_Z 40
_cell_length_a 18.584606
_cell_length_b 13.586934
_cell_length_c 10.142925
_cell_angle_alpha 90.000000
_cell_angle_beta 90.000000
_cell_angle_gamma 90.000000
_cell_volume 2561.167831
_symmetry_space_group_name_H-M "P C C M"
_symmetry_group_IT_number 49
_symmetry_cell_setting 'orthorhombic'
loop_
_space_group_symop_operation_xyz
x,y,z
-x,-y,z
x,-y,1/2-z
-x,y,1/2-z
-x,-y,-z
x,y,-z
-x,y,1/2+z
x,-y,1/2+z
loop_
_atom_site_type_symbol
_atom_site_label
_atom_site_fract_x
_atom_site_fract_y
_atom_site_fract_z
Si Si1 0.336148 0.383363 0.737496
Si Si2 0.591946 0.617389 0.000000
Si Si3 0.087294 0.123135 0.000000
Si Si4 0.916744 0.096546 0.000000
Si Si5 0.914955 0.228678 0.238633
Si Si6 0.429471 0.383057 0.500000
Si Si7 0.180733 0.594768 0.157713
O O1 0.339160 0.500000 0.750000
O O2 0.362446 0.340853 0.877117
O O3 0.391228 0.341082 0.629841
O O4 0.255796 0.351889 0.695362
O O5 0.510611 0.657763 0.000000
O O6 0.581436 0.500299 0.000000
O O7 0.114659 0.186072 0.124095
O O8 0.002570 0.103255 0.000000
O O9 0.118320 0.012239 0.000000
O O10 0.889147 0.150767 0.130092
O O11 0.883509 0.333748 0.198555
O O12 0.000000 0.242538 0.250000
O O13 0.170559 0.500000 0.250000
O O14 0.178773 0.568988 0.000000
#
# Coordination Sequence:
#
# PCOD8203591 Si02
#       7
#     8   4   4   4   8   4   8
#     4   9  17  27  41  58  82 115 153 190 230 272
#     4   9  16  23  40  60  83 104 142 196 233 270
#     4   9  18  29  53  77  93 116 139 183 240 301
#     4   9  16  33  51  73  99 114 139 181 242 295
#     4  10  20  34  51  72  94 118 156 198 234 278
#     4   9  14  25  38  60  81 108 144 188 237 268
#     4  11  23  36  49  62  89 129 168 204 235 270
#
# _framework density 15.617874
#
# number of rings (size 3 to 8) (size 9 to 14) (size 15 to 20)
#    0.000    2.400    2.000    1.200    5.600    5.200 
#    0.000    1.000    0.000    0.000    0.000    0.000 
#    0.000    0.000    0.000    0.000    0.000   70.000 
#
# Total GULP energy -495691.906534 kJ/mol
# GULP energy per Si atom -12392.297663 kJ/mol
# Density = 1.558233 g / cm^3
# Si number density = 15.617874 Si / 1000 Ang^3
#
#
#
# Elastic Constant Matrix: (Units=GPa)
#
#
# Indices 1 2 3 4 5 6 
#
# 1 57.2907 27.3463 43.6829 0.0000 0.0000 0.0000
# 2 27.3463 55.0448 41.8280 0.0000 0.0000 0.0000
# 3 43.6829 41.8280 164.8521 0.0000 0.0000 0.0000
# 4 0.0000 0.0000 0.0000 18.3810 0.0000 0.0000
# 5 0.0000 0.0000 0.0000 0.0000 1.9295 0.0000
# 6 0.0000 0.0000 0.0000 0.0000 0.0000 0.9606
#
#
#
# Elastic Compliance Matrix: (Units=1/GPa)
#
#
# Indices 1 2 3 4 5 6 
#
# 1 0.025149 -0.009205 -0.004328 0.000000 0.000000 0.000000
# 2 -0.009205 0.025876 -0.004126 0.000000 0.000000 0.000000
# 3 -0.004328 -0.004126 0.008260 0.000000 0.000000 0.000000
# 4 0.000000 0.000000 0.000000 0.054404 0.000000 0.000000
# 5 0.000000 0.000000 0.000000 0.000000 0.518276 0.000000
# 6 0.000000 0.000000 0.000000 0.000000 0.000000 1.040986
#
#
# Mechanical properties :
#
#
# Convention : Reuss Voigt Hill
#
# Bulk Modulus (GPa) = 41.72713 55.87800 48.80256
# Shear Modulus (GPa) = 2.91331 15.20957 9.06144
#
# Velocity S-wave (km/s) = 1.36727 3.12405 2.41134
# Velocity P-wave (km/s) = 5.41000 6.99063 6.25048
#
# Compressibility (1/GPa) = 0.02396523
#
# Stress axis : x y z
#
# Youngs Moduli (GPa) = 39.76316 38.64659 121.06571
#
# Poissons Ratio (x) = 0.35573 0.52403
# Poissons Ratio (y) = 0.36601 0.49955
# Poissons Ratio (z) = 0.17211 0.15947
#
# Static dielectric constant tensor:
#      x y z
#    x 2.941550 0.000000 0.000000 
#    y 0.000000 2.550680 0.000000 
#    z 0.000000 0.000000 3.386360 
# 
# 
# High freq. dielectric constant tensor:
#      x y z
#    x 1.581160 0.000000 0.000000 
#    y 0.000000 1.538060 0.000000 
#    z 0.000000 0.000000 1.628600 
# 
# From -- ./inp_files/2823.got.cif
#   From: 2010.03.12/outbox.cif.g09.slc.cpg/sg49_2_cif.got.tgz:2823.got - 2010.04.14 03:58:27.
