data_PCOD8203095
_publ_section_title
;
Structure prediction by ZEFSAII (Michael W. Deem and Ramdas Pophale) SiO2 
 PCOD8203095
Probable space group: P C C M
;
_chemical_formula_sum "Si O2"
_cell_formula_units_Z 56
_cell_length_a 19.486590
_cell_length_b 16.001226
_cell_length_c 8.701160
_cell_angle_alpha 90.000000
_cell_angle_beta 90.000000
_cell_angle_gamma 90.000000
_cell_volume 2713.102875
_symmetry_space_group_name_H-M "P C C M"
_symmetry_group_IT_number 49
_symmetry_cell_setting 'orthorhombic'
loop_
_space_group_symop_operation_xyz
x,y,z
-x,-y,z
x,-y,1/2-z
-x,y,1/2-z
-x,-y,-z
x,y,-z
-x,y,1/2+z
x,-y,1/2+z
loop_
_atom_site_type_symbol
_atom_site_label
_atom_site_fract_x
_atom_site_fract_y
_atom_site_fract_z
Si Si1 0.714720 0.155425 0.680244
Si Si2 0.852260 0.412102 0.682073
Si Si3 0.568455 0.408114 0.683481
Si Si4 0.074940 0.249866 0.682947
Si Si5 0.431827 0.909304 0.680082
Si Si6 0.156558 0.914329 0.819964
Si Si7 0.288904 0.340071 0.819049
O O1 0.727567 0.141625 0.500000
O O2 0.635314 0.142943 0.723851
O O3 0.763676 0.092089 0.771101
O O4 0.733135 0.248412 0.737681
O O5 0.879205 0.500000 0.750000
O O6 0.862887 0.411530 0.500000
O O7 0.893983 0.335449 0.752353
O O8 0.771901 0.403090 0.728662
O O9 0.569403 0.500000 0.750000
O O10 0.500000 0.362176 0.750000
O O11 0.565910 0.408458 0.500000
O O12 0.637418 0.365340 0.750416
O O13 0.073315 0.255511 0.500000
O O14 0.117017 0.168254 0.740223
O O15 0.000000 0.238465 0.750000
O O16 0.500000 0.865377 0.750000
O O17 0.441746 0.916721 0.500000
O O18 0.422608 0.000000 0.750000
O O19 0.125241 0.000000 0.750000
O O20 0.149959 0.921940 0.000000
O O21 0.298164 0.337510 0.000000
#
# Coordination Sequence:
#
# PCOD8203095 Si02
#       7
#     8   8   8   8   8   8   8
#     4  10  20  37  59  84 116 156 202 252 308 367
#     4  11  22  40  67  95 128 168 208 256 309 365
#     4  10  19  33  51  75 108 149 198 249 304 362
#     4  11  25  45  68  98 131 164 205 250 301 363
#     4  10  20  33  52  75 107 148 195 249 302 363
#     4  11  24  41  65  96 128 164 207 254 303 365
#     4   9  19  35  57  83 115 156 199 248 307 364
#
# _framework density 20.640573
#
# number of rings (size 3 to 8) (size 9 to 14) (size 15 to 20)
#    0.000    1.714    1.429    3.857    0.000    5.143 
#    0.000    6.429    0.000    0.000    0.000    0.000 
#    0.000    0.000    0.000    0.000    0.000    0.000 
#
# Total GULP energy -694284.107671 kJ/mol
# GULP energy per Si atom -12397.930494 kJ/mol
# Density = 2.059359 g / cm^3
# Si number density = 20.640573 Si / 1000 Ang^3
#
#
#
# Elastic Constant Matrix: (Units=GPa)
#
#
# Indices 1 2 3 4 5 6 
#
# 1 122.9766 55.7937 47.9185 0.0000 0.0000 0.0000
# 2 55.7937 137.9429 41.0587 0.0000 0.0000 0.0000
# 3 47.9185 41.0587 78.0076 0.0000 0.0000 0.0000
# 4 0.0000 0.0000 0.0000 27.1352 0.0000 0.0000
# 5 0.0000 0.0000 0.0000 0.0000 24.3119 0.0000
# 6 0.0000 0.0000 0.0000 0.0000 0.0000 28.9452
#
#
#
# Elastic Compliance Matrix: (Units=1/GPa)
#
#
# Indices 1 2 3 4 5 6 
#
# 1 0.011695 -0.003073 -0.005566 0.000000 0.000000 0.000000
# 2 -0.003073 0.009404 -0.003062 0.000000 0.000000 0.000000
# 3 -0.005566 -0.003062 0.017850 0.000000 0.000000 0.000000
# 4 0.000000 0.000000 0.000000 0.036853 0.000000 0.000000
# 5 0.000000 0.000000 0.000000 0.000000 0.041132 0.000000
# 6 0.000000 0.000000 0.000000 0.000000 0.000000 0.034548
#
#
# Mechanical properties :
#
#
# Convention : Reuss Voigt Hill
#
# Bulk Modulus (GPa) = 64.32538 69.82988 67.07763
# Shear Modulus (GPa) = 27.76753 29.02218 28.39485
#
# Velocity S-wave (km/s) = 3.67180 3.75383 3.71304
# Velocity P-wave (km/s) = 7.01486 7.25901 7.13798
#
# Compressibility (1/GPa) = 0.01554596
#
# Stress axis : x y z
#
# Youngs Moduli (GPa) = 85.50675 106.34003 56.02236
#
# Poissons Ratio (x) = 0.32683 0.31184
# Poissons Ratio (y) = 0.26280 0.17152
# Poissons Ratio (z) = 0.47596 0.32558
#
# Static dielectric constant tensor:
#      x y z
#    x 2.754490 0.000000 0.000000 
#    y 0.000000 3.851760 0.000000 
#    z 0.000000 0.000000 3.608070 
# 
# 
# High freq. dielectric constant tensor:
#      x y z
#    x 1.817360 0.000000 0.000000 
#    y 0.000000 1.809640 0.000000 
#    z 0.000000 0.000000 1.797710 
# 
# From -- ./inp_files/5807.got.cif
#   From: 2010.03.12/outbox.cif.g09.slc.cpg/sg49_3_cif.got.tgz:5807.got - 2010.04.14 03:58:27.
