data_PCOD8203688
_publ_section_title
;
Structure prediction by ZEFSAII (Michael W. Deem and Ramdas Pophale) SiO2 
 PCOD8203688
Probable space group: P C C M
;
_chemical_formula_sum "Si O2"
_cell_formula_units_Z 64
_cell_length_a 25.955882
_cell_length_b 7.633735
_cell_length_c 15.572474
_cell_angle_alpha 90.000000
_cell_angle_beta 90.000000
_cell_angle_gamma 90.000000
_cell_volume 3085.535058
_symmetry_space_group_name_H-M "P C C M"
_symmetry_group_IT_number 49
_symmetry_cell_setting 'orthorhombic'
loop_
_space_group_symop_operation_xyz
x,y,z
-x,-y,z
x,-y,1/2-z
-x,y,1/2-z
-x,-y,-z
x,y,-z
-x,y,1/2+z
x,-y,1/2+z
loop_
_atom_site_type_symbol
_atom_site_label
_atom_site_fract_x
_atom_site_fract_y
_atom_site_fract_z
Si Si1 0.325239 0.289408 0.750000
Si Si2 0.134970 0.296503 0.099532
Si Si3 0.389399 0.702205 0.407474
Si Si4 0.943359 0.999999 0.100601
Si Si5 0.134971 0.703501 0.099532
Si Si6 0.389399 0.702205 0.092526
Si Si7 0.789706 0.705303 0.750000
Si Si8 0.500000 0.206809 0.846576
O O1 0.326494 0.500000 0.750000
O O2 0.355176 0.210428 0.832588
O O3 0.355175 0.210428 0.667411
O O4 0.267334 0.212096 0.750001
O O5 0.119838 0.500002 0.113627
O O6 0.181170 0.237939 0.162587
O O7 0.086674 0.176830 0.127223
O O8 0.151222 0.262826 0.000000
O O9 0.375346 0.787534 0.500000
O O10 0.375012 0.500001 0.410027
O O11 0.449994 0.721524 0.393484
O O12 0.913325 0.176825 0.127225
O O13 0.950676 0.000003 0.000000
O O14 0.000000 0.000000 0.144770
O O15 0.181171 0.762062 0.162586
O O16 0.151222 0.737178 0.000000
O O17 0.449993 0.721524 0.106517
O O18 0.375346 0.787534 0.000000
O O19 0.783497 0.500000 0.750000
O O20 0.500000 0.279376 0.750000
O O21 0.500000 0.000000 0.849222
#
# Coordination Sequence:
#
# PCOD8203688 Si02
#       8
#     8   8   8   8   8   8   8   8
#     4   9  18  33  53  78 106 132 166 221 267 306
#     4   9  18  33  54  79 109 145 184 226 271 323
#     4  10  20  34  55  81 104 132 172 214 262 319
#     4   9  18  33  55  83 114 147 185 226 271 326
#     4   9  18  33  54  79 109 145 184 226 271 323
#     4  10  20  34  55  81 104 132 172 214 262 319
#     4   9  18  33  54  79 104 136 179 220 267 321
#     4  11  22  35  54  75 103 142 175 208 259 323
#
# _framework density 20.741945000000001
#
# number of rings (size 3 to 8) (size 9 to 14) (size 15 to 20)
#    0.000    2.500    1.250    0.750    0.000    4.500 
#    0.000    8.750    5.500    2.250    0.000    0.000 
#    0.000    0.000    0.000    0.000    0.000    0.000 
#
# Total GULP energy -793219.722239 kJ/mol
# GULP energy per Si atom -12394.058160 kJ/mol
# Density = 2.069474 g / cm^3
# Si number density = 20.741945 Si / 1000 Ang^3
#
#
#
# Elastic Constant Matrix: (Units=GPa)
#
#
# Indices 1 2 3 4 5 6 
#
# 1 190.5785 29.4961 92.0368 0.0000 0.0000 0.0000
# 2 29.4961 52.0803 24.1620 0.0000 0.0000 0.0000
# 3 92.0368 24.1620 176.0824 0.0000 0.0000 0.0000
# 4 0.0000 0.0000 0.0000 8.0220 0.0000 0.0000
# 5 0.0000 0.0000 0.0000 0.0000 20.9625 0.0000
# 6 0.0000 0.0000 0.0000 0.0000 0.0000 -107.0202
#
#
#
# Elastic Compliance Matrix: (Units=1/GPa)
#
#
# Indices 1 2 3 4 5 6 
#
# 1 0.007319 -0.002531 -0.003478 0.000000 0.000000 0.000000
# 2 -0.002531 0.021382 -0.001611 0.000000 0.000000 0.000000
# 3 -0.003478 -0.001611 0.007718 0.000000 0.000000 0.000000
# 4 0.000000 0.000000 0.000000 0.124657 0.000000 0.000000
# 5 0.000000 0.000000 0.000000 0.000000 0.047704 0.000000
# 6 0.000000 0.000000 0.000000 0.000000 0.000000 -0.009344
#
#
# Mechanical properties :
#
#
# Convention : Reuss Voigt Hill
#
# Bulk Modulus (GPa) = 47.21821 78.90343 63.06082
# Shear Modulus (GPa) = 22.54934 2.59596 12.57265
#
# Velocity S-wave (km/s) = 3.30075 1.11994 2.46467
# Velocity P-wave (km/s) = 6.11070 6.30836 6.21032
#
# Compressibility (1/GPa) = 0.02117827
#
# Stress axis : x y z
#
# Youngs Moduli (GPa) = 136.63775 46.76798 129.56483
#
# Poissons Ratio (x) = 0.11839 0.45063
# Poissons Ratio (y) = 0.34588 0.20872
# Poissons Ratio (z) = 0.47523 0.07534
#
# Static dielectric constant tensor:
#      x y z
#    x 3.922450 0.000000 0.000000 
#    y 0.000000 3.508630 0.000000 
#    z 0.000000 0.000000 4.129870 
# 
# 
# High freq. dielectric constant tensor:
#      x y z
#    x 1.798090 0.000000 0.000000 
#    y 0.000000 1.793410 0.000000 
#    z 0.000000 0.000000 1.822160 
# 
# From -- ./inp_files/14537.got.cif
#   From: 2010.03.12/outbox.cif.g09.slc.cpg/sg49_8_cif.got.tgz:14537.got - 2010.04.14 03:58:27.
