data_PCOD8203650
_publ_section_title
;
Structure prediction by ZEFSAII (Michael W. Deem and Ramdas Pophale) SiO2 
 PCOD8203650
Probable space group: P C C M
;
_chemical_formula_sum "Si O2"
_cell_formula_units_Z 40
_cell_length_a 9.229853
_cell_length_b 25.852811
_cell_length_c 8.821835
_cell_angle_alpha 90.000000
_cell_angle_beta 90.000000
_cell_angle_gamma 90.000000
_cell_volume 2105.045494
_symmetry_space_group_name_H-M "P C C M"
_symmetry_group_IT_number 49
_symmetry_cell_setting 'orthorhombic'
loop_
_space_group_symop_operation_xyz
x,y,z
-x,-y,z
x,-y,1/2-z
-x,y,1/2-z
-x,-y,-z
x,y,-z
-x,y,1/2+z
x,-y,1/2+z
loop_
_atom_site_type_symbol
_atom_site_label
_atom_site_fract_x
_atom_site_fract_y
_atom_site_fract_z
Si Si1 0.844064 0.548638 0.174844
Si Si2 0.843939 0.849478 0.678073
Si Si3 0.157912 0.336688 0.177274
Si Si4 0.655010 0.946421 0.319776
Si Si5 0.343286 0.751934 0.179763
O O1 0.755749 0.500000 0.250000
O O2 0.775726 0.605441 0.201174
O O3 0.000000 0.550577 0.250000
O O4 0.860366 0.536100 0.000000
O O5 0.862870 0.848118 0.500000
O O6 0.766178 0.902089 0.730145
O O7 0.750746 0.800794 0.733971
O O8 0.000000 0.846118 0.750000
O O9 0.271153 0.299846 0.258331
O O10 0.000000 0.329916 0.250000
O O11 0.144486 0.323267 0.000000
O O12 0.500000 0.932264 0.250000
O O13 0.640057 0.951291 0.500000
O O14 0.713726 0.000000 0.250000
O O15 0.500000 0.758881 0.250000
O O16 0.356108 0.748661 0.000000
#
# Coordination Sequence:
#
# PCOD8203650 Si02
#       5
#     8   8   8   8   8
#     4   9  16  26  44  71 104 138 174 215 262 312
#     4  10  23  39  57  82 111 142 179 222 270 319
#     4  10  20  34  53  80 111 143 179 223 270 319
#     4  10  20  36  57  83 112 145 183 221 263 314
#     4  11  23  39  58  80 106 141 181 223 272 327
#
# _framework density 19.001965999999999
#
# number of rings (size 3 to 8) (size 9 to 14) (size 15 to 20)
#    0.000    2.000    0.000    4.800    0.000    7.600 
#    0.000    2.000    0.000    0.600    0.000    4.200 
#    0.000    0.000    0.000    0.000    0.000    0.000 
#
# Total GULP energy -495896.036460 kJ/mol
# GULP energy per Si atom -12397.400912 kJ/mol
# Density = 1.895872 g / cm^3
# Si number density = 19.001966 Si / 1000 Ang^3
#
#
#
# Elastic Constant Matrix: (Units=GPa)
#
#
# Indices 1 2 3 4 5 6 
#
# 1 120.4860 88.5119 50.8835 0.0000 0.0000 0.0000
# 2 88.5119 178.4350 72.1078 0.0000 0.0000 0.0000
# 3 50.8835 72.1078 103.1685 0.0000 0.0000 0.0000
# 4 0.0000 0.0000 0.0000 33.7767 0.0000 0.0000
# 5 0.0000 0.0000 0.0000 0.0000 31.9077 0.0000
# 6 0.0000 0.0000 0.0000 0.0000 0.0000 15.6797
#
#
#
# Elastic Compliance Matrix: (Units=1/GPa)
#
#
# Indices 1 2 3 4 5 6 
#
# 1 0.013607 -0.005627 -0.002778 0.000000 0.000000 0.000000
# 2 -0.005627 0.010137 -0.004310 0.000000 0.000000 0.000000
# 3 -0.002778 -0.004310 0.014075 0.000000 0.000000 0.000000
# 4 0.000000 0.000000 0.000000 0.029606 0.000000 0.000000
# 5 0.000000 0.000000 0.000000 0.000000 0.031340 0.000000
# 6 0.000000 0.000000 0.000000 0.000000 0.000000 0.063777
#
#
# Mechanical properties :
#
#
# Convention : Reuss Voigt Hill
#
# Bulk Modulus (GPa) = 80.71450 91.67733 86.19591
# Shear Modulus (GPa) = 26.02784 28.97858 27.50321
#
# Velocity S-wave (km/s) = 3.70502 3.90940 3.80858
# Velocity P-wave (km/s) = 7.80205 8.29029 8.04987
#
# Compressibility (1/GPa) = 0.01238935
#
# Stress axis : x y z
#
# Youngs Moduli (GPa) = 73.49405 98.64704 71.04569
#
# Poissons Ratio (x) = 0.55507 0.19737
# Poissons Ratio (y) = 0.41354 0.30621
# Poissons Ratio (z) = 0.20417 0.42517
#
# Static dielectric constant tensor:
#      x y z
#    x 3.150550 0.000000 0.000000 
#    y 0.000000 4.370690 0.000000 
#    z 0.000000 0.000000 3.600440 
# 
# 
# High freq. dielectric constant tensor:
#      x y z
#    x 1.707360 0.000000 0.000000 
#    y 0.000000 1.766140 0.000000 
#    z 0.000000 0.000000 1.752680 
# 
# From -- ./inp_files/1712.got.cif
#   From: 2010.03.12/outbox.cif.g09.slc.cpg/sg49_1_cif.got.tgz:1712.got - 2010.04.14 03:58:27.
