data_PCOD8203475
_publ_section_title
;
Structure prediction by ZEFSAII (Michael W. Deem and Ramdas Pophale) SiO2 
 PCOD8203475
Probable space group: P C C M
;
_chemical_formula_sum "Si O2"
_cell_formula_units_Z 56
_cell_length_a 9.146443
_cell_length_b 17.796936
_cell_length_c 19.393651
_cell_angle_alpha 90.000000
_cell_angle_beta 90.000000
_cell_angle_gamma 90.000000
_cell_volume 3156.872536
_symmetry_space_group_name_H-M "P C C M"
_symmetry_group_IT_number 49
_symmetry_cell_setting 'orthorhombic'
loop_
_space_group_symop_operation_xyz
x,y,z
-x,-y,z
x,-y,1/2-z
-x,y,1/2-z
-x,-y,-z
x,y,-z
-x,y,1/2+z
x,-y,1/2+z
loop_
_atom_site_type_symbol
_atom_site_label
_atom_site_fract_x
_atom_site_fract_y
_atom_site_fract_z
Si Si1 0.503509 0.916021 0.668065
Si Si2 0.996959 0.741627 0.417215
Si Si3 0.251370 0.803296 0.670333
Si Si4 0.489075 0.686211 0.321859
Si Si5 0.258944 0.805608 0.174049
Si Si6 0.085935 0.572685 0.581731
Si Si7 0.411133 0.575058 0.575131
O O1 0.500000 0.916586 0.750000
O O2 0.360288 0.869337 0.643659
O O3 0.660263 0.880537 0.645074
O O4 0.500000 0.000000 0.636973
O O5 0.992789 0.751913 0.500000
O O6 0.120952 0.795201 0.384615
O O7 0.015867 0.653278 0.396992
O O8 0.849347 0.772494 0.382798
O O9 0.331202 0.723297 0.667467
O O10 0.190830 0.818462 0.748839
O O11 0.500000 0.640186 0.250000
O O12 0.608826 0.749383 0.315784
O O13 0.518169 0.629645 0.383567
O O14 0.086834 0.565366 0.500000
O O15 0.252016 0.566002 0.610462
O O16 0.000000 0.500000 0.612772
O O17 0.500000 0.500000 0.568885
O O18 0.387226 0.611179 0.500000
#
# Coordination Sequence:
#
# PCOD8203475 Si02
#       7
#     8   8   8   8   8   8   8
#     4   8  15  32  59  85 104 130 174 216 251 298
#     4  11  21  33  53  77 104 140 176 211 253 312
#     4   9  17  34  55  76 104 135 166 209 260 302
#     4   9  18  33  51  72  99 131 165 208 262 311
#     4   9  19  32  53  80 105 133 166 213 259 299
#     4   9  19  34  49  69  98 132 172 219 262 295
#     4  10  20  32  50  72  95 127 172 218 259 301
#
# _framework density 17.739075
#
# number of rings (size 3 to 8) (size 9 to 14) (size 15 to 20)
#    0.000    2.714    1.429    2.143    2.000    0.857 
#    0.000    2.857    0.000    7.714    0.000    0.000 
#    0.000    0.000    0.000    0.000    0.000    0.000 
#
# Total GULP energy -693743.947615 kJ/mol
# GULP energy per Si atom -12388.284779 kJ/mol
# Density = 1.769870 g / cm^3
# Si number density = 17.739075 Si / 1000 Ang^3
#
#
#
# Elastic Constant Matrix: (Units=GPa)
#
#
# Indices 1 2 3 4 5 6 
#
# 1 72.7900 30.3238 30.9982 0.0000 0.0000 0.0000
# 2 30.3238 102.0376 36.3895 0.0000 0.0000 0.0000
# 3 30.9982 36.3895 71.7759 0.0000 0.0000 0.0000
# 4 0.0000 0.0000 0.0000 18.4019 0.0000 0.0000
# 5 0.0000 0.0000 0.0000 0.0000 26.6798 0.0000
# 6 0.0000 0.0000 0.0000 0.0000 0.0000 21.0439
#
#
#
# Elastic Compliance Matrix: (Units=1/GPa)
#
#
# Indices 1 2 3 4 5 6 
#
# 1 0.017590 -0.003074 -0.006038 0.000000 0.000000 0.000000
# 2 -0.003074 0.012501 -0.005010 0.000000 0.000000 0.000000
# 3 -0.006038 -0.005010 0.019080 0.000000 0.000000 0.000000
# 4 0.000000 0.000000 0.000000 0.054342 0.000000 0.000000
# 5 0.000000 0.000000 0.000000 0.000000 0.037482 0.000000
# 6 0.000000 0.000000 0.000000 0.000000 0.000000 0.047520
#
#
# Mechanical properties :
#
#
# Convention : Reuss Voigt Hill
#
# Bulk Modulus (GPa) = 47.78715 49.11406 48.45061
# Shear Modulus (GPa) = 22.34791 23.15124 22.74958
#
# Velocity S-wave (km/s) = 3.55323 3.61653 3.58502
# Velocity P-wave (km/s) = 6.62053 6.72206 6.67149
#
# Compressibility (1/GPa) = 0.02092613
#
# Stress axis : x y z
#
# Youngs Moduli (GPa) = 56.84967 79.99616 52.41079
#
# Poissons Ratio (x) = 0.24592 0.31647
# Poissons Ratio (y) = 0.17476 0.26258
# Poissons Ratio (z) = 0.34327 0.40078
#
# Static dielectric constant tensor:
#      x y z
#    x 3.450000 0.000000 0.000000 
#    y 0.000000 3.482410 0.000000 
#    z 0.000000 0.000000 3.263140 
# 
# 
# High freq. dielectric constant tensor:
#      x y z
#    x 1.685970 0.000000 0.000000 
#    y 0.000000 1.675740 0.000000 
#    z 0.000000 0.000000 1.659410 
# 
# From -- ./inp_files/19951.got.cif
#   From: 2010.03.12/outbox.cif.g09.slc.cpg/sg49_10_cif.got.tgz:19951.got - 2010.04.14 03:58:27.
