data_PCOD8203698
_publ_section_title
;
Structure prediction by ZEFSAII (Michael W. Deem and Ramdas Pophale) SiO2 
 PCOD8203698
Probable space group: P C C M
;
_chemical_formula_sum "Si O2"
_cell_formula_units_Z 64
_cell_length_a 14.675337
_cell_length_b 25.566963
_cell_length_c 8.764706
_cell_angle_alpha 90.000000
_cell_angle_beta 90.000000
_cell_angle_gamma 90.000000
_cell_volume 3288.550980
_symmetry_space_group_name_H-M "P C C M"
_symmetry_group_IT_number 49
_symmetry_cell_setting 'orthorhombic'
loop_
_space_group_symop_operation_xyz
x,y,z
-x,-y,z
x,-y,1/2-z
-x,y,1/2-z
-x,-y,-z
x,y,-z
-x,y,1/2+z
x,-y,1/2+z
loop_
_atom_site_type_symbol
_atom_site_label
_atom_site_fract_x
_atom_site_fract_y
_atom_site_fract_z
Si Si1 0.600438 0.591151 0.178990
Si Si2 0.596213 0.817597 0.820719
Si Si3 0.406881 0.703939 0.325109
Si Si4 0.905033 0.240889 0.322008
Si Si5 0.785773 0.856846 0.820823
Si Si6 0.097981 0.359176 0.181211
Si Si7 0.904178 0.055343 0.819883
Si Si8 0.224094 0.553104 0.819220
O O1 0.500000 0.584318 0.250000
O O2 0.647466 0.649711 0.199317
O O3 0.670217 0.553877 0.266980
O O4 0.595226 0.576992 0.000000
O O5 0.500000 0.835638 0.750000
O O6 0.628474 0.759586 0.759663
O O7 0.678515 0.856327 0.777182
O O8 0.582364 0.817823 0.000000
O O9 0.500000 0.688358 0.250000
O O10 0.424969 0.714680 0.500000
O O11 0.921351 0.240180 0.500000
O O12 0.828220 0.199213 0.274307
O O13 0.875315 0.299416 0.272042
O O14 0.000000 0.223221 0.250000
O O15 0.828113 0.902536 0.720584
O O16 0.801180 0.867925 0.000000
O O17 0.171480 0.397237 0.253708
O O18 0.000000 0.373351 0.250000
O O19 0.096021 0.366490 0.000000
O O20 0.000000 0.074091 0.750000
O O21 0.874274 0.000000 0.750000
O O22 0.914435 0.049702 0.000000
O O23 0.180655 0.500000 0.750000
O O24 0.216518 0.552343 0.000000
#
# Coordination Sequence:
#
# PCOD8203698 Si02
#       8
#     8   8   8   8   8   8   8   8
#     4  10  20  36  59  85 115 148 185 229 282 341
#     4   9  18  32  51  76 113 155 196 237 281 330
#     4   8  15  28  49  74 104 141 181 222 269 324
#     4   9  19  34  56  83 117 152 184 223 277 340
#     4  10  20  34  55  85 119 158 197 237 285 337
#     4  10  21  40  64  88 115 149 185 230 284 342
#     4  11  22  38  60  86 118 155 196 242 290 342
#     4  12  26  43  61  84 110 142 188 237 287 344
#
# _framework density 19.461458
#
# number of rings (size 3 to 8) (size 9 to 14) (size 15 to 20)
#    0.000    2.125    0.000    3.750    1.750    3.500 
#    0.000    2.500    0.000    0.375    0.000    2.625 
#    0.000    0.000    0.000    0.000    0.000    0.000 
#
# Total GULP energy -793050.705448 kJ/mol
# GULP energy per Si atom -12391.417273 kJ/mol
# Density = 1.941716 g / cm^3
# Si number density = 19.461458 Si / 1000 Ang^3
#
#
#
# Elastic Constant Matrix: (Units=GPa)
#
#
# Indices 1 2 3 4 5 6 
#
# 1 108.5863 60.2826 45.5306 0.0000 0.0000 0.0000
# 2 60.2826 94.3857 44.4139 0.0000 0.0000 0.0000
# 3 45.5306 44.4139 95.5637 0.0000 0.0000 0.0000
# 4 0.0000 0.0000 0.0000 27.5824 0.0000 0.0000
# 5 0.0000 0.0000 0.0000 0.0000 31.6829 0.0000
# 6 0.0000 0.0000 0.0000 0.0000 0.0000 27.7545
#
#
#
# Elastic Compliance Matrix: (Units=1/GPa)
#
#
# Indices 1 2 3 4 5 6 
#
# 1 0.015120 -0.008021 -0.003476 0.000000 0.000000 0.000000
# 2 -0.008021 0.017816 -0.004458 0.000000 0.000000 0.000000
# 3 -0.003476 -0.004458 0.014192 0.000000 0.000000 0.000000
# 4 0.000000 0.000000 0.000000 0.036255 0.000000 0.000000
# 5 0.000000 0.000000 0.000000 0.000000 0.031563 0.000000
# 6 0.000000 0.000000 0.000000 0.000000 0.000000 0.036030
#
#
# Mechanical properties :
#
#
# Convention : Reuss Voigt Hill
#
# Bulk Modulus (GPa) = 65.71547 66.55443 66.13495
# Shear Modulus (GPa) = 26.60160 27.29119 26.94640
#
# Velocity S-wave (km/s) = 3.70115 3.74882 3.72506
# Velocity P-wave (km/s) = 7.21838 7.28083 7.24967
#
# Compressibility (1/GPa) = 0.01521712
#
# Stress axis : x y z
#
# Youngs Moduli (GPa) = 66.13908 56.13026 70.46080
#
# Poissons Ratio (x) = 0.45023 0.24491
# Poissons Ratio (y) = 0.53051 0.31414
# Poissons Ratio (z) = 0.22988 0.25025
#
# Static dielectric constant tensor:
#      x y z
#    x 3.424640 0.000000 0.000000 
#    y 0.000000 3.697610 0.000000 
#    z 0.000000 0.000000 3.527430 
# 
# 
# High freq. dielectric constant tensor:
#      x y z
#    x 1.747170 0.000000 0.000000 
#    y 0.000000 1.755710 0.000000 
#    z 0.000000 0.000000 1.756820 
# 
# From -- ./inp_files/4296.got.cif
#   From: 2010.03.12/outbox.cif.g09.slc.cpg/sg49_3_cif.got.tgz:4296.got - 2010.04.14 03:58:27.
