data_PCOD8203589
_publ_section_title
;
Structure prediction by ZEFSAII (Michael W. Deem and Ramdas Pophale) SiO2 
 PCOD8203589
Probable space group: P C C M
;
_chemical_formula_sum "Si O2"
_cell_formula_units_Z 64
_cell_length_a 20.728092
_cell_length_b 17.487091
_cell_length_c 8.709871
_cell_angle_alpha 90.000000
_cell_angle_beta 90.000000
_cell_angle_gamma 90.000000
_cell_volume 3157.102051
_symmetry_space_group_name_H-M "P C C M"
_symmetry_group_IT_number 49
_symmetry_cell_setting 'orthorhombic'
loop_
_space_group_symop_operation_xyz
x,y,z
-x,-y,z
x,-y,1/2-z
-x,y,1/2-z
-x,-y,-z
x,y,-z
-x,y,1/2+z
x,-y,1/2+z
loop_
_atom_site_type_symbol
_atom_site_label
_atom_site_fract_x
_atom_site_fract_y
_atom_site_fract_z
Si Si1 0.708253 0.580091 0.816670
Si Si2 0.645462 0.925164 0.678430
Si Si3 0.206476 0.716836 0.183995
Si Si4 0.100244 0.924206 0.821120
Si Si5 0.435550 0.799617 0.319609
Si Si6 0.231290 0.122851 0.819178
Si Si7 0.935936 0.754828 0.324863
Si Si8 0.566107 0.626189 0.180516
O O1 0.733511 0.500000 0.750000
O O2 0.755129 0.643399 0.744148
O O3 0.633031 0.587727 0.764040
O O4 0.714104 0.583871 0.000000
O O5 0.631644 0.923095 0.500000
O O6 0.623649 0.847050 0.756894
O O7 0.720299 0.929732 0.721969
O O8 0.610443 0.000000 0.750000
O O9 0.238969 0.790360 0.260332
O O10 0.130884 0.717545 0.238271
O O11 0.211226 0.722925 0.000000
O O12 0.162907 0.913621 0.717104
O O13 0.059721 0.846616 0.799804
O O14 0.064834 0.000000 0.750000
O O15 0.116913 0.936362 0.000000
O O16 0.500000 0.836669 0.250000
O O17 0.437608 0.804278 0.500000
O O18 0.428304 0.713091 0.261214
O O19 0.246302 0.119327 0.000000
O O20 0.940016 0.732587 0.500000
O O21 0.000000 0.718129 0.250000
O O22 0.500000 0.588947 0.250000
O O23 0.559155 0.620020 0.000000
#
# Coordination Sequence:
#
# PCOD8203589 Si02
#       8
#     8   8   8   8   8   8   8   8
#     4  11  23  39  60  90 123 157 191 230 278 334
#     4  12  24  37  52  73 101 137 180 233 290 341
#     4  10  21  39  61  87 116 150 190 235 282 338
#     4  10  20  34  50  75 110 149 190 235 284 337
#     4  10  20  37  57  78 102 134 178 228 278 335
#     4  11  21  35  55  79 106 141 183 229 279 337
#     4   9  20  36  56  82 113 148 192 239 288 343
#     4   9  20  37  59  85 116 151 190 229 273 327
#
# _framework density 20.271754999999999
#
# number of rings (size 3 to 8) (size 9 to 14) (size 15 to 20)
#    0.000    1.750    0.000    5.625    0.000    6.250 
#    0.000    3.750    0.000    0.375    0.000    2.625 
#    0.000    0.000    0.000    0.000    0.000    0.000 
#
# Total GULP energy -793305.736746 kJ/mol
# GULP energy per Si atom -12395.402137 kJ/mol
# Density = 2.022562 g / cm^3
# Si number density = 20.271755 Si / 1000 Ang^3
#
#
#
# Elastic Constant Matrix: (Units=GPa)
#
#
# Indices 1 2 3 4 5 6 
#
# 1 86.5011 32.6149 18.5791 0.0000 0.0000 0.0000
# 2 32.6149 84.8561 27.0295 0.0000 0.0000 0.0000
# 3 18.5791 27.0295 65.2498 0.0000 0.0000 0.0000
# 4 0.0000 0.0000 0.0000 29.3820 0.0000 0.0000
# 5 0.0000 0.0000 0.0000 0.0000 31.8739 0.0000
# 6 0.0000 0.0000 0.0000 0.0000 0.0000 9.5144
#
#
#
# Elastic Compliance Matrix: (Units=1/GPa)
#
#
# Indices 1 2 3 4 5 6 
#
# 1 0.013740 -0.004648 -0.001987 0.000000 0.000000 0.000000
# 2 -0.004648 0.015148 -0.004952 0.000000 0.000000 0.000000
# 3 -0.001987 -0.004952 0.017943 0.000000 0.000000 0.000000
# 4 0.000000 0.000000 0.000000 0.034035 0.000000 0.000000
# 5 0.000000 0.000000 0.000000 0.000000 0.031374 0.000000
# 6 0.000000 0.000000 0.000000 0.000000 0.000000 0.105104
#
#
# Mechanical properties :
#
#
# Convention : Reuss Voigt Hill
#
# Bulk Modulus (GPa) = 42.26947 43.67267 42.97107
# Shear Modulus (GPa) = 20.12861 24.71294 22.42077
#
# Velocity S-wave (km/s) = 3.15451 3.49532 3.32928
# Velocity P-wave (km/s) = 5.84505 6.15468 6.00186
#
# Compressibility (1/GPa) = 0.02365774
#
# Stress axis : x y z
#
# Youngs Moduli (GPa) = 72.78109 66.01324 55.73314
#
# Poissons Ratio (x) = 0.30684 0.11073
# Poissons Ratio (y) = 0.33830 0.27597
# Poissons Ratio (z) = 0.14460 0.32688
#
# Static dielectric constant tensor:
#      x y z
#    x 3.756660 0.000000 0.000000 
#    y 0.000000 3.869760 0.000000 
#    z 0.000000 0.000000 3.621380 
# 
# 
# High freq. dielectric constant tensor:
#      x y z
#    x 1.791960 0.000000 0.000000 
#    y 0.000000 1.777880 0.000000 
#    z 0.000000 0.000000 1.796530 
# 
# From -- ./inp_files/5987.got.cif
#   From: 2010.03.12/outbox.cif.g09.slc.cpg/sg49_3_cif.got.tgz:5987.got - 2010.04.14 03:58:27.
