data_PCOD8203021
_publ_section_title
;
Structure prediction by ZEFSAII (Michael W. Deem and Ramdas Pophale) SiO2 
 PCOD8203021
Probable space group: P C C M
;
_chemical_formula_sum "Si O2"
_cell_formula_units_Z 56
_cell_length_a 20.114353
_cell_length_b 15.398116
_cell_length_c 8.985581
_cell_angle_alpha 90.000000
_cell_angle_beta 90.000000
_cell_angle_gamma 90.000000
_cell_volume 2783.042369
_symmetry_space_group_name_H-M "P C C M"
_symmetry_group_IT_number 49
_symmetry_cell_setting 'orthorhombic'
loop_
_space_group_symop_operation_xyz
x,y,z
-x,-y,z
x,-y,1/2-z
-x,y,1/2-z
-x,-y,-z
x,y,-z
-x,y,1/2+z
x,-y,1/2+z
loop_
_atom_site_type_symbol
_atom_site_label
_atom_site_fract_x
_atom_site_fract_y
_atom_site_fract_z
Si Si1 0.246607 0.638095 0.170565
Si Si2 0.198823 0.190616 0.825988
Si Si3 0.623200 0.415549 0.676574
Si Si4 0.100681 0.416596 0.333760
Si Si5 0.431793 0.230336 0.824391
Si Si6 0.067149 0.225431 0.677849
Si Si7 0.673336 0.089003 0.672086
O O1 0.235239 0.726909 0.257634
O O2 0.303031 0.585625 0.255841
O O3 0.180301 0.580418 0.173716
O O4 0.267091 0.658150 0.000000
O O5 0.129465 0.170861 0.741763
O O6 0.248961 0.110424 0.800401
O O7 0.185170 0.206961 0.000000
O O8 0.587301 0.500000 0.750000
O O9 0.627180 0.425858 0.500000
O O10 0.584562 0.328764 0.725088
O O11 0.070725 0.500000 0.250000
O O12 0.074022 0.423775 0.500000
O O13 0.074785 0.325294 0.266672
O O14 0.500000 0.199965 0.750000
O O15 0.373263 0.166913 0.767164
O O16 0.439593 0.225121 0.000000
O O17 0.066588 0.217260 0.500000
O O18 0.000000 0.187004 0.750000
O O19 0.658555 0.076199 0.500000
O O20 0.653691 0.000000 0.750000
#
# Coordination Sequence:
#
# PCOD8203021 Si02
#       7
#     8   8   8   8   8   8   8
#     4  10  19  32  52  80 111 149 198 245 297 355
#     4  10  19  36  60  85 118 154 190 242 299 350
#     4  11  22  37  56  82 118 157 204 254 300 355
#     4   9  19  31  44  68 103 141 188 241 288 343
#     4  10  23  43  62  86 123 162 202 248 300 358
#     4  10  21  36  53  79 111 150 200 243 294 360
#     4  10  22  41  65  95 125 155 195 241 299 363
#
# _framework density 20.121865
#
# number of rings (size 3 to 8) (size 9 to 14) (size 15 to 20)
#    0.000    2.000    1.429    3.000    0.000    8.286 
#    0.000    4.286    0.000    0.429    0.000    3.000 
#    0.000    0.000    0.000    0.000    0.000    0.000 
#
# Total GULP energy -694379.475702 kJ/mol
# GULP energy per Si atom -12399.633495 kJ/mol
# Density = 2.007607 g / cm^3
# Si number density = 20.121865 Si / 1000 Ang^3
#
#
#
# Elastic Constant Matrix: (Units=GPa)
#
#
# Indices 1 2 3 4 5 6 
#
# 1 112.9895 42.3981 43.2690 0.0000 0.0000 0.0000
# 2 42.3981 101.9310 42.4141 0.0000 0.0000 0.0000
# 3 43.2690 42.4141 89.0451 0.0000 0.0000 0.0000
# 4 0.0000 0.0000 0.0000 30.9589 0.0000 0.0000
# 5 0.0000 0.0000 0.0000 0.0000 25.3319 0.0000
# 6 0.0000 0.0000 0.0000 0.0000 0.0000 8.2220
#
#
#
# Elastic Compliance Matrix: (Units=1/GPa)
#
#
# Indices 1 2 3 4 5 6 
#
# 1 0.011607 -0.003094 -0.004166 0.000000 0.000000 0.000000
# 2 -0.003094 0.013061 -0.004717 0.000000 0.000000 0.000000
# 3 -0.004166 -0.004717 0.015502 0.000000 0.000000 0.000000
# 4 0.000000 0.000000 0.000000 0.032301 0.000000 0.000000
# 5 0.000000 0.000000 0.000000 0.000000 0.039476 0.000000
# 6 0.000000 0.000000 0.000000 0.000000 0.000000 0.121625
#
#
# Mechanical properties :
#
#
# Convention : Reuss Voigt Hill
#
# Bulk Modulus (GPa) = 61.67751 62.23645 61.95698
# Shear Modulus (GPa) = 19.01635 24.62817 21.82226
#
# Velocity S-wave (km/s) = 3.07752 3.50230 3.29675
# Velocity P-wave (km/s) = 6.58382 6.88126 6.73418
#
# Compressibility (1/GPa) = 0.01621337
#
# Stress axis : x y z
#
# Youngs Moduli (GPa) = 86.15558 76.56617 64.50897
#
# Poissons Ratio (x) = 0.23692 0.26875
# Poissons Ratio (y) = 0.26659 0.30432
# Poissons Ratio (z) = 0.35894 0.36120
#
# Static dielectric constant tensor:
#      x y z
#    x 3.665000 0.000000 0.000000 
#    y 0.000000 3.497460 0.000000 
#    z 0.000000 0.000000 3.606910 
# 
# 
# High freq. dielectric constant tensor:
#      x y z
#    x 1.785330 0.000000 0.000000 
#    y 0.000000 1.762150 0.000000 
#    z 0.000000 0.000000 1.787420 
# 
# From -- ./inp_files/4013.got.cif
#   From: 2010.03.12/outbox.cif.g09.slc.cpg/sg49_3_cif.got.tgz:4013.got - 2010.04.14 03:58:27.
