data_PCOD8203122
_publ_section_title
;
Structure prediction by ZEFSAII (Michael W. Deem and Ramdas Pophale) SiO2 
 PCOD8203122
Probable space group: P C C M
;
_chemical_formula_sum "Si O2"
_cell_formula_units_Z 58
_cell_length_a 14.389821
_cell_length_b 26.295997
_cell_length_c 8.981564
_cell_angle_alpha 90.000000
_cell_angle_beta 90.000000
_cell_angle_gamma 90.000000
_cell_volume 3398.576124
_symmetry_space_group_name_H-M "P C C M"
_symmetry_group_IT_number 49
_symmetry_cell_setting 'orthorhombic'
loop_
_space_group_symop_operation_xyz
x,y,z
-x,-y,z
x,-y,1/2-z
-x,y,1/2-z
-x,-y,-z
x,y,-z
-x,y,1/2+z
x,-y,1/2+z
loop_
_atom_site_type_symbol
_atom_site_label
_atom_site_fract_x
_atom_site_fract_y
_atom_site_fract_z
Si Si1 0.596559 0.052024 0.175414
Si Si2 0.711226 0.667199 0.823772
Si Si3 0.724793 0.853325 0.327452
Si Si4 0.412474 0.597685 0.834205
Si Si5 0.908360 0.706843 0.826505
Si Si6 0.906366 0.176724 0.675375
Si Si7 0.500000 0.500000 0.750000
Si Si8 0.599402 0.757872 0.323391
O O1 0.500000 0.068982 0.250000
O O2 0.671953 0.094821 0.209130
O O3 0.632634 0.000000 0.250000
O O4 0.580929 0.044196 0.000000
O O5 0.679228 0.611947 0.761553
O O6 0.818694 0.674253 0.779209
O O7 0.647372 0.708024 0.741928
O O8 0.697099 0.671266 0.000000
O O9 0.751116 0.848865 0.500000
O O10 0.819003 0.855098 0.232980
O O11 0.661523 0.806099 0.277942
O O12 0.500000 0.624126 0.750000
O O13 0.431003 0.536655 0.844470
O O14 0.403378 0.619855 0.000000
O O15 0.891729 0.764757 0.775018
O O16 0.000000 0.683511 0.750000
O O17 0.926201 0.704116 0.000000
O O18 0.914848 0.170613 0.500000
O O19 0.000000 0.155047 0.750000
O O20 0.500000 0.766224 0.250000
O O21 0.588272 0.752688 0.500000
#
# Coordination Sequence:
#
# PCOD8203122 Si02
#       8
#     8   8   8   8   8   8   2   8
#     4  10  20  35  54  77 103 133 173 217 263 312
#     4  11  21  34  50  74 106 139 175 211 255 307
#     4  10  21  35  52  75 102 135 174 215 259 312
#     4  10  20  34  53  76 103 137 175 216 259 300
#     4   9  19  33  50  73 101 136 174 215 255 303
#     4  10  19  33  53  76 102 135 173 214 258 308
#     4   8  22  36  58  76 104 136 186 224 260 300
#     4  11  22  34  48  69 102 140 174 209 252 304
#
# _framework density 17.06597
#
# number of rings (size 3 to 8) (size 9 to 14) (size 15 to 20)
#    0.414    1.517    1.379    3.517    0.000    3.310 
#    0.000    0.000    0.000    0.414    0.000    3.379 
#    0.000    3.310    0.000    0.000    0.000    0.000 
#
# Total GULP energy -719081.825862 kJ/mol
# GULP energy per Si atom -12397.962515 kJ/mol
# Density = 1.702713 g / cm^3
# Si number density = 17.065970 Si / 1000 Ang^3
#
#
#
# Elastic Constant Matrix: (Units=GPa)
#
#
# Indices 1 2 3 4 5 6 
#
# 1 144.5902 56.4427 64.1353 0.0000 0.0000 0.0000
# 2 56.4427 77.0141 34.3069 0.0000 0.0000 0.0000
# 3 64.1353 34.3069 93.8347 0.0000 0.0000 0.0000
# 4 0.0000 0.0000 0.0000 21.6008 0.0000 0.0000
# 5 0.0000 0.0000 0.0000 0.0000 34.2850 0.0000
# 6 0.0000 0.0000 0.0000 0.0000 0.0000 19.4700
#
#
#
# Elastic Compliance Matrix: (Units=1/GPa)
#
#
# Indices 1 2 3 4 5 6 
#
# 1 0.011923 -0.006102 -0.005919 0.000000 0.000000 0.000000
# 2 -0.006102 0.018634 -0.002642 0.000000 0.000000 0.000000
# 3 -0.005919 -0.002642 0.015668 0.000000 0.000000 0.000000
# 4 0.000000 0.000000 0.000000 0.046295 0.000000 0.000000
# 5 0.000000 0.000000 0.000000 0.000000 0.029167 0.000000
# 6 0.000000 0.000000 0.000000 0.000000 0.000000 0.051361
#
#
# Mechanical properties :
#
#
# Convention : Reuss Voigt Hill
#
# Bulk Modulus (GPa) = 59.17101 69.46765 64.31933
# Shear Modulus (GPa) = 24.03769 25.77477 24.90623
#
# Velocity S-wave (km/s) = 3.75709 3.89048 3.82437
# Velocity P-wave (km/s) = 7.31903 7.80864 7.56779
#
# Compressibility (1/GPa) = 0.01690017
#
# Stress axis : x y z
#
# Youngs Moduli (GPa) = 83.86891 53.66650 63.82326
#
# Poissons Ratio (x) = 0.32747 0.37774
# Poissons Ratio (y) = 0.51177 0.16862
# Poissons Ratio (z) = 0.49639 0.14179
#
# Static dielectric constant tensor:
#      x y z
#    x 3.241810 0.000000 0.000000 
#    y 0.000000 3.032800 0.000000 
#    z 0.000000 0.000000 3.226470 
# 
# 
# High freq. dielectric constant tensor:
#      x y z
#    x 1.656260 0.000000 0.000000 
#    y 0.000000 1.632300 0.000000 
#    z 0.000000 0.000000 1.671540 
# 
# From -- ./inp_files/3078.got.cif
#   From: 2010.03.12/outbox.cif.g09.slc.cpg/sg49_2_cif.got.tgz:3078.got - 2010.04.14 03:58:27.
