data_PCOD8203758
_publ_section_title
;
Structure prediction by ZEFSAII (Michael W. Deem and Ramdas Pophale) SiO2 
 PCOD8203758
Probable space group: P C C M
;
_chemical_formula_sum "Si O2"
_cell_formula_units_Z 48
_cell_length_a 28.728272
_cell_length_b 9.302724
_cell_length_c 9.321475
_cell_angle_alpha 90.000000
_cell_angle_beta 90.000000
_cell_angle_gamma 90.000000
_cell_volume 2491.175244
_symmetry_space_group_name_H-M "P C C M"
_symmetry_group_IT_number 49
_symmetry_cell_setting 'orthorhombic'
loop_
_space_group_symop_operation_xyz
x,y,z
-x,-y,z
x,-y,1/2-z
-x,y,1/2-z
-x,-y,-z
x,y,-z
-x,y,1/2+z
x,-y,1/2+z
loop_
_atom_site_type_symbol
_atom_site_label
_atom_site_fract_x
_atom_site_fract_y
_atom_site_fract_z
Si Si1 0.544239 0.849449 0.171372
Si Si2 0.626609 0.640682 0.163327
Si Si3 0.934288 0.650396 0.000000
Si Si4 0.902800 0.171748 0.765942
Si Si5 0.267752 0.352763 0.168810
Si Si6 0.044436 0.674396 0.000000
Si Si7 0.800558 0.853299 0.334749
O O1 0.500000 0.772992 0.250000
O O2 0.590965 0.764131 0.207179
O O3 0.550958 0.000000 0.250000
O O4 0.535933 0.865835 0.000000
O O5 0.614000 0.500000 0.250000
O O6 0.678906 0.696514 0.191954
O O7 0.620293 0.595307 0.000000
O O8 0.908525 0.732881 0.873900
O O9 0.926860 0.477214 0.000000
O O10 0.989455 0.661453 0.000000
O O11 0.943542 0.229291 0.864843
O O12 0.852493 0.211395 0.832074
O O13 0.909079 0.000000 0.750000
O O14 0.258377 0.500000 0.250000
O O15 0.235541 0.239668 0.246412
O O16 0.255468 0.366935 0.000000
O O17 0.784296 0.871867 0.500000
O O18 0.802353 0.000000 0.250000
#
# Coordination Sequence:
#
# PCOD8203758 Si02
#       7
#     8   8   4   8   8   4   8
#     4  10  20  35  54  80 113 150 196 243 295 351
#     4   9  20  37  57  83 116 153 194 243 292 349
#     4  11  25  39  67  89 125 161 197 251 302 353
#     4  11  24  41  64  90 122 159 203 247 301 362
#     4  10  21  39  62  89 121 156 199 245 296 356
#     4  11  23  45  59  93 125 159 201 247 300 363
#     4  11  24  42  63  88 121 156 196 247 301 356
#
# _framework density 19.268015999999999
#
# number of rings (size 3 to 8) (size 9 to 14) (size 15 to 20)
#    0.000    1.667    0.833    3.500    4.667    7.667 
#    0.000    3.333    0.000    0.000    0.000    0.000 
#    0.000    0.000    0.000    0.000    0.000    0.000 
#
# Total GULP energy -594921.960130 kJ/mol
# GULP energy per Si atom -12394.207503 kJ/mol
# Density = 1.922416 g / cm^3
# Si number density = 19.268016 Si / 1000 Ang^3
#
#
#
# Elastic Constant Matrix: (Units=GPa)
#
#
# Indices 1 2 3 4 5 6 
#
# 1 94.1287 52.3820 46.7715 0.0000 0.0000 0.0000
# 2 52.3820 86.3976 46.7915 0.0000 0.0000 0.0000
# 3 46.7715 46.7915 141.4637 0.0000 0.0000 0.0000
# 4 0.0000 0.0000 0.0000 36.8347 0.0000 0.0000
# 5 0.0000 0.0000 0.0000 0.0000 30.2035 0.0000
# 6 0.0000 0.0000 0.0000 0.0000 0.0000 122.0284
#
#
#
# Elastic Compliance Matrix: (Units=1/GPa)
#
#
# Indices 1 2 3 4 5 6 
#
# 1 0.016820 -0.008754 -0.002665 0.000000 0.000000 0.000000
# 2 -0.008754 0.018656 -0.003277 0.000000 0.000000 0.000000
# 3 -0.002665 -0.003277 0.009034 0.000000 0.000000 0.000000
# 4 0.000000 0.000000 0.000000 0.027148 0.000000 0.000000
# 5 0.000000 0.000000 0.000000 0.000000 0.033109 0.000000
# 6 0.000000 0.000000 0.000000 0.000000 0.000000 0.008195
#
#
# Mechanical properties :
#
#
# Convention : Reuss Voigt Hill
#
# Bulk Modulus (GPa) = 66.14674 68.20889 67.17782
# Shear Modulus (GPa) = 33.92272 49.54964 41.73618
#
# Velocity S-wave (km/s) = 4.20047 5.07660 4.65917
# Velocity P-wave (km/s) = 7.61115 8.35699 7.99278
#
# Compressibility (1/GPa) = 0.01511790
#
# Stress axis : x y z
#
# Youngs Moduli (GPa) = 59.45382 53.60073 110.69258
#
# Poissons Ratio (x) = 0.46922 0.29505
# Poissons Ratio (y) = 0.52046 0.36270
# Poissons Ratio (z) = 0.15847 0.17563
#
# Static dielectric constant tensor:
#      x y z
#    x 3.990470 0.000000 0.000000 
#    y 0.000000 3.520980 0.000000 
#    z 0.000000 0.000000 3.753600 
# 
# 
# High freq. dielectric constant tensor:
#      x y z
#    x 1.759760 0.000000 0.000000 
#    y 0.000000 1.747160 0.000000 
#    z 0.000000 0.000000 1.769520 
# 
# From -- ./inp_files/6919.got.cif
#   From: 2010.03.12/outbox.cif.g09.slc.cpg/sg49_4_cif.got.tgz:6919.got - 2010.04.14 03:58:27.
