data_PCOD8203416
_publ_section_title
;
Structure prediction by ZEFSAII (Michael W. Deem and Ramdas Pophale) SiO2 
 PCOD8203416
Probable space group: P C C M
;
_chemical_formula_sum "Si O2"
_cell_formula_units_Z 48
_cell_length_a 8.651700
_cell_length_b 17.213214
_cell_length_c 15.358011
_cell_angle_alpha 90.000000
_cell_angle_beta 90.000000
_cell_angle_gamma 90.000000
_cell_volume 2287.169727
_symmetry_space_group_name_H-M "P C C M"
_symmetry_group_IT_number 49
_symmetry_cell_setting 'orthorhombic'
loop_
_space_group_symop_operation_xyz
x,y,z
-x,-y,z
x,-y,1/2-z
-x,y,1/2-z
-x,-y,-z
x,y,-z
-x,y,1/2+z
x,-y,1/2+z
loop_
_atom_site_type_symbol
_atom_site_label
_atom_site_fract_x
_atom_site_fract_y
_atom_site_fract_z
Si Si1 0.668066 0.866498 0.281932
Si Si2 0.895749 0.930979 0.401799
Si Si3 0.806397 0.435879 0.500000
Si Si4 0.313105 0.337005 0.851302
Si Si5 0.159840 0.613376 0.000000
Si Si6 0.096827 0.199205 0.832784
Si Si7 0.663054 0.691336 0.656392
O O1 0.500000 0.891003 0.250000
O O2 0.734116 0.929497 0.349467
O O3 0.779346 0.865072 0.198415
O O4 0.679338 0.782315 0.326656
O O5 0.851588 0.949948 0.500000
O O6 0.982473 0.847115 0.396979
O O7 0.000000 0.000000 0.362649
O O8 0.727650 0.410564 0.590228
O O9 0.773196 0.527140 0.500000
O O10 0.977386 0.400338 0.500000
O O11 0.191887 0.268806 0.878405
O O12 0.304844 0.354173 0.747553
O O13 0.488592 0.317360 0.877535
O O14 0.214279 0.660839 0.085444
O O15 0.000000 0.232547 0.750000
#
# Coordination Sequence:
#
# PCOD8203416 Si02
#       7
#     8   8   4   8   4   8   8
#     4  10  19  39  64  96 122 161 218 266 315 378
#     4  10  23  40  60  94 136 172 208 257 328 389
#     4  11  27  41  59  95 131 168 219 260 334 411
#     4  10  21  39  64  94 123 166 215 273 321 387
#     4  11  27  43  59  93 131 172 213 268 336 400
#     4   9  19  34  61  91 122 162 214 265 305 380
#     4  10  21  41  66  92 128 162 218 273 326 390
#
# _framework density 20.986637000000002
#
# number of rings (size 3 to 8) (size 9 to 14) (size 15 to 20)
#    0.000    2.000    3.333    0.500    9.333    5.000 
#    0.000    5.833    0.000    2.000    0.000    0.000 
#    0.000    0.000    0.000    0.000    0.000    0.000 
#
# Total GULP energy -594844.402035 kJ/mol
# GULP energy per Si atom -12392.591709 kJ/mol
# Density = 2.093887 g / cm^3
# Si number density = 20.986637 Si / 1000 Ang^3
#
#
#
# Elastic Constant Matrix: (Units=GPa)
#
#
# Indices 1 2 3 4 5 6 
#
# 1 118.2992 30.0422 32.1955 0.0000 0.0000 0.0000
# 2 30.0422 73.1718 36.4443 0.0000 0.0000 0.0000
# 3 32.1955 36.4443 93.3186 0.0000 0.0000 0.0000
# 4 0.0000 0.0000 0.0000 12.0346 0.0000 0.0000
# 5 0.0000 0.0000 0.0000 0.0000 34.9541 0.0000
# 6 0.0000 0.0000 0.0000 0.0000 0.0000 30.1277
#
#
#
# Elastic Compliance Matrix: (Units=1/GPa)
#
#
# Indices 1 2 3 4 5 6 
#
# 1 0.009803 -0.002905 -0.002247 0.000000 0.000000 0.000000
# 2 -0.002905 0.017828 -0.005960 0.000000 0.000000 0.000000
# 3 -0.002247 -0.005960 0.013819 0.000000 0.000000 0.000000
# 4 0.000000 0.000000 0.000000 0.083094 0.000000 0.000000
# 5 0.000000 0.000000 0.000000 0.000000 0.028609 0.000000
# 6 0.000000 0.000000 0.000000 0.000000 0.000000 0.033192
#
#
# Mechanical properties :
#
#
# Convention : Reuss Voigt Hill
#
# Bulk Modulus (GPa) = 52.01854 53.57261 52.79557
# Shear Modulus (GPa) = 23.25828 27.83045 25.54437
#
# Velocity S-wave (km/s) = 3.33264 3.64552 3.49259
# Velocity P-wave (km/s) = 6.29674 6.58044 6.44015
#
# Compressibility (1/GPa) = 0.01922392
#
# Stress axis : x y z
#
# Youngs Moduli (GPa) = 102.01412 56.09222 72.36455
#
# Poissons Ratio (x) = 0.16297 0.16262
# Poissons Ratio (y) = 0.29639 0.43130
# Poissons Ratio (z) = 0.22926 0.33431
#
# Static dielectric constant tensor:
#      x y z
#    x 4.152990 0.000000 0.000000 
#    y 0.000000 3.575480 0.000000 
#    z 0.000000 0.000000 3.683210 
# 
# 
# High freq. dielectric constant tensor:
#      x y z
#    x 1.839860 0.000000 0.000000 
#    y 0.000000 1.801800 0.000000 
#    z 0.000000 0.000000 1.810670 
# 
# From -- ./inp_files/11886.got.cif
#   From: 2010.03.12/outbox.cif.g09.slc.cpg/sg49_6_cif.got.tgz:11886.got - 2010.04.14 03:58:27.
