data_PCOD8203491
_publ_section_title
;
Structure prediction by ZEFSAII (Michael W. Deem and Ramdas Pophale) SiO2 
 PCOD8203491
Probable space group: P C C M
;
_chemical_formula_sum "Si O2"
_cell_formula_units_Z 64
_cell_length_a 20.030174
_cell_length_b 20.088716
_cell_length_c 8.722763
_cell_angle_alpha 90.000000
_cell_angle_beta 90.000000
_cell_angle_gamma 90.000000
_cell_volume 3509.869536
_symmetry_space_group_name_H-M "P C C M"
_symmetry_group_IT_number 49
_symmetry_cell_setting 'orthorhombic'
loop_
_space_group_symop_operation_xyz
x,y,z
-x,-y,z
x,-y,1/2-z
-x,y,1/2-z
-x,-y,-z
x,y,-z
-x,y,1/2+z
x,-y,1/2+z
loop_
_atom_site_type_symbol
_atom_site_label
_atom_site_fract_x
_atom_site_fract_y
_atom_site_fract_z
Si Si1 0.245995 0.396876 0.319413
Si Si2 0.890626 0.434512 0.318653
Si Si3 0.211332 0.738867 0.322530
Si Si4 0.429404 0.070621 0.819124
Si Si5 0.066644 0.288971 0.177741
Si Si6 0.383958 0.567704 0.318830
Si Si7 0.659089 0.806962 0.823775
Si Si8 0.432924 0.701703 0.819883
O O1 0.256733 0.406111 0.500000
O O2 0.180917 0.434986 0.262627
O O3 0.241919 0.318876 0.280990
O O4 0.307067 0.428779 0.229428
O O5 0.928457 0.500000 0.250000
O O6 0.883091 0.439880 0.500000
O O7 0.927996 0.366462 0.271543
O O8 0.210737 0.714565 0.500000
O O9 0.133973 0.751571 0.272374
O O10 0.259736 0.803499 0.302514
O O11 0.500000 0.095146 0.750000
O O12 0.370321 0.121698 0.773542
O O13 0.408096 0.000000 0.750000
O O14 0.437984 0.063613 0.000000
O O15 0.000000 0.257075 0.250000
O O16 0.055903 0.282683 0.000000
O O17 0.415133 0.500000 0.250000
O O18 0.390875 0.568032 0.500000
O O19 0.424678 0.629114 0.251147
O O20 0.628502 0.749054 0.720909
O O21 0.639948 0.792734 0.000000
O O22 0.500000 0.734118 0.750000
O O23 0.438811 0.695279 0.000000
#
# Coordination Sequence:
#
# PCOD8203491 Si02
#       8
#     8   8   8   8   8   8   8   8
#     4  11  20  32  50  74  97 124 162 208 264 320
#     4  10  20  33  47  66  91 123 161 206 260 319
#     4   9  18  34  54  75 102 134 170 213 262 311
#     4  10  20  34  54  82 116 156 190 220 260 306
#     4   9  19  33  49  69  96 131 165 206 262 320
#     4  12  24  39  55  72  96 127 166 217 272 326
#     4  10  20  36  59  83 109 143 181 222 265 309
#     4  12  25  40  57  79 103 133 173 216 269 320
#
# _framework density 18.234296000000001
#
# number of rings (size 3 to 8) (size 9 to 14) (size 15 to 20)
#    0.000    1.625    1.250    6.000    0.000    5.000 
#    0.000    2.500    0.000    0.000    0.000    0.000 
#    0.000    0.500    0.000    6.250    0.000    0.000 
#
# Total GULP energy -793420.655004 kJ/mol
# GULP energy per Si atom -12397.197734 kJ/mol
# Density = 1.819279 g / cm^3
# Si number density = 18.234296 Si / 1000 Ang^3
#
#
#
# Elastic Constant Matrix: (Units=GPa)
#
#
# Indices 1 2 3 4 5 6 
#
# 1 121.9180 51.9381 37.3287 0.0000 0.0000 0.0000
# 2 51.9381 85.1058 33.3189 0.0000 0.0000 0.0000
# 3 37.3287 33.3189 103.4031 0.0000 0.0000 0.0000
# 4 0.0000 0.0000 0.0000 13.5538 0.0000 0.0000
# 5 0.0000 0.0000 0.0000 0.0000 25.5357 0.0000
# 6 0.0000 0.0000 0.0000 0.0000 0.0000 16.6481
#
#
#
# Elastic Compliance Matrix: (Units=1/GPa)
#
#
# Indices 1 2 3 4 5 6 
#
# 1 0.011491 -0.006167 -0.002161 0.000000 0.000000 0.000000
# 2 -0.006167 0.016756 -0.003173 0.000000 0.000000 0.000000
# 3 -0.002161 -0.003173 0.011473 0.000000 0.000000 0.000000
# 4 0.000000 0.000000 0.000000 0.073780 0.000000 0.000000
# 5 0.000000 0.000000 0.000000 0.000000 0.039161 0.000000
# 6 0.000000 0.000000 0.000000 0.000000 0.000000 0.060067
#
#
# Mechanical properties :
#
#
# Convention : Reuss Voigt Hill
#
# Bulk Modulus (GPa) = 59.81354 61.73316 60.77335
# Shear Modulus (GPa) = 20.72091 23.67026 22.19558
#
# Velocity S-wave (km/s) = 3.37467 3.60685 3.49269
# Velocity P-wave (km/s) = 6.93242 7.16064 7.04746
#
# Compressibility (1/GPa) = 0.01671862
#
# Stress axis : x y z
#
# Youngs Moduli (GPa) = 87.02489 59.68163 87.15749
#
# Poissons Ratio (x) = 0.36803 0.18837
# Poissons Ratio (y) = 0.53664 0.27654
# Poissons Ratio (z) = 0.18808 0.18936
#
# Static dielectric constant tensor:
#      x y z
#    x 3.459490 0.000000 0.000000 
#    y 0.000000 3.316920 0.000000 
#    z 0.000000 0.000000 3.395140 
# 
# 
# High freq. dielectric constant tensor:
#      x y z
#    x 1.708100 0.000000 0.000000 
#    y 0.000000 1.663220 0.000000 
#    z 0.000000 0.000000 1.715270 
# 
# From -- ./inp_files/5960.got.cif
#   From: 2010.03.12/outbox.cif.g09.slc.cpg/sg49_3_cif.got.tgz:5960.got - 2010.04.14 03:58:27.
