data_PCOD8203352
_publ_section_title
;
Structure prediction by ZEFSAII (Michael W. Deem and Ramdas Pophale) SiO2 
 PCOD8203352
Probable space group: P C C M
;
_chemical_formula_sum "Si O2"
_cell_formula_units_Z 64
_cell_length_a 13.403642
_cell_length_b 14.045400
_cell_length_c 16.785347
_cell_angle_alpha 90.000000
_cell_angle_beta 90.000000
_cell_angle_gamma 90.000000
_cell_volume 3160.001258
_symmetry_space_group_name_H-M "P C C M"
_symmetry_group_IT_number 49
_symmetry_cell_setting 'orthorhombic'
loop_
_space_group_symop_operation_xyz
x,y,z
-x,-y,z
x,-y,1/2-z
-x,y,1/2-z
-x,-y,-z
x,y,-z
-x,y,1/2+z
x,-y,1/2+z
loop_
_atom_site_type_symbol
_atom_site_label
_atom_site_fract_x
_atom_site_fract_y
_atom_site_fract_z
Si Si1 0.393219 0.525182 0.593043
Si Si2 0.262355 0.926760 0.182855
Si Si3 0.103826 0.047785 0.093464
Si Si4 0.600142 0.196908 0.909187
Si Si5 0.804010 0.208493 0.311036
Si Si6 0.617687 0.743095 0.093014
Si Si7 0.244880 0.632478 0.091578
Si Si8 0.883186 0.391305 0.762790
O O1 0.500000 0.500000 0.633180
O O2 0.402557 0.502105 0.500000
O O3 0.363635 0.632668 0.610614
O O4 0.305946 0.457938 0.625860
O O5 0.363566 0.894238 0.139845
O O6 0.205798 0.837873 0.223680
O O7 0.295953 0.000000 0.250000
O O8 0.190401 0.974913 0.118315
O O9 0.114075 0.149098 0.138603
O O10 0.109264 0.067384 0.000000
O O11 0.000000 0.000000 0.118766
O O12 0.493048 0.230881 0.876681
O O13 0.682572 0.278208 0.899665
O O14 0.588486 0.165874 0.000000
O O15 0.698543 0.198398 0.356989
O O16 0.834065 0.319045 0.301388
O O17 0.631465 0.766379 0.000000
O O18 0.147700 0.641244 0.147700
O O19 0.208866 0.620435 0.000000
O O20 0.848063 0.500000 0.750000
O O21 0.000000 0.381706 0.750000
#
# Coordination Sequence:
#
# PCOD8203352 Si02
#       8
#     8   8   8   8   8   8   8   8
#     4   9  15  28  54  89 123 160 207 260 309 358
#     4  10  22  39  60  89 121 158 202 256 316 383
#     4  10  23  43  69  98 118 147 210 281 334 387
#     4  10  19  35  61  90 122 163 206 255 312 376
#     4  11  23  39  64  90 126 169 204 257 326 382
#     4  10  20  35  57  89 129 168 211 260 312 379
#     4  10  19  36  63  91 123 167 219 264 312 373
#     4  11  25  44  62  90 133 177 216 263 315 377
#
# _framework density 20.253157000000002
#
# number of rings (size 3 to 8) (size 9 to 14) (size 15 to 20)
#    0.000    1.875    2.500    1.500    1.750    2.250 
#    0.000    7.500    0.000    6.750    0.000    0.000 
#    0.000    0.000    0.000    0.000    0.000    0.000 
#
# Total GULP energy -793542.539226 kJ/mol
# GULP energy per Si atom -12399.102175 kJ/mol
# Density = 2.020706 g / cm^3
# Si number density = 20.253157 Si / 1000 Ang^3
#
#
#
# Elastic Constant Matrix: (Units=GPa)
#
#
# Indices 1 2 3 4 5 6 
#
# 1 108.2593 42.6592 57.5776 0.0000 0.0000 0.0000
# 2 42.6592 101.8421 42.9602 0.0000 0.0000 0.0000
# 3 57.5776 42.9602 81.1203 0.0000 0.0000 0.0000
# 4 0.0000 0.0000 0.0000 28.7207 0.0000 0.0000
# 5 0.0000 0.0000 0.0000 0.0000 26.4321 0.0000
# 6 0.0000 0.0000 0.0000 0.0000 0.0000 34.0074
#
#
#
# Elastic Compliance Matrix: (Units=1/GPa)
#
#
# Indices 1 2 3 4 5 6 
#
# 1 0.015262 -0.002348 -0.009590 0.000000 0.000000 0.000000
# 2 -0.002348 0.013005 -0.005221 0.000000 0.000000 0.000000
# 3 -0.009590 -0.005221 0.021899 0.000000 0.000000 0.000000
# 4 0.000000 0.000000 0.000000 0.034818 0.000000 0.000000
# 5 0.000000 0.000000 0.000000 0.000000 0.037833 0.000000
# 6 0.000000 0.000000 0.000000 0.000000 0.000000 0.029405
#
#
# Mechanical properties :
#
#
# Convention : Reuss Voigt Hill
#
# Bulk Modulus (GPa) = 63.09291 64.17951 63.63621
# Shear Modulus (GPa) = 26.06586 27.70037 26.88312
#
# Velocity S-wave (km/s) = 3.59137 3.70226 3.64724
# Velocity P-wave (km/s) = 6.95824 7.07341 7.01606
#
# Compressibility (1/GPa) = 0.01584964
#
# Stress axis : x y z
#
# Youngs Moduli (GPa) = 65.52013 76.89435 45.66480
#
# Poissons Ratio (x) = 0.18054 0.43791
# Poissons Ratio (y) = 0.15383 0.23840
# Poissons Ratio (z) = 0.62831 0.40144
#
# Static dielectric constant tensor:
#      x y z
#    x 3.585650 0.000000 0.000000 
#    y 0.000000 3.782180 0.000000 
#    z 0.000000 0.000000 3.564100 
# 
# 
# High freq. dielectric constant tensor:
#      x y z
#    x 1.783340 0.000000 0.000000 
#    y 0.000000 1.798500 0.000000 
#    z 0.000000 0.000000 1.782040 
# 
# From -- ./inp_files/17306.got.cif
#   From: 2010.03.12/outbox.cif.g09.slc.cpg/sg49_9_cif.got.tgz:17306.got - 2010.04.14 03:58:27.
