data_PCOD8203593
_publ_section_title
;
Structure prediction by ZEFSAII (Michael W. Deem and Ramdas Pophale) SiO2 
 PCOD8203593
Probable space group: P C C M
;
_chemical_formula_sum "Si O2"
_cell_formula_units_Z 48
_cell_length_a 9.445815
_cell_length_b 30.568406
_cell_length_c 8.905688
_cell_angle_alpha 90.000000
_cell_angle_beta 90.000000
_cell_angle_gamma 90.000000
_cell_volume 2571.459594
_symmetry_space_group_name_H-M "P C C M"
_symmetry_group_IT_number 49
_symmetry_cell_setting 'orthorhombic'
loop_
_space_group_symop_operation_xyz
x,y,z
-x,-y,z
x,-y,1/2-z
-x,y,1/2-z
-x,-y,-z
x,y,-z
-x,y,1/2+z
x,-y,1/2+z
loop_
_atom_site_type_symbol
_atom_site_label
_atom_site_fract_x
_atom_site_fract_y
_atom_site_fract_z
Si Si1 0.347723 0.543481 0.321521
Si Si2 0.352350 0.954199 0.677875
Si Si3 0.652742 0.795497 0.822636
Si Si4 0.847424 0.125163 0.324029
Si Si5 0.855356 0.620342 0.823973
Si Si6 0.146675 0.281339 0.176624
O O1 0.275757 0.500000 0.250000
O O2 0.500000 0.549525 0.250000
O O3 0.357485 0.538270 0.500000
O O4 0.263185 0.586448 0.271592
O O5 0.500000 0.938199 0.750000
O O6 0.373225 0.959286 0.500000
O O7 0.230551 0.919819 0.718493
O O8 0.304903 0.000000 0.750000
O O9 0.500000 0.799065 0.750000
O O10 0.750990 0.835041 0.764423
O O11 0.726539 0.750237 0.771320
O O12 0.632840 0.797925 0.000000
O O13 0.870330 0.129664 0.500000
O O14 0.000000 0.126527 0.250000
O O15 0.813260 0.669389 0.771778
O O16 0.000000 0.604920 0.750000
O O17 0.877858 0.618796 0.000000
O O18 0.000000 0.265851 0.250000
O O19 0.124055 0.278179 0.000000
#
# Coordination Sequence:
#
# PCOD8203593 Si02
#       6
#     8   8   8   8   8   8
#     4  10  20  34  51  72  99 131 168 208 251 298
#     4  10  20  35  55  79 106 137 174 213 256 304
#     4  10  21  36  54  78 106 135 170 210 252 301
#     4  10  22  37  54  78 106 137 173 213 256 303
#     4   9  19  34  52  75 102 132 166 206 250 298
#     4   9  18  34  54  76 103 133 167 206 249 299
#
# _framework density 18.666442
#
# number of rings (size 3 to 8) (size 9 to 14) (size 15 to 20)
#    0.000    2.333    0.000    3.000    0.000    5.333 
#    0.000    3.333    0.000    0.000    0.000    0.000 
#    0.000    0.000    0.000    0.000    0.000    0.000 
#
# Total GULP energy -595211.203720 kJ/mol
# GULP energy per Si atom -12400.233411 kJ/mol
# Density = 1.862396 g / cm^3
# Si number density = 18.666442 Si / 1000 Ang^3
#
#
#
# Elastic Constant Matrix: (Units=GPa)
#
#
# Indices 1 2 3 4 5 6 
#
# 1 155.8352 102.0432 49.9645 0.0000 0.0000 0.0000
# 2 102.0432 143.8233 49.5168 0.0000 0.0000 0.0000
# 3 49.9645 49.5168 52.2538 0.0000 0.0000 0.0000
# 4 0.0000 0.0000 0.0000 25.5882 0.0000 0.0000
# 5 0.0000 0.0000 0.0000 0.0000 35.5324 0.0000
# 6 0.0000 0.0000 0.0000 0.0000 0.0000 34.8839
#
#
#
# Elastic Compliance Matrix: (Units=1/GPa)
#
#
# Indices 1 2 3 4 5 6 
#
# 1 0.012956 -0.007313 -0.005458 0.000000 0.000000 0.000000
# 2 -0.007313 0.014448 -0.006698 0.000000 0.000000 0.000000
# 3 -0.005458 -0.006698 0.030704 0.000000 0.000000 0.000000
# 4 0.000000 0.000000 0.000000 0.039080 0.000000 0.000000
# 5 0.000000 0.000000 0.000000 0.000000 0.028143 0.000000
# 6 0.000000 0.000000 0.000000 0.000000 0.000000 0.028667
#
#
# Mechanical properties :
#
#
# Convention : Reuss Voigt Hill
#
# Bulk Modulus (GPa) = 52.16941 83.88460 68.02701
# Shear Modulus (GPa) = 25.08449 29.22675 27.15562
#
# Velocity S-wave (km/s) = 3.66980 3.96123 3.81830
# Velocity P-wave (km/s) = 6.77979 8.12146 7.48076
#
# Compressibility (1/GPa) = 0.01916832
#
# Stress axis : x y z
#
# Youngs Moduli (GPa) = 77.18633 69.21509 32.56895
#
# Poissons Ratio (x) = 0.50616 0.17777
# Poissons Ratio (y) = 0.56446 0.21816
# Poissons Ratio (z) = 0.42130 0.46364
#
# Static dielectric constant tensor:
#      x y z
#    x 3.224960 0.000000 0.000000 
#    y 0.000000 3.882260 0.000000 
#    z 0.000000 0.000000 3.391780 
# 
# 
# High freq. dielectric constant tensor:
#      x y z
#    x 1.721220 0.000000 0.000000 
#    y 0.000000 1.741510 0.000000 
#    z 0.000000 0.000000 1.721790 
# 
# From -- ./inp_files/2028.got.cif
#   From: 2010.03.12/outbox.cif.g09.slc.cpg/sg49_2_cif.got.tgz:2028.got - 2010.04.14 03:58:27.
