data_PCOD8203567
_publ_section_title
;
Structure prediction by ZEFSAII (Michael W. Deem and Ramdas Pophale) SiO2 
 PCOD8203567
Probable space group: P C C M
;
_chemical_formula_sum "Si O2"
_cell_formula_units_Z 56
_cell_length_a 22.465091
_cell_length_b 14.735773
_cell_length_c 8.939301
_cell_angle_alpha 90.000000
_cell_angle_beta 90.000000
_cell_angle_gamma 90.000000
_cell_volume 2959.270506
_symmetry_space_group_name_H-M "P C C M"
_symmetry_group_IT_number 49
_symmetry_cell_setting 'orthorhombic'
loop_
_space_group_symop_operation_xyz
x,y,z
-x,-y,z
x,-y,1/2-z
-x,y,1/2-z
-x,-y,-z
x,y,-z
-x,y,1/2+z
x,-y,1/2+z
loop_
_atom_site_type_symbol
_atom_site_label
_atom_site_fract_x
_atom_site_fract_y
_atom_site_fract_z
Si Si1 0.343791 0.406284 0.676110
Si Si2 0.398235 0.089036 0.173013
Si Si3 0.937642 0.906008 0.822922
Si Si4 0.439924 0.284026 0.175552
Si Si5 0.206297 0.406663 0.674955
Si Si6 0.263852 0.090999 0.176329
Si Si7 0.833351 0.231338 0.674814
O O1 0.364833 0.500000 0.750000
O O2 0.355410 0.411116 0.500000
O O3 0.382289 0.326861 0.748553
O O4 0.275139 0.386671 0.715020
O O5 0.438110 0.176446 0.207727
O O6 0.331255 0.107774 0.231890
O O7 0.426352 0.000000 0.250000
O O8 0.395902 0.066804 0.000000
O O9 0.891854 0.825934 0.785446
O O10 0.000000 0.877099 0.750000
O O11 0.914833 0.000000 0.750000
O O12 0.944672 0.920400 0.000000
O O13 0.500000 0.323144 0.250000
O O14 0.439510 0.306071 0.000000
O O15 0.185165 0.500000 0.750000
O O16 0.196380 0.416355 0.500000
O O17 0.165303 0.325799 0.736602
O O18 0.224396 0.175568 0.229579
O O19 0.237856 0.000000 0.250000
O O20 0.258635 0.079240 0.000000
O O21 0.829681 0.253392 0.500000
#
# Coordination Sequence:
#
# PCOD8203567 Si02
#       7
#     8   8   8   8   8   8   8
#     4  10  21  38  59  83 108 136 169 208 259 318
#     4   9  19  34  52  72  98 133 169 208 257 308
#     4  10  20  34  53  78 111 152 192 231 269 311
#     4  11  23  38  55  76 102 134 173 218 263 311
#     4  10  21  36  57  83 110 139 172 213 262 316
#     4   9  17  30  48  73 103 133 166 208 257 311
#     4  10  20  33  52  78 109 143 180 221 266 313
#
# _framework density 18.923583000000001
#
# number of rings (size 3 to 8) (size 9 to 14) (size 15 to 20)
#    0.000    2.143    0.000    3.429    0.000    6.286 
#    0.000    5.714    0.000    0.429    0.000    3.000 
#    0.000    0.000    0.000    0.000    0.000    0.000 
#
# Total GULP energy -694535.792978 kJ/mol
# GULP energy per Si atom -12402.424875 kJ/mol
# Density = 1.888051 g / cm^3
# Si number density = 18.923583 Si / 1000 Ang^3
#
#
#
# Elastic Constant Matrix: (Units=GPa)
#
#
# Indices 1 2 3 4 5 6 
#
# 1 67.1315 43.0839 39.9214 0.0000 0.0000 0.0000
# 2 43.0839 119.3655 58.3723 0.0000 0.0000 0.0000
# 3 39.9214 58.3723 87.9129 0.0000 0.0000 0.0000
# 4 0.0000 0.0000 0.0000 38.7623 0.0000 0.0000
# 5 0.0000 0.0000 0.0000 0.0000 -0.3487 0.0000
# 6 0.0000 0.0000 0.0000 0.0000 0.0000 22.9874
#
#
#
# Elastic Compliance Matrix: (Units=1/GPa)
#
#
# Indices 1 2 3 4 5 6 
#
# 1 0.021933 -0.004510 -0.006965 0.000000 0.000000 0.000000
# 2 -0.004510 0.013333 -0.006805 0.000000 0.000000 0.000000
# 3 -0.006965 -0.006805 0.019056 0.000000 0.000000 0.000000
# 4 0.000000 0.000000 0.000000 0.025798 0.000000 0.000000
# 5 0.000000 0.000000 0.000000 0.000000 -2.868004 0.000000
# 6 0.000000 0.000000 0.000000 0.000000 0.000000 0.043502
#
#
# Mechanical properties :
#
#
# Convention : Reuss Voigt Hill
#
# Bulk Modulus (GPa) = 56.30100 61.90723 59.10411
# Shear Modulus (GPa) = -1.85055 21.14902 9.64924
#
# Velocity S-wave (km/s) = -0.98996 3.34668 2.26056
# Velocity P-wave (km/s) = 5.33944 6.90790 6.17368
#
# Compressibility (1/GPa) = 0.01776168
#
# Stress axis : x y z
#
# Youngs Moduli (GPa) = 45.59409 74.99981 52.47716
#
# Poissons Ratio (x) = 0.33828 0.36549
# Poissons Ratio (y) = 0.20565 0.35710
# Poissons Ratio (z) = 0.31755 0.51036
#
# Static dielectric constant tensor:
#      x y z
#    x 3.364420 0.000000 0.000000 
#    y 0.000000 3.453890 0.000000 
#    z 0.000000 0.000000 3.442750 
# 
# 
# High freq. dielectric constant tensor:
#      x y z
#    x 1.719240 0.000000 0.000000 
#    y 0.000000 1.736100 0.000000 
#    z 0.000000 0.000000 1.740130 
# 
# From -- ./inp_files/4031.got.cif
#   From: 2010.03.12/outbox.cif.g09.slc.cpg/sg49_3_cif.got.tgz:4031.got - 2010.04.14 03:58:27.
