data_PCOD8203994
_publ_section_title
;
Structure prediction by ZEFSAII (Michael W. Deem and Ramdas Pophale) SiO2 
 PCOD8203994
Probable space group: P C C M
;
_chemical_formula_sum "Si O2"
_cell_formula_units_Z 48
_cell_length_a 30.013589
_cell_length_b 9.541163
_cell_length_c 8.660876
_cell_angle_alpha 90.000000
_cell_angle_beta 90.000000
_cell_angle_gamma 90.000000
_cell_volume 2480.167814
_symmetry_space_group_name_H-M "P C C M"
_symmetry_group_IT_number 49
_symmetry_cell_setting 'orthorhombic'
loop_
_space_group_symop_operation_xyz
x,y,z
-x,-y,z
x,-y,1/2-z
-x,y,1/2-z
-x,-y,-z
x,y,-z
-x,y,1/2+z
x,-y,1/2+z
loop_
_atom_site_type_symbol
_atom_site_label
_atom_site_fract_x
_atom_site_fract_y
_atom_site_fract_z
Si Si1 0.372294 0.846854 0.182092
Si Si2 0.546873 0.649886 0.317933
Si Si3 0.878310 0.153625 0.683108
Si Si4 0.300360 0.647591 0.317223
Si Si5 0.951539 0.647458 0.683545
Si Si6 0.800421 0.355807 0.680737
O O1 0.415906 0.760726 0.231770
O O2 0.328731 0.774947 0.251588
O O3 0.377514 0.000000 0.250000
O O4 0.366892 0.854765 0.000000
O O5 0.560665 0.500000 0.250000
O O6 0.500000 0.702592 0.250000
O O7 0.542426 0.635230 0.500000
O O8 0.885367 0.151803 0.500000
O O9 0.919651 0.228815 0.763067
O O10 0.832595 0.230325 0.731858
O O11 0.874814 0.000000 0.750000
O O12 0.317928 0.500000 0.250000
O O13 0.304829 0.642829 0.500000
O O14 0.249696 0.675054 0.261010
O O15 0.933609 0.500000 0.750000
O O16 0.953674 0.638712 0.500000
O O17 0.000000 0.681354 0.750000
O O18 0.819094 0.500000 0.750000
O O19 0.800550 0.375648 0.500000
#
# Coordination Sequence:
#
# PCOD8203994 Si02
#       6
#     8   8   8   8   8   8
#     4  11  24  39  56  82 114 151 188 230 282 337
#     4  10  21  37  59  84 110 142 184 229 278 330
#     4  11  23  39  57  83 117 153 190 232 282 336
#     4  10  20  37  60  86 114 148 189 234 279 331
#     4  11  22  39  62  88 115 148 189 234 281 333
#     4   9  20  37  59  85 113 146 188 233 280 331
#
# _framework density 19.353531
#
# number of rings (size 3 to 8) (size 9 to 14) (size 15 to 20)
#    0.000    1.667    0.000    5.500    0.000    8.667 
#    0.000    5.000    0.000    0.000    0.000    0.000 
#    0.000    0.000    0.000    0.000    0.000    0.000 
#
# Total GULP energy -595418.017524 kJ/mol
# GULP energy per Si atom -12404.542032 kJ/mol
# Density = 1.930948 g / cm^3
# Si number density = 19.353531 Si / 1000 Ang^3
#
#
#
# Elastic Constant Matrix: (Units=GPa)
#
#
# Indices 1 2 3 4 5 6 
#
# 1 120.6034 94.7348 57.2982 0.0000 0.0000 0.0000
# 2 94.7348 170.3049 60.6883 0.0000 0.0000 0.0000
# 3 57.2982 60.6883 102.0145 0.0000 0.0000 0.0000
# 4 0.0000 0.0000 0.0000 37.6270 0.0000 0.0000
# 5 0.0000 0.0000 0.0000 0.0000 26.7970 0.0000
# 6 0.0000 0.0000 0.0000 0.0000 0.0000 29.1039
#
#
#
# Elastic Compliance Matrix: (Units=1/GPa)
#
#
# Indices 1 2 3 4 5 6 
#
# 1 0.016390 -0.007407 -0.004799 0.000000 0.000000 0.000000
# 2 -0.007407 0.010799 -0.002264 0.000000 0.000000 0.000000
# 3 -0.004799 -0.002264 0.013845 0.000000 0.000000 0.000000
# 4 0.000000 0.000000 0.000000 0.026577 0.000000 0.000000
# 5 0.000000 0.000000 0.000000 0.000000 0.037318 0.000000
# 6 0.000000 0.000000 0.000000 0.000000 0.000000 0.034360
#
#
# Mechanical properties :
#
#
# Convention : Reuss Voigt Hill
#
# Bulk Modulus (GPa) = 82.69038 90.92947 86.80992
# Shear Modulus (GPa) = 29.02600 30.71901 29.87250
#
# Velocity S-wave (km/s) = 3.87690 3.98836 3.93302
# Velocity P-wave (km/s) = 7.92840 8.26406 8.09797
#
# Compressibility (1/GPa) = 0.01209331
#
# Stress axis : x y z
#
# Youngs Moduli (GPa) = 61.01281 92.60269 72.22826
#
# Poissons Ratio (x) = 0.68590 0.34665
# Poissons Ratio (y) = 0.45192 0.16352
# Poissons Ratio (z) = 0.29282 0.20965
#
# Static dielectric constant tensor:
#      x y z
#    x 3.832770 0.000000 0.000000 
#    y 0.000000 3.514280 0.000000 
#    z 0.000000 0.000000 3.636410 
# 
# 
# High freq. dielectric constant tensor:
#      x y z
#    x 1.766370 0.000000 0.000000 
#    y 0.000000 1.752660 0.000000 
#    z 0.000000 0.000000 1.767240 
# 
# From -- ./inp_files/2055.got.cif
#   From: 2010.03.12/outbox.cif.g09.slc.cpg/sg49_2_cif.got.tgz:2055.got - 2010.04.14 03:58:27.
