data_PCOD8203000
_publ_section_title
;
Structure prediction by ZEFSAII (Michael W. Deem and Ramdas Pophale) SiO2 
 PCOD8203000
Probable space group: P C C M
;
_chemical_formula_sum "Si O2"
_cell_formula_units_Z 64
_cell_length_a 18.543799
_cell_length_b 20.541387
_cell_length_c 8.987873
_cell_angle_alpha 90.000000
_cell_angle_beta 90.000000
_cell_angle_gamma 90.000000
_cell_volume 3423.618805
_symmetry_space_group_name_H-M "P C C M"
_symmetry_group_IT_number 49
_symmetry_cell_setting 'orthorhombic'
loop_
_space_group_symop_operation_xyz
x,y,z
-x,-y,z
x,-y,1/2-z
-x,y,1/2-z
-x,-y,-z
x,y,-z
-x,y,1/2+z
x,-y,1/2+z
loop_
_atom_site_type_symbol
_atom_site_label
_atom_site_fract_x
_atom_site_fract_y
_atom_site_fract_z
Si Si1 0.160309 0.433938 0.675793
Si Si2 0.425134 0.676127 0.673258
Si Si3 0.808924 0.202458 0.177670
Si Si4 0.688257 0.567495 0.822271
Si Si5 0.352461 0.936896 0.166809
Si Si6 0.342488 0.805020 0.324697
Si Si7 0.075013 0.306589 0.672999
Si Si8 0.818922 0.060872 0.836951
O O1 0.130582 0.500000 0.750000
O O2 0.173341 0.443440 0.500000
O O3 0.234656 0.413216 0.753592
O O4 0.100846 0.379379 0.708801
O O5 0.500000 0.660240 0.750000
O O6 0.437684 0.668729 0.500000
O O7 0.366611 0.623557 0.727084
O O8 0.399038 0.748496 0.714268
O O9 0.733305 0.216973 0.255558
O O10 0.865258 0.256237 0.232712
O O11 0.839114 0.131620 0.230311
O O12 0.796249 0.202884 0.000000
O O13 0.661225 0.500000 0.750000
O O14 0.694942 0.560546 0.000000
O O15 0.373612 0.871456 0.254795
O O16 0.266967 0.943915 0.159913
O O17 0.385577 0.000000 0.250000
O O18 0.384470 0.933304 0.000000
O O19 0.332207 0.814828 0.500000
O O20 0.063673 0.295363 0.500000
O O21 0.000000 0.291800 0.750000
O O22 0.853082 0.000000 0.750000
O O23 0.852156 0.055050 0.000000
#
# Coordination Sequence:
#
# PCOD8203000 Si02
#       8
#     8   8   8   8   8   8   8   8
#     4  10  20  35  56  81 105 133 167 207 253 305
#     4  10  23  38  53  75 105 139 175 213 256 306
#     4   9  18  33  51  73 100 133 170 210 255 306
#     4  10  20  36  57  82 107 134 170 212 256 306
#     4   9  16  27  45  72 103 135 168 209 258 307
#     4  10  19  32  51  77 104 133 171 215 259 307
#     4  10  22  37  53  74 102 135 173 212 255 304
#     4   8  14  24  41  66  96 124 156 198 244 291
#
# _framework density 18.693670000000001
#
# number of rings (size 3 to 8) (size 9 to 14) (size 15 to 20)
#    0.000    2.500    0.000    3.750    0.000    7.000 
#    0.000    2.500    0.000    0.750    0.000    5.250 
#    0.000    0.000    0.000    0.000    0.000    0.000 
#
# Total GULP energy -793484.359015 kJ/mol
# GULP energy per Si atom -12398.193110 kJ/mol
# Density = 1.865112 g / cm^3
# Si number density = 18.693670 Si / 1000 Ang^3
#
#
#
# Elastic Constant Matrix: (Units=GPa)
#
#
# Indices 1 2 3 4 5 6 
#
# 1 35.3146 10.0579 19.7022 0.0000 0.0000 0.0000
# 2 10.0579 77.9420 32.3696 0.0000 0.0000 0.0000
# 3 19.7022 32.3696 76.0147 0.0000 0.0000 0.0000
# 4 0.0000 0.0000 0.0000 31.9961 0.0000 0.0000
# 5 0.0000 0.0000 0.0000 0.0000 25.6775 0.0000
# 6 0.0000 0.0000 0.0000 0.0000 0.0000 6.1872
#
#
#
# Elastic Compliance Matrix: (Units=1/GPa)
#
#
# Indices 1 2 3 4 5 6 
#
# 1 0.033151 -0.000862 -0.008225 0.000000 0.000000 0.000000
# 2 -0.000862 0.015609 -0.006423 0.000000 0.000000 0.000000
# 3 -0.008225 -0.006423 0.018023 0.000000 0.000000 0.000000
# 4 0.000000 0.000000 0.000000 0.031254 0.000000 0.000000
# 5 0.000000 0.000000 0.000000 0.000000 0.038945 0.000000
# 6 0.000000 0.000000 0.000000 0.000000 0.000000 0.161623
#
#
# Mechanical properties :
#
#
# Convention : Reuss Voigt Hill
#
# Bulk Modulus (GPa) = 27.96308 34.83673 31.39991
# Shear Modulus (GPa) = 14.63928 21.24827 17.94377
#
# Velocity S-wave (km/s) = 2.80145 3.37509 3.10156
# Velocity P-wave (km/s) = 5.04532 5.81931 5.44608
#
# Compressibility (1/GPa) = 0.03576143
#
# Stress axis : x y z
#
# Youngs Moduli (GPa) = 30.16460 64.06589 55.48590
#
# Poissons Ratio (x) = 0.05522 0.45640
# Poissons Ratio (y) = 0.02600 0.35641
# Poissons Ratio (z) = 0.24812 0.41152
#
# Static dielectric constant tensor:
#      x y z
#    x 3.039060 0.000000 0.000000 
#    y 0.000000 3.751880 0.000000 
#    z 0.000000 0.000000 3.514090 
# 
# 
# High freq. dielectric constant tensor:
#      x y z
#    x 1.685800 0.000000 0.000000 
#    y 0.000000 1.745600 0.000000 
#    z 0.000000 0.000000 1.729660 
# 
# From -- ./inp_files/5296.got.cif
#   From: 2010.03.12/outbox.cif.g09.slc.cpg/sg49_3_cif.got.tgz:5296.got - 2010.04.14 03:58:27.
