data_PCOD8203915
_publ_section_title
;
Structure prediction by ZEFSAII (Michael W. Deem and Ramdas Pophale) SiO2 
 PCOD8203915
Probable space group: P C C M
;
_chemical_formula_sum "Si O2"
_cell_formula_units_Z 64
_cell_length_a 11.849620
_cell_length_b 9.271321
_cell_length_c 30.534743
_cell_angle_alpha 90.000000
_cell_angle_beta 90.000000
_cell_angle_gamma 90.000000
_cell_volume 3354.596660
_symmetry_space_group_name_H-M "P C C M"
_symmetry_group_IT_number 49
_symmetry_cell_setting 'orthorhombic'
loop_
_space_group_symop_operation_xyz
x,y,z
-x,-y,z
x,-y,1/2-z
-x,y,1/2-z
-x,-y,-z
x,y,-z
-x,y,1/2+z
x,-y,1/2+z
loop_
_atom_site_type_symbol
_atom_site_label
_atom_site_fract_x
_atom_site_fract_y
_atom_site_fract_z
Si Si1 0.488373 0.328315 0.142768
Si Si2 0.729320 0.680422 0.673261
Si Si3 0.472408 0.666493 0.047360
Si Si4 0.986696 0.157854 0.049729
Si Si5 0.254793 0.355367 0.180837
Si Si6 0.132158 0.829658 0.246057
Si Si7 0.104932 0.406823 0.901056
Si Si8 0.779096 0.331724 0.072368
O O1 0.500000 0.500000 0.137491
O O2 0.598076 0.267781 0.168993
O O3 0.477545 0.264610 0.092546
O O4 0.377766 0.287748 0.170135
O O5 0.733570 0.522109 0.696013
O O6 0.810075 0.787425 0.700086
O O7 0.778889 0.677140 0.624859
O O8 0.500000 0.500000 0.046262
O O9 0.338694 0.687201 0.049063
O O10 0.513019 0.734923 0.000000
O O11 0.857418 0.207883 0.052666
O O12 0.068252 0.264463 0.074598
O O13 0.027715 0.152587 0.000000
O O14 0.000000 0.000000 0.071214
O O15 0.200052 0.255711 0.217211
O O16 0.180277 0.348063 0.137871
O O17 0.000000 0.786423 0.250000
O O18 0.147131 0.000000 0.250000
O O19 0.172336 0.506881 0.936110
O O20 0.000000 0.500000 0.882228
#
# Coordination Sequence:
#
# PCOD8203915 Si02
#       8
#     8   8   8   8   8   8   8   8
#     4   8  16  33  54  81 112 142 181 221 268 325
#     4   9  19  37  59  83 107 142 180 223 273 327
#     4   9  15  25  48  83 115 142 172 219 278 324
#     4  10  21  34  48  70 104 148 188 221 268 327
#     4  10  20  36  59  81 110 143 178 223 275 331
#     4  11  26  40  54  81 112 141 180 229 278 331
#     4   9  19  32  51  79 104 138 181 226 274 317
#     4   9  18  32  53  78 109 138 180 228 271 323
#
# _framework density 19.078299000000001
#
# number of rings (size 3 to 8) (size 9 to 14) (size 15 to 20)
#    0.000    2.625    0.000    3.000    5.250    4.750 
#    0.000    3.750    0.000    0.000    0.000    2.625 
#    0.000   17.000    0.000    0.000    0.000    0.000 
#
# Total GULP energy -793041.506104 kJ/mol
# GULP energy per Si atom -12391.273533 kJ/mol
# Density = 1.903488 g / cm^3
# Si number density = 19.078299 Si / 1000 Ang^3
#
#
#
# Elastic Constant Matrix: (Units=GPa)
#
#
# Indices 1 2 3 4 5 6 
#
# 1 101.5746 35.1374 50.0455 0.0000 0.0000 0.0000
# 2 35.1374 88.2151 41.7428 0.0000 0.0000 0.0000
# 3 50.0455 41.7428 84.3490 0.0000 0.0000 0.0000
# 4 0.0000 0.0000 0.0000 17.5803 0.0000 0.0000
# 5 0.0000 0.0000 0.0000 0.0000 22.3519 0.0000
# 6 0.0000 0.0000 0.0000 0.0000 0.0000 18.1194
#
#
#
# Elastic Compliance Matrix: (Units=1/GPa)
#
#
# Indices 1 2 3 4 5 6 
#
# 1 0.014227 -0.002184 -0.007360 0.000000 0.000000 0.000000
# 2 -0.002184 0.015138 -0.006196 0.000000 0.000000 0.000000
# 3 -0.007360 -0.006196 0.019288 0.000000 0.000000 0.000000
# 4 0.000000 0.000000 0.000000 0.056882 0.000000 0.000000
# 5 0.000000 0.000000 0.000000 0.000000 0.044739 0.000000
# 6 0.000000 0.000000 0.000000 0.000000 0.000000 0.055189
#
#
# Mechanical properties :
#
#
# Convention : Reuss Voigt Hill
#
# Bulk Modulus (GPa) = 58.22929 58.66556 58.44743
# Shear Modulus (GPa) = 20.60439 21.42452 21.01446
#
# Velocity S-wave (km/s) = 3.28989 3.35472 3.32246
# Velocity P-wave (km/s) = 6.70959 6.76921 6.73947
#
# Compressibility (1/GPa) = 0.01717349
#
# Stress axis : x y z
#
# Youngs Moduli (GPa) = 70.28987 66.06102 51.84449
#
# Poissons Ratio (x) = 0.14427 0.38158
# Poissons Ratio (y) = 0.15351 0.32120
# Poissons Ratio (z) = 0.51734 0.40928
#
# Static dielectric constant tensor:
#      x y z
#    x 3.770190 0.000000 0.000000 
#    y 0.000000 3.266940 0.000000 
#    z 0.000000 0.000000 3.635340 
# 
# 
# High freq. dielectric constant tensor:
#      x y z
#    x 1.753310 0.000000 0.000000 
#    y 0.000000 1.701590 0.000000 
#    z 0.000000 0.000000 1.744720 
# 
# From -- ./inp_files/26664.got.cif
#   From: 2010.03.12/outbox.cif.g09.slc.cpg/sg49_14_cif.got.tgz:26664.got - 2010.04.14 03:58:27.
