data_PCOD8203135
_publ_section_title
;
Structure prediction by ZEFSAII (Michael W. Deem and Ramdas Pophale) SiO2 
 PCOD8203135
Probable space group: P C C M
;
_chemical_formula_sum "Si O2"
_cell_formula_units_Z 64
_cell_length_a 24.623601
_cell_length_b 15.349198
_cell_length_c 8.692993
_cell_angle_alpha 90.000000
_cell_angle_beta 90.000000
_cell_angle_gamma 90.000000
_cell_volume 3285.538673
_symmetry_space_group_name_H-M "P C C M"
_symmetry_group_IT_number 49
_symmetry_cell_setting 'orthorhombic'
loop_
_space_group_symop_operation_xyz
x,y,z
-x,-y,z
x,-y,1/2-z
-x,y,1/2-z
-x,-y,-z
x,y,-z
-x,y,1/2+z
x,-y,1/2+z
loop_
_atom_site_type_symbol
_atom_site_label
_atom_site_fract_x
_atom_site_fract_y
_atom_site_fract_z
Si Si1 0.901124 0.087391 0.180173
Si Si2 0.232459 0.692944 0.179968
Si Si3 0.329700 0.911116 0.680163
Si Si4 0.856551 0.589681 0.181783
Si Si5 0.056824 0.734818 0.681245
Si Si6 0.558322 0.592414 0.316906
Si Si7 0.354023 0.267685 0.679026
Si Si8 0.208002 0.130006 0.820438
O O1 0.928697 0.170418 0.256075
O O2 0.836971 0.082356 0.218402
O O3 0.928310 0.000000 0.250000
O O4 0.910898 0.090594 0.000000
O O5 0.201981 0.606095 0.236711
O O6 0.296411 0.687127 0.216905
O O7 0.205372 0.768067 0.282563
O O8 0.222416 0.710802 0.000000
O O9 0.336984 0.914174 0.500000
O O10 0.361127 0.825911 0.740124
O O11 0.266610 0.906356 0.729379
O O12 0.354688 0.000000 0.750000
O O13 0.879804 0.500000 0.250000
O O14 0.898074 0.665207 0.231669
O O15 0.849201 0.583084 0.000000
O O16 0.051944 0.740967 0.500000
O O17 0.000000 0.702721 0.750000
O O18 0.578034 0.500000 0.250000
O O19 0.500000 0.618240 0.250000
O O20 0.555449 0.585430 0.500000
O O21 0.599960 0.666608 0.261006
O O22 0.360406 0.249642 0.500000
O O23 0.195260 0.116230 0.000000
#
# Coordination Sequence:
#
# PCOD8203135 Si02
#       8
#     8   8   8   8   8   8   8   8
#     4  12  24  38  60  87 116 151 189 233 284 341
#     4  10  19  34  57  84 117 154 190 229 283 340
#     4  10  20  32  51  79 115 156 196 238 283 336
#     4  11  24  41  63  88 118 150 188 235 285 343
#     4  11  25  45  66  87 114 146 187 238 288 344
#     4  10  20  36  58  84 115 151 194 244 293 343
#     4   9  20  36  55  83 118 155 195 239 286 341
#     4  10  19  33  53  81 115 151 191 231 278 334
#
# _framework density 19.479303000000002
#
# number of rings (size 3 to 8) (size 9 to 14) (size 15 to 20)
#    0.000    1.625    1.250    4.125    0.000    6.500 
#    0.000    3.750    0.000    0.375    0.000    2.625 
#    0.000    0.000    0.000    0.000    0.000    0.000 
#
# Total GULP energy -793778.747576 kJ/mol
# GULP energy per Si atom -12402.792931 kJ/mol
# Density = 1.943497 g / cm^3
# Si number density = 19.479303 Si / 1000 Ang^3
#
#
#
# Elastic Constant Matrix: (Units=GPa)
#
#
# Indices 1 2 3 4 5 6 
#
# 1 89.2074 67.4746 38.6064 0.0000 0.0000 0.0000
# 2 67.4746 149.0802 51.3370 0.0000 0.0000 0.0000
# 3 38.6064 51.3370 79.5656 0.0000 0.0000 0.0000
# 4 0.0000 0.0000 0.0000 35.6619 0.0000 0.0000
# 5 0.0000 0.0000 0.0000 0.0000 25.5998 0.0000
# 6 0.0000 0.0000 0.0000 0.0000 0.0000 13.6434
#
#
#
# Elastic Compliance Matrix: (Units=1/GPa)
#
#
# Indices 1 2 3 4 5 6 
#
# 1 0.018231 -0.006692 -0.004528 0.000000 0.000000 0.000000
# 2 -0.006692 0.011081 -0.003902 0.000000 0.000000 0.000000
# 3 -0.004528 -0.003902 0.017283 0.000000 0.000000 0.000000
# 4 0.000000 0.000000 0.000000 0.028041 0.000000 0.000000
# 5 0.000000 0.000000 0.000000 0.000000 0.039063 0.000000
# 6 0.000000 0.000000 0.000000 0.000000 0.000000 0.073296
#
#
# Mechanical properties :
#
#
# Convention : Reuss Voigt Hill
#
# Bulk Modulus (GPa) = 61.16274 70.29879 65.73076
# Shear Modulus (GPa) = 22.45277 25.67671 24.06474
#
# Velocity S-wave (km/s) = 3.39875 3.63458 3.51864
# Velocity P-wave (km/s) = 6.84609 7.33354 7.09401
#
# Compressibility (1/GPa) = 0.01634982
#
# Stress axis : x y z
#
# Youngs Moduli (GPa) = 54.85032 90.24856 57.86014
#
# Poissons Ratio (x) = 0.60397 0.26200
# Poissons Ratio (y) = 0.36708 0.22578
# Poissons Ratio (z) = 0.24837 0.35216
#
# Static dielectric constant tensor:
#      x y z
#    x 3.606690 0.000000 0.000000 
#    y 0.000000 3.691280 0.000000 
#    z 0.000000 0.000000 3.539680 
# 
# 
# High freq. dielectric constant tensor:
#      x y z
#    x 1.736590 0.000000 0.000000 
#    y 0.000000 1.766280 0.000000 
#    z 0.000000 0.000000 1.769180 
# 
# From -- ./inp_files/6495.got.cif
#   From: 2010.03.12/outbox.cif.g09.slc.cpg/sg49_4_cif.got.tgz:6495.got - 2010.04.14 03:58:27.
