data_PCOD8203991
_publ_section_title
;
Structure prediction by ZEFSAII (Michael W. Deem and Ramdas Pophale) SiO2 
 PCOD8203991
Probable space group: P C C M
;
_chemical_formula_sum "Si O2"
_cell_formula_units_Z 64
_cell_length_a 18.478320
_cell_length_b 20.744970
_cell_length_c 8.947024
_cell_angle_alpha 90.000000
_cell_angle_beta 90.000000
_cell_angle_gamma 90.000000
_cell_volume 3429.682340
_symmetry_space_group_name_H-M "P C C M"
_symmetry_group_IT_number 49
_symmetry_cell_setting 'orthorhombic'
loop_
_space_group_symop_operation_xyz
x,y,z
-x,-y,z
x,-y,1/2-z
-x,y,1/2-z
-x,-y,-z
x,y,-z
-x,y,1/2+z
x,-y,1/2+z
loop_
_atom_site_type_symbol
_atom_site_label
_atom_site_fract_x
_atom_site_fract_y
_atom_site_fract_z
Si Si1 0.312975 0.797659 0.173680
Si Si2 0.424253 0.311335 0.678323
Si Si3 0.158544 0.060351 0.825424
Si Si4 0.185126 0.565689 0.674568
Si Si5 0.159099 0.798221 0.325758
Si Si6 0.350970 0.567409 0.322792
Si Si7 0.314345 0.939475 0.825653
Si Si8 0.075767 0.675121 0.676722
O O1 0.368628 0.743998 0.230128
O O2 0.236849 0.787750 0.253276
O O3 0.348427 0.868716 0.205158
O O4 0.296701 0.789794 0.000000
O O5 0.500000 0.291269 0.750000
O O6 0.430305 0.316570 0.500000
O O7 0.400128 0.378930 0.746897
O O8 0.124097 0.130927 0.793587
O O9 0.236319 0.062282 0.749662
O O10 0.114581 0.000000 0.750000
O O11 0.165499 0.046835 0.000000
O O12 0.158752 0.500000 0.750000
O O13 0.177126 0.555226 0.500000
O O14 0.267597 0.582512 0.717475
O O15 0.134676 0.623341 0.732182
O O16 0.172912 0.788131 0.500000
O O17 0.102509 0.745204 0.266437
O O18 0.374576 0.500000 0.250000
O O19 0.364471 0.565568 0.500000
O O20 0.358058 0.000000 0.750000
O O21 0.307345 0.953682 0.000000
O O22 0.066359 0.673379 0.500000
O O23 0.000000 0.657674 0.750000
#
# Coordination Sequence:
#
# PCOD8203991 Si02
#       8
#     8   8   8   8   8   8   8   8
#     4   9  19  33  51  75 103 132 168 212 256 300
#     4  11  23  38  54  76 105 138 173 211 252 299
#     4   9  15  24  41  67  96 125 156 199 249 298
#     4   9  19  35  56  79 104 131 163 202 246 294
#     4   9  18  32  51  73  99 130 168 209 252 300
#     4  10  20  37  60  84 107 134 166 206 252 300
#     4   9  15  25  42  68  99 128 159 202 251 299
#     4  10  21  36  51  72 101 134 169 207 247 292
#
# _framework density 18.660620999999999
#
# number of rings (size 3 to 8) (size 9 to 14) (size 15 to 20)
#    0.000    2.500    0.000    3.000    0.000    5.000 
#    0.000    2.500    0.000    0.750    0.000    5.250 
#    0.000    0.000    0.000    0.000    0.000    0.000 
#
# Total GULP energy -793223.936710 kJ/mol
# GULP energy per Si atom -12394.124011 kJ/mol
# Density = 1.861815 g / cm^3
# Si number density = 18.660621 Si / 1000 Ang^3
#
#
#
# Elastic Constant Matrix: (Units=GPa)
#
#
# Indices 1 2 3 4 5 6 
#
# 1 41.1915 14.5157 12.5805 0.0000 0.0000 0.0000
# 2 14.5157 105.0505 29.1356 0.0000 0.0000 0.0000
# 3 12.5805 29.1356 61.0551 0.0000 0.0000 0.0000
# 4 0.0000 0.0000 0.0000 20.0933 0.0000 0.0000
# 5 0.0000 0.0000 0.0000 0.0000 23.4255 0.0000
# 6 0.0000 0.0000 0.0000 0.0000 0.0000 5.7170
#
#
#
# Elastic Compliance Matrix: (Units=1/GPa)
#
#
# Indices 1 2 3 4 5 6 
#
# 1 0.026452 -0.002470 -0.004272 0.000000 0.000000 0.000000
# 2 -0.002470 0.011202 -0.004837 0.000000 0.000000 0.000000
# 3 -0.004272 -0.004837 0.019567 0.000000 0.000000 0.000000
# 4 0.000000 0.000000 0.000000 0.049768 0.000000 0.000000
# 5 0.000000 0.000000 0.000000 0.000000 0.042688 0.000000
# 6 0.000000 0.000000 0.000000 0.000000 0.000000 0.174918
#
#
# Mechanical properties :
#
#
# Convention : Reuss Voigt Hill
#
# Bulk Modulus (GPa) = 29.35675 35.52898 32.44286
# Shear Modulus (GPa) = 13.92343 19.91818 16.92080
#
# Velocity S-wave (km/s) = 2.73452 3.27064 3.01452
# Velocity P-wave (km/s) = 5.07309 5.77440 5.43507
#
# Compressibility (1/GPa) = 0.03406371
#
# Stress axis : x y z
#
# Youngs Moduli (GPa) = 37.80430 89.26971 51.10679
#
# Poissons Ratio (x) = 0.22053 0.21831
# Poissons Ratio (y) = 0.09339 0.24718
# Poissons Ratio (z) = 0.16149 0.43176
#
# Static dielectric constant tensor:
#      x y z
#    x 3.090170 0.000000 0.000000 
#    y 0.000000 4.440910 0.000000 
#    z 0.000000 0.000000 3.449210 
# 
# 
# High freq. dielectric constant tensor:
#      x y z
#    x 1.679350 0.000000 0.000000 
#    y 0.000000 1.752110 0.000000 
#    z 0.000000 0.000000 1.728600 
# 
# From -- ./inp_files/5290.got.cif
#   From: 2010.03.12/outbox.cif.g09.slc.cpg/sg49_3_cif.got.tgz:5290.got - 2010.04.14 03:58:27.
