data_PCOD8203864
_publ_section_title
;
Structure prediction by ZEFSAII (Michael W. Deem and Ramdas Pophale) SiO2 
 PCOD8203864
Probable space group: P C C M
;
_chemical_formula_sum "Si O2"
_cell_formula_units_Z 48
_cell_length_a 14.760929
_cell_length_b 8.517012
_cell_length_c 18.081466
_cell_angle_alpha 90.000000
_cell_angle_beta 90.000000
_cell_angle_gamma 90.000000
_cell_volume 2273.183994
_symmetry_space_group_name_H-M "P C C M"
_symmetry_group_IT_number 49
_symmetry_cell_setting 'orthorhombic'
loop_
_space_group_symop_operation_xyz
x,y,z
-x,-y,z
x,-y,1/2-z
-x,y,1/2-z
-x,-y,-z
x,y,-z
-x,y,1/2+z
x,-y,1/2+z
loop_
_atom_site_type_symbol
_atom_site_label
_atom_site_fract_x
_atom_site_fract_y
_atom_site_fract_z
Si Si1 0.214602 0.078346 0.669219
Si Si2 0.140531 0.211694 0.082982
Si Si3 0.024398 0.183502 0.672813
Si Si4 0.675188 0.353845 0.585043
Si Si5 0.477997 0.183217 0.166862
Si Si6 0.643520 0.288428 0.913745
O O1 0.132245 0.204941 0.664145
O O2 0.302451 0.169699 0.640176
O O3 0.231346 0.000000 0.750000
O O4 0.186547 0.942232 0.614952
O O5 0.216138 0.344460 0.093707
O O6 0.042872 0.266538 0.114743
O O7 0.118183 0.170548 0.000000
O O8 0.000000 0.262907 0.750000
O O9 0.000000 0.000000 0.672713
O O10 0.646384 0.317361 0.500000
O O11 0.623994 0.232579 0.641348
O O12 0.658680 0.532100 0.607697
O O13 0.500000 0.244774 0.250000
O O14 0.538542 0.265260 0.104397
O O15 0.500000 0.000000 0.163231
O O16 0.664870 0.253555 0.000000
#
# Coordination Sequence:
#
# PCOD8203864 Si02
#       6
#     8   8   8   8   8   8
#     4  11  21  36  62  91 125 163 204 264 314 374
#     4  10  20  35  62  90 118 161 212 260 312 373
#     4   9  16  33  55  85 119 155 195 255 317 361
#     4  10  23  44  63  88 129 171 213 261 318 379
#     4  11  25  41  65  96 128 164 213 266 317 373
#     4  11  25  42  63  92 128 171 213 260 318 381
#
# _framework density 21.115756999999999
#
# number of rings (size 3 to 8) (size 9 to 14) (size 15 to 20)
#    0.000    1.667    3.333    2.500    4.667    9.000 
#    0.000    0.833    0.000    4.000    0.000    0.000 
#    0.000    0.000    0.000    0.000    0.000    0.000 
#
# Total GULP energy -594731.926511 kJ/mol
# GULP energy per Si atom -12390.248469 kJ/mol
# Density = 2.106770 g / cm^3
# Si number density = 21.115757 Si / 1000 Ang^3
#
#
#
# Elastic Constant Matrix: (Units=GPa)
#
#
# Indices 1 2 3 4 5 6 
#
# 1 83.7334 14.2979 49.5972 0.0000 0.0000 0.0000
# 2 14.2979 62.0642 37.6021 0.0000 0.0000 0.0000
# 3 49.5972 37.6021 141.3055 0.0000 0.0000 0.0000
# 4 0.0000 0.0000 0.0000 13.9783 0.0000 0.0000
# 5 0.0000 0.0000 0.0000 0.0000 38.5028 0.0000
# 6 0.0000 0.0000 0.0000 0.0000 0.0000 22.7952
#
#
#
# Elastic Compliance Matrix: (Units=1/GPa)
#
#
# Indices 1 2 3 4 5 6 
#
# 1 0.015083 -0.000319 -0.005209 0.000000 0.000000 0.000000
# 2 -0.000319 0.019216 -0.005002 0.000000 0.000000 0.000000
# 3 -0.005209 -0.005002 0.010236 0.000000 0.000000 0.000000
# 4 0.000000 0.000000 0.000000 0.071539 0.000000 0.000000
# 5 0.000000 0.000000 0.000000 0.000000 0.025972 0.000000
# 6 0.000000 0.000000 0.000000 0.000000 0.000000 0.043869
#
#
# Mechanical properties :
#
#
# Convention : Reuss Voigt Hill
#
# Bulk Modulus (GPa) = 42.59665 54.45527 48.52596
# Shear Modulus (GPa) = 23.27758 27.42900 25.35329
#
# Velocity S-wave (km/s) = 3.32381 3.60805 3.46884
# Velocity P-wave (km/s) = 5.91160 6.57284 6.25097
#
# Compressibility (1/GPa) = 0.02347603
#
# Stress axis : x y z
#
# Youngs Moduli (GPa) = 66.30192 52.03984 97.69282
#
# Poissons Ratio (x) = 0.01658 0.50889
# Poissons Ratio (y) = 0.02113 0.48862
# Poissons Ratio (z) = 0.34537 0.26028
#
# Static dielectric constant tensor:
#      x y z
#    x 4.471030 0.000000 0.000000 
#    y 0.000000 3.464910 0.000000 
#    z 0.000000 0.000000 4.038910 
# 
# 
# High freq. dielectric constant tensor:
#      x y z
#    x 1.844520 0.000000 0.000000 
#    y 0.000000 1.794720 0.000000 
#    z 0.000000 0.000000 1.835760 
# 
# From -- ./inp_files/16316.got.cif
#   From: 2010.03.12/outbox.cif.g09.slc.cpg/sg49_9_cif.got.tgz:16316.got - 2010.04.14 03:58:27.
