data_PCOD8203172
_publ_section_title
;
Structure prediction by ZEFSAII (Michael W. Deem and Ramdas Pophale) SiO2 
 PCOD8203172
Probable space group: P C C M
;
_chemical_formula_sum "Si O2"
_cell_formula_units_Z 56
_cell_length_a 30.420074
_cell_length_b 5.027144
_cell_length_c 17.381081
_cell_angle_alpha 90.000000
_cell_angle_beta 90.000000
_cell_angle_gamma 90.000000
_cell_volume 2658.020801
_symmetry_space_group_name_H-M "P C C M"
_symmetry_group_IT_number 49
_symmetry_cell_setting 'orthorhombic'
loop_
_space_group_symop_operation_xyz
x,y,z
-x,-y,z
x,-y,1/2-z
-x,y,1/2-z
-x,-y,-z
x,y,-z
-x,y,1/2+z
x,-y,1/2+z
loop_
_atom_site_type_symbol
_atom_site_label
_atom_site_fract_x
_atom_site_fract_y
_atom_site_fract_z
Si Si1 0.451615 0.507277 0.088793
Si Si2 0.028784 0.743603 0.084581
Si Si3 0.833482 0.482250 0.341581
Si Si4 0.885323 0.975047 0.659781
Si Si5 0.695774 0.995350 0.159411
Si Si6 0.603746 0.977969 0.089122
Si Si7 0.260027 0.498829 0.591154
O O1 0.500000 0.500000 0.127972
O O2 0.417792 0.290900 0.123848
O O3 0.432928 0.799104 0.099840
O O4 0.456819 0.424700 0.000000
O O5 0.068820 0.846023 0.135469
O O6 0.000000 0.500000 0.122252
O O7 0.045216 0.646994 0.000000
O O8 0.000000 0.000000 0.073990
O O9 0.827400 0.500000 0.250000
O O10 0.848243 0.771940 0.370137
O O11 0.787989 0.408953 0.381608
O O12 0.870766 0.267738 0.369540
O O13 0.887549 0.000000 0.750000
O O14 0.645675 0.063449 0.138959
O O15 0.705094 0.703175 0.126394
O O16 0.703388 0.000000 0.250000
O O17 0.728915 0.205332 0.121265
O O18 0.618335 0.948930 0.000000
O O19 0.263151 0.503520 0.500000
#
# Coordination Sequence:
#
# PCOD8203172 Si02
#       7
#     8   8   8   8   8   8   8
#     4   9  17  30  52  82 113 147 191 244 299 352
#     4  10  21  37  57  82 114 152 193 240 291 339
#     4  10  21  38  59  85 119 156 194 240 299 358
#     4  10  21  37  58  85 117 154 196 240 288 350
#     4  12  25  42  63  88 124 166 204 248 310 373
#     4  10  19  33  55  82 113 150 197 249 294 350
#     4  12  25  42  65  94 123 157 207 258 305 362
#
# _framework density 21.068308999999999
#
# number of rings (size 3 to 8) (size 9 to 14) (size 15 to 20)
#    0.000    1.571    0.000    5.571    0.000    5.429 
#    0.000    0.714    0.000    2.571    0.000    0.000 
#    0.000    0.000    0.000    0.000    0.000    0.000 
#
# Total GULP energy -694264.471899 kJ/mol
# GULP energy per Si atom -12397.579855 kJ/mol
# Density = 2.102036 g / cm^3
# Si number density = 21.068309 Si / 1000 Ang^3
#
#
#
# Elastic Constant Matrix: (Units=GPa)
#
#
# Indices 1 2 3 4 5 6 
#
# 1 113.8832 31.1175 30.6104 0.0000 0.0000 0.0000
# 2 31.1175 111.7981 40.5160 0.0000 0.0000 0.0000
# 3 30.6104 40.5160 66.0361 0.0000 0.0000 0.0000
# 4 0.0000 0.0000 0.0000 22.0198 0.0000 0.0000
# 5 0.0000 0.0000 0.0000 0.0000 3.2372 0.0000
# 6 0.0000 0.0000 0.0000 0.0000 0.0000 44.4522
#
#
#
# Elastic Compliance Matrix: (Units=1/GPa)
#
#
# Indices 1 2 3 4 5 6 
#
# 1 0.010210 -0.001449 -0.003844 0.000000 0.000000 0.000000
# 2 -0.001449 0.011708 -0.006512 0.000000 0.000000 0.000000
# 3 -0.003844 -0.006512 0.020920 0.000000 0.000000 0.000000
# 4 0.000000 0.000000 0.000000 0.045414 0.000000 0.000000
# 5 0.000000 0.000000 0.000000 0.000000 0.308905 0.000000
# 6 0.000000 0.000000 0.000000 0.000000 0.000000 0.022496
#
#
# Mechanical properties :
#
#
# Convention : Reuss Voigt Hill
#
# Bulk Modulus (GPa) = 52.00377 55.13391 53.56884
# Shear Modulus (GPa) = 11.11924 26.57341 18.84632
#
# Velocity S-wave (km/s) = 2.29982 3.55533 2.99412
# Velocity P-wave (km/s) = 5.63819 6.56352 6.11837
#
# Compressibility (1/GPa) = 0.01922937
#
# Stress axis : x y z
#
# Youngs Moduli (GPa) = 97.94352 85.41319 47.80067
#
# Poissons Ratio (x) = 0.12375 0.18374
# Poissons Ratio (y) = 0.14190 0.31126
# Poissons Ratio (z) = 0.37648 0.55618
#
# Static dielectric constant tensor:
#      x y z
#    x 3.713580 0.000000 0.000000 
#    y 0.000000 4.433120 0.000000 
#    z 0.000000 0.000000 3.598350 
# 
# 
# High freq. dielectric constant tensor:
#      x y z
#    x 1.834860 0.000000 0.000000 
#    y 0.000000 1.846280 0.000000 
#    z 0.000000 0.000000 1.792730 
# 
# From -- ./inp_files/14605.got.cif
#   From: 2010.03.12/outbox.cif.g09.slc.cpg/sg49_8_cif.got.tgz:14605.got - 2010.04.14 03:58:27.
