data_PCOD8203903
_publ_section_title
;
Structure prediction by ZEFSAII (Michael W. Deem and Ramdas Pophale) SiO2 
 PCOD8203903
Probable space group: P C C M
;
_chemical_formula_sum "Si O2"
_cell_formula_units_Z 56
_cell_length_a 8.864290
_cell_length_b 21.605989
_cell_length_c 15.495169
_cell_angle_alpha 90.000000
_cell_angle_beta 90.000000
_cell_angle_gamma 90.000000
_cell_volume 2967.661918
_symmetry_space_group_name_H-M "P C C M"
_symmetry_group_IT_number 49
_symmetry_cell_setting 'orthorhombic'
loop_
_space_group_symop_operation_xyz
x,y,z
-x,-y,z
x,-y,1/2-z
-x,y,1/2-z
-x,-y,-z
x,y,-z
-x,y,1/2+z
x,-y,1/2+z
loop_
_atom_site_type_symbol
_atom_site_label
_atom_site_fract_x
_atom_site_fract_y
_atom_site_fract_z
Si Si1 0.320575 0.930647 0.904246
Si Si2 0.178793 0.500000 0.653388
Si Si3 0.680033 0.152394 0.750000
Si Si4 0.823629 0.632518 0.902753
Si Si5 0.823629 0.632518 0.402753
Si Si6 0.321458 0.292422 0.750000
Si Si7 0.320575 0.069353 0.904246
O O1 0.255134 0.882410 0.834629
O O2 0.500000 0.929896 0.901526
O O3 0.263745 0.000000 0.881983
O O4 0.264373 0.911300 0.000000
O O5 0.245127 0.500000 0.750000
O O6 0.235158 0.561740 0.605089
O O7 0.235158 0.438260 0.605089
O O8 0.000000 0.500000 0.655255
O O9 0.500000 0.150878 0.750000
O O10 0.740168 0.222345 0.750000
O O11 0.744866 0.117590 0.665371
O O12 0.735558 0.675358 0.836592
O O13 0.000000 0.636066 0.880027
O O14 0.791306 0.655564 0.000000
O O15 0.791306 0.655564 0.500000
O O16 0.735558 0.675358 0.336592
O O17 0.500000 0.294395 0.750000
O O18 0.264373 0.088700 0.000000
#
# Coordination Sequence:
#
# PCOD8203903 Si02
#       7
#     8   8   8   8   8   8   8
#     4   8  13  22  38  59  82 113 157 204 243 281
#     4   9  15  29  57  83  99 118 157 218 269 300
#     4   9  17  27  39  58  90 132 165 190 232 292
#     4  10  20  36  58  79  99 128 170 216 258 300
#     4  10  20  36  58  79  99 128 170 216 258 300
#     4  11  23  35  48  72 109 146 173 200 242 303
#     4   8  13  22  38  59  82 113 157 204 243 281
#
# _framework density 18.870075
#
# number of rings (size 3 to 8) (size 9 to 14) (size 15 to 20)
#    0.000    2.714    1.429    2.143    0.000    5.143 
#    0.000    4.286    0.000    1.714    0.000    0.000 
#    0.000    9.143    0.000   25.143    0.000   20.571 
#
# Total GULP energy -694151.075479 kJ/mol
# GULP energy per Si atom -12395.554919 kJ/mol
# Density = 1.882713 g / cm^3
# Si number density = 18.870075 Si / 1000 Ang^3
#
#
#
# Elastic Constant Matrix: (Units=GPa)
#
#
# Indices 1 2 3 4 5 6 
#
# 1 26.7080 28.5972 29.4752 0.0000 0.0000 0.0000
# 2 28.5972 168.7404 98.9795 0.0000 0.0000 0.0000
# 3 29.4752 98.9795 161.8352 0.0000 0.0000 0.0000
# 4 0.0000 0.0000 0.0000 6.1134 0.0000 0.0000
# 5 0.0000 0.0000 0.0000 0.0000 17.8220 0.0000
# 6 0.0000 0.0000 0.0000 0.0000 0.0000 -17.3781
#
#
#
# Elastic Compliance Matrix: (Units=1/GPa)
#
#
# Indices 1 2 3 4 5 6 
#
# 1 0.049244 -0.004810 -0.006027 0.000000 0.000000 0.000000
# 2 -0.004810 0.009712 -0.005064 0.000000 0.000000 0.000000
# 3 -0.006027 -0.005064 0.010374 0.000000 0.000000 0.000000
# 4 0.000000 0.000000 0.000000 0.163574 0.000000 0.000000
# 5 0.000000 0.000000 0.000000 0.000000 0.056110 0.000000
# 6 0.000000 0.000000 0.000000 0.000000 0.000000 -0.057544
#
#
# Mechanical properties :
#
#
# Convention : Reuss Voigt Hill
#
# Bulk Modulus (GPa) = 26.64697 74.59860 50.62278
# Shear Modulus (GPa) = 18.13035 14.66025 16.39530
#
# Velocity S-wave (km/s) = 3.10304 2.79033 2.95083
# Velocity P-wave (km/s) = 5.19523 7.07105 6.20444
#
# Compressibility (1/GPa) = 0.03752772
#
# Stress axis : x y z
#
# Youngs Moduli (GPa) = 20.30710 102.96840 96.39739
#
# Poissons Ratio (x) = 0.49532 0.58096
# Poissons Ratio (y) = 0.09769 0.48812
# Poissons Ratio (z) = 0.12239 0.52139
#
# Static dielectric constant tensor:
#      x y z
#    x 2.808440 0.000000 0.000000 
#    y 0.000000 3.679930 0.000000 
#    z 0.000000 0.000000 3.739190 
# 
# 
# High freq. dielectric constant tensor:
#      x y z
#    x 1.663350 0.000000 0.000000 
#    y 0.000000 1.735430 0.000000 
#    z 0.000000 0.000000 1.751200 
# 
# From -- ./inp_files/12042.got.cif
#   From: 2010.03.12/outbox.cif.g09.slc.cpg/sg49_7_cif.got.tgz:12042.got - 2010.04.14 03:58:27.
