data_PCOD8203082
_publ_section_title
;
Structure prediction by ZEFSAII (Michael W. Deem and Ramdas Pophale) SiO2 
 PCOD8203082
Probable space group: P C C M
;
_chemical_formula_sum "Si O2"
_cell_formula_units_Z 56
_cell_length_a 20.563147
_cell_length_b 14.945477
_cell_length_c 8.934914
_cell_angle_alpha 90.000000
_cell_angle_beta 90.000000
_cell_angle_gamma 90.000000
_cell_volume 2745.931742
_symmetry_space_group_name_H-M "P C C M"
_symmetry_group_IT_number 49
_symmetry_cell_setting 'orthorhombic'
loop_
_space_group_symop_operation_xyz
x,y,z
-x,-y,z
x,-y,1/2-z
-x,y,1/2-z
-x,-y,-z
x,y,-z
-x,y,1/2+z
x,-y,1/2+z
loop_
_atom_site_type_symbol
_atom_site_label
_atom_site_fract_x
_atom_site_fract_y
_atom_site_fract_z
Si Si1 0.173303 0.210631 0.827234
Si Si2 0.195210 0.586510 0.325523
Si Si3 0.706116 0.909326 0.176920
Si Si4 0.561080 0.882656 0.162419
Si Si5 0.666388 0.587469 0.323308
Si Si6 0.932235 0.093865 0.822069
Si Si7 0.560148 0.323642 0.336171
O O1 0.161895 0.317121 0.803666
O O2 0.245805 0.174370 0.783895
O O3 0.122011 0.166290 0.716495
O O4 0.158837 0.185642 0.000000
O O5 0.157891 0.500000 0.250000
O O6 0.206532 0.565819 0.500000
O O7 0.262070 0.596188 0.239218
O O8 0.632379 0.894653 0.240560
O O9 0.734916 0.000000 0.250000
O O10 0.703553 0.920709 0.000000
O O11 0.500000 0.926831 0.250000
O O12 0.545238 0.779471 0.141227
O O13 0.563491 0.929294 0.000000
O O14 0.632673 0.500000 0.250000
O O15 0.667258 0.582865 0.500000
O O16 0.624640 0.670574 0.264838
O O17 0.000000 0.125841 0.750000
O O18 0.910804 0.000000 0.750000
O O19 0.939654 0.084073 0.000000
O O20 0.500000 0.370257 0.250000
O O21 0.569478 0.368527 0.500000
#
# Coordination Sequence:
#
# PCOD8203082 Si02
#       7
#     8   8   8   8   8   8   8
#     4  10  21  38  60  86 119 157 195 239 293 345
#     4  10  20  36  58  83 113 148 187 235 286 339
#     4  10  21  36  53  77 109 145 185 231 284 339
#     4   9  19  35  53  71  96 133 177 224 276 333
#     4  11  21  33  49  70  97 130 170 217 273 338
#     4  11  22  38  62  92 128 166 204 242 284 339
#     4  10  19  33  50  68  90 120 162 214 274 337
#
# _framework density 20.393805
#
# number of rings (size 3 to 8) (size 9 to 14) (size 15 to 20)
#    0.000    1.857    0.000    6.000    0.000    6.857 
#    0.000    4.286    0.000    0.429    0.000    3.000 
#    0.000    0.000    0.000    0.000    0.000    0.000 
#
# Total GULP energy -693945.350818 kJ/mol
# GULP energy per Si atom -12391.881265 kJ/mol
# Density = 2.034739 g / cm^3
# Si number density = 20.393805 Si / 1000 Ang^3
#
#
#
# Elastic Constant Matrix: (Units=GPa)
#
#
# Indices 1 2 3 4 5 6 
#
# 1 88.5670 39.0226 50.0470 0.0000 0.0000 0.0000
# 2 39.0226 84.9624 48.3195 0.0000 0.0000 0.0000
# 3 50.0470 48.3195 149.4712 0.0000 0.0000 0.0000
# 4 0.0000 0.0000 0.0000 30.5975 0.0000 0.0000
# 5 0.0000 0.0000 0.0000 0.0000 28.5232 0.0000
# 6 0.0000 0.0000 0.0000 0.0000 0.0000 23.0250
#
#
#
# Elastic Compliance Matrix: (Units=1/GPa)
#
#
# Indices 1 2 3 4 5 6 
#
# 1 0.015556 -0.005125 -0.003552 0.000000 0.000000 0.000000
# 2 -0.005125 0.016110 -0.003492 0.000000 0.000000 0.000000
# 3 -0.003552 -0.003492 0.009008 0.000000 0.000000 0.000000
# 4 0.000000 0.000000 0.000000 0.032682 0.000000 0.000000
# 5 0.000000 0.000000 0.000000 0.000000 0.035059 0.000000
# 6 0.000000 0.000000 0.000000 0.000000 0.000000 0.043431
#
#
# Mechanical properties :
#
#
# Convention : Reuss Voigt Hill
#
# Bulk Modulus (GPa) = 61.21105 66.41988 63.81547
# Shear Modulus (GPa) = 27.52865 28.80322 28.16594
#
# Velocity S-wave (km/s) = 3.67802 3.76220 3.72035
# Velocity P-wave (km/s) = 6.93663 7.17716 7.05792
#
# Compressibility (1/GPa) = 0.01633692
#
# Stress axis : x y z
#
# Youngs Moduli (GPa) = 64.28427 62.07507 111.00847
#
# Poissons Ratio (x) = 0.31812 0.39429
# Poissons Ratio (y) = 0.32944 0.38762
# Poissons Ratio (z) = 0.22833 0.21676
#
# Static dielectric constant tensor:
#      x y z
#    x 3.507580 0.000000 0.000000 
#    y 0.000000 4.105330 0.000000 
#    z 0.000000 0.000000 3.964520 
# 
# 
# High freq. dielectric constant tensor:
#      x y z
#    x 1.771360 0.000000 0.000000 
#    y 0.000000 1.796580 0.000000 
#    z 0.000000 0.000000 1.803170 
# 
# From -- ./inp_files/4085.got.cif
#   From: 2010.03.12/outbox.cif.g09.slc.cpg/sg49_3_cif.got.tgz:4085.got - 2010.04.14 03:58:27.
