data_PCOD8203067
_publ_section_title
;
Structure prediction by ZEFSAII (Michael W. Deem and Ramdas Pophale) SiO2 
 PCOD8203067
Probable space group: P C C M
;
_chemical_formula_sum "Si O2"
_cell_formula_units_Z 58
_cell_length_a 15.440344
_cell_length_b 11.074496
_cell_length_c 16.248190
_cell_angle_alpha 90.000000
_cell_angle_beta 90.000000
_cell_angle_gamma 90.000000
_cell_volume 2778.343454
_symmetry_space_group_name_H-M "P C C M"
_symmetry_group_IT_number 49
_symmetry_cell_setting 'orthorhombic'
loop_
_space_group_symop_operation_xyz
x,y,z
-x,-y,z
x,-y,1/2-z
-x,y,1/2-z
-x,-y,-z
x,y,-z
-x,y,1/2+z
x,-y,1/2+z
loop_
_atom_site_type_symbol
_atom_site_label
_atom_site_fract_x
_atom_site_fract_y
_atom_site_fract_z
Si Si1 0.764605 0.791256 0.175741
Si Si2 0.066275 0.398330 0.594777
Si Si3 0.233618 0.524721 0.652242
Si Si4 0.414757 0.444568 0.658913
Si Si5 0.500000 0.000000 0.750000
Si Si6 0.633279 0.820657 0.316018
Si Si7 0.783951 0.040405 0.095230
Si Si8 0.082118 0.833752 0.798803
O O1 0.774454 0.665255 0.128092
O O2 0.676071 0.792649 0.227838
O O3 0.846604 0.795136 0.234092
O O4 0.759123 0.902009 0.112453
O O5 0.048791 0.365232 0.500000
O O6 0.163287 0.446484 0.604529
O O7 0.049800 0.280198 0.648672
O O8 0.000000 0.500000 0.626562
O O9 0.225651 0.500000 0.750000
O O10 0.325817 0.483569 0.615537
O O11 0.500000 0.500000 0.613473
O O12 0.413948 0.500000 0.750000
O O13 0.416237 0.299311 0.654502
O O14 0.440290 0.078853 0.690252
O O15 0.708122 0.867989 0.377214
O O16 0.874314 0.066053 0.142340
O O17 0.800771 0.061206 0.000000
O O18 0.000000 0.888501 0.750000
#
# Coordination Sequence:
#
# PCOD8203067 Si02
#       8
#     8   8   8   8   2   8   8   8
#     4  11  21  39  62  91 123 164 220 262 312 382
#     4  11  24  39  61  97 131 163 207 262 327 390
#     4  11  19  36  63  90 124 166 209 260 321 380
#     4  10  19  32  56  96 128 152 201 267 322 365
#     4  12  20  32  64 100 118 164 230 282 304 364
#     4  11  20  36  63  93 128 169 218 272 319 380
#     4  11  25  44  63  89 132 176 213 265 331 390
#     4  11  22  40  67  92 120 163 215 266 312 382
#
# _framework density 20.875748999999999
#
# number of rings (size 3 to 8) (size 9 to 14) (size 15 to 20)
#    0.000    1.103    5.517    4.138    0.000    1.655 
#    0.000    2.414    0.000    1.655    0.000    0.000 
#    0.000    0.552    0.000    0.000    0.000    0.000 
#
# Total GULP energy -719168.477132 kJ/mol
# GULP energy per Si atom -12399.456502 kJ/mol
# Density = 2.082824 g / cm^3
# Si number density = 20.875749 Si / 1000 Ang^3
#
#
#
# Elastic Constant Matrix: (Units=GPa)
#
#
# Indices 1 2 3 4 5 6 
#
# 1 133.2814 36.5542 33.1003 0.0000 0.0000 0.0000
# 2 36.5542 148.6384 30.1752 0.0000 0.0000 0.0000
# 3 33.1003 30.1752 58.5026 0.0000 0.0000 0.0000
# 4 0.0000 0.0000 0.0000 19.1099 0.0000 0.0000
# 5 0.0000 0.0000 0.0000 0.0000 12.2250 0.0000
# 6 0.0000 0.0000 0.0000 0.0000 0.0000 36.0925
#
#
#
# Elastic Compliance Matrix: (Units=1/GPa)
#
#
# Indices 1 2 3 4 5 6 
#
# 1 0.008952 -0.001311 -0.004389 0.000000 0.000000 0.000000
# 2 -0.001311 0.007706 -0.003233 0.000000 0.000000 0.000000
# 3 -0.004389 -0.003233 0.021244 0.000000 0.000000 0.000000
# 4 0.000000 0.000000 0.000000 0.052329 0.000000 0.000000
# 5 0.000000 0.000000 0.000000 0.000000 0.081800 0.000000
# 6 0.000000 0.000000 0.000000 0.000000 0.000000 0.027707
#
#
# Mechanical properties :
#
#
# Convention : Reuss Voigt Hill
#
# Bulk Modulus (GPa) = 49.90801 60.00909 54.95855
# Shear Modulus (GPa) = 22.29319 29.52499 25.90909
#
# Velocity S-wave (km/s) = 3.27142 3.76482 3.52676
# Velocity P-wave (km/s) = 6.18293 6.90701 6.55498
#
# Compressibility (1/GPa) = 0.02003686
#
# Stress axis : x y z
#
# Youngs Moduli (GPa) = 111.70153 129.76118 47.07117
#
# Poissons Ratio (x) = 0.17006 0.20661
# Poissons Ratio (y) = 0.14639 0.15220
# Poissons Ratio (z) = 0.49028 0.41957
#
# Static dielectric constant tensor:
#      x y z
#    x 4.379120 0.000000 0.000000 
#    y 0.000000 4.002470 0.000000 
#    z 0.000000 0.000000 3.346080 
# 
# 
# High freq. dielectric constant tensor:
#      x y z
#    x 1.832540 0.000000 0.000000 
#    y 0.000000 1.836330 0.000000 
#    z 0.000000 0.000000 1.768840 
# 
# From -- ./inp_files/17895.got.cif
#   From: 2010.03.12/outbox.cif.g09.slc.cpg/sg49_9_cif.got.tgz:17895.got - 2010.04.14 03:58:27.
