data_PCOD8203888
_publ_section_title
;
Structure prediction by ZEFSAII (Michael W. Deem and Ramdas Pophale) SiO2 
 PCOD8203888
Probable space group: P C C M
;
_chemical_formula_sum "Si O2"
_cell_formula_units_Z 48
_cell_length_a 31.180821
_cell_length_b 9.146338
_cell_length_c 8.801806
_cell_angle_alpha 90.000000
_cell_angle_beta 90.000000
_cell_angle_gamma 90.000000
_cell_volume 2510.189940
_symmetry_space_group_name_H-M "P C C M"
_symmetry_group_IT_number 49
_symmetry_cell_setting 'orthorhombic'
loop_
_space_group_symop_operation_xyz
x,y,z
-x,-y,z
x,-y,1/2-z
-x,y,1/2-z
-x,-y,-z
x,y,-z
-x,y,1/2+z
x,-y,1/2+z
loop_
_atom_site_type_symbol
_atom_site_label
_atom_site_fract_x
_atom_site_fract_y
_atom_site_fract_z
Si Si1 0.865044 0.842642 0.322668
Si Si2 0.544403 0.157166 0.680837
Si Si3 0.374623 0.342900 0.821853
Si Si4 0.040898 0.158980 0.677653
Si Si5 0.784403 0.340985 0.180437
Si Si6 0.707786 0.840981 0.819547
O O1 0.860803 0.870930 0.500000
O O2 0.912182 0.773913 0.283743
O O3 0.830013 0.725905 0.267337
O O4 0.856747 0.000000 0.250000
O O5 0.500000 0.217639 0.750000
O O6 0.540774 0.143360 0.500000
O O7 0.581465 0.267644 0.732943
O O8 0.555460 0.000000 0.750000
O O9 0.369766 0.500000 0.750000
O O10 0.334824 0.244595 0.769967
O O11 0.374803 0.363444 0.000000
O O12 0.033166 0.148521 0.500000
O O13 0.000000 0.247109 0.750000
O O14 0.041204 0.000000 0.750000
O O15 0.779462 0.500000 0.250000
O O16 0.748164 0.237970 0.247075
O O17 0.779917 0.350282 0.000000
O O18 0.704004 0.000000 0.750000
O O19 0.713233 0.849701 0.000000
#
# Coordination Sequence:
#
# PCOD8203888 Si02
#       6
#     8   8   8   8   8   8
#     4   9  19  33  51  75 105 137 174 217 264 316
#     4  10  20  36  57  83 111 145 186 229 273 321
#     4  10  23  39  57  82 114 148 184 223 271 324
#     4   9  15  25  42  68  99 131 166 210 259 309
#     4  11  23  39  57  80 109 143 180 223 271 324
#     4  11  23  40  61  86 112 143 181 224 271 323
#
# _framework density 19.122057999999999
#
# number of rings (size 3 to 8) (size 9 to 14) (size 15 to 20)
#    0.000    2.000    0.000    4.500    0.000    7.667 
#    0.000    1.667    0.000    0.500    0.000    3.500 
#    0.000    0.000    0.000    0.000    0.000    0.000 
#
# Total GULP energy -595070.183511 kJ/mol
# GULP energy per Si atom -12397.295490 kJ/mol
# Density = 1.907854 g / cm^3
# Si number density = 19.122058 Si / 1000 Ang^3
#
#
#
# Elastic Constant Matrix: (Units=GPa)
#
#
# Indices 1 2 3 4 5 6 
#
# 1 192.1783 88.1750 64.1947 0.0000 0.0000 0.0000
# 2 88.1750 124.9554 43.7513 0.0000 0.0000 0.0000
# 3 64.1947 43.7513 77.4616 0.0000 0.0000 0.0000
# 4 0.0000 0.0000 0.0000 28.1610 0.0000 0.0000
# 5 0.0000 0.0000 0.0000 0.0000 32.7015 0.0000
# 6 0.0000 0.0000 0.0000 0.0000 0.0000 3.8640
#
#
#
# Elastic Compliance Matrix: (Units=1/GPa)
#
#
# Indices 1 2 3 4 5 6 
#
# 1 0.008921 -0.004620 -0.004784 0.000000 0.000000 0.000000
# 2 -0.004620 0.012369 -0.003157 0.000000 0.000000 0.000000
# 3 -0.004784 -0.003157 0.018657 0.000000 0.000000 0.000000
# 4 0.000000 0.000000 0.000000 0.035510 0.000000 0.000000
# 5 0.000000 0.000000 0.000000 0.000000 0.030580 0.000000
# 6 0.000000 0.000000 0.000000 0.000000 0.000000 0.258798
#
#
# Mechanical properties :
#
#
# Convention : Reuss Voigt Hill
#
# Bulk Modulus (GPa) = 67.45354 87.42636 77.43995
# Shear Modulus (GPa) = 12.66149 26.17693 19.41921
#
# Velocity S-wave (km/s) = 2.57600 3.70393 3.19021
# Velocity P-wave (km/s) = 6.64827 8.00697 7.35905
#
# Compressibility (1/GPa) = 0.01482502
#
# Stress axis : x y z
#
# Youngs Moduli (GPa) = 112.09015 80.84988 53.59898
#
# Poissons Ratio (x) = 0.37356 0.25640
# Poissons Ratio (y) = 0.51791 0.16920
# Poissons Ratio (z) = 0.53621 0.25523
#
# Static dielectric constant tensor:
#      x y z
#    x 4.528250 0.000000 0.000000 
#    y 0.000000 3.273690 0.000000 
#    z 0.000000 0.000000 3.618820 
# 
# 
# High freq. dielectric constant tensor:
#      x y z
#    x 1.772980 0.000000 0.000000 
#    y 0.000000 1.719720 0.000000 
#    z 0.000000 0.000000 1.752310 
# 
# From -- ./inp_files/2095.got.cif
#   From: 2010.03.12/outbox.cif.g09.slc.cpg/sg49_2_cif.got.tgz:2095.got - 2010.04.14 03:58:27.
