data_PCOD8203714
_publ_section_title
;
Structure prediction by ZEFSAII (Michael W. Deem and Ramdas Pophale) SiO2 
 PCOD8203714
Probable space group: P C C M
;
_chemical_formula_sum "Si O2"
_cell_formula_units_Z 48
_cell_length_a 20.429881
_cell_length_b 14.331597
_cell_length_c 8.639439
_cell_angle_alpha 90.000000
_cell_angle_beta 90.000000
_cell_angle_gamma 90.000000
_cell_volume 2529.565719
_symmetry_space_group_name_H-M "P C C M"
_symmetry_group_IT_number 49
_symmetry_cell_setting 'orthorhombic'
loop_
_space_group_symop_operation_xyz
x,y,z
-x,-y,z
x,-y,1/2-z
-x,y,1/2-z
-x,-y,-z
x,y,-z
-x,y,1/2+z
x,-y,1/2+z
loop_
_atom_site_type_symbol
_atom_site_label
_atom_site_fract_x
_atom_site_fract_y
_atom_site_fract_z
Si Si1 0.229188 0.597540 0.679775
Si Si2 0.431381 0.786173 0.817217
Si Si3 0.194577 0.215009 0.680493
Si Si4 0.311726 0.898556 0.317859
Si Si5 0.931909 0.900441 0.319086
Si Si6 0.617158 0.597837 0.179675
O O1 0.205348 0.500000 0.750000
O O2 0.210926 0.601941 0.500000
O O3 0.190959 0.676902 0.773430
O O4 0.306070 0.611618 0.707413
O O5 0.500000 0.822100 0.750000
O O6 0.376345 0.854943 0.754643
O O7 0.420222 0.679847 0.766583
O O8 0.432319 0.791896 0.000000
O O9 0.211630 0.202943 0.500000
O O10 0.249825 0.165653 0.781757
O O11 0.124425 0.172507 0.722908
O O12 0.321356 0.904701 0.500000
O O13 0.298262 0.000000 0.250000
O O14 0.940886 0.913168 0.500000
O O15 0.000000 0.862764 0.250000
O O16 0.912025 0.000000 0.250000
O O17 0.593082 0.500000 0.250000
O O18 0.598866 0.601222 0.000000
#
# Coordination Sequence:
#
# PCOD8203714 Si02
#       6
#     8   8   8   8   8   8
#     4  10  20  34  57  86 119 154 191 237 288 343
#     4  12  25  42  62  84 114 151 191 240 292 350
#     4  11  22  37  60  90 121 155 195 239 289 342
#     4  12  25  42  62  87 115 149 193 240 291 344
#     4  10  21  36  57  86 121 160 198 239 286 341
#     4  10  20  36  58  86 116 150 190 235 290 347
#
# _framework density 18.975588999999999
#
# number of rings (size 3 to 8) (size 9 to 14) (size 15 to 20)
#    0.000    1.167    1.667    6.000    0.000    6.000 
#    0.000    3.333    0.000    0.500    0.000    3.500 
#    0.000    0.000    0.000    0.000    0.000    0.000 
#
# Total GULP energy -595512.805907 kJ/mol
# GULP energy per Si atom -12406.516790 kJ/mol
# Density = 1.893240 g / cm^3
# Si number density = 18.975589 Si / 1000 Ang^3
#
#
#
# Elastic Constant Matrix: (Units=GPa)
#
#
# Indices 1 2 3 4 5 6 
#
# 1 100.8805 52.4428 52.1797 0.0000 0.0000 0.0000
# 2 52.4428 118.4573 42.3466 0.0000 0.0000 0.0000
# 3 52.1797 42.3466 135.9139 0.0000 0.0000 0.0000
# 4 0.0000 0.0000 0.0000 35.5250 0.0000 0.0000
# 5 0.0000 0.0000 0.0000 0.0000 223.8867 0.0000
# 6 0.0000 0.0000 0.0000 0.0000 0.0000 18.7133
#
#
#
# Elastic Compliance Matrix: (Units=1/GPa)
#
#
# Indices 1 2 3 4 5 6 
#
# 1 0.014618 -0.005025 -0.004046 0.000000 0.000000 0.000000
# 2 -0.005025 0.011227 -0.001569 0.000000 0.000000 0.000000
# 3 -0.004046 -0.001569 0.009400 0.000000 0.000000 0.000000
# 4 0.000000 0.000000 0.000000 0.028149 0.000000 0.000000
# 5 0.000000 0.000000 0.000000 0.000000 0.004467 0.000000
# 6 0.000000 0.000000 0.000000 0.000000 0.000000 0.053438
#
#
# Mechanical properties :
#
#
# Convention : Reuss Voigt Hill
#
# Bulk Modulus (GPa) = 71.61025 72.13223 71.87124
# Shear Modulus (GPa) = 33.95941 69.51050 51.73496
#
# Velocity S-wave (km/s) = 4.23500 6.05897 5.22715
# Velocity P-wave (km/s) = 7.85708 9.32973 8.62489
#
# Compressibility (1/GPa) = 0.01396448
#
# Stress axis : x y z
#
# Youngs Moduli (GPa) = 68.40879 89.06788 106.38378
#
# Poissons Ratio (x) = 0.44757 0.43048
# Poissons Ratio (y) = 0.34376 0.16691
# Poissons Ratio (z) = 0.27681 0.13974
#
# Static dielectric constant tensor:
#      x y z
#    x 3.320740 0.000000 0.000000 
#    y 0.000000 3.613310 0.000000 
#    z 0.000000 0.000000 4.067440 
# 
# 
# High freq. dielectric constant tensor:
#      x y z
#    x 1.723680 0.000000 0.000000 
#    y 0.000000 1.744190 0.000000 
#    z 0.000000 0.000000 1.758920 
# 
# From -- ./inp_files/4884.got.cif
#   From: 2010.03.12/outbox.cif.g09.slc.cpg/sg49_3_cif.got.tgz:4884.got - 2010.04.14 03:58:27.
