data_PCOD8203252
_publ_section_title
;
Structure prediction by ZEFSAII (Michael W. Deem and Ramdas Pophale) SiO2 
 PCOD8203252
Probable space group: P C C M
;
_chemical_formula_sum "Si O2"
_cell_formula_units_Z 60
_cell_length_a 22.413714
_cell_length_b 14.282166
_cell_length_c 9.311759
_cell_angle_alpha 90.000000
_cell_angle_beta 90.000000
_cell_angle_gamma 90.000000
_cell_volume 2980.846620
_symmetry_space_group_name_H-M "P C C M"
_symmetry_group_IT_number 49
_symmetry_cell_setting 'orthorhombic'
loop_
_space_group_symop_operation_xyz
x,y,z
-x,-y,z
x,-y,1/2-z
-x,y,1/2-z
-x,-y,-z
x,y,-z
-x,y,1/2+z
x,-y,1/2+z
loop_
_atom_site_type_symbol
_atom_site_label
_atom_site_fract_x
_atom_site_fract_y
_atom_site_fract_z
Si Si1 0.410724 0.912216 0.659672
Si Si2 0.058987 0.098939 0.326033
Si Si3 0.301574 0.364567 0.330925
Si Si4 0.709259 0.815686 0.162642
Si Si5 0.843009 0.797085 0.161804
Si Si6 0.500000 0.752397 0.250000
Si Si7 0.187784 0.584088 0.666599
Si Si8 0.431198 0.581319 0.843817
O O1 0.421171 0.946521 0.500000
O O2 0.339883 0.896430 0.687585
O O3 0.448970 0.817761 0.681977
O O4 0.434232 0.000000 0.750000
O O5 0.052512 0.090650 0.500000
O O6 0.114417 0.164184 0.285884
O O7 0.000000 0.142199 0.250000
O O8 0.070768 0.000000 0.250000
O O9 0.288493 0.374886 0.500000
O O10 0.301895 0.256165 0.289604
O O11 0.253268 0.418109 0.236095
O O12 0.365423 0.402145 0.282254
O O13 0.778410 0.847855 0.177014
O O14 0.701248 0.773498 0.000000
O O15 0.841019 0.685613 0.189878
O O16 0.867552 0.815957 0.000000
O O17 0.467393 0.679591 0.143093
O O18 0.151975 0.500000 0.750000
O O19 0.192032 0.558479 0.500000
O O20 0.462304 0.500000 0.750000
O O21 0.427367 0.537136 0.000000
#
# Coordination Sequence:
#
# PCOD8203252 Si02
#       8
#     8   8   8   8   8   4   8   8
#     4  11  25  43  65  87 111 146 190 242 300 361
#     4  11  22  38  62  91 126 164 205 246 295 347
#     4  10  19  34  56  82 112 147 188 234 289 351
#     4   9  19  38  60  85 115 152 189 236 295 348
#     4   9  19  36  59  88 124 159 200 244 294 348
#     4  12  24  44  64  80 108 146 196 244 296 358
#     4  10  20  34  55  85 122 162 202 246 292 346
#     4  11  25  40  58  85 111 143 184 234 293 358
#
# _framework density 20.128509000000001
#
# number of rings (size 3 to 8) (size 9 to 14) (size 15 to 20)
#    0.000    1.733    1.333    4.400    0.000    9.067 
#    0.000    1.333    0.000    0.400    0.000    2.800 
#    0.000    0.000    0.000    0.000    0.000    0.000 
#
# Total GULP energy -743303.483568 kJ/mol
# GULP energy per Si atom -12388.391393 kJ/mol
# Density = 2.008270 g / cm^3
# Si number density = 20.128509 Si / 1000 Ang^3
#
#
#
# Elastic Constant Matrix: (Units=GPa)
#
#
# Indices 1 2 3 4 5 6 
#
# 1 100.3157 42.5078 51.8925 0.0000 0.0000 0.0000
# 2 42.5078 104.5275 53.5596 0.0000 0.0000 0.0000
# 3 51.8925 53.5596 128.8518 0.0000 0.0000 0.0000
# 4 0.0000 0.0000 0.0000 32.5186 0.0000 0.0000
# 5 0.0000 0.0000 0.0000 0.0000 33.6298 0.0000
# 6 0.0000 0.0000 0.0000 0.0000 0.0000 12.1961
#
#
#
# Elastic Compliance Matrix: (Units=1/GPa)
#
#
# Indices 1 2 3 4 5 6 
#
# 1 0.013497 -0.003435 -0.004008 0.000000 0.000000 0.000000
# 2 -0.003435 0.013030 -0.004033 0.000000 0.000000 0.000000
# 3 -0.004008 -0.004033 0.011051 0.000000 0.000000 0.000000
# 4 0.000000 0.000000 0.000000 0.030752 0.000000 0.000000
# 5 0.000000 0.000000 0.000000 0.000000 0.029736 0.000000
# 6 0.000000 0.000000 0.000000 0.000000 0.000000 0.081993
#
#
# Mechanical properties :
#
#
# Convention : Reuss Voigt Hill
#
# Bulk Modulus (GPa) = 68.36657 69.95720 69.16189
# Shear Modulus (GPa) = 24.05153 28.05125 26.05139
#
# Velocity S-wave (km/s) = 3.46048 3.73716 3.60148
# Velocity P-wave (km/s) = 7.07145 7.31112 7.19228
#
# Compressibility (1/GPa) = 0.01462703
#
# Stress axis : x y z
#
# Youngs Moduli (GPa) = 74.08804 76.74440 90.48767
#
# Poissons Ratio (x) = 0.26364 0.36266
# Poissons Ratio (y) = 0.25452 0.36491
# Poissons Ratio (z) = 0.29694 0.30949
#
# Static dielectric constant tensor:
#      x y z
#    x 3.671330 0.000000 0.000000 
#    y 0.000000 3.592350 0.000000 
#    z 0.000000 0.000000 3.666300 
# 
# 
# High freq. dielectric constant tensor:
#      x y z
#    x 1.776100 0.000000 0.000000 
#    y 0.000000 1.778560 0.000000 
#    z 0.000000 0.000000 1.790580 
# 
# From -- ./inp_files/6426.got.cif
#   From: 2010.03.12/outbox.cif.g09.slc.cpg/sg49_4_cif.got.tgz:6426.got - 2010.04.14 03:58:27.
