data_PCOD8203038
_publ_section_title
;
Structure prediction by ZEFSAII (Michael W. Deem and Ramdas Pophale) SiO2 
 PCOD8203038
Probable space group: P C C M
;
_chemical_formula_sum "Si O2"
_cell_formula_units_Z 64
_cell_length_a 15.958238
_cell_length_b 22.480650
_cell_length_c 8.923889
_cell_angle_alpha 90.000000
_cell_angle_beta 90.000000
_cell_angle_gamma 90.000000
_cell_volume 3201.459128
_symmetry_space_group_name_H-M "P C C M"
_symmetry_group_IT_number 49
_symmetry_cell_setting 'orthorhombic'
loop_
_space_group_symop_operation_xyz
x,y,z
-x,-y,z
x,-y,1/2-z
-x,y,1/2-z
-x,-y,-z
x,y,-z
-x,y,1/2+z
x,-y,1/2+z
loop_
_atom_site_type_symbol
_atom_site_label
_atom_site_fract_x
_atom_site_fract_y
_atom_site_fract_z
Si Si1 0.887115 0.779933 0.665486
Si Si2 0.585615 0.600829 0.823282
Si Si3 0.081412 0.103101 0.175817
Si Si4 0.697194 0.185110 0.162814
Si Si5 0.770897 0.561908 0.820607
Si Si6 0.247483 0.058372 0.675118
Si Si7 0.580014 0.265338 0.327643
Si Si8 0.912622 0.356257 0.178618
O O1 0.926993 0.791418 0.500000
O O2 0.922115 0.826250 0.786673
O O3 0.789440 0.790283 0.650972
O O4 0.905652 0.713272 0.720251
O O5 0.500000 0.573133 0.750000
O O6 0.672904 0.570238 0.772979
O O7 0.595966 0.668464 0.765257
O O8 0.574069 0.595739 0.000000
O O9 0.159125 0.069548 0.247276
O O10 0.000000 0.072963 0.250000
O O11 0.082708 0.093449 0.000000
O O12 0.693187 0.115191 0.204135
O O13 0.656516 0.222206 0.295361
O O14 0.653431 0.195072 0.000000
O O15 0.801289 0.500000 0.750000
O O16 0.831966 0.611948 0.752283
O O17 0.780043 0.562298 0.000000
O O18 0.232752 0.048195 0.500000
O O19 0.289375 0.000000 0.750000
O O20 0.500000 0.236004 0.250000
O O21 0.562480 0.269173 0.500000
O O22 0.000000 0.380541 0.250000
O O23 0.912219 0.367170 0.000000
#
# Coordination Sequence:
#
# PCOD8203038 Si02
#       8
#     8   8   8   8   8   8   8   8
#     4   9  19  35  55  81 111 141 176 220 274 332
#     4   9  20  37  59  88 120 151 183 224 274 333
#     4  11  21  33  51  75 105 139 175 217 267 320
#     4   9  18  33  53  78 109 141 173 216 266 319
#     4  11  24  42  61  84 114 149 193 239 282 333
#     4  10  21  37  54  74 101 135 179 224 268 318
#     4  10  19  32  53  82 113 143 175 211 259 318
#     4  11  23  39  60  85 113 149 191 238 291 341
#
# _framework density 19.990884999999999
#
# number of rings (size 3 to 8) (size 9 to 14) (size 15 to 20)
#    0.000    2.000    0.000    4.500    0.000    6.750 
#    0.000    3.750    0.000    0.375    0.000    2.625 
#    0.000    0.000    0.000    0.000    0.000    0.000 
#
# Total GULP energy -793325.454669 kJ/mol
# GULP energy per Si atom -12395.710229 kJ/mol
# Density = 1.994538 g / cm^3
# Si number density = 19.990885 Si / 1000 Ang^3
#
#
#
# Elastic Constant Matrix: (Units=GPa)
#
#
# Indices 1 2 3 4 5 6 
#
# 1 62.9528 17.9161 23.9473 0.0000 0.0000 0.0000
# 2 17.9161 72.4721 29.4716 0.0000 0.0000 0.0000
# 3 23.9473 29.4716 93.6047 0.0000 0.0000 0.0000
# 4 0.0000 0.0000 0.0000 11.7560 0.0000 0.0000
# 5 0.0000 0.0000 0.0000 0.0000 35.2409 0.0000
# 6 0.0000 0.0000 0.0000 0.0000 0.0000 31.6051
#
#
#
# Elastic Compliance Matrix: (Units=1/GPa)
#
#
# Indices 1 2 3 4 5 6 
#
# 1 0.018141 -0.002979 -0.003703 0.000000 0.000000 0.000000
# 2 -0.002979 0.016314 -0.004374 0.000000 0.000000 0.000000
# 3 -0.003703 -0.004374 0.013008 0.000000 0.000000 0.000000
# 4 0.000000 0.000000 0.000000 0.085063 0.000000 0.000000
# 5 0.000000 0.000000 0.000000 0.000000 0.028376 0.000000
# 6 0.000000 0.000000 0.000000 0.000000 0.000000 0.031640
#
#
# Mechanical properties :
#
#
# Convention : Reuss Voigt Hill
#
# Bulk Modulus (GPa) = 39.44749 41.29994 40.37372
# Shear Modulus (GPa) = 22.41097 26.23340 24.32218
#
# Velocity S-wave (km/s) = 3.35185 3.62645 3.49185
# Velocity P-wave (km/s) = 5.89538 6.18378 6.04130
#
# Compressibility (1/GPa) = 0.02535015
#
# Stress axis : x y z
#
# Youngs Moduli (GPa) = 55.12250 61.29821 76.87624
#
# Poissons Ratio (x) = 0.18260 0.28470
# Poissons Ratio (y) = 0.16420 0.33628
# Poissons Ratio (z) = 0.20414 0.26814
#
# Static dielectric constant tensor:
#      x y z
#    x 3.662500 0.000000 0.000000 
#    y 0.000000 3.694360 0.000000 
#    z 0.000000 0.000000 3.467380 
# 
# 
# High freq. dielectric constant tensor:
#      x y z
#    x 1.769280 0.000000 0.000000 
#    y 0.000000 1.776720 0.000000 
#    z 0.000000 0.000000 1.785950 
# 
# From -- ./inp_files/4347.got.cif
#   From: 2010.03.12/outbox.cif.g09.slc.cpg/sg49_3_cif.got.tgz:4347.got - 2010.04.14 03:58:27.
