data_PCOD8203332
_publ_section_title
;
Structure prediction by ZEFSAII (Michael W. Deem and Ramdas Pophale) SiO2 
 PCOD8203332
Probable space group: P C C M
;
_chemical_formula_sum "Si O2"
_cell_formula_units_Z 52
_cell_length_a 14.592995
_cell_length_b 8.747849
_cell_length_c 20.077037
_cell_angle_alpha 90.000000
_cell_angle_beta 90.000000
_cell_angle_gamma 90.000000
_cell_volume 2562.980671
_symmetry_space_group_name_H-M "P C C M"
_symmetry_group_IT_number 49
_symmetry_cell_setting 'orthorhombic'
loop_
_space_group_symop_operation_xyz
x,y,z
-x,-y,z
x,-y,1/2-z
-x,y,1/2-z
-x,-y,-z
x,y,-z
-x,y,1/2+z
x,-y,1/2+z
loop_
_atom_site_type_symbol
_atom_site_label
_atom_site_fract_x
_atom_site_fract_y
_atom_site_fract_z
Si Si1 0.125992 0.357898 0.889592
Si Si2 0.234390 0.200351 0.000000
Si Si3 0.079994 0.700474 0.113535
Si Si4 0.369225 0.320273 0.257649
Si Si5 0.550825 0.160621 0.500000
Si Si6 0.489407 0.182534 0.146266
Si Si7 0.840410 0.321566 0.753936
Si Si8 0.100078 0.075658 0.500000
O O1 0.136421 0.541477 0.888881
O O2 0.137355 0.265720 0.820308
O O3 0.023523 0.318414 0.912943
O O4 0.207169 0.299823 0.936090
O O5 0.339430 0.150389 0.000000
O O6 0.177008 0.048661 0.000000
O O7 0.092282 0.754820 0.190688
O O8 0.122512 0.825040 0.065140
O O9 0.387318 0.500000 0.250000
O O10 0.402316 0.232902 0.190946
O O11 0.421135 0.261556 0.323153
O O12 0.263935 0.282975 0.271534
O O13 0.521795 0.242349 0.430364
O O14 0.500000 0.000000 0.500000
O O15 0.500000 0.000000 0.149055
O O16 0.861655 0.500000 0.750000
O O17 0.000000 0.000000 0.500000
#
# Coordination Sequence:
#
# PCOD8203332 Si02
#       8
#     8   4   8   8   4   8   8   4
#     4  10  19  36  61  88 112 154 201 236 291 343
#     4  12  23  38  63  81 118 155 195 247 297 351
#     4  10  20  36  59  84 119 155 194 242 282 353
#     4  10  19  35  58  86 114 146 184 237 302 353
#     4  10  24  41  58  85 112 152 201 251 295 356
#     4  10  20  37  59  77 109 144 197 239 287 354
#     4   9  19  34  57  87 116 146 193 242 289 345
#     4  12  23  39  55  84 123 160 198 237 293 353
#
# _framework density 20.288876999999999
#
# number of rings (size 3 to 8) (size 9 to 14) (size 15 to 20)
#    0.000    1.846    1.538    3.692    0.000    5.538 
#    0.000    3.846    0.000    5.538    0.000    0.000 
#    0.000    0.000    0.000    0.000    0.000    0.000 
#
# Total GULP energy -644429.780477 kJ/mol
# GULP energy per Si atom -12392.880394 kJ/mol
# Density = 2.024270 g / cm^3
# Si number density = 20.288877 Si / 1000 Ang^3
#
#
#
# Elastic Constant Matrix: (Units=GPa)
#
#
# Indices 1 2 3 4 5 6 
#
# 1 90.9071 27.1349 35.7420 0.0000 0.0000 0.0000
# 2 27.1349 78.7735 40.5149 0.0000 0.0000 0.0000
# 3 35.7420 40.5149 170.0820 0.0000 0.0000 0.0000
# 4 0.0000 0.0000 0.0000 2.8749 0.0000 0.0000
# 5 0.0000 0.0000 0.0000 0.0000 29.3020 0.0000
# 6 0.0000 0.0000 0.0000 0.0000 0.0000 26.9309
#
#
#
# Elastic Compliance Matrix: (Units=1/GPa)
#
#
# Indices 1 2 3 4 5 6 
#
# 1 0.012758 -0.003437 -0.001862 0.000000 0.000000 0.000000
# 2 -0.003437 0.015393 -0.002944 0.000000 0.000000 0.000000
# 3 -0.001862 -0.002944 0.006972 0.000000 0.000000 0.000000
# 4 0.000000 0.000000 0.000000 0.347834 0.000000 0.000000
# 5 0.000000 0.000000 0.000000 0.000000 0.034127 0.000000
# 6 0.000000 0.000000 0.000000 0.000000 0.000000 0.037132
#
#
# Mechanical properties :
#
#
# Convention : Reuss Voigt Hill
#
# Bulk Modulus (GPa) = 53.65971 60.72734 57.19353
# Shear Modulus (GPa) = 10.48401 27.57961 19.03181
#
# Velocity S-wave (km/s) = 2.27565 3.69093 3.06607
# Velocity P-wave (km/s) = 5.78014 6.93976 6.38633
#
# Compressibility (1/GPa) = 0.01863595
#
# Stress axis : x y z
#
# Youngs Moduli (GPa) = 78.37980 64.96484 143.42498
#
# Poissons Ratio (x) = 0.22328 0.26712
# Poissons Ratio (y) = 0.26939 0.42231
# Poissons Ratio (z) = 0.14598 0.19129
#
# Static dielectric constant tensor:
#      x y z
#    x 3.735970 0.000000 0.000000 
#    y 0.000000 3.428620 0.000000 
#    z 0.000000 0.000000 4.319600 
# 
# 
# High freq. dielectric constant tensor:
#      x y z
#    x 1.786520 0.000000 0.000000 
#    y 0.000000 1.769960 0.000000 
#    z 0.000000 0.000000 1.812100 
# 
# From -- ./inp_files/20818.got.cif
#   From: 2010.03.12/outbox.cif.g09.slc.cpg/sg49_11_cif.got.tgz:20818.got - 2010.04.14 03:58:27.
