data_PCOD8203372
_publ_section_title
;
Structure prediction by ZEFSAII (Michael W. Deem and Ramdas Pophale) SiO2 
 PCOD8203372
Probable space group: P C C M
;
_chemical_formula_sum "Si O2"
_cell_formula_units_Z 64
_cell_length_a 15.396171
_cell_length_b 23.807840
_cell_length_c 8.562813
_cell_angle_alpha 90.000000
_cell_angle_beta 90.000000
_cell_angle_gamma 90.000000
_cell_volume 3138.695473
_symmetry_space_group_name_H-M "P C C M"
_symmetry_group_IT_number 49
_symmetry_cell_setting 'orthorhombic'
loop_
_space_group_symop_operation_xyz
x,y,z
-x,-y,z
x,-y,1/2-z
-x,y,1/2-z
-x,-y,-z
x,y,-z
-x,y,1/2+z
x,-y,1/2+z
loop_
_atom_site_type_symbol
_atom_site_label
_atom_site_fract_x
_atom_site_fract_y
_atom_site_fract_z
Si Si1 0.091981 0.060935 0.315899
Si Si2 0.090170 0.326008 0.184455
Si Si3 0.592218 0.940136 0.817385
Si Si4 0.257400 0.131979 0.682104
Si Si5 0.358094 0.558685 0.315235
Si Si6 0.590407 0.325729 0.815402
Si Si7 0.157260 0.557385 0.683001
Si Si8 0.253726 0.746068 0.684060
O O1 0.084040 0.056174 0.500000
O O2 0.166368 0.104505 0.264146
O O3 0.000000 0.082724 0.250000
O O4 0.116430 0.000000 0.250000
O O5 0.107132 0.388652 0.252604
O O6 0.166386 0.284956 0.239011
O O7 0.000000 0.302231 0.250000
O O8 0.087020 0.328335 0.000000
O O9 0.500000 0.920119 0.750000
O O10 0.664205 0.894478 0.778343
O O11 0.621529 0.000000 0.750000
O O12 0.581817 0.946537 0.000000
O O13 0.273718 0.121331 0.500000
O O14 0.256778 0.197417 0.717581
O O15 0.396020 0.500000 0.250000
O O16 0.373355 0.563752 0.500000
O O17 0.406897 0.608457 0.226169
O O18 0.257354 0.563161 0.268615
O O19 0.500000 0.301006 0.750000
O O20 0.665935 0.293324 0.725466
O O21 0.597746 0.316163 0.000000
O O22 0.116434 0.500000 0.750000
O O23 0.147084 0.555345 0.500000
O O24 0.254141 0.758854 0.500000
#
# Coordination Sequence:
#
# PCOD8203372 Si02
#       8
#     8   8   8   8   8   8   8   8
#     4  10  21  37  61  91 128 164 203 250 300 357
#     4  10  22  40  61  86 118 156 199 249 303 361
#     4  11  22  39  64  95 130 168 204 249 302 356
#     4  11  24  41  62  92 124 161 209 256 302 362
#     4  10  19  36  60  89 123 156 196 244 303 364
#     4  12  25  42  65  91 119 157 201 249 306 367
#     4   9  18  34  56  84 118 153 190 240 297 358
#     4  11  24  45  65  86 120 160 204 258 308 357
#
# _framework density 20.390637000000002
#
# number of rings (size 3 to 8) (size 9 to 14) (size 15 to 20)
#    0.000    1.500    1.250    4.875    0.000    6.500 
#    0.000    7.500    0.000    0.000    0.000    0.000 
#    0.000    0.000    0.000    0.000    0.000    0.000 
#
# Total GULP energy -793875.007448 kJ/mol
# GULP energy per Si atom -12404.296991 kJ/mol
# Density = 2.034423 g / cm^3
# Si number density = 20.390637 Si / 1000 Ang^3
#
#
#
# Elastic Constant Matrix: (Units=GPa)
#
#
# Indices 1 2 3 4 5 6 
#
# 1 127.5574 55.6986 31.5597 0.0000 0.0000 0.0000
# 2 55.6986 109.8263 19.7359 0.0000 0.0000 0.0000
# 3 31.5597 19.7359 77.5438 0.0000 0.0000 0.0000
# 4 0.0000 0.0000 0.0000 30.8150 0.0000 0.0000
# 5 0.0000 0.0000 0.0000 0.0000 31.3932 0.0000
# 6 0.0000 0.0000 0.0000 0.0000 0.0000 -3.2496
#
#
#
# Elastic Compliance Matrix: (Units=1/GPa)
#
#
# Indices 1 2 3 4 5 6 
#
# 1 0.010749 -0.004889 -0.003130 0.000000 0.000000 0.000000
# 2 -0.004889 0.011765 -0.001005 0.000000 0.000000 0.000000
# 3 -0.003130 -0.001005 0.014426 0.000000 0.000000 0.000000
# 4 0.000000 0.000000 0.000000 0.032452 0.000000 0.000000
# 5 0.000000 0.000000 0.000000 0.000000 0.031854 0.000000
# 6 0.000000 0.000000 0.000000 0.000000 0.000000 -0.307732
#
#
# Mechanical properties :
#
#
# Convention : Reuss Voigt Hill
#
# Bulk Modulus (GPa) = 52.93266 58.76842 55.85054
# Shear Modulus (GPa) = -27.45112 25.65395 -0.89859
#
# Velocity S-wave (km/s) = -3.67312 3.55085 -0.66456
# Velocity P-wave (km/s) = 2.83311 6.75983 5.18275
#
# Compressibility (1/GPa) = 0.01889193
#
# Stress axis : x y z
#
# Youngs Moduli (GPa) = 93.03356 84.99666 69.32068
#
# Poissons Ratio (x) = 0.41553 0.21700
# Poissons Ratio (y) = 0.45482 0.06965
# Poissons Ratio (z) = 0.29123 0.08540
#
# Static dielectric constant tensor:
#      x y z
#    x 4.103170 0.000000 0.000000 
#    y 0.000000 3.749520 0.000000 
#    z 0.000000 0.000000 3.778710 
# 
# 
# High freq. dielectric constant tensor:
#      x y z
#    x 1.804910 0.000000 0.000000 
#    y 0.000000 1.795460 0.000000 
#    z 0.000000 0.000000 1.801380 
# 
# From -- ./inp_files/4341.got.cif
#   From: 2010.03.12/outbox.cif.g09.slc.cpg/sg49_3_cif.got.tgz:4341.got - 2010.04.14 03:58:27.
