data_PCOD8203050
_publ_section_title
;
Structure prediction by ZEFSAII (Michael W. Deem and Ramdas Pophale) SiO2 
 PCOD8203050
Probable space group: P C C M
;
_chemical_formula_sum "Si O2"
_cell_formula_units_Z 34
_cell_length_a 12.149333
_cell_length_b 10.533145
_cell_length_c 14.694891
_cell_angle_alpha 90.000000
_cell_angle_beta 90.000000
_cell_angle_gamma 90.000000
_cell_volume 1880.515284
_symmetry_space_group_name_H-M "P C C M"
_symmetry_group_IT_number 49
_symmetry_cell_setting 'orthorhombic'
loop_
_space_group_symop_operation_xyz
x,y,z
-x,-y,z
x,-y,1/2-z
-x,y,1/2-z
-x,-y,-z
x,y,-z
-x,y,1/2+z
x,-y,1/2+z
loop_
_atom_site_type_symbol
_atom_site_label
_atom_site_fract_x
_atom_site_fract_y
_atom_site_fract_z
Si Si1 0.016977 0.192970 0.897781
Si Si2 0.381928 0.639065 0.500000
Si Si3 0.000000 0.000000 0.250000
Si Si4 0.375823 0.338770 0.500000
Si Si5 0.205851 0.335550 0.649504
Si Si6 0.208207 0.629649 0.356814
O O1 0.896151 0.243532 0.871540
O O2 0.098400 0.310044 0.896126
O O3 0.063080 0.091437 0.822497
O O4 0.014324 0.134628 0.000000
O O5 0.392531 0.488499 0.500000
O O6 0.498795 0.713690 0.500000
O O7 0.314453 0.679502 0.410724
O O8 0.310266 0.290909 0.589407
O O9 0.181278 0.481881 0.626812
O O10 0.235589 0.328140 0.754943
#
# Coordination Sequence:
#
# PCOD8203050 Si02
#       6
#     8   4   2   4   8   8
#     4  12  22  36  56  79 107 138 178 216 271 323
#     4   9  18  31  49  79 114 143 176 212 254 314
#     4  12  26  40  50  78 110 136 178 230 264 320
#     4   9  18  31  49  79 114 143 176 212 254 314
#     4  10  19  32  54  82 112 143 171 211 265 321
#     4  10  19  32  54  82 112 143 171 211 265 321
#
# _framework density 18.080151999999998
#
# number of rings (size 3 to 8) (size 9 to 14) (size 15 to 20)
#    0.000    1.647    4.706    1.059    0.000    3.765 
#    0.000    4.706    0.000    0.000    0.000    4.941 
#    0.000    0.000    0.000    0.000    0.000    0.000 
#
# Total GULP energy -421223.572321 kJ/mol
# GULP energy per Si atom -12388.928598 kJ/mol
# Density = 1.803900 g / cm^3
# Si number density = 18.080152 Si / 1000 Ang^3
#
#
#
# Elastic Constant Matrix: (Units=GPa)
#
#
# Indices 1 2 3 4 5 6 
#
# 1 131.1899 27.1014 52.1178 0.0000 0.0000 0.0000
# 2 27.1014 47.5960 35.8260 0.0000 0.0000 0.0000
# 3 52.1178 35.8260 165.6559 0.0000 0.0000 0.0000
# 4 0.0000 0.0000 0.0000 23.2637 0.0000 0.0000
# 5 0.0000 0.0000 0.0000 0.0000 21.6992 0.0000
# 6 0.0000 0.0000 0.0000 0.0000 0.0000 2.1709
#
#
#
# Elastic Compliance Matrix: (Units=1/GPa)
#
#
# Indices 1 2 3 4 5 6 
#
# 1 0.009216 -0.003661 -0.002108 0.000000 0.000000 0.000000
# 2 -0.003661 0.026550 -0.004590 0.000000 0.000000 0.000000
# 3 -0.002108 -0.004590 0.007692 0.000000 0.000000 0.000000
# 4 0.000000 0.000000 0.000000 0.042985 0.000000 0.000000
# 5 0.000000 0.000000 0.000000 0.000000 0.046085 0.000000
# 6 0.000000 0.000000 0.000000 0.000000 0.000000 0.460645
#
#
# Mechanical properties :
#
#
# Convention : Reuss Voigt Hill
#
# Bulk Modulus (GPa) = 43.97442 63.83692 53.90567
# Shear Modulus (GPa) = 8.04542 24.71987 16.38265
#
# Velocity S-wave (km/s) = 2.11176 3.70163 3.01344
# Velocity P-wave (km/s) = 5.50643 7.32488 6.47976
#
# Compressibility (1/GPa) = 0.02274049
#
# Stress axis : x y z
#
# Youngs Moduli (GPa) = 108.50426 37.66507 129.99840
#
# Poissons Ratio (x) = 0.13790 0.27401
# Poissons Ratio (y) = 0.39726 0.59669
# Poissons Ratio (z) = 0.22870 0.17288
#
# Static dielectric constant tensor:
#      x y z
#    x 3.431020 0.000000 0.000000 
#    y 0.000000 3.113600 0.000000 
#    z 0.000000 0.000000 3.746550 
# 
# 
# High freq. dielectric constant tensor:
#      x y z
#    x 1.680210 0.000000 0.000000 
#    y 0.000000 1.658680 0.000000 
#    z 0.000000 0.000000 1.729810 
# 
# From -- ./inp_files/12559.got.cif
#   From: 2010.03.12/outbox.cif.g09.slc.cpg/sg49_7_cif.got.tgz:12559.got - 2010.04.14 03:58:27.
