data_PCOD8203010
_publ_section_title
;
Structure prediction by ZEFSAII (Michael W. Deem and Ramdas Pophale) SiO2 
 PCOD8203010
Probable space group: P C C M
;
_chemical_formula_sum "Si O2"
_cell_formula_units_Z 56
_cell_length_a 20.036486
_cell_length_b 15.074025
_cell_length_c 9.799360
_cell_angle_alpha 90.000000
_cell_angle_beta 90.000000
_cell_angle_gamma 90.000000
_cell_volume 2959.705511
_symmetry_space_group_name_H-M "P C C M"
_symmetry_group_IT_number 49
_symmetry_cell_setting 'orthorhombic'
loop_
_space_group_symop_operation_xyz
x,y,z
-x,-y,z
x,-y,1/2-z
-x,y,1/2-z
-x,-y,-z
x,y,-z
-x,y,1/2+z
x,-y,1/2+z
loop_
_atom_site_type_symbol
_atom_site_label
_atom_site_fract_x
_atom_site_fract_y
_atom_site_fract_z
Si Si1 0.060947 0.275805 0.840575
Si Si2 0.899561 0.924250 0.846378
Si Si3 0.669185 0.580941 0.157768
Si Si4 0.560349 0.272422 0.656220
Si Si5 0.796018 0.317378 0.339051
Si Si6 0.387329 0.921997 0.659396
Si Si7 0.754040 0.867897 0.156491
O O1 0.073390 0.172435 0.806376
O O2 0.126730 0.332349 0.795029
O O3 0.000000 0.311731 0.750000
O O4 0.044321 0.289132 0.000000
O O5 0.819398 0.928628 0.830471
O O6 0.931269 0.000000 0.750000
O O7 0.920461 0.947793 0.000000
O O8 0.643824 0.500000 0.250000
O O9 0.624939 0.667533 0.187473
O O10 0.746387 0.602318 0.198477
O O11 0.664096 0.552521 0.000000
O O12 0.500000 0.305926 0.750000
O O13 0.538254 0.284237 0.500000
O O14 0.576025 0.170437 0.689163
O O15 0.797613 0.300382 0.500000
O O16 0.768142 0.226867 0.270898
O O17 0.391700 0.947956 0.500000
O O18 0.311493 0.914015 0.718016
O O19 0.421168 0.000000 0.750000
O O20 0.734959 0.849120 0.000000
#
# Coordination Sequence:
#
# PCOD8203010 Si02
#       7
#     8   8   8   8   8   8   8
#     4   9  18  31  48  70  96 133 175 213 256 310
#     4   9  17  27  41  63  92 127 168 215 262 306
#     4  10  20  37  62  88 110 137 175 219 268 324
#     4  10  22  39  58  79 110 149 182 217 265 320
#     4   8  14  30  55  76  99 135 175 211 256 315
#     4  10  19  32  52  77 104 140 183 224 265 310
#     4   8  13  26  48  70  94 128 173 217 258 308
#
# _framework density 18.920801999999998
#
# number of rings (size 3 to 8) (size 9 to 14) (size 15 to 20)
#    0.000    2.857    1.429    2.143    0.000    2.571 
#    0.000    5.000    0.000    2.143    0.000    3.000 
#    0.000    0.000    0.000    0.000    0.000    0.000 
#
# Total GULP energy -694004.326898 kJ/mol
# GULP energy per Si atom -12392.934409 kJ/mol
# Density = 1.887774 g / cm^3
# Si number density = 18.920802 Si / 1000 Ang^3
#
#
#
# Elastic Constant Matrix: (Units=GPa)
#
#
# Indices 1 2 3 4 5 6 
#
# 1 101.4486 25.7079 45.4376 0.0000 0.0000 0.0000
# 2 25.7079 77.8410 42.4269 0.0000 0.0000 0.0000
# 3 45.4376 42.4269 63.3568 0.0000 0.0000 0.0000
# 4 0.0000 0.0000 0.0000 24.6634 0.0000 0.0000
# 5 0.0000 0.0000 0.0000 0.0000 27.2837 0.0000
# 6 0.0000 0.0000 0.0000 0.0000 0.0000 8.2787
#
#
#
# Elastic Compliance Matrix: (Units=1/GPa)
#
#
# Indices 1 2 3 4 5 6 
#
# 1 0.014617 0.001396 -0.011418 0.000000 0.000000 0.000000
# 2 0.001396 0.020364 -0.014638 0.000000 0.000000 0.000000
# 3 -0.011418 -0.014638 0.033774 0.000000 0.000000 0.000000
# 4 0.000000 0.000000 0.000000 0.040546 0.000000 0.000000
# 5 0.000000 0.000000 0.000000 0.000000 0.036652 0.000000
# 6 0.000000 0.000000 0.000000 0.000000 0.000000 0.120792
#
#
# Mechanical properties :
#
#
# Convention : Reuss Voigt Hill
#
# Bulk Modulus (GPa) = 51.45081 52.19904 51.82493
# Shear Modulus (GPa) = 15.50177 20.65008 18.07593
#
# Velocity S-wave (km/s) = 2.86544 3.30721 3.09422
# Velocity P-wave (km/s) = 6.18057 6.49858 6.34157
#
# Compressibility (1/GPa) = 0.01943604
#
# Stress axis : x y z
#
# Youngs Moduli (GPa) = 68.41143 49.10632 29.60834
#
# Poissons Ratio (x) = -0.06853 0.33806
# Poissons Ratio (y) = -0.09548 0.43340
# Poissons Ratio (z) = 0.78111 0.71880
#
# Static dielectric constant tensor:
#      x y z
#    x 3.559470 0.000000 0.000000 
#    y 0.000000 3.179760 0.000000 
#    z 0.000000 0.000000 3.115300 
# 
# 
# High freq. dielectric constant tensor:
#      x y z
#    x 1.742270 0.000000 0.000000 
#    y 0.000000 1.711380 0.000000 
#    z 0.000000 0.000000 1.699120 
# 
# From -- ./inp_files/5802.got.cif
#   From: 2010.03.12/outbox.cif.g09.slc.cpg/sg49_3_cif.got.tgz:5802.got - 2010.04.14 03:58:27.
