data_PCOD8203103
_publ_section_title
;
Structure prediction by ZEFSAII (Michael W. Deem and Ramdas Pophale) SiO2 
 PCOD8203103
Probable space group: P C C M
;
_chemical_formula_sum "Si O2"
_cell_formula_units_Z 56
_cell_length_a 31.299160
_cell_length_b 5.117114
_cell_length_c 16.197097
_cell_angle_alpha 90.000000
_cell_angle_beta 90.000000
_cell_angle_gamma 90.000000
_cell_volume 2594.149243
_symmetry_space_group_name_H-M "P C C M"
_symmetry_group_IT_number 49
_symmetry_cell_setting 'orthorhombic'
loop_
_space_group_symop_operation_xyz
x,y,z
-x,-y,z
x,-y,1/2-z
-x,y,1/2-z
-x,-y,-z
x,y,-z
-x,y,1/2+z
x,-y,1/2+z
loop_
_atom_site_type_symbol
_atom_site_label
_atom_site_fract_x
_atom_site_fract_y
_atom_site_fract_z
Si Si1 0.452565 0.458074 0.098095
Si Si2 0.025338 0.748858 0.098010
Si Si3 0.837884 0.406446 0.341146
Si Si4 0.881533 0.888787 0.594231
Si Si5 0.693318 0.065927 0.095331
Si Si6 0.598405 0.038313 0.098226
Si Si7 0.253882 0.552820 0.595815
O O1 0.500000 0.500000 0.134930
O O2 0.429193 0.202061 0.134672
O O3 0.424682 0.700973 0.126828
O O4 0.455600 0.435294 0.000000
O O5 0.073456 0.786094 0.131839
O O6 0.000000 0.500000 0.135782
O O7 0.027086 0.719861 0.000000
O O8 0.000000 0.000000 0.127767
O O9 0.849446 0.500000 0.250000
O O10 0.850327 0.640255 0.403116
O O11 0.787502 0.365039 0.352025
O O12 0.863110 0.136603 0.356389
O O13 0.886986 0.982650 0.500000
O O14 0.646251 0.052973 0.135932
O O15 0.712734 0.783059 0.108335
O O16 0.724134 0.290745 0.133262
O O17 0.688346 0.143418 0.000000
O O18 0.601025 0.008631 0.000000
O O19 0.240838 0.519599 0.500000
#
# Coordination Sequence:
#
# PCOD8203103 Si02
#       7
#     8   8   8   8   8   8   8
#     4   9  15  21  30  46  73 112 154 193 238 303
#     4   9  17  31  55  88 118 143 182 235 277 312
#     4  12  25  40  58  85 121 156 191 237 295 348
#     4  11  22  39  64  90 118 156 200 240 282 338
#     4   9  17  28  45  67  89 119 165 224 273 312
#     4   9  15  23  34  51  77 108 151 205 254 299
#     4  10  19  33  52  73  98 132 180 227 271 328
#
# _framework density 21.587039999999998
#
# number of rings (size 3 to 8) (size 9 to 14) (size 15 to 20)
#    0.000    2.143    0.000    4.714    0.000    8.571 
#    0.000    0.000    0.000    6.429    0.000    0.000 
#    0.000    0.000    0.000    0.000    0.000   50.571 
#
# Total GULP energy -694307.915545 kJ/mol
# GULP energy per Si atom -12398.355635 kJ/mol
# Density = 2.153791 g / cm^3
# Si number density = 21.587040 Si / 1000 Ang^3
#
#
#
# Elastic Constant Matrix: (Units=GPa)
#
#
# Indices 1 2 3 4 5 6 
#
# 1 155.5407 50.6589 18.6653 0.0000 0.0000 0.0000
# 2 50.6589 139.5399 7.5385 0.0000 0.0000 0.0000
# 3 18.6653 7.5385 21.0616 0.0000 0.0000 0.0000
# 4 0.0000 0.0000 0.0000 10.4492 0.0000 0.0000
# 5 0.0000 0.0000 0.0000 0.0000 -0.4128 0.0000
# 6 0.0000 0.0000 0.0000 0.0000 0.0000 44.8755
#
#
#
# Elastic Compliance Matrix: (Units=1/GPa)
#
#
# Indices 1 2 3 4 5 6 
#
# 1 0.008009 -0.002574 -0.006176 0.000000 0.000000 0.000000
# 2 -0.002574 0.008135 -0.000631 0.000000 0.000000 0.000000
# 3 -0.006176 -0.000631 0.053179 0.000000 0.000000 0.000000
# 4 0.000000 0.000000 0.000000 0.095701 0.000000 0.000000
# 5 0.000000 0.000000 0.000000 0.000000 -2.422420 0.000000
# 6 0.000000 0.000000 0.000000 0.000000 0.000000 0.022284
#
#
# Mechanical properties :
#
#
# Convention : Reuss Voigt Hill
#
# Bulk Modulus (GPa) = 19.77811 52.20751 35.99281
# Shear Modulus (GPa) = -2.27325 26.93433 12.33054
#
# Velocity S-wave (km/s) = -1.02730 3.53612 2.39257
# Velocity P-wave (km/s) = 2.78833 6.39604 4.93377
#
# Compressibility (1/GPa) = 0.05056096
#
# Stress axis : x y z
#
# Youngs Moduli (GPa) = 124.86541 122.92732 18.80445
#
# Poissons Ratio (x) = 0.31639 0.11614
# Poissons Ratio (y) = 0.32138 0.01186
# Poissons Ratio (z) = 0.77119 0.07753
#
# Static dielectric constant tensor:
#      x y z
#    x 4.178300 0.000000 0.000000 
#    y 0.000000 3.982620 0.000000 
#    z 0.000000 0.000000 3.191890 
# 
# 
# High freq. dielectric constant tensor:
#      x y z
#    x 1.867710 0.000000 0.000000 
#    y 0.000000 1.864430 0.000000 
#    z 0.000000 0.000000 1.778210 
# 
# From -- ./inp_files/14608.got.cif
#   From: 2010.03.12/outbox.cif.g09.slc.cpg/sg49_8_cif.got.tgz:14608.got - 2010.04.14 03:58:27.
