data_PCOD8203860
_publ_section_title
;
Structure prediction by ZEFSAII (Michael W. Deem and Ramdas Pophale) SiO2 
 PCOD8203860
Probable space group: P C C M
;
_chemical_formula_sum "Si O2"
_cell_formula_units_Z 58
_cell_length_a 9.160084
_cell_length_b 14.307109
_cell_length_c 23.126330
_cell_angle_alpha 90.000000
_cell_angle_beta 90.000000
_cell_angle_gamma 90.000000
_cell_volume 3030.805458
_symmetry_space_group_name_H-M "P C C M"
_symmetry_group_IT_number 49
_symmetry_cell_setting 'orthorhombic'
loop_
_space_group_symop_operation_xyz
x,y,z
-x,-y,z
x,-y,1/2-z
-x,y,1/2-z
-x,-y,-z
x,y,-z
-x,y,1/2+z
x,-y,1/2+z
loop_
_atom_site_type_symbol
_atom_site_label
_atom_site_fract_x
_atom_site_fract_y
_atom_site_fract_z
Si Si1 0.500000 0.500000 0.750000
Si Si2 0.380334 0.610885 0.857023
Si Si3 0.352999 0.136071 0.881949
Si Si4 0.164489 0.501653 0.435189
Si Si5 0.363321 0.334649 0.064545
Si Si6 0.838405 0.027478 0.932170
Si Si7 0.683849 0.827364 0.360380
Si Si8 0.662034 0.890501 0.243132
O O1 0.404767 0.568675 0.792119
O O2 0.257292 0.553361 0.888755
O O3 0.531798 0.607637 0.892262
O O4 0.326084 0.716700 0.861225
O O5 0.323282 0.230871 0.915967
O O6 0.526979 0.122431 0.872610
O O7 0.274780 0.141002 0.818857
O O8 0.282442 0.050088 0.916108
O O9 0.180037 0.458217 0.500000
O O10 0.212306 0.609672 0.436618
O O11 0.000000 0.500000 0.413233
O O12 0.433745 0.330987 0.000000
O O13 0.796064 0.128884 0.906299
O O14 0.839338 0.040678 0.000000
O O15 0.000000 0.000000 0.909735
O O16 0.751809 0.850604 0.297277
O O17 0.500000 0.847738 0.250000
O O18 0.660589 0.000000 0.250000
#
# Coordination Sequence:
#
# PCOD8203860 Si02
#       8
#     2   8   8   8   8   8   8   8
#     4  12  24  40  64  96 126 168 202 266 336 384
#     4  11  23  38  64  91 126 156 206 264 317 380
#     4  10  20  35  60  87 118 155 197 253 300 364
#     4  10  21  39  62  86 118 161 204 252 314 381
#     4  10  20  36  60  92 121 156 205 262 318 369
#     4  11  24  40  56  81 123 166 203 252 310 366
#     4  10  22  36  60  92 114 157 201 250 298 365
#     4   9  16  31  56  83 113 143 187 236 287 343
#
# _framework density 19.136825999999999
#
# number of rings (size 3 to 8) (size 9 to 14) (size 15 to 20)
#    0.000    1.793    2.759    1.241    4.828    6.069 
#    0.000    4.483    0.000    1.655    0.000    0.000 
#    0.000    0.000    0.000    0.000    0.000    0.000 
#
# Total GULP energy -718792.718465 kJ/mol
# GULP energy per Si atom -12392.977905 kJ/mol
# Density = 1.909327 g / cm^3
# Si number density = 19.136826 Si / 1000 Ang^3
#
#
#
# Elastic Constant Matrix: (Units=GPa)
#
#
# Indices 1 2 3 4 5 6 
#
# 1 70.7203 57.3762 45.8800 0.0000 0.0000 0.0000
# 2 57.3762 103.2043 56.9426 0.0000 0.0000 0.0000
# 3 45.8800 56.9426 132.4389 0.0000 0.0000 0.0000
# 4 0.0000 0.0000 0.0000 34.4268 0.0000 0.0000
# 5 0.0000 0.0000 0.0000 0.0000 17.2305 0.0000
# 6 0.0000 0.0000 0.0000 0.0000 0.0000 17.6859
#
#
#
# Elastic Compliance Matrix: (Units=1/GPa)
#
#
# Indices 1 2 3 4 5 6 
#
# 1 0.027159 -0.012989 -0.003824 0.000000 0.000000 0.000000
# 2 -0.012989 0.018915 -0.003633 0.000000 0.000000 0.000000
# 3 -0.003824 -0.003633 0.010437 0.000000 0.000000 0.000000
# 4 0.000000 0.000000 0.000000 0.029047 0.000000 0.000000
# 5 0.000000 0.000000 0.000000 0.000000 0.058037 0.000000
# 6 0.000000 0.000000 0.000000 0.000000 0.000000 0.056542
#
#
# Mechanical properties :
#
#
# Convention : Reuss Voigt Hill
#
# Bulk Modulus (GPa) = 64.02126 69.64012 66.83069
# Shear Modulus (GPa) = 20.30562 23.61294 21.95928
#
# Velocity S-wave (km/s) = 3.26095 3.51650 3.39113
# Velocity P-wave (km/s) = 6.90692 7.27718 7.09446
#
# Compressibility (1/GPa) = 0.01561981
#
# Stress axis : x y z
#
# Youngs Moduli (GPa) = 36.81961 52.86683 95.81035
#
# Poissons Ratio (x) = 0.68671 0.36636
# Poissons Ratio (y) = 0.47827 0.34807
# Poissons Ratio (z) = 0.14079 0.19206
#
# Static dielectric constant tensor:
#      x y z
#    x 3.321220 0.000000 0.000000 
#    y 0.000000 2.885130 0.000000 
#    z 0.000000 0.000000 3.757600 
# 
# 
# High freq. dielectric constant tensor:
#      x y z
#    x 1.707600 0.000000 0.000000 
#    y 0.000000 1.750660 0.000000 
#    z 0.000000 0.000000 1.761680 
# 
# From -- ./inp_files/22500.got.cif
#   From: 2010.03.12/outbox.cif.g09.slc.cpg/sg49_12_cif.got.tgz:22500.got - 2010.04.14 03:58:27.
