data_PCOD8203443
_publ_section_title
;
Structure prediction by ZEFSAII (Michael W. Deem and Ramdas Pophale) SiO2 
 PCOD8203443
Probable space group: P C C M
;
_chemical_formula_sum "Si O2"
_cell_formula_units_Z 64
_cell_length_a 21.271556
_cell_length_b 21.316467
_cell_length_c 9.222055
_cell_angle_alpha 90.000000
_cell_angle_beta 90.000000
_cell_angle_gamma 90.000000
_cell_volume 4181.597174
_symmetry_space_group_name_H-M "P C C M"
_symmetry_group_IT_number 49
_symmetry_cell_setting 'orthorhombic'
loop_
_space_group_symop_operation_xyz
x,y,z
-x,-y,z
x,-y,1/2-z
-x,y,1/2-z
-x,-y,-z
x,y,-z
-x,y,1/2+z
x,-y,1/2+z
loop_
_atom_site_type_symbol
_atom_site_label
_atom_site_fract_x
_atom_site_fract_y
_atom_site_fract_z
Si Si1 0.167269 0.565500 0.328912
Si Si2 0.065613 0.666373 0.328902
Si Si3 0.162022 0.232539 0.838860
Si Si4 0.562991 0.167360 0.667561
Si Si5 0.268005 0.662301 0.338867
Si Si6 0.244864 0.850752 0.162775
Si Si7 0.350995 0.745428 0.837230
Si Si8 0.668209 0.062932 0.332430
O O1 0.162314 0.500000 0.250000
O O2 0.165629 0.554948 0.500000
O O3 0.108465 0.607933 0.279368
O O4 0.232662 0.599532 0.284098
O O5 0.055061 0.664715 0.500000
O O6 0.099329 0.731828 0.284040
O O7 0.000000 0.660930 0.250000
O O8 0.217724 0.282398 0.846376
O O9 0.180149 0.176030 0.730798
O O10 0.151611 0.204561 0.000000
O O11 0.500000 0.147678 0.750000
O O12 0.548754 0.181902 0.500000
O O13 0.591370 0.229936 0.740331
O O14 0.610161 0.109691 0.684723
O O15 0.296113 0.652093 0.500000
O O16 0.324517 0.680700 0.230768
O O17 0.296560 0.796717 0.161048
O O18 0.269241 0.908407 0.259659
O O19 0.230988 0.874482 0.000000
O O20 0.374859 0.731724 0.000000
O O21 0.682861 0.048806 0.500000
O O22 0.648799 0.000000 0.250000
#
# Coordination Sequence:
#
# PCOD8203443 Si02
#       8
#     8   8   8   8   8   8   8   8
#     4   9  18  30  42  58  82 113 147 181 215 252
#     4   9  18  30  42  58  82 113 147 181 215 252
#     4   8  14  26  42  58  78 104 134 170 214 258
#     4  10  20  32  45  61  84 115 147 178 211 246
#     4   8  14  26  42  58  78 104 134 170 214 258
#     4   9  16  26  42  63  83 103 132 171 213 255
#     4   9  16  26  42  63  83 103 132 171 213 255
#     4  10  20  32  45  61  84 115 147 178 211 246
#
# _framework density 15.305156
#
# number of rings (size 3 to 8) (size 9 to 14) (size 15 to 20)
#    0.000    3.000    0.000    3.000    0.000    6.500 
#    0.000    5.000    0.000    0.000    0.000    0.000 
#    0.000    1.000    0.000   10.500    0.000    6.750 
#
# Total GULP energy -793357.362643 kJ/mol
# GULP energy per Si atom -12396.208791 kJ/mol
# Density = 1.527032 g / cm^3
# Si number density = 15.305156 Si / 1000 Ang^3
#
#
#
# Elastic Constant Matrix: (Units=GPa)
#
#
# Indices 1 2 3 4 5 6 
#
# 1 51.1498 51.7205 49.7744 0.0000 0.0000 0.0000
# 2 51.7205 52.6796 50.5407 0.0000 0.0000 0.0000
# 3 49.7744 50.5407 113.9347 0.0000 0.0000 0.0000
# 4 0.0000 0.0000 0.0000 25.4901 0.0000 0.0000
# 5 0.0000 0.0000 0.0000 0.0000 25.2989 0.0000
# 6 0.0000 0.0000 0.0000 0.0000 0.0000 12.4817
#
#
#
# Elastic Compliance Matrix: (Units=1/GPa)
#
#
# Indices 1 2 3 4 5 6 
#
# 1 2.699469 -2.644237 -0.006345 0.000000 0.000000 0.000000
# 2 -2.644237 2.623183 -0.008444 0.000000 0.000000 0.000000
# 3 -0.006345 -0.008444 0.015295 0.000000 0.000000 0.000000
# 4 0.000000 0.000000 0.000000 0.039231 0.000000 0.000000
# 5 0.000000 0.000000 0.000000 0.000000 0.039527 0.000000
# 6 0.000000 0.000000 0.000000 0.000000 0.000000 0.080118
#
#
# Mechanical properties :
#
#
# Convention : Reuss Voigt Hill
#
# Bulk Modulus (GPa) = 50.26846 57.98169 54.12508
# Shear Modulus (GPa) = 0.46204 17.03602 8.74903
#
# Velocity S-wave (km/s) = 0.55004 3.33992 2.39349
# Velocity P-wave (km/s) = 5.77225 7.26907 6.56347
#
# Compressibility (1/GPa) = 0.01989319
#
# Stress axis : x y z
#
# Youngs Moduli (GPa) = 0.37044 0.38122 65.38229
#
# Poissons Ratio (x) = 1.00803 0.41486
# Poissons Ratio (y) = 0.97954 0.55209
# Poissons Ratio (z) = 0.00235 0.00322
#
# Static dielectric constant tensor:
#      x y z
#    x 2.820120 0.000000 0.000000 
#    y 0.000000 2.823100 0.000000 
#    z 0.000000 0.000000 3.124550 
# 
# 
# High freq. dielectric constant tensor:
#      x y z
#    x 1.557480 0.000000 0.000000 
#    y 0.000000 1.557920 0.000000 
#    z 0.000000 0.000000 1.598680 
# 
# From -- ./inp_files/6065.got.cif
#   From: 2010.03.12/outbox.cif.g09.slc.cpg/sg49_4_cif.got.tgz:6065.got - 2010.04.14 03:58:27.
