data_PCOD8203559
_publ_section_title
;
Structure prediction by ZEFSAII (Michael W. Deem and Ramdas Pophale) SiO2 
 PCOD8203559
Probable space group: P C C M
;
_chemical_formula_sum "Si O2"
_cell_formula_units_Z 52
_cell_length_a 14.452240
_cell_length_b 9.118443
_cell_length_c 19.948016
_cell_angle_alpha 90.000000
_cell_angle_beta 90.000000
_cell_angle_gamma 90.000000
_cell_volume 2628.787982
_symmetry_space_group_name_H-M "P C C M"
_symmetry_group_IT_number 49
_symmetry_cell_setting 'orthorhombic'
loop_
_space_group_symop_operation_xyz
x,y,z
-x,-y,z
x,-y,1/2-z
-x,y,1/2-z
-x,-y,-z
x,y,-z
-x,y,1/2+z
x,-y,1/2+z
loop_
_atom_site_type_symbol
_atom_site_label
_atom_site_fract_x
_atom_site_fract_y
_atom_site_fract_z
Si Si1 0.124152 0.363409 0.894550
Si Si2 0.233764 0.189649 0.000000
Si Si3 0.082692 0.688474 0.108929
Si Si4 0.355048 0.173410 0.254225
Si Si5 0.546972 0.158194 0.500000
Si Si6 0.494516 0.174746 0.143471
Si Si7 0.835929 0.330258 0.752419
Si Si8 0.100212 0.079110 0.500000
O O1 0.204567 0.282567 0.934970
O O2 0.140673 0.538128 0.902676
O O3 0.121633 0.296555 0.819851
O O4 0.020993 0.328791 0.919540
O O5 0.341705 0.151685 0.000000
O O6 0.180619 0.037986 0.000000
O O7 0.090755 0.714635 0.189357
O O8 0.121097 0.824121 0.066298
O O9 0.405017 0.227373 0.185993
O O10 0.413430 0.228803 0.318762
O O11 0.255228 0.238250 0.264402
O O12 0.347721 0.000000 0.250000
O O13 0.513416 0.240833 0.432018
O O14 0.500000 0.000000 0.500000
O O15 0.500000 0.000000 0.140001
O O16 0.809087 0.500000 0.750000
O O17 0.000000 0.000000 0.500000
#
# Coordination Sequence:
#
# PCOD8203559 Si02
#       8
#     8   4   8   8   4   8   8   4
#     4  10  20  38  60  83 111 159 205 232 284 350
#     4  12  23  36  63  87 116 153 195 247 295 355
#     4  10  21  38  58  80 118 159 193 242 286 346
#     4   9  17  33  53  77 104 145 182 231 295 354
#     4  10  20  33  51  83 111 142 190 245 294 350
#     4   8  16  31  52  72 105 140 185 231 283 354
#     4  10  21  35  56  85 114 147 198 242 284 348
#     4  12  23  39  55  88 125 152 194 243 295 355
#
# _framework density 19.780978000000001
#
# number of rings (size 3 to 8) (size 9 to 14) (size 15 to 20)
#    0.000    2.154    1.538    2.769    0.000    8.000 
#    0.000    1.538    0.000    0.000    0.000   16.154 
#    0.000    0.000    0.000    0.000    0.000    0.000 
#
# Total GULP energy -644336.614585 kJ/mol
# GULP energy per Si atom -12391.088742 kJ/mol
# Density = 1.973596 g / cm^3
# Si number density = 19.780978 Si / 1000 Ang^3
#
#
#
# Elastic Constant Matrix: (Units=GPa)
#
#
# Indices 1 2 3 4 5 6 
#
# 1 93.6295 28.4051 31.3886 0.0000 0.0000 0.0000
# 2 28.4051 60.2853 45.0507 0.0000 0.0000 0.0000
# 3 31.3886 45.0507 159.0755 0.0000 0.0000 0.0000
# 4 0.0000 0.0000 0.0000 5.9839 0.0000 0.0000
# 5 0.0000 0.0000 0.0000 0.0000 24.6934 0.0000
# 6 0.0000 0.0000 0.0000 0.0000 0.0000 21.8547
#
#
#
# Elastic Compliance Matrix: (Units=1/GPa)
#
#
# Indices 1 2 3 4 5 6 
#
# 1 0.012591 -0.005170 -0.001020 0.000000 0.000000 0.000000
# 2 -0.005170 0.023164 -0.005540 0.000000 0.000000 0.000000
# 3 -0.001020 -0.005540 0.008057 0.000000 0.000000 0.000000
# 4 0.000000 0.000000 0.000000 0.167116 0.000000 0.000000
# 5 0.000000 0.000000 0.000000 0.000000 0.040497 0.000000
# 6 0.000000 0.000000 0.000000 0.000000 0.000000 0.045757
#
#
# Mechanical properties :
#
#
# Convention : Reuss Voigt Hill
#
# Bulk Modulus (GPa) = 49.13834 58.07545 53.60689
# Shear Modulus (GPa) = 15.27066 24.38278 19.82672
#
# Velocity S-wave (km/s) = 2.78148 3.51470 3.16937
# Velocity P-wave (km/s) = 5.93386 6.77450 6.36806
#
# Compressibility (1/GPa) = 0.02035071
#
# Stress axis : x y z
#
# Youngs Moduli (GPa) = 79.42233 43.17085 124.12264
#
# Poissons Ratio (x) = 0.22320 0.12663
# Poissons Ratio (y) = 0.41063 0.68763
# Poissons Ratio (z) = 0.08103 0.23916
#
# Static dielectric constant tensor:
#      x y z
#    x 3.461590 0.000000 0.000000 
#    y 0.000000 3.367840 0.000000 
#    z 0.000000 0.000000 4.198360 
# 
# 
# High freq. dielectric constant tensor:
#      x y z
#    x 1.759690 0.000000 0.000000 
#    y 0.000000 1.739680 0.000000 
#    z 0.000000 0.000000 1.791810 
# 
# From -- ./inp_files/20817.got.cif
#   From: 2010.03.12/outbox.cif.g09.slc.cpg/sg49_11_cif.got.tgz:20817.got - 2010.04.14 03:58:27.
