data_PCOD8203945
_publ_section_title
;
Structure prediction by ZEFSAII (Michael W. Deem and Ramdas Pophale) SiO2 
 PCOD8203945
Probable space group: P C C M
;
_chemical_formula_sum "Si O2"
_cell_formula_units_Z 48
_cell_length_a 8.373208
_cell_length_b 9.590795
_cell_length_c 29.517762
_cell_angle_alpha 90.000000
_cell_angle_beta 90.000000
_cell_angle_gamma 90.000000
_cell_volume 2370.445172
_symmetry_space_group_name_H-M "P C C M"
_symmetry_group_IT_number 49
_symmetry_cell_setting 'orthorhombic'
loop_
_space_group_symop_operation_xyz
x,y,z
-x,-y,z
x,-y,1/2-z
-x,y,1/2-z
-x,-y,-z
x,y,-z
-x,y,1/2+z
x,-y,1/2+z
loop_
_atom_site_type_symbol
_atom_site_label
_atom_site_fract_x
_atom_site_fract_y
_atom_site_fract_z
Si Si1 0.314738 0.488410 0.114548
Si Si2 0.179852 0.288526 0.552488
Si Si3 0.165336 0.425327 0.294521
Si Si4 0.125001 0.782407 0.600217
Si Si5 0.318864 0.954613 0.891846
Si Si6 0.905412 0.130864 0.182450
O O1 0.500000 0.500000 0.103272
O O2 0.213878 0.563888 0.075715
O O3 0.285221 0.558070 0.163632
O O4 0.259821 0.329052 0.113040
O O5 0.221661 0.297119 0.500000
O O6 0.298572 0.176990 0.575415
O O7 0.991661 0.256809 0.558814
O O8 0.238685 0.500000 0.250000
O O9 0.136855 0.259403 0.283798
O O10 0.000000 0.500000 0.307394
O O11 0.014559 0.802693 0.643726
O O12 0.213309 0.923364 0.586009
O O13 0.257518 0.923955 0.840771
O O14 0.500000 0.000000 0.888236
O O15 0.000000 0.000000 0.205974
#
# Coordination Sequence:
#
# PCOD8203945 Si02
#       6
#     8   8   8   8   8   8
#     4  12  23  39  62  88 128 164 203 263 321 370
#     4  11  23  40  61  87 121 165 216 262 307 373
#     4  11  21  39  66  94 122 163 209 254 306 375
#     4  10  20  36  61  87 117 166 209 244 312 369
#     4  10  20  36  61  92 122 167 200 255 318 373
#     4   9  18  36  62  89 123 160 206 248 301 373
#
# _framework density 20.249359999999999
#
# number of rings (size 3 to 8) (size 9 to 14) (size 15 to 20)
#    0.000    1.500    5.000    3.000    0.000    3.667 
#    0.000    3.333    0.000    0.000    0.000    1.167 
#    0.000    0.000    0.000    0.000    0.000    0.000 
#
# Total GULP energy -595177.213189 kJ/mol
# GULP energy per Si atom -12399.525275 kJ/mol
# Density = 2.020327 g / cm^3
# Si number density = 20.249360 Si / 1000 Ang^3
#
#
#
# Elastic Constant Matrix: (Units=GPa)
#
#
# Indices 1 2 3 4 5 6 
#
# 1 101.4488 11.5947 15.2297 0.0000 0.0000 0.0000
# 2 11.5947 109.4328 25.6411 0.0000 0.0000 0.0000
# 3 15.2297 25.6411 82.7014 0.0000 0.0000 0.0000
# 4 0.0000 0.0000 0.0000 22.5577 0.0000 0.0000
# 5 0.0000 0.0000 0.0000 0.0000 5.5333 0.0000
# 6 0.0000 0.0000 0.0000 0.0000 0.0000 32.0374
#
#
#
# Elastic Compliance Matrix: (Units=1/GPa)
#
#
# Indices 1 2 3 4 5 6 
#
# 1 0.010186 -0.000690 -0.001662 0.000000 0.000000 0.000000
# 2 -0.000690 0.009901 -0.002943 0.000000 0.000000 0.000000
# 3 -0.001662 -0.002943 0.013310 0.000000 0.000000 0.000000
# 4 0.000000 0.000000 0.000000 0.044331 0.000000 0.000000
# 5 0.000000 0.000000 0.000000 0.000000 0.180724 0.000000
# 6 0.000000 0.000000 0.000000 0.000000 0.000000 0.031213
#
#
# Mechanical properties :
#
#
# Convention : Reuss Voigt Hill
#
# Bulk Modulus (GPa) = 43.84480 44.27933 44.06206
# Shear Modulus (GPa) = 16.24140 28.10020 22.17080
#
# Velocity S-wave (km/s) = 2.83516 3.72924 3.31250
# Velocity P-wave (km/s) = 5.69359 6.36062 6.03632
#
# Compressibility (1/GPa) = 0.02280772
#
# Stress axis : x y z
#
# Youngs Moduli (GPa) = 98.17873 101.00411 75.13113
#
# Poissons Ratio (x) = 0.06967 0.12485
# Poissons Ratio (y) = 0.06772 0.22108
# Poissons Ratio (z) = 0.16316 0.29721
#
# Static dielectric constant tensor:
#      x y z
#    x 3.580620 0.000000 0.000000 
#    y 0.000000 4.107380 0.000000 
#    z 0.000000 0.000000 3.343850 
# 
# 
# High freq. dielectric constant tensor:
#      x y z
#    x 1.779060 0.000000 0.000000 
#    y 0.000000 1.815580 0.000000 
#    z 0.000000 0.000000 1.758920 
# 
# From -- ./inp_files/26304.got.cif
#   From: 2010.03.12/outbox.cif.g09.slc.cpg/sg49_14_cif.got.tgz:26304.got - 2010.04.14 03:58:27.
