data_PCOD8203964
_publ_section_title
;
Structure prediction by ZEFSAII (Michael W. Deem and Ramdas Pophale) SiO2 
 PCOD8203964
Probable space group: P C C M
;
_chemical_formula_sum "Si O2"
_cell_formula_units_Z 56
_cell_length_a 22.740115
_cell_length_b 14.718233
_cell_length_c 8.505252
_cell_angle_alpha 90.000000
_cell_angle_beta 90.000000
_cell_angle_gamma 90.000000
_cell_volume 2846.659458
_symmetry_space_group_name_H-M "P C C M"
_symmetry_group_IT_number 49
_symmetry_cell_setting 'orthorhombic'
loop_
_space_group_symop_operation_xyz
x,y,z
-x,-y,z
x,-y,1/2-z
-x,y,1/2-z
-x,-y,-z
x,y,-z
-x,y,1/2+z
x,-y,1/2+z
loop_
_atom_site_type_symbol
_atom_site_label
_atom_site_fract_x
_atom_site_fract_y
_atom_site_fract_z
Si Si1 0.237119 0.094795 0.184761
Si Si2 0.161208 0.403704 0.814774
Si Si3 0.435511 0.096005 0.314656
Si Si4 0.711114 0.598037 0.314271
Si Si5 0.338615 0.774233 0.685996
Si Si6 0.103633 0.096935 0.813008
Si Si7 0.938547 0.721798 0.315096
O O1 0.279552 0.174620 0.244426
O O2 0.170871 0.113422 0.242809
O O3 0.261521 0.000000 0.250000
O O4 0.238063 0.087902 0.000000
O O5 0.138349 0.500000 0.750000
O O6 0.223017 0.376657 0.738145
O O7 0.114076 0.327573 0.774588
O O8 0.170693 0.409666 0.000000
O O9 0.500000 0.116088 0.250000
O O10 0.438025 0.089555 0.500000
O O11 0.394758 0.178828 0.262690
O O12 0.410910 0.000000 0.250000
O O13 0.692200 0.500000 0.250000
O O14 0.707486 0.597667 0.500000
O O15 0.665428 0.670942 0.244981
O O16 0.345352 0.777269 0.500000
O O17 0.064223 0.171942 0.727180
O O18 0.081411 0.000000 0.750000
O O19 0.096102 0.103525 0.000000
O O20 0.933958 0.704735 0.500000
O O21 0.000000 0.682320 0.250000
#
# Coordination Sequence:
#
# PCOD8203964 Si02
#       7
#     8   8   8   8   8   8   8
#     4   9  19  32  51  78 111 144 178 220 273 330
#     4  11  22  40  63  88 116 148 183 227 281 341
#     4  11  22  38  58  84 118 160 204 247 290 339
#     4  11  22  38  60  88 118 152 190 234 284 339
#     4  11  21  35  56  85 118 154 193 239 287 338
#     4  10  20  37  57  80 109 145 184 228 278 334
#     4  12  25  41  59  82 108 141 184 232 281 337
#
# _framework density 19.672180000000001
#
# number of rings (size 3 to 8) (size 9 to 14) (size 15 to 20)
#    0.000    1.286    0.000    8.571    0.000    4.571 
#    0.000    2.857    0.000    0.429    0.000    3.000 
#    0.000    0.000    0.000    0.000    0.000    0.000 
#
# Total GULP energy -694703.903800 kJ/mol
# GULP energy per Si atom -12405.426854 kJ/mol
# Density = 1.962741 g / cm^3
# Si number density = 19.672180 Si / 1000 Ang^3
#
#
#
# Elastic Constant Matrix: (Units=GPa)
#
#
# Indices 1 2 3 4 5 6 
#
# 1 72.4671 49.0793 24.8857 0.0000 0.0000 0.0000
# 2 49.0793 113.3670 20.5137 0.0000 0.0000 0.0000
# 3 24.8857 20.5137 98.9641 0.0000 0.0000 0.0000
# 4 0.0000 0.0000 0.0000 37.4312 0.0000 0.0000
# 5 0.0000 0.0000 0.0000 0.0000 25.4765 0.0000
# 6 0.0000 0.0000 0.0000 0.0000 0.0000 28.7025
#
#
#
# Elastic Compliance Matrix: (Units=1/GPa)
#
#
# Indices 1 2 3 4 5 6 
#
# 1 0.020606 -0.008294 -0.003462 0.000000 0.000000 0.000000
# 2 -0.008294 0.012503 -0.000506 0.000000 0.000000 0.000000
# 3 -0.003462 -0.000506 0.011080 0.000000 0.000000 0.000000
# 4 0.000000 0.000000 0.000000 0.026716 0.000000 0.000000
# 5 0.000000 0.000000 0.000000 0.000000 0.039252 0.000000
# 6 0.000000 0.000000 0.000000 0.000000 0.000000 0.034840
#
#
# Mechanical properties :
#
#
# Convention : Reuss Voigt Hill
#
# Bulk Modulus (GPa) = 50.85422 52.63952 51.74687
# Shear Modulus (GPa) = 28.39672 31.01000 29.70336
#
# Velocity S-wave (km/s) = 3.80346 3.97462 3.88998
# Velocity P-wave (km/s) = 6.72275 6.91953 6.82185
#
# Compressibility (1/GPa) = 0.01966405
#
# Stress axis : x y z
#
# Youngs Moduli (GPa) = 48.53020 79.97920 90.25098
#
# Poissons Ratio (x) = 0.66337 0.31248
# Poissons Ratio (y) = 0.40252 0.04567
# Poissons Ratio (z) = 0.16803 0.04047
#
# Static dielectric constant tensor:
#      x y z
#    x 3.538930 0.000000 0.000000 
#    y 0.000000 3.625490 0.000000 
#    z 0.000000 0.000000 3.639880 
# 
# 
# High freq. dielectric constant tensor:
#      x y z
#    x 1.752380 0.000000 0.000000 
#    y 0.000000 1.770660 0.000000 
#    z 0.000000 0.000000 1.782320 
# 
# From -- ./inp_files/5771.got.cif
#   From: 2010.03.12/outbox.cif.g09.slc.cpg/sg49_3_cif.got.tgz:5771.got - 2010.04.14 03:58:27.
