data_PCOD8203813
_publ_section_title
;
Structure prediction by ZEFSAII (Michael W. Deem and Ramdas Pophale) SiO2 
 PCOD8203813
Probable space group: P C C M
;
_chemical_formula_sum "Si O2"
_cell_formula_units_Z 64
_cell_length_a 20.558912
_cell_length_b 19.565718
_cell_length_c 8.680994
_cell_angle_alpha 90.000000
_cell_angle_beta 90.000000
_cell_angle_gamma 90.000000
_cell_volume 3491.928748
_symmetry_space_group_name_H-M "P C C M"
_symmetry_group_IT_number 49
_symmetry_cell_setting 'orthorhombic'
loop_
_space_group_symop_operation_xyz
x,y,z
-x,-y,z
x,-y,1/2-z
-x,y,1/2-z
-x,-y,-z
x,y,-z
-x,y,1/2+z
x,-y,1/2+z
loop_
_atom_site_type_symbol
_atom_site_label
_atom_site_fract_x
_atom_site_fract_y
_atom_site_fract_z
Si Si1 0.729586 0.072053 0.179942
Si Si2 0.431341 0.285979 0.316740
Si Si3 0.932769 0.207086 0.318663
Si Si4 0.118404 0.071525 0.678999
Si Si5 0.619671 0.569040 0.318918
Si Si6 0.309683 0.209250 0.818042
Si Si7 0.233633 0.568788 0.180857
Si Si8 0.186707 0.714400 0.181591
O O1 0.805726 0.084530 0.209718
O O2 0.690142 0.129933 0.270462
O O3 0.707358 0.000000 0.250000
O O4 0.712597 0.074157 0.000000
O O5 0.500000 0.261351 0.250000
O O6 0.427559 0.276240 0.500000
O O7 0.421255 0.364998 0.267801
O O8 0.377561 0.239998 0.235826
O O9 0.937023 0.206881 0.500000
O O10 0.921952 0.130384 0.260941
O O11 0.875480 0.256794 0.267306
O O12 0.000000 0.235686 0.250000
O O13 0.101655 0.071907 0.500000
O O14 0.095699 0.000000 0.750000
O O15 0.587822 0.500000 0.250000
O O16 0.620327 0.561789 0.500000
O O17 0.693092 0.577959 0.254233
O O18 0.251756 0.247311 0.731093
O O19 0.300684 0.217081 0.000000
O O20 0.201478 0.500000 0.250000
O O21 0.191634 0.634717 0.228017
O O22 0.235836 0.561033 0.000000
O O23 0.178348 0.725392 0.000000
#
# Coordination Sequence:
#
# PCOD8203813 Si02
#       8
#     8   8   8   8   8   8   8   8
#     4  10  20  35  58  86 119 151 186 236 286 334
#     4  11  23  40  57  80 115 153 195 240 291 342
#     4  12  25  40  58  83 115 153 195 237 286 343
#     4  10  20  35  56  82 116 154 192 234 280 334
#     4   9  18  33  52  77 111 151 190 232 279 336
#     4  12  23  36  59  88 115 151 195 237 285 340
#     4   9  18  33  55  83 114 147 184 231 285 338
#     4  11  21  38  60  85 116 151 190 238 289 336
#
# _framework density 18.327981000000001
#
# number of rings (size 3 to 8) (size 9 to 14) (size 15 to 20)
#    0.000    1.500    2.500    3.750    0.000    3.500 
#    0.000    2.500    0.000    0.750    0.000    5.250 
#    0.000    0.000    0.000    0.000    0.000    0.000 
#
# Total GULP energy -793827.525546 kJ/mol
# GULP energy per Si atom -12403.555087 kJ/mol
# Density = 1.828627 g / cm^3
# Si number density = 18.327981 Si / 1000 Ang^3
#
#
#
# Elastic Constant Matrix: (Units=GPa)
#
#
# Indices 1 2 3 4 5 6 
#
# 1 89.7864 42.9090 24.5259 0.0000 0.0000 0.0000
# 2 42.9090 112.4323 37.1176 0.0000 0.0000 0.0000
# 3 24.5259 37.1176 81.4953 0.0000 0.0000 0.0000
# 4 0.0000 0.0000 0.0000 34.8052 0.0000 0.0000
# 5 0.0000 0.0000 0.0000 0.0000 27.5861 0.0000
# 6 0.0000 0.0000 0.0000 0.0000 0.0000 49.1244
#
#
#
# Elastic Compliance Matrix: (Units=1/GPa)
#
#
# Indices 1 2 3 4 5 6 
#
# 1 0.013916 -0.004624 -0.002082 0.000000 0.000000 0.000000
# 2 -0.004624 0.012004 -0.004076 0.000000 0.000000 0.000000
# 3 -0.002082 -0.004076 0.014754 0.000000 0.000000 0.000000
# 4 0.000000 0.000000 0.000000 0.028731 0.000000 0.000000
# 5 0.000000 0.000000 0.000000 0.000000 0.036250 0.000000
# 6 0.000000 0.000000 0.000000 0.000000 0.000000 0.020356
#
#
# Mechanical properties :
#
#
# Convention : Reuss Voigt Hill
#
# Bulk Modulus (GPa) = 52.32698 54.75764 53.54231
# Shear Modulus (GPa) = 32.47901 34.24724 33.36313
#
# Velocity S-wave (km/s) = 4.21420 4.32739 4.27117
# Velocity P-wave (km/s) = 7.23129 7.41012 7.32125
#
# Compressibility (1/GPa) = 0.01911060
#
# Stress axis : x y z
#
# Youngs Moduli (GPa) = 71.86040 83.30273 67.77942
#
# Poissons Ratio (x) = 0.38515 0.14113
# Poissons Ratio (y) = 0.33225 0.27627
# Poissons Ratio (z) = 0.14962 0.33955
#
# Static dielectric constant tensor:
#      x y z
#    x 3.228990 0.000000 0.000000 
#    y 0.000000 3.609060 0.000000 
#    z 0.000000 0.000000 3.425850 
# 
# 
# High freq. dielectric constant tensor:
#      x y z
#    x 1.686410 0.000000 0.000000 
#    y 0.000000 1.717550 0.000000 
#    z 0.000000 0.000000 1.722420 
# 
# From -- ./inp_files/5925.got.cif
#   From: 2010.03.12/outbox.cif.g09.slc.cpg/sg49_3_cif.got.tgz:5925.got - 2010.04.14 03:58:27.
