data_PCOD8203985
_publ_section_title
;
Structure prediction by ZEFSAII (Michael W. Deem and Ramdas Pophale) SiO2 
 PCOD8203985
Probable space group: P C C M
;
_chemical_formula_sum "Si O2"
_cell_formula_units_Z 64
_cell_length_a 15.160513
_cell_length_b 25.081913
_cell_length_c 8.557903
_cell_angle_alpha 90.000000
_cell_angle_beta 90.000000
_cell_angle_gamma 90.000000
_cell_volume 3254.182565
_symmetry_space_group_name_H-M "P C C M"
_symmetry_group_IT_number 49
_symmetry_cell_setting 'orthorhombic'
loop_
_space_group_symop_operation_xyz
x,y,z
-x,-y,z
x,-y,1/2-z
-x,y,1/2-z
-x,-y,-z
x,y,-z
-x,y,1/2+z
x,-y,1/2+z
loop_
_atom_site_type_symbol
_atom_site_label
_atom_site_fract_x
_atom_site_fract_y
_atom_site_fract_z
Si Si1 0.092599 0.138900 0.186041
Si Si2 0.591266 0.671666 0.318238
Si Si3 0.768427 0.056627 0.815793
Si Si4 0.223982 0.356310 0.813569
Si Si5 0.173271 0.243448 0.825073
Si Si6 0.372928 0.218970 0.175482
Si Si7 0.907312 0.558510 0.684748
Si Si8 0.408835 0.099889 0.815005
O O1 0.169565 0.101424 0.244797
O O2 0.108273 0.199584 0.252399
O O3 0.000000 0.117521 0.250000
O O4 0.093937 0.138926 0.000000
O O5 0.500000 0.647778 0.250000
O O6 0.597556 0.658937 0.500000
O O7 0.673159 0.642903 0.232732
O O8 0.591925 0.735397 0.290754
O O9 0.668132 0.067210 0.767442
O O10 0.799843 0.000000 0.750000
O O11 0.777813 0.056830 0.000000
O O12 0.178613 0.301872 0.744534
O O13 0.174123 0.405539 0.737542
O O14 0.217995 0.358634 0.000000
O O15 0.268021 0.215738 0.823035
O O16 0.140587 0.253947 0.000000
O O17 0.406818 0.162018 0.234554
O O18 0.406238 0.232385 0.000000
O O19 0.889412 0.500000 0.750000
O O20 0.912964 0.556333 0.500000
O O21 0.000000 0.581381 0.750000
O O22 0.500000 0.075672 0.750000
O O23 0.400193 0.092880 0.000000
#
# Coordination Sequence:
#
# PCOD8203985 Si02
#       8
#     8   8   8   8   8   8   8   8
#     4  11  22  41  64  91 120 153 191 238 291 353
#     4  11  21  33  51  81 119 162 206 250 295 349
#     4  12  26  45  66  88 112 148 190 241 296 353
#     4  10  20  37  59  88 123 163 203 250 301 354
#     4   8  16  33  57  83 118 157 190 231 287 343
#     4   9  17  33  55  80 113 154 193 236 287 341
#     4  11  22  39  62  90 121 160 205 256 306 358
#     4  11  22  38  60  88 119 152 190 237 288 349
#
# _framework density 19.666996999999999
#
# number of rings (size 3 to 8) (size 9 to 14) (size 15 to 20)
#    0.000    1.625    1.250    6.000    0.000    3.000 
#    0.000    5.625    0.000    0.375    0.000    2.625 
#    0.000    0.000    0.000    0.000    0.000    0.000 
#
# Total GULP energy -793526.901976 kJ/mol
# GULP energy per Si atom -12398.857843 kJ/mol
# Density = 1.962223 g / cm^3
# Si number density = 19.666997 Si / 1000 Ang^3
#
#
#
# Elastic Constant Matrix: (Units=GPa)
#
#
# Indices 1 2 3 4 5 6 
#
# 1 104.8484 51.2612 36.1357 0.0000 0.0000 0.0000
# 2 51.2612 87.8059 38.9347 0.0000 0.0000 0.0000
# 3 36.1357 38.9347 115.0762 0.0000 0.0000 0.0000
# 4 0.0000 0.0000 0.0000 27.0290 0.0000 0.0000
# 5 0.0000 0.0000 0.0000 0.0000 33.7169 0.0000
# 6 0.0000 0.0000 0.0000 0.0000 0.0000 6.9682
#
#
#
# Elastic Compliance Matrix: (Units=1/GPa)
#
#
# Indices 1 2 3 4 5 6 
#
# 1 0.013683 -0.007156 -0.001875 0.000000 0.000000 0.000000
# 2 -0.007156 0.017142 -0.003553 0.000000 0.000000 0.000000
# 3 -0.001875 -0.003553 0.010481 0.000000 0.000000 0.000000
# 4 0.000000 0.000000 0.000000 0.036997 0.000000 0.000000
# 5 0.000000 0.000000 0.000000 0.000000 0.029659 0.000000
# 6 0.000000 0.000000 0.000000 0.000000 0.000000 0.143508
#
#
# Mechanical properties :
#
#
# Convention : Reuss Voigt Hill
#
# Bulk Modulus (GPa) = 61.96997 62.26595 62.11796
# Shear Modulus (GPa) = 17.72941 25.63609 21.68275
#
# Velocity S-wave (km/s) = 3.00572 3.61433 3.32398
# Velocity P-wave (km/s) = 6.60484 7.01047 6.81067
#
# Compressibility (1/GPa) = 0.01613685
#
# Stress axis : x y z
#
# Youngs Moduli (GPa) = 73.08473 58.33636 95.41325
#
# Poissons Ratio (x) = 0.41748 0.17893
# Poissons Ratio (y) = 0.52303 0.33896
# Poissons Ratio (z) = 0.13705 0.20724
#
# Static dielectric constant tensor:
#      x y z
#    x 3.687200 0.000000 0.000000 
#    y 0.000000 3.646240 0.000000 
#    z 0.000000 0.000000 3.524650 
# 
# 
# High freq. dielectric constant tensor:
#      x y z
#    x 1.772960 0.000000 0.000000 
#    y 0.000000 1.750650 0.000000 
#    z 0.000000 0.000000 1.764670 
# 
# From -- ./inp_files/4381.got.cif
#   From: 2010.03.12/outbox.cif.g09.slc.cpg/sg49_3_cif.got.tgz:4381.got - 2010.04.14 03:58:27.
