data_PCOD8203142
_publ_section_title
;
Structure prediction by ZEFSAII (Michael W. Deem and Ramdas Pophale) SiO2 
 PCOD8203142
Probable space group: P C C M
;
_chemical_formula_sum "Si O2"
_cell_formula_units_Z 58
_cell_length_a 25.439273
_cell_length_b 12.840962
_cell_length_c 8.941048
_cell_angle_alpha 90.000000
_cell_angle_beta 90.000000
_cell_angle_gamma 90.000000
_cell_volume 2920.725101
_symmetry_space_group_name_H-M "P C C M"
_symmetry_group_IT_number 49
_symmetry_cell_setting 'orthorhombic'
loop_
_space_group_symop_operation_xyz
x,y,z
-x,-y,z
x,-y,1/2-z
-x,y,1/2-z
-x,-y,-z
x,y,-z
-x,y,1/2+z
x,-y,1/2+z
loop_
_atom_site_type_symbol
_atom_site_label
_atom_site_fract_x
_atom_site_fract_y
_atom_site_fract_z
Si Si1 0.395749 0.106756 0.827030
Si Si2 0.000000 0.000000 0.250000
Si Si3 0.339985 0.399136 0.328246
Si Si4 0.553231 0.700664 0.322793
Si Si5 0.291129 0.780191 0.332963
Si Si6 0.186383 0.899434 0.672226
Si Si7 0.056827 0.395720 0.819193
Si Si8 0.917403 0.824258 0.330055
O O1 0.433491 0.188012 0.745756
O O2 0.333564 0.128730 0.804246
O O3 0.409717 0.000000 0.750000
O O4 0.411239 0.103579 0.000000
O O5 0.962247 0.915951 0.334115
O O6 0.317646 0.500000 0.250000
O O7 0.337867 0.420703 0.500000
O O8 0.399487 0.375905 0.275698
O O9 0.300194 0.307383 0.289484
O O10 0.500000 0.656058 0.250000
O O11 0.547311 0.709781 0.500000
O O12 0.300439 0.735601 0.500000
O O13 0.231047 0.812986 0.314661
O O14 0.170759 0.919623 0.500000
O O15 0.135187 0.873170 0.766351
O O16 0.211664 0.000000 0.750000
O O17 0.086933 0.500000 0.750000
O O18 0.075316 0.280577 0.768386
O O19 0.000000 0.405124 0.750000
O O20 0.058001 0.400129 0.000000
O O21 0.910099 0.787187 0.500000
#
# Coordination Sequence:
#
# PCOD8203142 Si02
#       8
#     8   2   8   8   8   8   8   8
#     4  10  19  33  54  79 108 145 187 231 281 339
#     4  12  26  40  66  90 130 168 214 250 308 360
#     4  10  21  37  60  86 113 147 190 239 291 350
#     4  10  21  36  53  78 111 148 189 235 286 340
#     4   9  20  38  59  83 113 148 187 235 288 344
#     4  11  23  39  60  89 124 159 197 242 295 355
#     4  11  22  39  63  89 119 155 200 247 295 350
#     4  12  25  41  63  92 127 166 210 256 307 363
#
# _framework density 19.858080999999999
#
# number of rings (size 3 to 8) (size 9 to 14) (size 15 to 20)
#    0.000    1.517    1.379    4.345    0.000    4.966 
#    0.000    3.448    0.000    3.310    0.000    0.000 
#    0.000    0.000    0.000    0.000    0.000    0.000 
#
# Total GULP energy -718635.590454 kJ/mol
# GULP energy per Si atom -12390.268801 kJ/mol
# Density = 1.981288 g / cm^3
# Si number density = 19.858081 Si / 1000 Ang^3
#
#
#
# Elastic Constant Matrix: (Units=GPa)
#
#
# Indices 1 2 3 4 5 6 
#
# 1 76.4493 10.9926 33.3587 0.0000 0.0000 0.0000
# 2 10.9926 107.4540 48.3021 0.0000 0.0000 0.0000
# 3 33.3587 48.3021 107.0360 0.0000 0.0000 0.0000
# 4 0.0000 0.0000 0.0000 35.6886 0.0000 0.0000
# 5 0.0000 0.0000 0.0000 0.0000 28.8424 0.0000
# 6 0.0000 0.0000 0.0000 0.0000 0.0000 179.5999
#
#
#
# Elastic Compliance Matrix: (Units=1/GPa)
#
#
# Indices 1 2 3 4 5 6 
#
# 1 0.015184 0.000720 -0.005057 0.000000 0.000000 0.000000
# 2 0.000720 0.011709 -0.005508 0.000000 0.000000 0.000000
# 3 -0.005057 -0.005508 0.013404 0.000000 0.000000 0.000000
# 4 0.000000 0.000000 0.000000 0.028020 0.000000 0.000000
# 5 0.000000 0.000000 0.000000 0.000000 0.034671 0.000000
# 6 0.000000 0.000000 0.000000 0.000000 0.000000 0.005568
#
#
# Mechanical properties :
#
#
# Convention : Reuss Voigt Hill
#
# Bulk Modulus (GPa) = 48.52899 52.91622 50.72260
# Shear Modulus (GPa) = 37.00549 62.04523 49.52536
#
# Velocity S-wave (km/s) = 4.32151 5.59573 4.99938
# Velocity P-wave (km/s) = 7.02791 8.27373 7.67614
#
# Compressibility (1/GPa) = 0.02060624
#
# Stress axis : x y z
#
# Youngs Moduli (GPa) = 65.86027 85.40706 74.60275
#
# Poissons Ratio (x) = -0.06148 0.37726
# Poissons Ratio (y) = -0.04741 0.41092
# Poissons Ratio (z) = 0.33305 0.47043
#
# Static dielectric constant tensor:
#      x y z
#    x 3.521900 0.000000 0.000000 
#    y 0.000000 9.047130 0.000000 
#    z 0.000000 0.000000 3.769230 
# 
# 
# High freq. dielectric constant tensor:
#      x y z
#    x 1.760380 0.000000 0.000000 
#    y 0.000000 1.781380 0.000000 
#    z 0.000000 0.000000 1.788140 
# 
# From -- ./inp_files/6756.got.cif
#   From: 2010.03.12/outbox.cif.g09.slc.cpg/sg49_4_cif.got.tgz:6756.got - 2010.04.14 03:58:27.
