data_PCOD8203434
_publ_section_title
;
Structure prediction by ZEFSAII (Michael W. Deem and Ramdas Pophale) SiO2 
 PCOD8203434
Probable space group: P C C M
;
_chemical_formula_sum "Si O2"
_cell_formula_units_Z 64
_cell_length_a 24.619237
_cell_length_b 14.847481
_cell_length_c 8.930778
_cell_angle_alpha 90.000000
_cell_angle_beta 90.000000
_cell_angle_gamma 90.000000
_cell_volume 3264.499912
_symmetry_space_group_name_H-M "P C C M"
_symmetry_group_IT_number 49
_symmetry_cell_setting 'orthorhombic'
loop_
_space_group_symop_operation_xyz
x,y,z
-x,-y,z
x,-y,1/2-z
-x,y,1/2-z
-x,-y,-z
x,y,-z
-x,y,1/2+z
x,-y,1/2+z
loop_
_atom_site_type_symbol
_atom_site_label
_atom_site_fract_x
_atom_site_fract_y
_atom_site_fract_z
Si Si1 0.556815 0.092520 0.176077
Si Si2 0.841999 0.831721 0.832554
Si Si3 0.731096 0.909140 0.824907
Si Si4 0.804343 0.367859 0.670022
Si Si5 0.909842 0.586732 0.325077
Si Si6 0.054536 0.218312 0.675850
Si Si7 0.347023 0.227559 0.324257
Si Si8 0.681215 0.407336 0.322751
O O1 0.500000 0.120753 0.250000
O O2 0.598409 0.172522 0.210267
O O3 0.578632 0.000000 0.250000
O O4 0.549109 0.076534 0.000000
O O5 0.796282 0.906340 0.798406
O O6 0.810071 0.738663 0.813220
O O7 0.893415 0.841497 0.722213
O O8 0.865279 0.841656 0.000000
O O9 0.703839 0.823684 0.747394
O O10 0.708432 0.000000 0.750000
O O11 0.716538 0.908379 0.000000
O O12 0.816925 0.398483 0.500000
O O13 0.846392 0.415794 0.781295
O O14 0.744333 0.395627 0.719924
O O15 0.939009 0.500000 0.250000
O O16 0.916771 0.578879 0.500000
O O17 0.936722 0.679190 0.265371
O O18 0.048122 0.213804 0.500000
O O19 0.000000 0.179193 0.750000
O O20 0.336550 0.238629 0.500000
O O21 0.352849 0.325437 0.248698
O O22 0.659804 0.500000 0.250000
O O23 0.671881 0.408444 0.500000
#
# Coordination Sequence:
#
# PCOD8203434 Si02
#       8
#     8   8   8   8   8   8   8   8
#     4  10  21  37  60  90 122 159 201 243 292 345
#     4   9  18  35  55  76 106 140 177 221 271 331
#     4  11  22  37  58  88 121 155 189 227 284 347
#     4   9  17  32  51  72 100 138 181 224 272 326
#     4  10  20  31  45  68  95 128 169 217 271 329
#     4  10  21  35  52  73  95 128 174 220 275 334
#     4  11  23  38  58  87 122 160 200 244 290 342
#     4  11  22  36  54  80 114 156 201 245 292 342
#
# _framework density 19.604839999999999
#
# number of rings (size 3 to 8) (size 9 to 14) (size 15 to 20)
#    0.000    1.875    1.250    3.375    0.000    7.750 
#    0.000    1.250    0.000    0.750    0.000    5.250 
#    0.000    0.000    0.000    0.000    0.000    0.000 
#
# Total GULP energy -793688.717776 kJ/mol
# GULP energy per Si atom -12401.386215 kJ/mol
# Density = 1.956022 g / cm^3
# Si number density = 19.604840 Si / 1000 Ang^3
#
#
#
# Elastic Constant Matrix: (Units=GPa)
#
#
# Indices 1 2 3 4 5 6 
#
# 1 84.8838 37.3740 51.5854 0.0000 0.0000 0.0000
# 2 37.3740 98.2580 47.8986 0.0000 0.0000 0.0000
# 3 51.5854 47.8986 112.3237 0.0000 0.0000 0.0000
# 4 0.0000 0.0000 0.0000 29.6287 0.0000 0.0000
# 5 0.0000 0.0000 0.0000 0.0000 27.5154 0.0000
# 6 0.0000 0.0000 0.0000 0.0000 0.0000 14.5425
#
#
#
# Elastic Compliance Matrix: (Units=1/GPa)
#
#
# Indices 1 2 3 4 5 6 
#
# 1 0.017195 -0.003397 -0.006448 0.000000 0.000000 0.000000
# 2 -0.003397 0.013519 -0.004205 0.000000 0.000000 0.000000
# 3 -0.006448 -0.004205 0.013657 0.000000 0.000000 0.000000
# 4 0.000000 0.000000 0.000000 0.033751 0.000000 0.000000
# 5 0.000000 0.000000 0.000000 0.000000 0.036343 0.000000
# 6 0.000000 0.000000 0.000000 0.000000 0.000000 0.068764
#
#
# Mechanical properties :
#
#
# Convention : Reuss Voigt Hill
#
# Bulk Modulus (GPa) = 61.45847 63.24240 62.35044
# Shear Modulus (GPa) = 23.06748 24.91112 23.98930
#
# Velocity S-wave (km/s) = 3.43391 3.56850 3.50185
# Velocity P-wave (km/s) = 6.86579 7.02193 6.94430
#
# Compressibility (1/GPa) = 0.01627115
#
# Stress axis : x y z
#
# Youngs Moduli (GPa) = 58.15521 73.96868 73.22000
#
# Poissons Ratio (x) = 0.25128 0.47216
# Poissons Ratio (y) = 0.19756 0.30789
# Poissons Ratio (z) = 0.37501 0.31103
#
# Static dielectric constant tensor:
#      x y z
#    x 3.390310 0.000000 0.000000 
#    y 0.000000 3.591230 0.000000 
#    z 0.000000 0.000000 3.575820 
# 
# 
# High freq. dielectric constant tensor:
#      x y z
#    x 1.744170 0.000000 0.000000 
#    y 0.000000 1.753490 0.000000 
#    z 0.000000 0.000000 1.771880 
# 
# From -- ./inp_files/6531.got.cif
#   From: 2010.03.12/outbox.cif.g09.slc.cpg/sg49_4_cif.got.tgz:6531.got - 2010.04.14 03:58:27.
