data_PCOD8203388
_publ_section_title
;
Structure prediction by ZEFSAII (Michael W. Deem and Ramdas Pophale) SiO2 
 PCOD8203388
Probable space group: P C C M
;
_chemical_formula_sum "Si O2"
_cell_formula_units_Z 56
_cell_length_a 16.342105
_cell_length_b 9.425561
_cell_length_c 18.917573
_cell_angle_alpha 90.000000
_cell_angle_beta 90.000000
_cell_angle_gamma 90.000000
_cell_volume 2913.940123
_symmetry_space_group_name_H-M "P C C M"
_symmetry_group_IT_number 49
_symmetry_cell_setting 'orthorhombic'
loop_
_space_group_symop_operation_xyz
x,y,z
-x,-y,z
x,-y,1/2-z
-x,y,1/2-z
-x,-y,-z
x,y,-z
-x,y,1/2+z
x,-y,1/2+z
loop_
_atom_site_type_symbol
_atom_site_label
_atom_site_fract_x
_atom_site_fract_y
_atom_site_fract_z
Si Si1 0.697106 0.252432 0.580404
Si Si2 0.926979 0.085152 0.822780
Si Si3 0.522608 0.652140 0.917293
Si Si4 0.925796 0.414159 0.177842
Si Si5 0.774794 0.447099 0.921977
Si Si6 0.248855 0.005291 0.665955
Si Si7 0.645499 0.213850 0.081006
O O1 0.691209 0.191967 0.500000
O O2 0.607023 0.283893 0.612893
O O3 0.752790 0.389971 0.581511
O O4 0.744668 0.149994 0.633319
O O5 0.950756 0.249673 0.809875
O O6 0.838050 0.072490 0.859808
O O7 0.917809 0.000000 0.750000
O O8 0.000000 0.000000 0.864974
O O9 0.500000 0.500000 0.882344
O O10 0.450003 0.762805 0.902431
O O11 0.537373 0.626095 0.000000
O O12 0.908742 0.500000 0.250000
O O13 0.844860 0.411288 0.132551
O O14 0.000000 0.500000 0.139264
O O15 0.693075 0.359859 0.904142
O O16 0.807038 0.406393 0.000000
O O17 0.323117 0.094683 0.633863
O O18 0.258052 0.000000 0.750000
O O19 0.657303 0.163943 0.000000
#
# Coordination Sequence:
#
# PCOD8203388 Si02
#       7
#     8   8   8   8   8   8   8
#     4  10  21  37  60  88 114 149 193 239 285 341
#     4  10  21  38  57  82 115 149 189 235 283 327
#     4   9  16  32  60  88 111 144 195 242 281 332
#     4  11  23  37  63  90 111 149 199 240 276 340
#     4  10  21  36  59  87 120 147 180 241 296 337
#     4  11  24  38  58  83 116 156 190 233 283 342
#     4  10  19  37  61  85 115 150 189 236 287 338
#
# _framework density 19.217967000000002
#
# number of rings (size 3 to 8) (size 9 to 14) (size 15 to 20)
#    0.000    1.857    2.857    2.143    6.000    0.857 
#    0.000    3.571    0.000    3.000    0.000    0.000 
#    0.000    0.000    0.000    0.000    0.000    0.000 
#
# Total GULP energy -694124.353314 kJ/mol
# GULP energy per Si atom -12395.077738 kJ/mol
# Density = 1.917423 g / cm^3
# Si number density = 19.217967 Si / 1000 Ang^3
#
#
#
# Elastic Constant Matrix: (Units=GPa)
#
#
# Indices 1 2 3 4 5 6 
#
# 1 99.0094 30.3971 28.2092 0.0000 0.0000 0.0000
# 2 30.3971 115.0289 28.0721 0.0000 0.0000 0.0000
# 3 28.2092 28.0721 58.5575 0.0000 0.0000 0.0000
# 4 0.0000 0.0000 0.0000 26.2027 0.0000 0.0000
# 5 0.0000 0.0000 0.0000 0.0000 37.8080 0.0000
# 6 0.0000 0.0000 0.0000 0.0000 0.0000 30.3982
#
#
#
# Elastic Compliance Matrix: (Units=1/GPa)
#
#
# Indices 1 2 3 4 5 6 
#
# 1 0.012104 -0.002011 -0.004867 0.000000 0.000000 0.000000
# 2 -0.002011 0.010179 -0.003911 0.000000 0.000000 0.000000
# 3 -0.004867 -0.003911 0.021297 0.000000 0.000000 0.000000
# 4 0.000000 0.000000 0.000000 0.038164 0.000000 0.000000
# 5 0.000000 0.000000 0.000000 0.000000 0.026449 0.000000
# 6 0.000000 0.000000 0.000000 0.000000 0.000000 0.032897
#
#
# Mechanical properties :
#
#
# Convention : Reuss Voigt Hill
#
# Bulk Modulus (GPa) = 45.45001 49.55029 47.50015
# Shear Modulus (GPa) = 29.41135 31.27629 30.34382
#
# Velocity S-wave (km/s) = 3.91629 4.03854 3.97789
# Velocity P-wave (km/s) = 6.64461 6.89824 6.77261
#
# Compressibility (1/GPa) = 0.02200220
#
# Stress axis : x y z
#
# Youngs Moduli (GPa) = 82.61683 98.23807 46.95532
#
# Poissons Ratio (x) = 0.19754 0.22853
# Poissons Ratio (y) = 0.16613 0.18365
# Poissons Ratio (z) = 0.40209 0.38423
#
# Static dielectric constant tensor:
#      x y z
#    x 4.048950 0.000000 0.000000 
#    y 0.000000 3.620220 0.000000 
#    z 0.000000 0.000000 3.206700 
# 
# 
# High freq. dielectric constant tensor:
#      x y z
#    x 1.763270 0.000000 0.000000 
#    y 0.000000 1.760220 0.000000 
#    z 0.000000 0.000000 1.703250 
# 
# From -- ./inp_files/20872.got.cif
#   From: 2010.03.12/outbox.cif.g09.slc.cpg/sg49_11_cif.got.tgz:20872.got - 2010.04.14 03:58:27.
