data_PCOD8203214
_publ_section_title
;
Structure prediction by ZEFSAII (Michael W. Deem and Ramdas Pophale) SiO2 
 PCOD8203214
Probable space group: P C C M
;
_chemical_formula_sum "Si O2"
_cell_formula_units_Z 58
_cell_length_a 12.854284
_cell_length_b 25.716589
_cell_length_c 9.078631
_cell_angle_alpha 90.000000
_cell_angle_beta 90.000000
_cell_angle_gamma 90.000000
_cell_volume 3001.107966
_symmetry_space_group_name_H-M "P C C M"
_symmetry_group_IT_number 49
_symmetry_cell_setting 'orthorhombic'
loop_
_space_group_symop_operation_xyz
x,y,z
-x,-y,z
x,-y,1/2-z
-x,y,1/2-z
-x,-y,-z
x,y,-z
-x,y,1/2+z
x,-y,1/2+z
loop_
_atom_site_type_symbol
_atom_site_label
_atom_site_fract_x
_atom_site_fract_y
_atom_site_fract_z
Si Si1 0.000000 0.000000 0.250000
Si Si2 0.100263 0.806912 0.329885
Si Si3 0.898253 0.605801 0.166589
Si Si4 0.400075 0.652773 0.174279
Si Si5 0.314407 0.554232 0.675588
Si Si6 0.777609 0.294007 0.667536
Si Si7 0.169536 0.916121 0.333421
Si Si8 0.600683 0.944569 0.822304
O O1 0.918175 0.962112 0.166592
O O2 0.072291 0.813217 0.500000
O O3 0.192241 0.765717 0.305937
O O4 0.128406 0.863098 0.257503
O O5 0.000000 0.784057 0.250000
O O6 0.802521 0.570328 0.219579
O O7 0.874567 0.666986 0.191456
O O8 0.000000 0.587872 0.250000
O O9 0.923187 0.593530 0.000000
O O10 0.500000 0.679034 0.250000
O O11 0.388826 0.597044 0.252971
O O12 0.307457 0.692200 0.211177
O O13 0.410955 0.646177 0.000000
O O14 0.343145 0.500000 0.750000
O O15 0.331285 0.552312 0.500000
O O16 0.735398 0.302281 0.500000
O O17 0.193217 0.902213 0.500000
O O18 0.283975 0.927190 0.265611
O O19 0.500000 0.913216 0.750000
O O20 0.590169 0.000000 0.750000
O O21 0.592097 0.945083 0.000000
#
# Coordination Sequence:
#
# PCOD8203214 Si02
#       8
#     2   8   8   8   8   8   8   8
#     4  12  18  36  54  78 120 156 202 230 292 344
#     4  10  20  36  56  82 115 150 185 229 281 336
#     4   9  18  31  49  74 103 139 180 222 269 324
#     4  11  22  38  61  85 110 142 184 230 282 339
#     4  10  21  37  54  79 114 149 189 233 280 329
#     4   9  19  36  56  78 108 142 179 227 279 330
#     4  10  21  34  53  81 115 153 191 235 287 343
#     4  10  19  34  53  76 102 136 181 227 275 325
#
# _framework density 19.326195999999999
#
# number of rings (size 3 to 8) (size 9 to 14) (size 15 to 20)
#    0.000    2.069    1.379    3.931    0.000    3.862 
#    0.000    4.828    0.000    1.655    0.000    0.000 
#    0.000    0.000    0.000    0.000    0.000    0.000 
#
# Total GULP energy -718520.821114 kJ/mol
# GULP energy per Si atom -12388.290019 kJ/mol
# Density = 1.928221 g / cm^3
# Si number density = 19.326196 Si / 1000 Ang^3
#
#
#
# Elastic Constant Matrix: (Units=GPa)
#
#
# Indices 1 2 3 4 5 6 
#
# 1 116.2541 21.5757 43.7421 0.0000 0.0000 0.0000
# 2 21.5757 92.7386 28.8288 0.0000 0.0000 0.0000
# 3 43.7421 28.8288 88.9209 0.0000 0.0000 0.0000
# 4 0.0000 0.0000 0.0000 19.2223 0.0000 0.0000
# 5 0.0000 0.0000 0.0000 0.0000 30.0021 0.0000
# 6 0.0000 0.0000 0.0000 0.0000 0.0000 1.7062
#
#
#
# Elastic Compliance Matrix: (Units=1/GPa)
#
#
# Indices 1 2 3 4 5 6 
#
# 1 0.010629 -0.000942 -0.004923 0.000000 0.000000 0.000000
# 2 -0.000942 0.012075 -0.003451 0.000000 0.000000 0.000000
# 3 -0.004923 -0.003451 0.014787 0.000000 0.000000 0.000000
# 4 0.000000 0.000000 0.000000 0.052023 0.000000 0.000000
# 5 0.000000 0.000000 0.000000 0.000000 0.033331 0.000000
# 6 0.000000 0.000000 0.000000 0.000000 0.000000 0.586100
#
#
# Mechanical properties :
#
#
# Convention : Reuss Voigt Hill
#
# Bulk Modulus (GPa) = 53.02998 54.02297 53.52648
# Shear Modulus (GPa) = 6.81324 23.77058 15.29191
#
# Velocity S-wave (km/s) = 1.87964 3.51089 2.81597
# Velocity P-wave (km/s) = 5.67536 6.66701 6.19107
#
# Compressibility (1/GPa) = 0.01885726
#
# Stress axis : x y z
#
# Youngs Moduli (GPa) = 94.08079 82.81496 67.62848
#
# Poissons Ratio (x) = 0.07805 0.33295
# Poissons Ratio (y) = 0.08867 0.23340
# Poissons Ratio (z) = 0.46317 0.28581
#
# Static dielectric constant tensor:
#      x y z
#    x 4.345470 0.000000 0.000000 
#    y 0.000000 3.491880 0.000000 
#    z 0.000000 0.000000 3.410100 
# 
# 
# High freq. dielectric constant tensor:
#      x y z
#    x 1.763240 0.000000 0.000000 
#    y 0.000000 1.737540 0.000000 
#    z 0.000000 0.000000 1.741730 
# 
# From -- ./inp_files/3013.got.cif
#   From: 2010.03.12/outbox.cif.g09.slc.cpg/sg49_2_cif.got.tgz:3013.got - 2010.04.14 03:58:27.
