data_PCOD8203615
_publ_section_title
;
Structure prediction by ZEFSAII (Michael W. Deem and Ramdas Pophale) SiO2 
 PCOD8203615
Probable space group: P C C M
;
_chemical_formula_sum "Si O2"
_cell_formula_units_Z 64
_cell_length_a 19.861739
_cell_length_b 20.154609
_cell_length_c 8.810212
_cell_angle_alpha 90.000000
_cell_angle_beta 90.000000
_cell_angle_gamma 90.000000
_cell_volume 3526.777056
_symmetry_space_group_name_H-M "P C C M"
_symmetry_group_IT_number 49
_symmetry_cell_setting 'orthorhombic'
loop_
_space_group_symop_operation_xyz
x,y,z
-x,-y,z
x,-y,1/2-z
-x,y,1/2-z
-x,-y,-z
x,y,-z
-x,y,1/2+z
x,-y,1/2+z
loop_
_atom_site_type_symbol
_atom_site_label
_atom_site_fract_x
_atom_site_fract_y
_atom_site_fract_z
Si Si1 0.825604 0.068481 0.179514
Si Si2 0.326728 0.932115 0.178555
Si Si3 0.325576 0.432168 0.822327
Si Si4 0.929357 0.328184 0.179529
Si Si5 0.930419 0.823349 0.678436
Si Si6 0.828350 0.430713 0.679574
Si Si7 0.570751 0.819651 0.319322
Si Si8 0.570935 0.320748 0.319214
O O1 0.749322 0.082329 0.234265
O O2 0.870926 0.129360 0.239329
O O3 0.852828 0.000000 0.250000
O O4 0.829698 0.062232 0.000000
O O5 0.373257 0.871977 0.233224
O O6 0.354430 0.000000 0.250000
O O7 0.329804 0.940331 0.000000
O O8 0.352438 0.500000 0.750000
O O9 0.248932 0.417593 0.773069
O O10 0.372322 0.372328 0.765960
O O11 0.331098 0.441215 0.000000
O O12 0.914231 0.252163 0.226040
O O13 0.870114 0.371072 0.249968
O O14 0.000000 0.351706 0.250000
O O15 0.932047 0.338190 0.000000
O O16 0.938076 0.829277 0.500000
O O17 0.000000 0.848004 0.750000
O O18 0.853705 0.500000 0.750000
O O19 0.838523 0.433035 0.500000
O O20 0.500000 0.843212 0.250000
O O21 0.564648 0.813640 0.500000
O O22 0.592639 0.749557 0.249681
O O23 0.500000 0.344248 0.250000
O O24 0.564785 0.315283 0.500000
#
# Coordination Sequence:
#
# PCOD8203615 Si02
#       8
#     8   8   8   8   8   8   8   8
#     4   9  18  34  52  73 100 131 166 206 247 293
#     4   9  19  34  52  73  99 130 167 206 248 295
#     4   9  20  36  54  76 104 135 169 208 252 299
#     4  10  20  35  54  77 103 135 170 209 254 301
#     4   9  19  34  52  73 101 132 165 204 247 294
#     4  10  20  36  55  77 104 134 168 209 252 300
#     4  10  20  34  52  75 101 132 167 207 251 299
#     4  10  20  35  53  76 104 135 170 209 251 299
#
# _framework density 18.146879999999999
#
# number of rings (size 3 to 8) (size 9 to 14) (size 15 to 20)
#    0.000    2.500    0.000    2.250    0.000    5.500 
#    0.000    6.250    0.000    0.000    0.000    0.000 
#    0.000    0.000    0.000    0.000    0.000    0.000 
#
# Total GULP energy -793716.793647 kJ/mol
# GULP energy per Si atom -12401.824901 kJ/mol
# Density = 1.810558 g / cm^3
# Si number density = 18.146880 Si / 1000 Ang^3
#
#
#
# Elastic Constant Matrix: (Units=GPa)
#
#
# Indices 1 2 3 4 5 6 
#
# 1 117.9883 100.4924 40.2424 0.0000 0.0000 0.0000
# 2 100.4924 141.7925 45.4656 0.0000 0.0000 0.0000
# 3 40.2424 45.4656 54.9805 0.0000 0.0000 0.0000
# 4 0.0000 0.0000 0.0000 31.7125 0.0000 0.0000
# 5 0.0000 0.0000 0.0000 0.0000 24.0669 0.0000
# 6 0.0000 0.0000 0.0000 0.0000 0.0000 37.4302
#
#
#
# Elastic Compliance Matrix: (Units=1/GPa)
#
#
# Indices 1 2 3 4 5 6 
#
# 1 0.022136 -0.014280 -0.004394 0.000000 0.000000 0.000000
# 2 -0.014280 0.018809 -0.005102 0.000000 0.000000 0.000000
# 3 -0.004394 -0.005102 0.025623 0.000000 0.000000 0.000000
# 4 0.000000 0.000000 0.000000 0.031533 0.000000 0.000000
# 5 0.000000 0.000000 0.000000 0.000000 0.041551 0.000000
# 6 0.000000 0.000000 0.000000 0.000000 0.000000 0.026716
#
#
# Mechanical properties :
#
#
# Convention : Reuss Voigt Hill
#
# Bulk Modulus (GPa) = 52.58360 76.35135 64.46747
# Shear Modulus (GPa) = 22.70049 27.21266 24.95657
#
# Velocity S-wave (km/s) = 3.54069 3.87664 3.71247
# Velocity P-wave (km/s) = 6.76423 7.88690 7.34704
#
# Compressibility (1/GPa) = 0.01901734
#
# Stress axis : x y z
#
# Youngs Moduli (GPa) = 45.17462 53.16621 39.02678
#
# Poissons Ratio (x) = 0.75920 0.17148
# Poissons Ratio (y) = 0.64508 0.19911
# Poissons Ratio (z) = 0.19850 0.27125
#
# Static dielectric constant tensor:
#      x y z
#    x 3.518120 0.000000 0.000000 
#    y 0.000000 3.489630 0.000000 
#    z 0.000000 0.000000 3.328220 
# 
# 
# High freq. dielectric constant tensor:
#      x y z
#    x 1.703970 0.000000 0.000000 
#    y 0.000000 1.707600 0.000000 
#    z 0.000000 0.000000 1.706350 
# 
# From -- ./inp_files/5944.got.cif
#   From: 2010.03.12/outbox.cif.g09.slc.cpg/sg49_3_cif.got.tgz:5944.got - 2010.04.14 03:58:27.
