data_PCOD8203628
_publ_section_title
;
Structure prediction by ZEFSAII (Michael W. Deem and Ramdas Pophale) SiO2 
 PCOD8203628
Probable space group: P C C M
;
_chemical_formula_sum "Si O2"
_cell_formula_units_Z 48
_cell_length_a 9.580222
_cell_length_b 30.604825
_cell_length_c 8.638066
_cell_angle_alpha 90.000000
_cell_angle_beta 90.000000
_cell_angle_gamma 90.000000
_cell_volume 2532.689743
_symmetry_space_group_name_H-M "P C C M"
_symmetry_group_IT_number 49
_symmetry_cell_setting 'orthorhombic'
loop_
_space_group_symop_operation_xyz
x,y,z
-x,-y,z
x,-y,1/2-z
-x,y,1/2-z
-x,-y,-z
x,y,-z
-x,y,1/2+z
x,-y,1/2+z
loop_
_atom_site_type_symbol
_atom_site_label
_atom_site_fract_x
_atom_site_fract_y
_atom_site_fract_z
Si Si1 0.350427 0.197644 0.316667
Si Si2 0.846248 0.638012 0.681654
Si Si3 0.847740 0.541971 0.678473
Si Si4 0.648246 0.046271 0.318140
Si Si5 0.153472 0.874712 0.682673
Si Si6 0.353611 0.291368 0.817573
O O1 0.500000 0.182582 0.250000
O O2 0.359820 0.196719 0.500000
O O3 0.228882 0.166242 0.259464
O O4 0.309964 0.245857 0.260157
O O5 0.848090 0.649914 0.500000
O O6 0.778350 0.589579 0.708277
O O7 0.759230 0.672444 0.778622
O O8 0.000000 0.639565 0.750000
O O9 0.763958 0.500000 0.750000
O O10 0.862788 0.532603 0.500000
O O11 0.000000 0.543501 0.750000
O O12 0.500000 0.061385 0.250000
O O13 0.630750 0.041540 0.500000
O O14 0.763999 0.081500 0.271893
O O15 0.696938 0.000000 0.250000
O O16 0.147697 0.867507 0.500000
O O17 0.000000 0.879169 0.750000
O O18 0.500000 0.307882 0.750000
O O19 0.366020 0.284365 0.000000
#
# Coordination Sequence:
#
# PCOD8203628 Si02
#       6
#     8   8   8   8   8   8
#     4  11  22  39  62  85 110 143 183 227 270 324
#     4  10  20  34  52  79 110 142 180 224 272 323
#     4   9  16  26  44  69 101 136 174 218 264 315
#     4  10  21  37  60  86 114 148 190 233 275 324
#     4  11  24  40  58  85 117 151 187 229 280 331
#     4  11  22  38  59  82 109 143 181 224 272 327
#
# _framework density 18.952183000000002
#
# number of rings (size 3 to 8) (size 9 to 14) (size 15 to 20)
#    0.000    1.667    0.000    7.500    0.000    7.000 
#    0.000    5.000    0.000    0.500    0.000    3.500 
#    0.000    0.000    0.000    0.000    0.000    0.000 
#
# Total GULP energy -595135.412040 kJ/mol
# GULP energy per Si atom -12398.654417 kJ/mol
# Density = 1.890905 g / cm^3
# Si number density = 18.952183 Si / 1000 Ang^3
#
#
#
# Elastic Constant Matrix: (Units=GPa)
#
#
# Indices 1 2 3 4 5 6 
#
# 1 106.4419 80.0693 51.4474 0.0000 0.0000 0.0000
# 2 80.0693 129.3475 60.9386 0.0000 0.0000 0.0000
# 3 51.4474 60.9386 131.7381 0.0000 0.0000 0.0000
# 4 0.0000 0.0000 0.0000 33.1134 0.0000 0.0000
# 5 0.0000 0.0000 0.0000 0.0000 31.4017 0.0000
# 6 0.0000 0.0000 0.0000 0.0000 0.0000 30.8516
#
#
#
# Elastic Compliance Matrix: (Units=1/GPa)
#
#
# Indices 1 2 3 4 5 6 
#
# 1 0.018166 -0.010105 -0.002420 0.000000 0.000000 0.000000
# 2 -0.010105 0.015506 -0.003227 0.000000 0.000000 0.000000
# 3 -0.002420 -0.003227 0.010028 0.000000 0.000000 0.000000
# 4 0.000000 0.000000 0.000000 0.030199 0.000000 0.000000
# 5 0.000000 0.000000 0.000000 0.000000 0.031845 0.000000
# 6 0.000000 0.000000 0.000000 0.000000 0.000000 0.032413
#
#
# Mechanical properties :
#
#
# Convention : Reuss Voigt Hill
#
# Bulk Modulus (GPa) = 81.98335 83.60425 82.79380
# Shear Modulus (GPa) = 28.78071 30.74482 29.76277
#
# Velocity S-wave (km/s) = 3.90114 4.03206 3.96714
# Velocity P-wave (km/s) = 7.97771 8.11700 8.04766
#
# Compressibility (1/GPa) = 0.01219760
#
# Stress axis : x y z
#
# Youngs Moduli (GPa) = 55.04863 64.48916 99.71657
#
# Poissons Ratio (x) = 0.65166 0.24131
# Poissons Ratio (y) = 0.55626 0.32175
# Poissons Ratio (z) = 0.13321 0.20808
#
# Static dielectric constant tensor:
#      x y z
#    x 3.230120 0.000000 0.000000 
#    y 0.000000 4.040130 0.000000 
#    z 0.000000 0.000000 3.663600 
# 
# 
# High freq. dielectric constant tensor:
#      x y z
#    x 1.707720 0.000000 0.000000 
#    y 0.000000 1.757280 0.000000 
#    z 0.000000 0.000000 1.759900 
# 
# From -- ./inp_files/2024.got.cif
#   From: 2010.03.12/outbox.cif.g09.slc.cpg/sg49_2_cif.got.tgz:2024.got - 2010.04.14 03:58:27.
