data_PCOD8203570
_publ_section_title
;
Structure prediction by ZEFSAII (Michael W. Deem and Ramdas Pophale) SiO2 
 PCOD8203570
Probable space group: P C C M
;
_chemical_formula_sum "Si O2"
_cell_formula_units_Z 56
_cell_length_a 14.626757
_cell_length_b 23.028411
_cell_length_c 8.585628
_cell_angle_alpha 90.000000
_cell_angle_beta 90.000000
_cell_angle_gamma 90.000000
_cell_volume 2891.905423
_symmetry_space_group_name_H-M "P C C M"
_symmetry_group_IT_number 49
_symmetry_cell_setting 'orthorhombic'
loop_
_space_group_symop_operation_xyz
x,y,z
-x,-y,z
x,-y,1/2-z
-x,y,1/2-z
-x,-y,-z
x,y,-z
-x,y,1/2+z
x,-y,1/2+z
loop_
_atom_site_type_symbol
_atom_site_label
_atom_site_fract_x
_atom_site_fract_y
_atom_site_fract_z
Si Si1 0.403964 0.936481 0.684067
Si Si2 0.901932 0.663542 0.315182
Si Si3 0.598104 0.386298 0.316311
Si Si4 0.272219 0.157375 0.317358
Si Si5 0.229034 0.440175 0.683755
Si Si6 0.900412 0.787803 0.184824
Si Si7 0.403832 0.737396 0.182329
O O1 0.500000 0.911684 0.750000
O O2 0.411516 0.939233 0.500000
O O3 0.320039 0.896444 0.733920
O O4 0.384474 0.000000 0.750000
O O5 0.905919 0.670807 0.500000
O O6 0.833354 0.613324 0.261236
O O7 0.869044 0.724347 0.243088
O O8 0.000000 0.645540 0.250000
O O9 0.500000 0.403966 0.250000
O O10 0.594494 0.388120 0.500000
O O11 0.670254 0.432691 0.253797
O O12 0.627598 0.322293 0.260903
O O13 0.267237 0.144955 0.500000
O O14 0.170749 0.164566 0.248379
O O15 0.328117 0.215323 0.278536
O O16 0.187036 0.500000 0.750000
O O17 0.234220 0.443477 0.500000
O O18 0.000000 0.803914 0.250000
O O19 0.903108 0.788872 0.000000
O O20 0.500000 0.759560 0.250000
O O21 0.414940 0.726135 0.000000
#
# Coordination Sequence:
#
# PCOD8203570 Si02
#       7
#     8   8   8   8   8   8   8
#     4  11  22  38  59  85 119 160 202 242 284 330
#     4  10  21  38  60  84 112 144 178 222 275 334
#     4  11  22  37  57  78 105 140 178 221 271 327
#     4  11  22  36  56  84 117 152 191 236 282 332
#     4  11  24  40  57  79 106 137 178 224 271 324
#     4  11  22  37  59  86 115 148 186 230 281 337
#     4  10  20  33  52  79 112 145 179 222 273 328
#
# _framework density 19.364394999999998
#
# number of rings (size 3 to 8) (size 9 to 14) (size 15 to 20)
#    0.000    1.286    0.000    9.000    0.000    9.714 
#    0.000    2.857    0.000    0.429    0.000    3.000 
#    0.000    0.000    0.000    0.000    0.000    0.000 
#
# Total GULP energy -694707.388281 kJ/mol
# GULP energy per Si atom -12405.489076 kJ/mol
# Density = 1.932032 g / cm^3
# Si number density = 19.364395 Si / 1000 Ang^3
#
#
#
# Elastic Constant Matrix: (Units=GPa)
#
#
# Indices 1 2 3 4 5 6 
#
# 1 118.0244 69.5272 51.6442 0.0000 0.0000 0.0000
# 2 69.5272 88.1070 49.7113 0.0000 0.0000 0.0000
# 3 51.6442 49.7113 137.6641 0.0000 0.0000 0.0000
# 4 0.0000 0.0000 0.0000 216.2072 0.0000 0.0000
# 5 0.0000 0.0000 0.0000 0.0000 20.3108 0.0000
# 6 0.0000 0.0000 0.0000 0.0000 0.0000 27.0249
#
#
#
# Elastic Compliance Matrix: (Units=1/GPa)
#
#
# Indices 1 2 3 4 5 6 
#
# 1 0.016194 -0.011744 -0.001834 0.000000 0.000000 0.000000
# 2 -0.011744 0.022771 -0.003817 0.000000 0.000000 0.000000
# 3 -0.001834 -0.003817 0.009330 0.000000 0.000000 0.000000
# 4 0.000000 0.000000 0.000000 0.004625 0.000000 0.000000
# 5 0.000000 0.000000 0.000000 0.000000 0.049235 0.000000
# 6 0.000000 0.000000 0.000000 0.000000 0.000000 0.037003
#
#
# Mechanical properties :
#
#
# Convention : Reuss Voigt Hill
#
# Bulk Modulus (GPa) = 74.04787 76.17345 75.11066
# Shear Modulus (GPa) = 28.01907 64.23607 46.12757
#
# Velocity S-wave (km/s) = 3.80799 5.76578 4.88595
# Velocity P-wave (km/s) = 7.59319 9.15139 8.40846
#
# Compressibility (1/GPa) = 0.01350478
#
# Stress axis : x y z
#
# Youngs Moduli (GPa) = 61.75257 43.91590 107.17546
#
# Poissons Ratio (x) = 0.51574 0.19658
# Poissons Ratio (y) = 0.72522 0.40909
# Poissons Ratio (z) = 0.11327 0.16763
#
# Static dielectric constant tensor:
#      x y z
#    x 3.702890 0.000000 0.000000 
#    y 0.000000 3.474540 0.000000 
#    z 0.000000 0.000000 3.657950 
# 
# 
# High freq. dielectric constant tensor:
#      x y z
#    x 1.757080 0.000000 0.000000 
#    y 0.000000 1.741420 0.000000 
#    z 0.000000 0.000000 1.774430 
# 
# From -- ./inp_files/4048.got.cif
#   From: 2010.03.12/outbox.cif.g09.slc.cpg/sg49_3_cif.got.tgz:4048.got - 2010.04.14 03:58:27.
