data_PCOD8203007
_publ_section_title
;
Structure prediction by ZEFSAII (Michael W. Deem and Ramdas Pophale) SiO2 
 PCOD8203007
Probable space group: P C C M
;
_chemical_formula_sum "Si O2"
_cell_formula_units_Z 42
_cell_length_a 9.672669
_cell_length_b 24.199171
_cell_length_c 10.272904
_cell_angle_alpha 90.000000
_cell_angle_beta 90.000000
_cell_angle_gamma 90.000000
_cell_volume 2404.584507
_symmetry_space_group_name_H-M "P C C M"
_symmetry_group_IT_number 49
_symmetry_cell_setting 'orthorhombic'
loop_
_space_group_symop_operation_xyz
x,y,z
-x,-y,z
x,-y,1/2-z
-x,y,1/2-z
-x,-y,-z
x,y,-z
-x,y,1/2+z
x,-y,1/2+z
loop_
_atom_site_type_symbol
_atom_site_label
_atom_site_fract_x
_atom_site_fract_y
_atom_site_fract_z
Si Si1 0.661352 0.625061 0.000000
Si Si2 0.668774 0.370747 0.000000
Si Si3 0.329987 0.754440 0.000000
Si Si4 0.343374 0.747538 0.500000
Si Si5 0.000000 0.000000 0.250000
Si Si6 0.664858 0.562284 0.748459
Si Si7 0.886719 0.894320 0.151336
Si Si8 0.337208 0.181514 0.756308
O O1 0.719928 0.593188 0.875630
O O2 0.496342 0.629000 0.000000
O O3 0.721862 0.686714 0.000000
O O4 0.722943 0.403944 0.125483
O O5 0.730565 0.308186 0.000000
O O6 0.282676 0.789753 0.875202
O O7 0.492591 0.746456 0.000000
O O8 0.291971 0.777351 0.629392
O O9 0.901455 0.038897 0.339446
O O10 0.723425 0.500000 0.750000
O O11 0.500000 0.561014 0.750000
O O12 0.738646 0.876133 0.210518
O O13 0.000000 0.866804 0.250000
O O14 0.905526 0.876127 0.000000
O O15 0.500000 0.169035 0.750000
#
# Coordination Sequence:
#
# PCOD8203007 Si02
#       8
#     4   4   4   4   2   8   8   8
#     4   9  15  22  35  49  73 114 158 199 254 300
#     4   9  15  24  33  49  79 112 156 209 248 296
#     4   9  18  27  43  68  94 129 169 207 262 312
#     4   9  16  29  43  64  94 129 165 213 258 310
#     4   8  22  36  64  80 110 136 180 208 248 308
#     4   9  15  21  30  46  70 107 159 212 249 286
#     4  10  21  38  59  82 108 139 176 213 255 301
#     4  10  19  32  52  76 106 135 172 219 261 305
#
# _framework density 17.466636000000001
#
# number of rings (size 3 to 8) (size 9 to 14) (size 15 to 20)
#    0.571    2.095    0.952    2.000    1.333    6.857 
#    0.000    0.476    0.000    1.143    0.000    0.000 
#    0.000    0.000    0.000    0.000    0.000   66.667 
#
# Total GULP energy -520424.266838 kJ/mol
# GULP energy per Si atom -12391.053972 kJ/mol
# Density = 1.742688 g / cm^3
# Si number density = 17.466636 Si / 1000 Ang^3
#
#
#
# Elastic Constant Matrix: (Units=GPa)
#
#
# Indices 1 2 3 4 5 6 
#
# 1 34.8639 36.8795 31.3519 0.0000 0.0000 0.0000
# 2 36.8795 139.6470 69.8217 0.0000 0.0000 0.0000
# 3 31.3519 69.8217 176.1034 0.0000 0.0000 0.0000
# 4 0.0000 0.0000 0.0000 31.8043 0.0000 0.0000
# 5 0.0000 0.0000 0.0000 0.0000 12.8235 0.0000
# 6 0.0000 0.0000 0.0000 0.0000 0.0000 5.5114
#
#
#
# Elastic Compliance Matrix: (Units=1/GPa)
#
#
# Indices 1 2 3 4 5 6 
#
# 1 0.041765 -0.009120 -0.003820 0.000000 0.000000 0.000000
# 2 -0.009120 0.010923 -0.002707 0.000000 0.000000 0.000000
# 3 -0.003820 -0.002707 0.007432 0.000000 0.000000 0.000000
# 4 0.000000 0.000000 0.000000 0.031442 0.000000 0.000000
# 5 0.000000 0.000000 0.000000 0.000000 0.077982 0.000000
# 6 0.000000 0.000000 0.000000 0.000000 0.000000 0.181442
#
#
# Mechanical properties :
#
#
# Convention : Reuss Voigt Hill
#
# Bulk Modulus (GPa) = 34.69038 69.63563 52.16300
# Shear Modulus (GPa) = 12.75873 24.19858 18.47866
#
# Velocity S-wave (km/s) = 2.70564 3.72616 3.25613
# Velocity P-wave (km/s) = 5.44653 7.64635 6.63820
#
# Compressibility (1/GPa) = 0.02882644
#
# Stress axis : x y z
#
# Youngs Moduli (GPa) = 23.94343 91.55043 134.55696
#
# Poissons Ratio (x) = 0.83494 0.51395
# Poissons Ratio (y) = 0.21837 0.36426
# Poissons Ratio (z) = 0.09145 0.24784
#
# Static dielectric constant tensor:
#      x y z
#    x 2.570890 0.000000 0.000000 
#    y 0.000000 3.320990 0.000000 
#    z 0.000000 0.000000 3.484420 
# 
# 
# High freq. dielectric constant tensor:
#      x y z
#    x 1.596190 0.000000 0.000000 
#    y 0.000000 1.677870 0.000000 
#    z 0.000000 0.000000 1.696570 
# 
# From -- ./inp_files/8250.got.cif
#   From: 2010.03.12/outbox.cif.g09.slc.cpg/sg49_5_cif.got.tgz:8250.got - 2010.04.14 03:58:27.
