data_PCOD8203857
_publ_section_title
;
Structure prediction by ZEFSAII (Michael W. Deem and Ramdas Pophale) SiO2 
 PCOD8203857
Probable space group: P C C M
;
_chemical_formula_sum "Si O2"
_cell_formula_units_Z 58
_cell_length_a 9.156570
_cell_length_b 11.181326
_cell_length_c 28.784434
_cell_angle_alpha 90.000000
_cell_angle_beta 90.000000
_cell_angle_gamma 90.000000
_cell_volume 2947.025026
_symmetry_space_group_name_H-M "P C C M"
_symmetry_group_IT_number 49
_symmetry_cell_setting 'orthorhombic'
loop_
_space_group_symop_operation_xyz
x,y,z
-x,-y,z
x,-y,1/2-z
-x,y,1/2-z
-x,-y,-z
x,y,-z
-x,y,1/2+z
x,-y,1/2+z
loop_
_atom_site_type_symbol
_atom_site_label
_atom_site_fract_x
_atom_site_fract_y
_atom_site_fract_z
Si Si1 0.347690 0.948769 0.375024
Si Si2 0.594134 0.758146 0.053933
Si Si3 0.869024 0.179065 0.681662
Si Si4 0.846294 0.444099 0.298637
Si Si5 0.668405 0.531000 0.890688
Si Si6 0.910406 0.888276 0.602524
Si Si7 0.260848 0.308260 0.552949
Si Si8 0.000000 0.000000 0.750000
O O1 0.362994 0.888156 0.426007
O O2 0.290428 0.845219 0.340494
O O3 0.500000 0.000000 0.356486
O O4 0.235650 0.058752 0.374737
O O5 0.684641 0.654976 0.080975
O O6 0.420987 0.746006 0.061256
O O7 0.637906 0.752137 0.000000
O O8 0.870589 0.303613 0.708545
O O9 0.993752 0.175124 0.642107
O O10 0.892712 0.077900 0.719282
O O11 0.790008 0.500000 0.250000
O O12 0.728194 0.462840 0.338678
O O13 0.000000 0.500000 0.313785
O O14 0.500000 0.500000 0.887881
O O15 0.758893 0.427987 0.917004
O O16 0.864144 0.788503 0.565284
O O17 0.000000 0.000000 0.579624
O O18 0.239304 0.346087 0.500000
#
# Coordination Sequence:
#
# PCOD8203857 Si02
#       8
#     8   8   8   8   8   8   8   2
#     4  11  20  38  63  91 122 160 205 245 303 361
#     4  10  20  35  61  92 123 162 204 248 302 365
#     4  11  23  41  64  88 121 162 199 250 308 372
#     4  11  23  41  65  94 116 154 206 249 307 374
#     4  10  21  39  64  88 123 158 197 255 310 363
#     4  10  21  38  59  87 121 165 200 245 304 358
#     4  10  20  35  59  91 123 163 206 248 301 363
#     4  12  20  40  68  84 118 156 206 238 308 368
#
# _framework density 19.680866000000002
#
# number of rings (size 3 to 8) (size 9 to 14) (size 15 to 20)
#    0.000    1.517    4.828    2.069    0.000    3.034 
#    0.000    2.414    3.034    1.655    0.000    0.000 
#    0.000    0.000    0.000    0.000    0.000    0.000 
#
# Total GULP energy -719185.667516 kJ/mol
# GULP energy per Si atom -12399.752888 kJ/mol
# Density = 1.963607 g / cm^3
# Si number density = 19.680866 Si / 1000 Ang^3
#
#
#
# Elastic Constant Matrix: (Units=GPa)
#
#
# Indices 1 2 3 4 5 6 
#
# 1 85.4244 42.5003 36.7750 0.0000 0.0000 0.0000
# 2 42.5003 129.8960 57.7144 0.0000 0.0000 0.0000
# 3 36.7750 57.7144 127.9583 0.0000 0.0000 0.0000
# 4 0.0000 0.0000 0.0000 52.0993 0.0000 0.0000
# 5 0.0000 0.0000 0.0000 0.0000 9.1718 0.0000
# 6 0.0000 0.0000 0.0000 0.0000 0.0000 29.2451
#
#
#
# Elastic Compliance Matrix: (Units=1/GPa)
#
#
# Indices 1 2 3 4 5 6 
#
# 1 0.014622 -0.003648 -0.002557 0.000000 0.000000 0.000000
# 2 -0.003648 0.010538 -0.003705 0.000000 0.000000 0.000000
# 3 -0.002557 -0.003705 0.010221 0.000000 0.000000 0.000000
# 4 0.000000 0.000000 0.000000 0.019194 0.000000 0.000000
# 5 0.000000 0.000000 0.000000 0.000000 0.109030 0.000000
# 6 0.000000 0.000000 0.000000 0.000000 0.000000 0.034194
#
#
# Mechanical properties :
#
#
# Convention : Reuss Voigt Hill
#
# Bulk Modulus (GPa) = 64.26049 68.58424 66.42237
# Shear Modulus (GPa) = 22.44112 31.85582 27.14847
#
# Velocity S-wave (km/s) = 3.38042 4.02757 3.71810
# Velocity P-wave (km/s) = 6.92521 7.52012 7.22879
#
# Compressibility (1/GPa) = 0.01556166
#
# Stress axis : x y z
#
# Youngs Moduli (GPa) = 68.39016 94.89382 97.83915
#
# Poissons Ratio (x) = 0.34618 0.25017
# Poissons Ratio (y) = 0.24949 0.36246
# Poissons Ratio (z) = 0.17487 0.35155
#
# Static dielectric constant tensor:
#      x y z
#    x 3.769830 0.000000 0.000000 
#    y 0.000000 3.812870 0.000000 
#    z 0.000000 0.000000 3.511790 
# 
# 
# High freq. dielectric constant tensor:
#      x y z
#    x 1.758200 0.000000 0.000000 
#    y 0.000000 1.782330 0.000000 
#    z 0.000000 0.000000 1.757350 
# 
# From -- ./inp_files/24559.got.cif
#   From: 2010.03.12/outbox.cif.g09.slc.cpg/sg49_13_cif.got.tgz:24559.got - 2010.04.14 03:58:27.
