data_PCOD8203501
_publ_section_title
;
Structure prediction by ZEFSAII (Michael W. Deem and Ramdas Pophale) SiO2 
 PCOD8203501
Probable space group: P C C M
;
_chemical_formula_sum "Si O2"
_cell_formula_units_Z 64
_cell_length_a 20.698952
_cell_length_b 20.714650
_cell_length_c 8.936155
_cell_angle_alpha 90.000000
_cell_angle_beta 90.000000
_cell_angle_gamma 90.000000
_cell_volume 3831.568995
_symmetry_space_group_name_H-M "P C C M"
_symmetry_group_IT_number 49
_symmetry_cell_setting 'orthorhombic'
loop_
_space_group_symop_operation_xyz
x,y,z
-x,-y,z
x,-y,1/2-z
-x,y,1/2-z
-x,-y,-z
x,y,-z
-x,y,1/2+z
x,-y,1/2+z
loop_
_atom_site_type_symbol
_atom_site_label
_atom_site_fract_x
_atom_site_fract_y
_atom_site_fract_z
Si Si1 0.421556 0.813601 0.665279
Si Si2 0.939881 0.569066 0.172951
Si Si3 0.736448 0.065153 0.831416
Si Si4 0.417459 0.936892 0.832145
Si Si5 0.270335 0.807102 0.333346
Si Si6 0.291843 0.325051 0.321876
Si Si7 0.797024 0.430303 0.675142
Si Si8 0.562300 0.314917 0.825938
O O1 0.450826 0.799798 0.500000
O O2 0.447865 0.879506 0.734632
O O3 0.345454 0.819564 0.651097
O O4 0.443065 0.760052 0.783897
O O5 0.936861 0.500000 0.250000
O O6 0.869052 0.600490 0.196177
O O7 0.000000 0.608421 0.250000
O O8 0.956119 0.561094 0.000000
O O9 0.659623 0.065302 0.835226
O O10 0.761454 0.130521 0.748369
O O11 0.761873 0.000000 0.750000
O O12 0.764249 0.065553 0.000000
O O13 0.443122 0.000000 0.750000
O O14 0.444750 0.933904 0.000000
O O15 0.239800 0.799797 0.500000
O O16 0.260527 0.740858 0.241254
O O17 0.287363 0.321778 0.500000
O O18 0.253046 0.384812 0.257791
O O19 0.366557 0.337470 0.270535
O O20 0.791771 0.500000 0.750000
O O21 0.779921 0.436187 0.500000
O O22 0.500000 0.351086 0.750000
O O23 0.555174 0.326148 0.000000
#
# Coordination Sequence:
#
# PCOD8203501 Si02
#       8
#     8   8   8   8   8   8   8   8
#     4   9  16  26  40  57  76  98 126 163 209 260
#     4   9  16  26  43  68  98 131 164 194 221 251
#     4   9  15  22  33  51  76 105 138 176 218 266
#     4   9  15  22  33  50  72  97 125 158 199 250
#     4   9  16  26  40  58  81 109 141 179 224 272
#     4  10  20  33  49  69  92 118 150 189 233 281
#     4  10  20  33  50  73 100 130 162 194 229 268
#     4  10  20  33  49  67  84 104 134 175 225 278
#
# _framework density 16.703341000000002
#
# number of rings (size 3 to 8) (size 9 to 14) (size 15 to 20)
#    0.000    2.625    0.000    3.375    0.000    9.000 
#    0.000    0.000    0.000    0.750    0.000    5.250 
#    0.000    0.000    0.000    0.000    0.000    0.625 
#
# Total GULP energy -792984.291017 kJ/mol
# GULP energy per Si atom -12390.379547 kJ/mol
# Density = 1.666532 g / cm^3
# Si number density = 16.703341 Si / 1000 Ang^3
#
#
#
# Elastic Constant Matrix: (Units=GPa)
#
#
# Indices 1 2 3 4 5 6 
#
# 1 66.2671 37.6299 31.3373 0.0000 0.0000 0.0000
# 2 37.6299 78.9430 39.2058 0.0000 0.0000 0.0000
# 3 31.3373 39.2058 107.7562 0.0000 0.0000 0.0000
# 4 0.0000 0.0000 0.0000 24.6530 0.0000 0.0000
# 5 0.0000 0.0000 0.0000 0.0000 18.9958 0.0000
# 6 0.0000 0.0000 0.0000 0.0000 0.0000 -1.0812
#
#
#
# Elastic Compliance Matrix: (Units=1/GPa)
#
#
# Indices 1 2 3 4 5 6 
#
# 1 0.021497 -0.008717 -0.003080 0.000000 0.000000 0.000000
# 2 -0.008717 0.018996 -0.004376 0.000000 0.000000 0.000000
# 3 -0.003080 -0.004376 0.011768 0.000000 0.000000 0.000000
# 4 0.000000 0.000000 0.000000 0.040563 0.000000 0.000000
# 5 0.000000 0.000000 0.000000 0.000000 0.052643 0.000000
# 6 0.000000 0.000000 0.000000 0.000000 0.000000 -0.924862
#
#
# Mechanical properties :
#
#
# Convention : Reuss Voigt Hill
#
# Bulk Modulus (GPa) = 50.21608 52.14584 51.18096
# Shear Modulus (GPa) = -6.75302 18.16641 5.70669
#
# Velocity S-wave (km/s) = -2.01288 3.30144 1.85038
# Velocity P-wave (km/s) = 4.97257 6.76899 5.93910
#
# Compressibility (1/GPa) = 0.01991394
#
# Stress axis : x y z
#
# Youngs Moduli (GPa) = 46.51766 52.64215 84.97473
#
# Poissons Ratio (x) = 0.45891 0.26172
# Poissons Ratio (y) = 0.40552 0.37188
# Poissons Ratio (z) = 0.14327 0.23038
#
# Static dielectric constant tensor:
#      x y z
#    x 3.242580 0.000000 0.000000 
#    y 0.000000 2.925620 0.000000 
#    z 0.000000 0.000000 3.423150 
# 
# 
# High freq. dielectric constant tensor:
#      x y z
#    x 1.597750 0.000000 0.000000 
#    y 0.000000 1.611700 0.000000 
#    z 0.000000 0.000000 1.667450 
# 
# From -- ./inp_files/6098.got.cif
#   From: 2010.03.12/outbox.cif.g09.slc.cpg/sg49_4_cif.got.tgz:6098.got - 2010.04.14 03:58:27.
