data_PCOD8203879
_publ_section_title
;
Structure prediction by ZEFSAII (Michael W. Deem and Ramdas Pophale) SiO2 
 PCOD8203879
Probable space group: P C C M
;
_chemical_formula_sum "Si O2"
_cell_formula_units_Z 40
_cell_length_a 10.100089
_cell_length_b 25.225657
_cell_length_c 8.742536
_cell_angle_alpha 90.000000
_cell_angle_beta 90.000000
_cell_angle_gamma 90.000000
_cell_volume 2227.435394
_symmetry_space_group_name_H-M "P C C M"
_symmetry_group_IT_number 49
_symmetry_cell_setting 'orthorhombic'
loop_
_space_group_symop_operation_xyz
x,y,z
-x,-y,z
x,-y,1/2-z
-x,y,1/2-z
-x,-y,-z
x,y,-z
-x,y,1/2+z
x,-y,1/2+z
loop_
_atom_site_type_symbol
_atom_site_label
_atom_site_fract_x
_atom_site_fract_y
_atom_site_fract_z
Si Si1 0.143423 0.667326 0.679439
Si Si2 0.637255 0.253400 0.321185
Si Si3 0.639966 0.131138 0.680580
Si Si4 0.141402 0.056406 0.682257
Si Si5 0.144176 0.449274 0.821735
O O1 0.125455 0.674889 0.500000
O O2 0.244548 0.710755 0.747398
O O3 0.204899 0.608735 0.715857
O O4 0.000000 0.676642 0.750000
O O5 0.500000 0.272708 0.250000
O O6 0.625261 0.262467 0.500000
O O7 0.666471 0.192478 0.280997
O O8 0.500000 0.112839 0.750000
O O9 0.642316 0.119534 0.500000
O O10 0.753311 0.099661 0.767258
O O11 0.132454 0.052843 0.500000
O O12 0.000000 0.073463 0.750000
O O13 0.185832 0.000000 0.750000
O O14 0.224002 0.500000 0.750000
O O15 0.000000 0.448832 0.750000
O O16 0.134206 0.459000 0.000000
#
# Coordination Sequence:
#
# PCOD8203879 Si02
#       5
#     8   8   8   8   8
#     4   9  18  31  47  71  99 127 161 204 247 293
#     4   9  19  35  53  73 100 132 167 205 248 296
#     4  10  20  36  56  79 105 135 172 213 254 300
#     4  11  22  38  58  81 109 140 172 208 252 301
#     4   9  15  24  40  62  91 122 155 195 242 290
#
# _framework density 17.957874
#
# number of rings (size 3 to 8) (size 9 to 14) (size 15 to 20)
#    0.000    2.400    0.000    4.200    0.000    3.600 
#    0.000    4.000    0.000    0.600    0.000    4.200 
#    0.000    0.000    0.000    0.000    0.000    0.000 
#
# Total GULP energy -495804.479849 kJ/mol
# GULP energy per Si atom -12395.111996 kJ/mol
# Density = 1.791700 g / cm^3
# Si number density = 17.957874 Si / 1000 Ang^3
#
#
#
# Elastic Constant Matrix: (Units=GPa)
#
#
# Indices 1 2 3 4 5 6 
#
# 1 113.8312 86.3120 47.6364 0.0000 0.0000 0.0000
# 2 86.3120 119.2305 53.3853 0.0000 0.0000 0.0000
# 3 47.6364 53.3853 94.0141 0.0000 0.0000 0.0000
# 4 0.0000 0.0000 0.0000 34.7872 0.0000 0.0000
# 5 0.0000 0.0000 0.0000 0.0000 27.3156 0.0000
# 6 0.0000 0.0000 0.0000 0.0000 0.0000 -11.7146
#
#
#
# Elastic Compliance Matrix: (Units=1/GPa)
#
#
# Indices 1 2 3 4 5 6 
#
# 1 0.019922 -0.013278 -0.002555 0.000000 0.000000 0.000000
# 2 -0.013278 0.020096 -0.004684 0.000000 0.000000 0.000000
# 3 -0.002555 -0.004684 0.014591 0.000000 0.000000 0.000000
# 4 0.000000 0.000000 0.000000 0.028746 0.000000 0.000000
# 5 0.000000 0.000000 0.000000 0.000000 0.036609 0.000000
# 6 0.000000 0.000000 0.000000 0.000000 0.000000 -0.085364
#
#
# Mechanical properties :
#
#
# Convention : Reuss Voigt Hill
#
# Bulk Modulus (GPa) = 73.65631 77.97146 75.81388
# Shear Modulus (GPa) = 62.37715 19.39380 40.88547
#
# Velocity S-wave (km/s) = 5.90006 3.28984 4.77670
# Velocity P-wave (km/s) = 9.35518 7.61210 8.52829
#
# Compressibility (1/GPa) = 0.01357657
#
# Stress axis : x y z
#
# Youngs Moduli (GPa) = 50.19644 49.76097 68.53687
#
# Poissons Ratio (x) = 0.66071 0.17508
# Poissons Ratio (y) = 0.66649 0.32100
# Poissons Ratio (z) = 0.12823 0.23306
#
# Static dielectric constant tensor:
#      x y z
#    x 3.211770 0.000000 0.000000 
#    y 0.000000 4.104480 0.000000 
#    z 0.000000 0.000000 3.206730 
# 
# 
# High freq. dielectric constant tensor:
#      x y z
#    x 1.667920 0.000000 0.000000 
#    y 0.000000 1.710100 0.000000 
#    z 0.000000 0.000000 1.704490 
# 
# From -- ./inp_files/1679.got.cif
#   From: 2010.03.12/outbox.cif.g09.slc.cpg/sg49_1_cif.got.tgz:1679.got - 2010.04.14 03:58:27.
