data_PCOD8203334
_publ_section_title
;
Structure prediction by ZEFSAII (Michael W. Deem and Ramdas Pophale) SiO2 
 PCOD8203334
Probable space group: P C C M
;
_chemical_formula_sum "Si O2"
_cell_formula_units_Z 64
_cell_length_a 15.115551
_cell_length_b 24.816175
_cell_length_c 8.715781
_cell_angle_alpha 90.000000
_cell_angle_beta 90.000000
_cell_angle_gamma 90.000000
_cell_volume 3269.377995
_symmetry_space_group_name_H-M "P C C M"
_symmetry_group_IT_number 49
_symmetry_cell_setting 'orthorhombic'
loop_
_space_group_symop_operation_xyz
x,y,z
-x,-y,z
x,-y,1/2-z
-x,y,1/2-z
-x,-y,-z
x,y,-z
-x,y,1/2+z
x,-y,1/2+z
loop_
_atom_site_type_symbol
_atom_site_label
_atom_site_fract_x
_atom_site_fract_y
_atom_site_fract_z
Si Si1 0.907566 0.941469 0.817666
Si Si2 0.767795 0.444586 0.181287
Si Si3 0.409344 0.597266 0.681370
Si Si4 0.370906 0.282286 0.173802
Si Si5 0.170553 0.744645 0.675406
Si Si6 0.588061 0.825700 0.321961
Si Si7 0.090409 0.356628 0.681570
Si Si8 0.217582 0.145733 0.318098
O O1 0.826784 0.903898 0.768198
O O2 0.000000 0.918853 0.750000
O O3 0.887709 0.000000 0.750000
O O4 0.914523 0.944528 0.000000
O O5 0.806140 0.500000 0.250000
O O6 0.670020 0.435845 0.245529
O O7 0.831081 0.396082 0.234846
O O8 0.763999 0.448895 0.000000
O O9 0.500000 0.573446 0.750000
O O10 0.406099 0.590073 0.500000
O O11 0.403804 0.659831 0.730134
O O12 0.265739 0.282739 0.187363
O O13 0.413040 0.237849 0.284797
O O14 0.400592 0.269220 0.000000
O O15 0.144013 0.756994 0.500000
O O16 0.102331 0.702907 0.748871
O O17 0.166959 0.799895 0.770855
O O18 0.500000 0.853177 0.250000
O O19 0.581935 0.834924 0.500000
O O20 0.679787 0.851853 0.260956
O O21 0.084883 0.352507 0.500000
O O22 0.000000 0.380743 0.750000
O O23 0.211066 0.138211 0.500000
#
# Coordination Sequence:
#
# PCOD8203334 Si02
#       8
#     8   8   8   8   8   8   8   8
#     4  11  22  39  63  90 120 157 199 249 299 352
#     4  11  25  44  65  86 111 145 186 236 289 345
#     4  11  22  37  58  86 116 149 187 232 283 342
#     4   9  18  32  53  80 112 150 188 230 280 335
#     4  10  19  35  58  86 119 154 191 234 286 343
#     4  10  20  32  51  79 117 159 199 243 287 338
#     4  11  24  41  63  89 116 149 187 232 287 348
#     4  10  21  37  57  87 123 161 202 246 293 346
#
# _framework density 19.575589000000001
#
# number of rings (size 3 to 8) (size 9 to 14) (size 15 to 20)
#    0.000    1.625    1.250    4.125    0.000    6.500 
#    0.000    5.000    0.000    0.375    0.000    2.625 
#    0.000    0.000    0.000    0.000    0.000    0.000 
#
# Total GULP energy -793809.090528 kJ/mol
# GULP energy per Si atom -12403.267040 kJ/mol
# Density = 1.953103 g / cm^3
# Si number density = 19.575589 Si / 1000 Ang^3
#
#
#
# Elastic Constant Matrix: (Units=GPa)
#
#
# Indices 1 2 3 4 5 6 
#
# 1 113.2683 51.1097 43.9127 0.0000 0.0000 0.0000
# 2 51.1097 86.7353 40.0019 0.0000 0.0000 0.0000
# 3 43.9127 40.0019 98.8939 0.0000 0.0000 0.0000
# 4 0.0000 0.0000 0.0000 32.0995 0.0000 0.0000
# 5 0.0000 0.0000 0.0000 0.0000 34.5918 0.0000
# 6 0.0000 0.0000 0.0000 0.0000 0.0000 14.2391
#
#
#
# Elastic Compliance Matrix: (Units=1/GPa)
#
#
# Indices 1 2 3 4 5 6 
#
# 1 0.012819 -0.006059 -0.003241 0.000000 0.000000 0.000000
# 2 -0.006059 0.017037 -0.004201 0.000000 0.000000 0.000000
# 3 -0.003241 -0.004201 0.013250 0.000000 0.000000 0.000000
# 4 0.000000 0.000000 0.000000 0.031153 0.000000 0.000000
# 5 0.000000 0.000000 0.000000 0.000000 0.028909 0.000000
# 6 0.000000 0.000000 0.000000 0.000000 0.000000 0.070229
#
#
# Mechanical properties :
#
#
# Convention : Reuss Voigt Hill
#
# Bulk Modulus (GPa) = 62.09617 63.21623 62.65620
# Shear Modulus (GPa) = 24.29916 27.11096 25.70506
#
# Velocity S-wave (km/s) = 3.52703 3.72551 3.62763
# Velocity P-wave (km/s) = 6.95533 7.13228 7.04436
#
# Compressibility (1/GPa) = 0.01610405
#
# Stress axis : x y z
#
# Youngs Moduli (GPa) = 78.00801 58.69550 75.46920
#
# Poissons Ratio (x) = 0.35563 0.24463
# Poissons Ratio (y) = 0.47264 0.31705
# Poissons Ratio (z) = 0.25286 0.24658
#
# Static dielectric constant tensor:
#      x y z
#    x 3.766070 0.000000 0.000000 
#    y 0.000000 3.402890 0.000000 
#    z 0.000000 0.000000 3.588020 
# 
# 
# High freq. dielectric constant tensor:
#      x y z
#    x 1.770890 0.000000 0.000000 
#    y 0.000000 1.741410 0.000000 
#    z 0.000000 0.000000 1.773480 
# 
# From -- ./inp_files/4430.got.cif
#   From: 2010.03.12/outbox.cif.g09.slc.cpg/sg49_3_cif.got.tgz:4430.got - 2010.04.14 03:58:27.
