data_PCOD8203270
_publ_section_title
;
Structure prediction by ZEFSAII (Michael W. Deem and Ramdas Pophale) SiO2 
 PCOD8203270
Probable space group: P C C M
;
_chemical_formula_sum "Si O2"
_cell_formula_units_Z 48
_cell_length_a 9.365923
_cell_length_b 29.111635
_cell_length_c 9.334692
_cell_angle_alpha 90.000000
_cell_angle_beta 90.000000
_cell_angle_gamma 90.000000
_cell_volume 2545.172214
_symmetry_space_group_name_H-M "P C C M"
_symmetry_group_IT_number 49
_symmetry_cell_setting 'orthorhombic'
loop_
_space_group_symop_operation_xyz
x,y,z
-x,-y,z
x,-y,1/2-z
-x,y,1/2-z
-x,-y,-z
x,y,-z
-x,y,1/2+z
x,-y,1/2+z
loop_
_atom_site_type_symbol
_atom_site_label
_atom_site_fract_x
_atom_site_fract_y
_atom_site_fract_z
Si Si1 0.352438 0.701758 0.332103
Si Si2 0.831486 0.614216 0.758401
Si Si3 0.854321 0.114125 0.330293
Si Si4 0.653629 0.045091 0.823263
Si Si5 0.174773 0.555039 0.000000
Si Si6 0.860314 0.779440 0.163377
Si Si7 0.162790 0.546616 0.500000
O O1 0.500000 0.698197 0.250000
O O2 0.384100 0.699271 0.500000
O O3 0.247206 0.661597 0.284691
O O4 0.275462 0.749394 0.288474
O O5 0.771821 0.587974 0.623211
O O6 0.784647 0.575833 0.868633
O O7 0.000000 0.624957 0.750000
O O8 0.857782 0.099937 0.500000
O O9 0.735734 0.089135 0.235429
O O10 0.819284 0.167676 0.313766
O O11 0.000000 0.101360 0.250000
O O12 0.500000 0.048646 0.750000
O O13 0.727100 0.000000 0.750000
O O14 0.648887 0.043037 0.000000
O O15 0.239637 0.503485 0.000000
O O16 0.007585 0.544503 0.000000
O O17 0.000000 0.764960 0.250000
O O18 0.899185 0.768822 0.000000
#
# Coordination Sequence:
#
# PCOD8203270 Si02
#       7
#     8   8   8   8   4   8   4
#     4  11  24  40  56  79 112 148 187 230 277 331
#     4  10  19  34  57  82 111 141 180 226 277 328
#     4  10  20  37  60  88 120 152 190 239 295 348
#     4  11  22  38  59  85 119 160 205 247 292 343
#     4   9  18  28  55  85 111 135 183 217 282 321
#     4   9  20  39  62  87 114 145 186 235 285 342
#     4   9  16  32  51  85 113 141 169 233 266 329
#
# _framework density 18.859234000000001
#
# number of rings (size 3 to 8) (size 9 to 14) (size 15 to 20)
#    0.000    2.000    0.833    3.500    1.167    4.333 
#    0.000    3.333    0.000    3.000    0.000    0.000 
#    0.000    0.000    0.000    0.000    0.000    0.000 
#
# Total GULP energy -594645.593304 kJ/mol
# GULP energy per Si atom -12388.449860 kJ/mol
# Density = 1.881631 g / cm^3
# Si number density = 18.859234 Si / 1000 Ang^3
#
#
#
# Elastic Constant Matrix: (Units=GPa)
#
#
# Indices 1 2 3 4 5 6 
#
# 1 82.7923 55.9810 49.8361 0.0000 0.0000 0.0000
# 2 55.9810 106.1494 59.9462 0.0000 0.0000 0.0000
# 3 49.8361 59.9462 155.6977 0.0000 0.0000 0.0000
# 4 0.0000 0.0000 0.0000 20.5635 0.0000 0.0000
# 5 0.0000 0.0000 0.0000 0.0000 30.4075 0.0000
# 6 0.0000 0.0000 0.0000 0.0000 0.0000 1.1991
#
#
#
# Elastic Compliance Matrix: (Units=1/GPa)
#
#
# Indices 1 2 3 4 5 6 
#
# 1 0.019785 -0.008763 -0.002959 0.000000 0.000000 0.000000
# 2 -0.008763 0.015920 -0.003324 0.000000 0.000000 0.000000
# 3 -0.002959 -0.003324 0.008650 0.000000 0.000000 0.000000
# 4 0.000000 0.000000 0.000000 0.048630 0.000000 0.000000
# 5 0.000000 0.000000 0.000000 0.000000 0.032887 0.000000
# 6 0.000000 0.000000 0.000000 0.000000 0.000000 0.833925
#
#
# Mechanical properties :
#
#
# Convention : Reuss Voigt Hill
#
# Bulk Modulus (GPa) = 70.11935 75.12959 72.62447
# Shear Modulus (GPa) = 5.02693 22.35910 13.69302
#
# Velocity S-wave (km/s) = 1.63441 3.44696 2.69748
# Velocity P-wave (km/s) = 6.38927 7.46763 6.94940
#
# Compressibility (1/GPa) = 0.01426140
#
# Stress axis : x y z
#
# Youngs Moduli (GPa) = 50.54405 62.81582 115.61091
#
# Poissons Ratio (x) = 0.55046 0.34207
# Poissons Ratio (y) = 0.44292 0.38433
# Poissons Ratio (z) = 0.14955 0.20882
#
# Static dielectric constant tensor:
#      x y z
#    x 3.170400 0.000000 0.000000 
#    y 0.000000 3.753420 0.000000 
#    z 0.000000 0.000000 3.721950 
# 
# 
# High freq. dielectric constant tensor:
#      x y z
#    x 1.703790 0.000000 0.000000 
#    y 0.000000 1.750220 0.000000 
#    z 0.000000 0.000000 1.751610 
# 
# From -- ./inp_files/2156.got.cif
#   From: 2010.03.12/outbox.cif.g09.slc.cpg/sg49_2_cif.got.tgz:2156.got - 2010.04.14 03:58:27.
