data_PCOD8203262
_publ_section_title
;
Structure prediction by ZEFSAII (Michael W. Deem and Ramdas Pophale) SiO2 
 PCOD8203262
Probable space group: P C C M
;
_chemical_formula_sum "Si O2"
_cell_formula_units_Z 64
_cell_length_a 8.992227
_cell_length_b 21.445399
_cell_length_c 15.557262
_cell_angle_alpha 90.000000
_cell_angle_beta 90.000000
_cell_angle_gamma 90.000000
_cell_volume 3000.091899
_symmetry_space_group_name_H-M "P C C M"
_symmetry_group_IT_number 49
_symmetry_cell_setting 'orthorhombic'
loop_
_space_group_symop_operation_xyz
x,y,z
-x,-y,z
x,-y,1/2-z
-x,y,1/2-z
-x,-y,-z
x,y,-z
-x,y,1/2+z
x,-y,1/2+z
loop_
_atom_site_type_symbol
_atom_site_label
_atom_site_fract_x
_atom_site_fract_y
_atom_site_fract_z
Si Si1 0.802557 0.652887 0.402159
Si Si2 0.904997 0.160020 0.335317
Si Si3 0.571217 0.439248 0.096833
Si Si4 0.410945 0.328307 0.162877
Si Si5 0.386246 0.230975 0.399863
Si Si6 0.339452 0.111984 0.719645
Si Si7 0.102772 0.057083 0.402166
Si Si8 0.083636 0.297310 0.837856
O O1 0.750541 0.649845 0.500000
O O2 0.723737 0.590802 0.360474
O O3 0.734629 0.718073 0.366505
O O4 0.980875 0.656601 0.395222
O O5 0.745302 0.131411 0.307663
O O6 0.889515 0.228569 0.378625
O O7 0.000000 0.164006 0.250000
O O8 0.995371 0.117405 0.401991
O O9 0.500000 0.500000 0.145498
O O10 0.449804 0.384027 0.097853
O O11 0.606647 0.460562 0.000000
O O12 0.500000 0.339414 0.250000
O O13 0.452784 0.261693 0.119406
O O14 0.236476 0.332175 0.179599
O O15 0.369155 0.212380 0.500000
O O16 0.363473 0.171117 0.341544
O O17 0.500000 0.084605 0.750000
O O18 0.243247 0.062238 0.663470
O O19 0.160697 0.047330 0.500000
O O20 0.000000 0.000000 0.370942
O O21 0.000000 0.288644 0.750000
#
# Coordination Sequence:
#
# PCOD8203262 Si02
#       8
#     8   8   8   8   8   8   8   8
#     4   9  18  31  51  79 108 143 186 230 278 334
#     4   9  19  34  56  84 116 156 196 229 282 351
#     4   9  19  38  58  74 100 143 192 236 286 354
#     4  11  21  34  55  81 113 150 190 235 287 352
#     4  10  19  34  56  84 121 158 189 226 285 355
#     4  11  21  36  60  92 122 151 193 247 300 350
#     4  10  22  42  64  85 116 160 204 242 287 351
#     4  11  20  32  51  79 114 145 178 228 284 335
#
# _framework density 21.332678999999999
#
# number of rings (size 3 to 8) (size 9 to 14) (size 15 to 20)
#    0.000    2.000    0.000    7.125    0.000    5.000 
#    0.000    4.375    0.000    4.500    0.000    0.000 
#    0.000    0.000    0.000    0.000    0.000    0.000 
#
# Total GULP energy -792964.669607 kJ/mol
# GULP energy per Si atom -12390.072963 kJ/mol
# Density = 2.128412 g / cm^3
# Si number density = 21.332679 Si / 1000 Ang^3
#
#
#
# Elastic Constant Matrix: (Units=GPa)
#
#
# Indices 1 2 3 4 5 6 
#
# 1 179.2478 49.1007 29.7119 0.0000 0.0000 0.0000
# 2 49.1007 97.0774 16.7007 0.0000 0.0000 0.0000
# 3 29.7119 16.7007 51.9207 0.0000 0.0000 0.0000
# 4 0.0000 0.0000 0.0000 -3.5836 0.0000 0.0000
# 5 0.0000 0.0000 0.0000 0.0000 27.6942 0.0000
# 6 0.0000 0.0000 0.0000 0.0000 0.0000 23.7307
#
#
#
# Elastic Compliance Matrix: (Units=1/GPa)
#
#
# Indices 1 2 3 4 5 6 
#
# 1 0.006887 -0.002970 -0.002986 0.000000 0.000000 0.000000
# 2 -0.002970 0.012185 -0.002220 0.000000 0.000000 0.000000
# 3 -0.002986 -0.002220 0.021683 0.000000 0.000000 0.000000
# 4 0.000000 0.000000 0.000000 -0.279052 0.000000 0.000000
# 5 0.000000 0.000000 0.000000 0.000000 0.036109 0.000000
# 6 0.000000 0.000000 0.000000 0.000000 0.000000 0.042139
#
#
# Mechanical properties :
#
#
# Convention : Reuss Voigt Hill
#
# Bulk Modulus (GPa) = 40.97727 57.69694 49.33711
# Shear Modulus (GPa) = -36.88334 25.08378 -5.89978
#
# Velocity S-wave (km/s) = -4.16259 3.43277 -1.66482
# Velocity P-wave (km/s) = 1.96277 6.54346 4.41387
#
# Compressibility (1/GPa) = 0.02440377
#
# Stress axis : x y z
#
# Youngs Moduli (GPa) = 145.19380 82.06763 46.11915
#
# Poissons Ratio (x) = 0.24373 0.13771
# Poissons Ratio (y) = 0.43120 0.10238
# Poissons Ratio (z) = 0.43355 0.18218
#
# Static dielectric constant tensor:
#      x y z
#    x 4.425740 0.000000 0.000000 
#    y 0.000000 3.943710 0.000000 
#    z 0.000000 0.000000 3.701580 
# 
# 
# High freq. dielectric constant tensor:
#      x y z
#    x 1.834300 0.000000 0.000000 
#    y 0.000000 1.817870 0.000000 
#    z 0.000000 0.000000 1.819760 
# 
# From -- ./inp_files/16570.got.cif
#   From: 2010.03.12/outbox.cif.g09.slc.cpg/sg49_9_cif.got.tgz:16570.got - 2010.04.14 03:58:27.
