data_PCOD8203563
_publ_section_title
;
Structure prediction by ZEFSAII (Michael W. Deem and Ramdas Pophale) SiO2 
 PCOD8203563
Probable space group: P C C M
;
_chemical_formula_sum "Si O2"
_cell_formula_units_Z 58
_cell_length_a 25.967368
_cell_length_b 12.792046
_cell_length_c 9.048976
_cell_angle_alpha 90.000000
_cell_angle_beta 90.000000
_cell_angle_gamma 90.000000
_cell_volume 3005.850534
_symmetry_space_group_name_H-M "P C C M"
_symmetry_group_IT_number 49
_symmetry_cell_setting 'orthorhombic'
loop_
_space_group_symop_operation_xyz
x,y,z
-x,-y,z
x,-y,1/2-z
-x,y,1/2-z
-x,-y,-z
x,y,-z
-x,y,1/2+z
x,-y,1/2+z
loop_
_atom_site_type_symbol
_atom_site_label
_atom_site_fract_x
_atom_site_fract_y
_atom_site_fract_z
Si Si1 0.112421 0.100230 0.170689
Si Si2 0.420625 0.820370 0.168503
Si Si3 0.851345 0.402847 0.170325
Si Si4 0.945890 0.690220 0.173323
Si Si5 0.500000 0.000000 0.250000
Si Si6 0.204816 0.807197 0.832093
Si Si7 0.444951 0.602554 0.678820
Si Si8 0.310750 0.896356 0.171059
O O1 0.073353 0.193091 0.206869
O O2 0.170207 0.120048 0.228616
O O3 0.088157 0.000000 0.250000
O O4 0.117048 0.076968 0.000000
O O5 0.462303 0.916654 0.167525
O O6 0.428933 0.719533 0.272006
O O7 0.366022 0.860149 0.231136
O O8 0.417138 0.780408 0.000000
O O9 0.823917 0.500000 0.250000
O O10 0.905205 0.387381 0.254172
O O11 0.810793 0.311479 0.194088
O O12 0.863272 0.424241 0.000000
O O13 0.000000 0.671199 0.250000
O O14 0.950311 0.667430 0.000000
O O15 0.265548 0.813045 0.794983
O O16 0.193998 0.842727 0.000000
O O17 0.414284 0.500000 0.750000
O O18 0.500000 0.590015 0.750000
O O19 0.444265 0.596773 0.500000
O O20 0.292167 0.000000 0.250000
O O21 0.316463 0.920859 0.000000
#
# Coordination Sequence:
#
# PCOD8203563 Si02
#       8
#     8   8   8   8   2   8   8   8
#     4  10  20  33  52  77 106 141 182 225 272 326
#     4  11  23  38  58  87 123 159 199 245 293 350
#     4  10  20  36  58  82 107 140 181 228 279 336
#     4  10  21  36  53  77 109 144 182 227 273 326
#     4  12  22  36  62  86 122 164 202 242 296 348
#     4   9  19  36  57  79 107 142 181 227 279 333
#     4  11  22  38  61  85 112 147 191 237 284 337
#     4  10  21  37  56  83 117 152 188 232 283 337
#
# _framework density 19.295701999999999
#
# number of rings (size 3 to 8) (size 9 to 14) (size 15 to 20)
#    0.000    1.793    1.379    3.517    0.000    5.517 
#    0.000    3.448    0.000    1.655    0.000    0.000 
#    0.000    0.000    0.000    0.000    0.000    0.000 
#
# Total GULP energy -718617.265381 kJ/mol
# GULP energy per Si atom -12389.952851 kJ/mol
# Density = 1.925178 g / cm^3
# Si number density = 19.295702 Si / 1000 Ang^3
#
#
#
# Elastic Constant Matrix: (Units=GPa)
#
#
# Indices 1 2 3 4 5 6 
#
# 1 108.3440 35.6577 29.0069 0.0000 0.0000 0.0000
# 2 35.6577 122.6482 55.8956 0.0000 0.0000 0.0000
# 3 29.0069 55.8956 95.1427 0.0000 0.0000 0.0000
# 4 0.0000 0.0000 0.0000 25.4302 0.0000 0.0000
# 5 0.0000 0.0000 0.0000 0.0000 -0.5416 0.0000
# 6 0.0000 0.0000 0.0000 0.0000 0.0000 13.7667
#
#
#
# Elastic Compliance Matrix: (Units=1/GPa)
#
#
# Indices 1 2 3 4 5 6 
#
# 1 0.010456 -0.002167 -0.001914 0.000000 0.000000 0.000000
# 2 -0.002167 0.011584 -0.006145 0.000000 0.000000 0.000000
# 3 -0.001914 -0.006145 0.014704 0.000000 0.000000 0.000000
# 4 0.000000 0.000000 0.000000 0.039323 0.000000 0.000000
# 5 0.000000 0.000000 0.000000 0.000000 -1.846453 0.000000
# 6 0.000000 0.000000 0.000000 0.000000 0.000000 0.072639
#
#
# Mechanical properties :
#
#
# Convention : Reuss Voigt Hill
#
# Bulk Modulus (GPa) = 61.38403 63.02837 62.20620
# Shear Modulus (GPa) = -2.99067 21.43604 9.22269
#
# Velocity S-wave (km/s) = -1.24631 3.33667 2.18861
# Velocity P-wave (km/s) = 5.45988 6.89781 6.22054
#
# Compressibility (1/GPa) = 0.01629088
#
# Stress axis : x y z
#
# Youngs Moduli (GPa) = 95.64154 86.32681 68.00806
#
# Poissons Ratio (x) = 0.18710 0.13020
# Poissons Ratio (y) = 0.20729 0.41789
# Poissons Ratio (z) = 0.18310 0.53045
#
# Static dielectric constant tensor:
#      x y z
#    x 3.493780 0.000000 0.000000 
#    y 0.000000 6.318270 0.000000 
#    z 0.000000 0.000000 3.585510 
# 
# 
# High freq. dielectric constant tensor:
#      x y z
#    x 1.735180 0.000000 0.000000 
#    y 0.000000 1.764830 0.000000 
#    z 0.000000 0.000000 1.756780 
# 
# From -- ./inp_files/3014.got.cif
#   From: 2010.03.12/outbox.cif.g09.slc.cpg/sg49_2_cif.got.tgz:3014.got - 2010.04.14 03:58:27.
