data_PCOD8203881
_publ_section_title
;
Structure prediction by ZEFSAII (Michael W. Deem and Ramdas Pophale) SiO2 
 PCOD8203881
Probable space group: P C C M
;
_chemical_formula_sum "Si O2"
_cell_formula_units_Z 48
_cell_length_a 30.726221
_cell_length_b 9.622261
_cell_length_c 8.793370
_cell_angle_alpha 90.000000
_cell_angle_beta 90.000000
_cell_angle_gamma 90.000000
_cell_volume 2599.810121
_symmetry_space_group_name_H-M "P C C M"
_symmetry_group_IT_number 49
_symmetry_cell_setting 'orthorhombic'
loop_
_space_group_symop_operation_xyz
x,y,z
-x,-y,z
x,-y,1/2-z
-x,y,1/2-z
-x,-y,-z
x,y,-z
-x,y,1/2+z
x,-y,1/2+z
loop_
_atom_site_type_symbol
_atom_site_label
_atom_site_fract_x
_atom_site_fract_y
_atom_site_fract_z
Si Si1 0.955697 0.848437 0.818567
Si Si2 0.541444 0.650884 0.677331
Si Si3 0.212670 0.355977 0.677356
Si Si4 0.362816 0.650493 0.821978
Si Si5 0.286679 0.848639 0.180002
Si Si6 0.112983 0.646526 0.820101
O O1 0.914563 0.761513 0.765616
O O2 0.000000 0.781885 0.750000
O O3 0.949425 0.000000 0.750000
O O4 0.958554 0.854496 0.000000
O O5 0.541964 0.500000 0.750000
O O6 0.500000 0.734827 0.750000
O O7 0.533142 0.639747 0.500000
O O8 0.589071 0.715160 0.713514
O O9 0.228271 0.500000 0.750000
O O10 0.218435 0.377386 0.500000
O O11 0.242943 0.230169 0.735073
O O12 0.163046 0.320571 0.720090
O O13 0.355251 0.500000 0.750000
O O14 0.327941 0.760772 0.758909
O O15 0.356467 0.628131 0.000000
O O16 0.287544 0.000000 0.250000
O O17 0.288113 0.863779 0.000000
O O18 0.098918 0.500000 0.750000
O O19 0.104082 0.647735 0.000000
#
# Coordination Sequence:
#
# PCOD8203881 Si02
#       6
#     8   8   8   8   8   8
#     4  11  22  38  58  81 109 144 181 220 262 308
#     4   9  15  24  40  65  94 123 154 197 244 291
#     4   9  19  35  56  79 105 134 169 210 254 303
#     4   9  18  31  49  72  99 128 164 205 249 297
#     4  10  21  36  51  73 102 133 168 209 251 298
#     4  10  20  36  56  82 111 140 174 215 260 309
#
# _framework density 18.462888
#
# number of rings (size 3 to 8) (size 9 to 14) (size 15 to 20)
#    0.000    2.333    0.000    4.000    0.000    3.667 
#    0.000    3.333    0.000    0.500    0.000    3.500 
#    0.000    0.000    0.000    0.000    0.000    0.000 
#
# Total GULP energy -594991.871125 kJ/mol
# GULP energy per Si atom -12395.663982 kJ/mol
# Density = 1.842087 g / cm^3
# Si number density = 18.462888 Si / 1000 Ang^3
#
#
#
# Elastic Constant Matrix: (Units=GPa)
#
#
# Indices 1 2 3 4 5 6 
#
# 1 143.4994 81.0181 53.3996 0.0000 0.0000 0.0000
# 2 81.0181 110.4720 42.7625 0.0000 0.0000 0.0000
# 3 53.3996 42.7625 86.1572 0.0000 0.0000 0.0000
# 4 0.0000 0.0000 0.0000 31.0916 0.0000 0.0000
# 5 0.0000 0.0000 0.0000 0.0000 25.4954 0.0000
# 6 0.0000 0.0000 0.0000 0.0000 0.0000 12.6805
#
#
#
# Elastic Compliance Matrix: (Units=1/GPa)
#
#
# Indices 1 2 3 4 5 6 
#
# 1 0.012969 -0.007922 -0.004106 0.000000 0.000000 0.000000
# 2 -0.007922 0.016044 -0.003053 0.000000 0.000000 0.000000
# 3 -0.004106 -0.003053 0.015667 0.000000 0.000000 0.000000
# 4 0.000000 0.000000 0.000000 0.032163 0.000000 0.000000
# 5 0.000000 0.000000 0.000000 0.000000 0.039223 0.000000
# 6 0.000000 0.000000 0.000000 0.000000 0.000000 0.078861
#
#
# Mechanical properties :
#
#
# Convention : Reuss Voigt Hill
#
# Bulk Modulus (GPa) = 68.88275 77.16544 73.02410
# Shear Modulus (GPa) = 21.74581 24.71673 23.23127
#
# Velocity S-wave (km/s) = 3.43565 3.66283 3.55106
# Velocity P-wave (km/s) = 7.28890 7.73137 7.51339
#
# Compressibility (1/GPa) = 0.01451742
#
# Stress axis : x y z
#
# Youngs Moduli (GPa) = 77.10433 62.32980 63.82796
#
# Poissons Ratio (x) = 0.49378 0.26211
# Poissons Ratio (y) = 0.61082 0.19487
# Poissons Ratio (z) = 0.31662 0.19029
#
# Static dielectric constant tensor:
#      x y z
#    x 4.348180 0.000000 0.000000 
#    y 0.000000 3.174560 0.000000 
#    z 0.000000 0.000000 3.434620 
# 
# 
# High freq. dielectric constant tensor:
#      x y z
#    x 1.739850 0.000000 0.000000 
#    y 0.000000 1.685090 0.000000 
#    z 0.000000 0.000000 1.720910 
# 
# From -- ./inp_files/6886.got.cif
#   From: 2010.03.12/outbox.cif.g09.slc.cpg/sg49_4_cif.got.tgz:6886.got - 2010.04.14 03:58:27.
