data_PCOD8203614
_publ_section_title
;
Structure prediction by ZEFSAII (Michael W. Deem and Ramdas Pophale) SiO2 
 PCOD8203614
Probable space group: P C C M
;
_chemical_formula_sum "Si O2"
_cell_formula_units_Z 52
_cell_length_a 28.883098
_cell_length_b 11.324941
_cell_length_c 9.008332
_cell_angle_alpha 90.000000
_cell_angle_beta 90.000000
_cell_angle_gamma 90.000000
_cell_volume 2946.619819
_symmetry_space_group_name_H-M "P C C M"
_symmetry_group_IT_number 49
_symmetry_cell_setting 'orthorhombic'
loop_
_space_group_symop_operation_xyz
x,y,z
-x,-y,z
x,-y,1/2-z
-x,y,1/2-z
-x,-y,-z
x,y,-z
-x,y,1/2+z
x,-y,1/2+z
loop_
_atom_site_type_symbol
_atom_site_label
_atom_site_fract_x
_atom_site_fract_y
_atom_site_fract_z
Si Si1 0.400435 0.625731 0.174053
Si Si2 0.544303 0.821075 0.165162
Si Si3 0.681181 0.204847 0.163378
Si Si4 0.143859 0.126705 0.325997
Si Si5 0.956784 0.873109 0.326799
Si Si6 0.232437 0.127850 0.175530
Si Si7 0.617838 0.000000 0.250000
O O1 0.401040 0.500000 0.250000
O O2 0.440308 0.705648 0.244710
O O3 0.350604 0.684288 0.205926
O O4 0.410151 0.613814 0.000000
O O5 0.500000 0.875452 0.250000
O O6 0.584827 0.918381 0.149385
O O7 0.529948 0.782966 0.000000
O O8 0.721979 0.202265 0.284487
O O9 0.650681 0.085279 0.154323
O O10 0.703100 0.221296 0.000000
O O11 0.154878 0.112964 0.500000
O O12 0.093528 0.190072 0.302797
O O13 0.186555 0.193227 0.243845
O O14 0.141133 0.000000 0.250000
O O15 0.967141 0.887977 0.500000
O O16 0.000000 0.802276 0.250000
O O17 0.954515 0.000000 0.250000
O O18 0.237739 0.000000 0.250000
O O19 0.227805 0.116508 0.000000
#
# Coordination Sequence:
#
# PCOD8203614 Si02
#       7
#     8   8   8   8   8   8   4
#     4  10  22  40  60  80 101 126 159 198 237 280
#     4  11  23  38  57  81 107 135 164 195 233 278
#     4  10  20  34  52  74  99 126 157 192 234 281
#     4   9  16  25  35  49  73 105 142 184 230 276
#     4   9  15  21  31  45  63  93 134 182 229 271
#     4  11  20  28  42  63  89 120 152 189 233 279
#     4  10  21  34  56  78 104 132 161 192 232 276
#
# _framework density 17.647338999999999
#
# number of rings (size 3 to 8) (size 9 to 14) (size 15 to 20)
#    0.000    2.000    0.769    5.308    0.000    7.692 
#    0.000    1.538    0.000    0.000    0.000    0.000 
#    0.000    0.000    0.000    0.000    0.000    0.769 
#
# Total GULP energy -644315.951881 kJ/mol
# GULP energy per Si atom -12390.691382 kJ/mol
# Density = 1.760717 g / cm^3
# Si number density = 17.647339 Si / 1000 Ang^3
#
#
#
# Elastic Constant Matrix: (Units=GPa)
#
#
# Indices 1 2 3 4 5 6 
#
# 1 134.1887 18.7848 61.6677 0.0000 0.0000 0.0000
# 2 18.7848 52.9032 17.2808 0.0000 0.0000 0.0000
# 3 61.6677 17.2808 142.5009 0.0000 0.0000 0.0000
# 4 0.0000 0.0000 0.0000 14.2392 0.0000 0.0000
# 5 0.0000 0.0000 0.0000 0.0000 30.7314 0.0000
# 6 0.0000 0.0000 0.0000 0.0000 0.0000 8.4718
#
#
#
# Elastic Compliance Matrix: (Units=1/GPa)
#
#
# Indices 1 2 3 4 5 6 
#
# 1 0.009525 -0.002120 -0.003865 0.000000 0.000000 0.000000
# 2 -0.002120 0.020154 -0.001527 0.000000 0.000000 0.000000
# 3 -0.003865 -0.001527 0.008875 0.000000 0.000000 0.000000
# 4 0.000000 0.000000 0.000000 0.070229 0.000000 0.000000
# 5 0.000000 0.000000 0.000000 0.000000 0.032540 0.000000
# 6 0.000000 0.000000 0.000000 0.000000 0.000000 0.118039
#
#
# Mechanical properties :
#
#
# Convention : Reuss Voigt Hill
#
# Bulk Modulus (GPa) = 42.49639 58.33995 50.41817
# Shear Modulus (GPa) = 17.71617 26.14579 21.93098
#
# Velocity S-wave (km/s) = 3.17188 3.85329 3.52907
# Velocity P-wave (km/s) = 6.12761 7.27514 6.72589
#
# Compressibility (1/GPa) = 0.02353141
#
# Stress axis : x y z
#
# Youngs Moduli (GPa) = 104.98575 49.61839 112.67333
#
# Poissons Ratio (x) = 0.10518 0.43548
# Poissons Ratio (y) = 0.22254 0.17202
# Poissons Ratio (z) = 0.40577 0.07575
#
# Static dielectric constant tensor:
#      x y z
#    x 4.317720 0.000000 0.000000 
#    y 0.000000 2.706770 0.000000 
#    z 0.000000 0.000000 3.338970 
# 
# 
# High freq. dielectric constant tensor:
#      x y z
#    x 1.705700 0.000000 0.000000 
#    y 0.000000 1.601300 0.000000 
#    z 0.000000 0.000000 1.699830 
# 
# From -- ./inp_files/6960.got.cif
#   From: 2010.03.12/outbox.cif.g09.slc.cpg/sg49_4_cif.got.tgz:6960.got - 2010.04.14 03:58:27.
