data_PCOD8203184
_publ_section_title
;
Structure prediction by ZEFSAII (Michael W. Deem and Ramdas Pophale) SiO2 
 PCOD8203184
Probable space group: P C C M
;
_chemical_formula_sum "Si O2"
_cell_formula_units_Z 64
_cell_length_a 14.507593
_cell_length_b 12.712237
_cell_length_c 19.095099
_cell_angle_alpha 90.000000
_cell_angle_beta 90.000000
_cell_angle_gamma 90.000000
_cell_volume 3521.593784
_symmetry_space_group_name_H-M "P C C M"
_symmetry_group_IT_number 49
_symmetry_cell_setting 'orthorhombic'
loop_
_space_group_symop_operation_xyz
x,y,z
-x,-y,z
x,-y,1/2-z
-x,y,1/2-z
-x,-y,-z
x,y,-z
-x,y,1/2+z
x,-y,1/2+z
loop_
_atom_site_type_symbol
_atom_site_label
_atom_site_fract_x
_atom_site_fract_y
_atom_site_fract_z
Si Si1 0.704630 0.321181 0.921515
Si Si2 0.045417 0.113002 0.659360
Si Si3 0.709986 0.928144 0.182978
Si Si4 0.495765 0.620066 0.419989
Si Si5 0.409308 0.738712 0.296387
Si Si6 0.760534 0.380370 0.773580
Si Si7 0.124239 0.791674 0.292182
Si Si8 0.774365 0.092689 0.922336
O O1 0.596918 0.334980 0.910903
O O2 0.761865 0.377872 0.858962
O O3 0.716397 0.197640 0.914714
O O4 0.735424 0.361284 0.000000
O O5 0.100566 0.125300 0.731342
O O6 0.120630 0.119674 0.598678
O O7 0.965597 0.205460 0.655884
O O8 0.000000 0.000000 0.655213
O O9 0.615582 0.861311 0.189012
O O10 0.787974 0.840043 0.169480
O O11 0.725661 0.000000 0.250000
O O12 0.715405 0.005348 0.117748
O O13 0.500000 0.500000 0.395231
O O14 0.459917 0.629429 0.500000
O O15 0.424374 0.681646 0.370702
O O16 0.500000 0.734282 0.250000
O O17 0.329991 0.679347 0.253206
O O18 0.761744 0.500000 0.750000
O O19 0.851186 0.322758 0.740640
O O20 0.779376 0.049125 0.000000
#
# Coordination Sequence:
#
# PCOD8203184 Si02
#       8
#     8   8   8   8   8   8   8   8
#     4  10  20  37  58  81 115 150 186 234 288 345
#     4  11  18  32  59  81 109 144 186 226 277 334
#     4  11  20  37  53  77 116 149 186 228 281 341
#     4  10  21  38  58  80 107 146 191 236 287 339
#     4  11  23  34  56  85 112 147 191 245 286 329
#     4  11  21  36  59  86 113 143 195 244 288 340
#     4  10  19  33  56  84 108 144 181 234 284 329
#     4  11  22  36  58  86 117 154 189 229 283 349
#
# _framework density 18.173589
#
# number of rings (size 3 to 8) (size 9 to 14) (size 15 to 20)
#    0.000    1.375    5.000    2.250    0.000    1.000 
#    0.000    1.250    0.000    3.750    0.000    1.750 
#    0.000    0.000    0.000    0.000    0.000    0.000 
#
# Total GULP energy -793155.686200 kJ/mol
# GULP energy per Si atom -12393.057597 kJ/mol
# Density = 1.813223 g / cm^3
# Si number density = 18.173589 Si / 1000 Ang^3
#
#
#
# Elastic Constant Matrix: (Units=GPa)
#
#
# Indices 1 2 3 4 5 6 
#
# 1 81.6537 52.2624 26.8839 0.0000 0.0000 0.0000
# 2 52.2624 97.6316 52.8707 0.0000 0.0000 0.0000
# 3 26.8839 52.8707 107.2843 0.0000 0.0000 0.0000
# 4 0.0000 0.0000 0.0000 26.2510 0.0000 0.0000
# 5 0.0000 0.0000 0.0000 0.0000 16.3250 0.0000
# 6 0.0000 0.0000 0.0000 0.0000 0.0000 29.0081
#
#
#
# Elastic Compliance Matrix: (Units=1/GPa)
#
#
# Indices 1 2 3 4 5 6 
#
# 1 0.018639 -0.010159 0.000336 0.000000 0.000000 0.000000
# 2 -0.010159 0.019509 -0.007068 0.000000 0.000000 0.000000
# 3 0.000336 -0.007068 0.012720 0.000000 0.000000 0.000000
# 4 0.000000 0.000000 0.000000 0.038094 0.000000 0.000000
# 5 0.000000 0.000000 0.000000 0.000000 0.061256 0.000000
# 6 0.000000 0.000000 0.000000 0.000000 0.000000 0.034473
#
#
# Mechanical properties :
#
#
# Convention : Reuss Voigt Hill
#
# Bulk Modulus (GPa) = 58.53318 61.17819 59.85568
# Shear Modulus (GPa) = 22.30473 24.62034 23.46254
#
# Velocity S-wave (km/s) = 3.50711 3.68466 3.59698
# Velocity P-wave (km/s) = 6.97692 7.19990 7.08929
#
# Compressibility (1/GPa) = 0.01708433
#
# Stress axis : x y z
#
# Youngs Moduli (GPa) = 53.65199 51.25966 78.61565
#
# Poissons Ratio (x) = 0.52076 -0.02641
# Poissons Ratio (y) = 0.54506 0.55567
# Poissons Ratio (z) = -0.01803 0.36231
#
# Static dielectric constant tensor:
#      x y z
#    x 3.503080 0.000000 0.000000 
#    y 0.000000 3.415150 0.000000 
#    z 0.000000 0.000000 3.558580 
# 
# 
# High freq. dielectric constant tensor:
#      x y z
#    x 1.701270 0.000000 0.000000 
#    y 0.000000 1.696990 0.000000 
#    z 0.000000 0.000000 1.698230 
# 
# From -- ./inp_files/17975.got.cif
#   From: 2010.03.12/outbox.cif.g09.slc.cpg/sg49_9_cif.got.tgz:17975.got - 2010.04.14 03:58:27.
