data_PCOD8203456
_publ_section_title
;
Structure prediction by ZEFSAII (Michael W. Deem and Ramdas Pophale) SiO2 
 PCOD8203456
Probable space group: P C C M
;
_chemical_formula_sum "Si O2"
_cell_formula_units_Z 56
_cell_length_a 21.071009
_cell_length_b 18.301199
_cell_length_c 8.974464
_cell_angle_alpha 90.000000
_cell_angle_beta 90.000000
_cell_angle_gamma 90.000000
_cell_volume 3460.775246
_symmetry_space_group_name_H-M "P C C M"
_symmetry_group_IT_number 49
_symmetry_cell_setting 'orthorhombic'
loop_
_space_group_symop_operation_xyz
x,y,z
-x,-y,z
x,-y,1/2-z
-x,y,1/2-z
-x,-y,-z
x,y,-z
-x,y,1/2+z
x,-y,1/2+z
loop_
_atom_site_type_symbol
_atom_site_label
_atom_site_fract_x
_atom_site_fract_y
_atom_site_fract_z
Si Si1 0.753744 0.199616 0.663959
Si Si2 0.933124 0.576476 0.321496
Si Si3 0.177310 0.658579 0.324115
Si Si4 0.376500 0.286234 0.164995
Si Si5 0.303857 0.576732 0.675911
Si Si6 0.563729 0.839984 0.674570
Si Si7 0.689978 0.923148 0.325517
O O1 0.768850 0.167360 0.500000
O O2 0.808748 0.256108 0.713193
O O3 0.690104 0.245865 0.655467
O O4 0.746030 0.132489 0.778074
O O5 0.910516 0.500000 0.250000
O O6 0.938550 0.569730 0.500000
O O7 0.882919 0.637932 0.275497
O O8 0.000000 0.599387 0.250000
O O9 0.163869 0.648348 0.500000
O O10 0.235814 0.607697 0.271827
O O11 0.360924 0.368003 0.223227
O O12 0.423775 0.243702 0.275218
O O13 0.407628 0.287870 0.000000
O O14 0.318571 0.500000 0.750000
O O15 0.303538 0.567621 0.500000
O O16 0.500000 0.870776 0.750000
O O17 0.554300 0.841392 0.500000
O O18 0.621657 0.891747 0.725714
O O19 0.692852 0.933777 0.500000
O O20 0.702220 0.000000 0.250000
#
# Coordination Sequence:
#
# PCOD8203456 Si02
#       7
#     8   8   8   8   8   8   8
#     4   8  15  29  48  66  88 117 146 179 220 263
#     4  11  21  32  45  62  89 126 164 200 235 270
#     4   9  17  30  46  66  91 119 152 187 224 267
#     4   8  15  29  45  61  83 111 141 175 216 261
#     4   9  17  27  42  64  88 113 141 177 222 266
#     4  10  20  32  47  66  85 111 145 179 213 257
#     4  10  20  32  47  68  94 120 147 177 215 261
#
# _framework density 16.181346000000001
#
# number of rings (size 3 to 8) (size 9 to 14) (size 15 to 20)
#    0.000    2.714    0.000    4.714    0.000    4.857 
#    0.000    4.286    0.000    0.429    0.000    3.000 
#    0.000    0.571    0.000    6.000    0.000    2.571 
#
# Total GULP energy -694170.879830 kJ/mol
# GULP energy per Si atom -12395.908568 kJ/mol
# Density = 1.614452 g / cm^3
# Si number density = 16.181346 Si / 1000 Ang^3
#
#
#
# Elastic Constant Matrix: (Units=GPa)
#
#
# Indices 1 2 3 4 5 6 
#
# 1 49.7149 31.8136 27.8642 0.0000 0.0000 0.0000
# 2 31.8136 108.5970 40.6366 0.0000 0.0000 0.0000
# 3 27.8642 40.6366 70.4646 0.0000 0.0000 0.0000
# 4 0.0000 0.0000 0.0000 27.1243 0.0000 0.0000
# 5 0.0000 0.0000 0.0000 0.0000 22.0985 0.0000
# 6 0.0000 0.0000 0.0000 0.0000 0.0000 17.7639
#
#
#
# Elastic Compliance Matrix: (Units=1/GPa)
#
#
# Indices 1 2 3 4 5 6 
#
# 1 0.027944 -0.005166 -0.008071 0.000000 0.000000 0.000000
# 2 -0.005166 0.012697 -0.005280 0.000000 0.000000 0.000000
# 3 -0.008071 -0.005280 0.020428 0.000000 0.000000 0.000000
# 4 0.000000 0.000000 0.000000 0.036867 0.000000 0.000000
# 5 0.000000 0.000000 0.000000 0.000000 0.045252 0.000000
# 6 0.000000 0.000000 0.000000 0.000000 0.000000 0.056294
#
#
# Mechanical properties :
#
#
# Convention : Reuss Voigt Hill
#
# Bulk Modulus (GPa) = 41.60417 47.71171 44.65794
# Shear Modulus (GPa) = 20.44757 21.96149 21.20453
#
# Velocity S-wave (km/s) = 3.55864 3.68803 3.62391
# Velocity P-wave (km/s) = 6.53087 6.90544 6.72076
#
# Compressibility (1/GPa) = 0.02403605
#
# Stress axis : x y z
#
# Youngs Moduli (GPa) = 35.78562 78.75616 48.95307
#
# Poissons Ratio (x) = 0.40687 0.39509
# Poissons Ratio (y) = 0.18488 0.25845
# Poissons Ratio (z) = 0.28882 0.41580
#
# Static dielectric constant tensor:
#      x y z
#    x 2.912940 0.000000 0.000000 
#    y 0.000000 3.200460 0.000000 
#    z 0.000000 0.000000 3.078850 
# 
# 
# High freq. dielectric constant tensor:
#      x y z
#    x 1.589180 0.000000 0.000000 
#    y 0.000000 1.612160 0.000000 
#    z 0.000000 0.000000 1.625880 
# 
# From -- ./inp_files/5207.got.cif
#   From: 2010.03.12/outbox.cif.g09.slc.cpg/sg49_3_cif.got.tgz:5207.got - 2010.04.14 03:58:27.
