data_PCOD8203539
_publ_section_title
;
Structure prediction by ZEFSAII (Michael W. Deem and Ramdas Pophale) SiO2 
 PCOD8203539
Probable space group: P C C M
;
_chemical_formula_sum "Si O2"
_cell_formula_units_Z 58
_cell_length_a 14.525432
_cell_length_b 25.139935
_cell_length_c 9.013461
_cell_angle_alpha 90.000000
_cell_angle_beta 90.000000
_cell_angle_gamma 90.000000
_cell_volume 3291.431279
_symmetry_space_group_name_H-M "P C C M"
_symmetry_group_IT_number 49
_symmetry_cell_setting 'orthorhombic'
loop_
_space_group_symop_operation_xyz
x,y,z
-x,-y,z
x,-y,1/2-z
-x,y,1/2-z
-x,-y,-z
x,y,-z
-x,y,1/2+z
x,-y,1/2+z
loop_
_atom_site_type_symbol
_atom_site_label
_atom_site_fract_x
_atom_site_fract_y
_atom_site_fract_z
Si Si1 0.145124 0.081994 0.664199
Si Si2 0.094899 0.798483 0.824156
Si Si3 0.599574 0.332548 0.826580
Si Si4 0.325048 0.052478 0.174988
Si Si5 0.589081 0.840079 0.169943
Si Si6 0.000000 0.000000 0.250000
Si Si7 0.402460 0.451239 0.329081
Si Si8 0.267356 0.249893 0.826247
O O1 0.189157 0.086840 0.500000
O O2 0.112220 0.139963 0.718719
O O3 0.219303 0.060423 0.779785
O O4 0.062125 0.039700 0.651982
O O5 0.171089 0.758979 0.756059
O O6 0.000000 0.780362 0.750000
O O7 0.090548 0.790324 0.000000
O O8 0.500000 0.324690 0.750000
O O9 0.640096 0.392508 0.809280
O O10 0.676578 0.297510 0.747828
O O11 0.588625 0.317392 0.000000
O O12 0.386456 0.101566 0.231655
O O13 0.366973 0.000000 0.250000
O O14 0.327991 0.046336 0.000000
O O15 0.500000 0.816171 0.250000
O O16 0.676608 0.803952 0.199476
O O17 0.562509 0.842602 0.000000
O O18 0.345477 0.500000 0.250000
O O19 0.500000 0.448824 0.250000
O O20 0.413988 0.465906 0.500000
O O21 0.251963 0.261949 0.000000
#
# Coordination Sequence:
#
# PCOD8203539 Si02
#       8
#     8   8   8   8   8   2   8   8
#     4  11  23  36  54  79 104 131 158 196 250 310
#     4  11  23  39  58  81 106 136 171 211 261 321
#     4  10  20  33  50  78 112 150 191 235 275 319
#     4  11  23  39  56  75 100 126 160 204 251 308
#     4  10  23  39  56  77 101 131 167 212 258 308
#     4  12  22  36  56  86 108 124 162 200 256 320
#     4   9  16  26  43  68 104 146 190 230 272 315
#     4  11  22  38  57  79 106 141 179 223 270 317
#
# _framework density 17.621513
#
# number of rings (size 3 to 8) (size 9 to 14) (size 15 to 20)
#    0.000    1.517    2.759    3.103    0.000    6.345 
#    0.000    1.379    0.000    0.000    0.000    0.000 
#    0.000    0.552    0.000    5.793    0.000    3.172 
#
# Total GULP energy -719043.586131 kJ/mol
# GULP energy per Si atom -12397.303209 kJ/mol
# Density = 1.758141 g / cm^3
# Si number density = 17.621513 Si / 1000 Ang^3
#
#
#
# Elastic Constant Matrix: (Units=GPa)
#
#
# Indices 1 2 3 4 5 6 
#
# 1 77.2086 35.4682 39.2450 0.0000 0.0000 0.0000
# 2 35.4682 106.5180 55.5297 0.0000 0.0000 0.0000
# 3 39.2450 55.5297 108.9364 0.0000 0.0000 0.0000
# 4 0.0000 0.0000 0.0000 32.5198 0.0000 0.0000
# 5 0.0000 0.0000 0.0000 0.0000 25.7814 0.0000
# 6 0.0000 0.0000 0.0000 0.0000 0.0000 15.3135
#
#
#
# Elastic Compliance Matrix: (Units=1/GPa)
#
#
# Indices 1 2 3 4 5 6 
#
# 1 0.016663 -0.003294 -0.004324 0.000000 0.000000 0.000000
# 2 -0.003294 0.013437 -0.005663 0.000000 0.000000 0.000000
# 3 -0.004324 -0.005663 0.013624 0.000000 0.000000 0.000000
# 4 0.000000 0.000000 0.000000 0.030750 0.000000 0.000000
# 5 0.000000 0.000000 0.000000 0.000000 0.038788 0.000000
# 6 0.000000 0.000000 0.000000 0.000000 0.000000 0.065302
#
#
# Mechanical properties :
#
#
# Convention : Reuss Voigt Hill
#
# Bulk Modulus (GPa) = 58.26667 61.46098 59.86383
# Shear Modulus (GPa) = 23.71396 25.55096 24.63246
#
# Velocity S-wave (km/s) = 3.67241 3.81200 3.74286
# Velocity P-wave (km/s) = 7.14980 7.37084 7.26116
#
# Compressibility (1/GPa) = 0.01716247
#
# Stress axis : x y z
#
# Youngs Moduli (GPa) = 60.01317 74.42082 73.40109
#
# Poissons Ratio (x) = 0.24518 0.31736
# Poissons Ratio (y) = 0.19771 0.41564
# Poissons Ratio (z) = 0.25947 0.42142
#
# Static dielectric constant tensor:
#      x y z
#    x 3.086710 0.000000 0.000000 
#    y 0.000000 3.938740 0.000000 
#    z 0.000000 0.000000 3.353290 
# 
# 
# High freq. dielectric constant tensor:
#      x y z
#    x 1.649900 0.000000 0.000000 
#    y 0.000000 1.677890 0.000000 
#    z 0.000000 0.000000 1.696570 
# 
# From -- ./inp_files/4278.got.cif
#   From: 2010.03.12/outbox.cif.g09.slc.cpg/sg49_3_cif.got.tgz:4278.got - 2010.04.14 03:58:27.
