data_PCOD8203162
_publ_section_title
;
Structure prediction by ZEFSAII (Michael W. Deem and Ramdas Pophale) SiO2 
 PCOD8203162
Probable space group: P C C M
;
_chemical_formula_sum "Si O2"
_cell_formula_units_Z 56
_cell_length_a 12.831644
_cell_length_b 13.527565
_cell_length_c 14.642907
_cell_angle_alpha 90.000000
_cell_angle_beta 90.000000
_cell_angle_gamma 90.000000
_cell_volume 2541.728950
_symmetry_space_group_name_H-M "P C C M"
_symmetry_group_IT_number 49
_symmetry_cell_setting 'orthorhombic'
loop_
_space_group_symop_operation_xyz
x,y,z
-x,-y,z
x,-y,1/2-z
-x,y,1/2-z
-x,-y,-z
x,y,-z
-x,y,1/2+z
x,-y,1/2+z
loop_
_atom_site_type_symbol
_atom_site_label
_atom_site_fract_x
_atom_site_fract_y
_atom_site_fract_z
Si Si1 0.621692 0.248663 0.100127
Si Si2 0.846489 0.795370 0.104581
Si Si3 0.539131 0.601769 0.851349
Si Si4 0.258893 0.889904 0.771825
Si Si5 0.918707 0.817488 0.607817
Si Si6 0.227868 0.585407 0.394570
Si Si7 0.818927 0.623130 0.602879
O O1 0.507290 0.297781 0.104629
O O2 0.646127 0.166453 0.177286
O O3 0.700633 0.340002 0.111121
O O4 0.634788 0.198845 0.000000
O O5 0.763559 0.840308 0.173983
O O6 0.850991 0.676637 0.117817
O O7 0.960571 0.840433 0.126114
O O8 0.814043 0.820599 0.000000
O O9 0.500000 0.500000 0.901024
O O10 0.500000 0.598292 0.750000
O O11 0.663165 0.612292 0.848081
O O12 0.155373 0.892468 0.836350
O O13 0.296300 0.000000 0.750000
O O14 0.891403 0.825503 0.500000
O O15 0.892691 0.707280 0.647441
O O16 0.252633 0.563079 0.500000
O O17 0.176687 0.485756 0.350333
O O18 0.858657 0.611653 0.500000
#
# Coordination Sequence:
#
# PCOD8203162 Si02
#       7
#     8   8   8   8   8   8   8
#     4  10  20  37  60  89 124 162 204 255 308 366
#     4  10  22  37  55  82 120 157 197 250 310 372
#     4  11  21  32  54  90 129 164 200 246 297 359
#     4  11  23  40  62  85 111 151 205 265 317 365
#     4   9  19  37  58  85 117 154 198 248 305 371
#     4  10  19  33  54  82 117 158 197 237 291 361
#     4   8  15  29  52  80 114 153 194 235 283 355
#
# _framework density 22.032246000000001
#
# number of rings (size 3 to 8) (size 9 to 14) (size 15 to 20)
#    0.000    2.143    1.429    3.000    0.000    3.429 
#    0.000    4.286    0.000    7.286    0.000    6.000 
#    0.000    0.000    0.000    0.000    0.000    0.000 
#
# Total GULP energy -694011.303718 kJ/mol
# GULP energy per Si atom -12393.058995 kJ/mol
# Density = 2.198210 g / cm^3
# Si number density = 22.032246 Si / 1000 Ang^3
#
#
#
# Elastic Constant Matrix: (Units=GPa)
#
#
# Indices 1 2 3 4 5 6 
#
# 1 47.0523 12.5103 14.9186 0.0000 0.0000 0.0000
# 2 12.5103 115.9908 37.7782 0.0000 0.0000 0.0000
# 3 14.9186 37.7782 89.7045 0.0000 0.0000 0.0000
# 4 0.0000 0.0000 0.0000 23.4433 0.0000 0.0000
# 5 0.0000 0.0000 0.0000 0.0000 21.9352 0.0000
# 6 0.0000 0.0000 0.0000 0.0000 0.0000 20.3631
#
#
#
# Elastic Compliance Matrix: (Units=1/GPa)
#
#
# Indices 1 2 3 4 5 6 
#
# 1 0.022633 -0.001408 -0.003171 0.000000 0.000000 0.000000
# 2 -0.001408 0.010080 -0.004011 0.000000 0.000000 0.000000
# 3 -0.003171 -0.004011 0.013364 0.000000 0.000000 0.000000
# 4 0.000000 0.000000 0.000000 0.042656 0.000000 0.000000
# 5 0.000000 0.000000 0.000000 0.000000 0.045589 0.000000
# 6 0.000000 0.000000 0.000000 0.000000 0.000000 0.049108
#
#
# Mechanical properties :
#
#
# Convention : Reuss Voigt Hill
#
# Bulk Modulus (GPa) = 34.60616 42.57353 38.58985
# Shear Modulus (GPa) = 23.78213 25.65102 24.71658
#
# Velocity S-wave (km/s) = 3.28902 3.41581 3.35302
# Velocity P-wave (km/s) = 5.49224 5.90951 5.70469
#
# Compressibility (1/GPa) = 0.02889659
#
# Stress axis : x y z
#
# Youngs Moduli (GPa) = 44.18375 99.21081 74.82719
#
# Poissons Ratio (x) = 0.13972 0.23727
# Poissons Ratio (y) = 0.06222 0.30011
# Poissons Ratio (z) = 0.14010 0.39790
#
# Static dielectric constant tensor:
#      x y z
#    x 3.711600 0.000000 0.000000 
#    y 0.000000 3.918300 0.000000 
#    z 0.000000 0.000000 4.027380 
# 
# 
# High freq. dielectric constant tensor:
#      x y z
#    x 1.838430 0.000000 0.000000 
#    y 0.000000 1.844600 0.000000 
#    z 0.000000 0.000000 1.868460 
# 
# From -- ./inp_files/13609.got.cif
#   From: 2010.03.12/outbox.cif.g09.slc.cpg/sg49_7_cif.got.tgz:13609.got - 2010.04.14 03:58:27.
