data_PCOD8203597
_publ_section_title
;
Structure prediction by ZEFSAII (Michael W. Deem and Ramdas Pophale) SiO2 
 PCOD8203597
Probable space group: P C C M
;
_chemical_formula_sum "Si O2"
_cell_formula_units_Z 58
_cell_length_a 18.711506
_cell_length_b 18.897362
_cell_length_c 8.854296
_cell_angle_alpha 90.000000
_cell_angle_beta 90.000000
_cell_angle_gamma 90.000000
_cell_volume 3130.862264
_symmetry_space_group_name_H-M "P C C M"
_symmetry_group_IT_number 49
_symmetry_cell_setting 'orthorhombic'
loop_
_space_group_symop_operation_xyz
x,y,z
-x,-y,z
x,-y,1/2-z
-x,y,1/2-z
-x,-y,-z
x,y,-z
-x,y,1/2+z
x,-y,1/2+z
loop_
_atom_site_type_symbol
_atom_site_label
_atom_site_fract_x
_atom_site_fract_y
_atom_site_fract_z
Si Si1 0.207728 0.426726 0.173766
Si Si2 0.577495 0.223208 0.823300
Si Si3 0.000000 0.000000 0.750000
Si Si4 0.708400 0.710564 0.176668
Si Si5 0.925073 0.663882 0.820169
Si Si6 0.160415 0.214319 0.678852
Si Si7 0.423118 0.066477 0.674555
Si Si8 0.863205 0.067400 0.667859
O O1 0.227743 0.500000 0.250000
O O2 0.271309 0.371226 0.204942
O O3 0.132998 0.394156 0.233423
O O4 0.199053 0.443457 0.000000
O O5 0.500000 0.230687 0.750000
O O6 0.629106 0.278467 0.740464
O O7 0.611081 0.144106 0.799153
O O8 0.571635 0.241132 0.000000
O O9 0.948301 0.949142 0.849080
O O10 0.762029 0.761018 0.266579
O O11 0.712893 0.729424 0.000000
O O12 0.902048 0.740094 0.756733
O O13 0.000000 0.640160 0.750000
O O14 0.929785 0.669202 0.000000
O O15 0.154589 0.222106 0.500000
O O16 0.150031 0.133726 0.725396
O O17 0.500000 0.069371 0.750000
O O18 0.431363 0.049664 0.500000
O O19 0.379736 0.000000 0.750000
O O20 0.831427 0.079753 0.500000
O O21 0.825284 0.000000 0.750000
#
# Coordination Sequence:
#
# PCOD8203597 Si02
#       8
#     8   8   2   8   8   8   8   8
#     4   9  20  37  58  82 109 142 178 216 263 321
#     4  10  20  34  55  84 113 145 183 225 273 324
#     4   8  22  32  54  72 102 136 182 228 286 328
#     4  10  21  39  59  82 111 142 179 222 268 323
#     4  10  21  36  53  79 111 143 181 223 269 318
#     4  11  22  36  55  77 105 143 184 228 278 330
#     4   9  16  26  43  69 102 136 173 211 252 302
#     4  10  20  34  51  73 103 138 184 233 280 330
#
# _framework density 18.525248000000001
#
# number of rings (size 3 to 8) (size 9 to 14) (size 15 to 20)
#    0.414    1.793    0.000    4.759    0.966    5.241 
#    0.000    2.069    0.000    2.069    0.000    2.897 
#    0.000    0.000    0.000    0.000    0.000    0.000 
#
# Total GULP energy -718883.298373 kJ/mol
# GULP energy per Si atom -12394.539627 kJ/mol
# Density = 1.848308 g / cm^3
# Si number density = 18.525248 Si / 1000 Ang^3
#
#
#
# Elastic Constant Matrix: (Units=GPa)
#
#
# Indices 1 2 3 4 5 6 
#
# 1 77.2382 40.4617 36.5978 0.0000 0.0000 0.0000
# 2 40.4617 119.4468 49.8720 0.0000 0.0000 0.0000
# 3 36.5978 49.8720 123.4649 0.0000 0.0000 0.0000
# 4 0.0000 0.0000 0.0000 28.5567 0.0000 0.0000
# 5 0.0000 0.0000 0.0000 0.0000 29.1664 0.0000
# 6 0.0000 0.0000 0.0000 0.0000 0.0000 17.2882
#
#
#
# Elastic Compliance Matrix: (Units=1/GPa)
#
#
# Indices 1 2 3 4 5 6 
#
# 1 0.016737 -0.004328 -0.003213 0.000000 0.000000 0.000000
# 2 -0.004328 0.011189 -0.003237 0.000000 0.000000 0.000000
# 3 -0.003213 -0.003237 0.010359 0.000000 0.000000 0.000000
# 4 0.000000 0.000000 0.000000 0.035018 0.000000 0.000000
# 5 0.000000 0.000000 0.000000 0.000000 0.034286 0.000000
# 6 0.000000 0.000000 0.000000 0.000000 0.000000 0.057843
#
#
# Mechanical properties :
#
#
# Convention : Reuss Voigt Hill
#
# Bulk Modulus (GPa) = 59.77331 63.77922 61.77626
# Shear Modulus (GPa) = 25.96532 27.88348 26.92440
#
# Velocity S-wave (km/s) = 3.74788 3.88385 3.81647
# Velocity P-wave (km/s) = 7.14596 7.39022 7.26912
#
# Compressibility (1/GPa) = 0.01672988
#
# Stress axis : x y z
#
# Youngs Moduli (GPa) = 59.74949 89.36966 96.53110
#
# Poissons Ratio (x) = 0.38679 0.31014
# Poissons Ratio (y) = 0.25859 0.31247
# Poissons Ratio (z) = 0.19197 0.28928
#
# Static dielectric constant tensor:
#      x y z
#    x 3.162290 0.000000 0.000000 
#    y 0.000000 3.625980 0.000000 
#    z 0.000000 0.000000 3.444810 
# 
# 
# High freq. dielectric constant tensor:
#      x y z
#    x 1.690580 0.000000 0.000000 
#    y 0.000000 1.714430 0.000000 
#    z 0.000000 0.000000 1.733430 
# 
# From -- ./inp_files/5109.got.cif
#   From: 2010.03.12/outbox.cif.g09.slc.cpg/sg49_3_cif.got.tgz:5109.got - 2010.04.14 03:58:27.
