data_PCOD8203370
_publ_section_title
;
Structure prediction by ZEFSAII (Michael W. Deem and Ramdas Pophale) SiO2 
 PCOD8203370
Probable space group: P C C M
;
_chemical_formula_sum "Si O2"
_cell_formula_units_Z 64
_cell_length_a 23.708671
_cell_length_b 15.436505
_cell_length_c 8.655623
_cell_angle_alpha 90.000000
_cell_angle_beta 90.000000
_cell_angle_gamma 90.000000
_cell_volume 3167.776409
_symmetry_space_group_name_H-M "P C C M"
_symmetry_group_IT_number 49
_symmetry_cell_setting 'orthorhombic'
loop_
_space_group_symop_operation_xyz
x,y,z
-x,-y,z
x,-y,1/2-z
-x,y,1/2-z
-x,-y,-z
x,y,-z
-x,y,1/2+z
x,-y,1/2+z
loop_
_atom_site_type_symbol
_atom_site_label
_atom_site_fract_x
_atom_site_fract_y
_atom_site_fract_z
Si Si1 0.239923 0.242803 0.822261
Si Si2 0.824316 0.588711 0.817513
Si Si3 0.827072 0.088018 0.818663
Si Si4 0.627170 0.750488 0.821044
Si Si5 0.561016 0.908058 0.316330
Si Si6 0.438987 0.407206 0.684169
Si Si7 0.941952 0.148853 0.317602
Si Si8 0.057171 0.347131 0.181719
O O1 0.214143 0.332425 0.758566
O O2 0.214840 0.165338 0.723061
O O3 0.306287 0.247266 0.801806
O O4 0.221947 0.228263 0.000000
O O5 0.799382 0.500000 0.750000
O O6 0.888388 0.601250 0.756487
O O7 0.822374 0.583938 0.000000
O O8 0.889345 0.097634 0.749627
O O9 0.800527 0.000000 0.750000
O O10 0.831919 0.080484 0.000000
O O11 0.604118 0.834853 0.735669
O O12 0.605310 0.664218 0.738433
O O13 0.608689 0.750570 0.000000
O O14 0.500000 0.883933 0.250000
O O15 0.557848 0.913258 0.500000
O O16 0.582035 0.000000 0.250000
O O17 0.419447 0.500000 0.750000
O O18 0.500000 0.381485 0.750000
O O19 0.441754 0.411320 0.500000
O O20 0.942161 0.139357 0.500000
O O21 0.936110 0.248246 0.263086
O O22 0.000000 0.109543 0.250000
O O23 0.000000 0.388699 0.250000
O O24 0.053257 0.352337 0.000000
#
# Coordination Sequence:
#
# PCOD8203370 Si02
#       8
#     8   8   8   8   8   8   8   8
#     4  10  23  45  65  84 119 160 203 255 304 352
#     4  10  21  39  60  85 115 154 195 244 298 352
#     4  12  25  41  64  90 118 156 201 248 304 365
#     4  11  23  40  64  91 121 163 208 252 306 363
#     4  11  22  39  63  93 129 164 202 248 298 357
#     4  11  22  39  63  93 130 166 206 253 304 362
#     4  10  19  36  60  88 121 154 193 242 301 363
#     4   9  18  33  56  82 116 150 187 235 293 353
#
# _framework density 20.203447000000001
#
# number of rings (size 3 to 8) (size 9 to 14) (size 15 to 20)
#    0.000    1.500    1.250    5.250    0.000    4.000 
#    0.000    3.750    0.000    0.000    0.000    0.000 
#    0.000    0.000    0.000    0.000    0.000    0.000 
#
# Total GULP energy -793861.735680 kJ/mol
# GULP energy per Si atom -12404.089620 kJ/mol
# Density = 2.015746 g / cm^3
# Si number density = 20.203447 Si / 1000 Ang^3
#
#
#
# Elastic Constant Matrix: (Units=GPa)
#
#
# Indices 1 2 3 4 5 6 
#
# 1 92.5307 59.8575 47.3824 0.0000 0.0000 0.0000
# 2 59.8575 142.0111 54.6818 0.0000 0.0000 0.0000
# 3 47.3824 54.6818 131.3791 0.0000 0.0000 0.0000
# 4 0.0000 0.0000 0.0000 31.0536 0.0000 0.0000
# 5 0.0000 0.0000 0.0000 0.0000 27.6725 0.0000
# 6 0.0000 0.0000 0.0000 0.0000 0.0000 -0.7461
#
#
#
# Elastic Compliance Matrix: (Units=1/GPa)
#
#
# Indices 1 2 3 4 5 6 
#
# 1 0.016146 -0.005434 -0.003561 0.000000 0.000000 0.000000
# 2 -0.005434 0.010215 -0.002292 0.000000 0.000000 0.000000
# 3 -0.003561 -0.002292 0.009850 0.000000 0.000000 0.000000
# 4 0.000000 0.000000 0.000000 0.032202 0.000000 0.000000
# 5 0.000000 0.000000 0.000000 0.000000 0.036137 0.000000
# 6 0.000000 0.000000 0.000000 0.000000 0.000000 -1.340386
#
#
# Mechanical properties :
#
#
# Convention : Reuss Voigt Hill
#
# Bulk Modulus (GPa) = 73.33439 76.64050 74.98745
# Shear Modulus (GPa) = -4.13662 25.19595 10.52966
#
# Velocity S-wave (km/s) = -1.43246 3.53528 2.28542
# Velocity P-wave (km/s) = 5.80007 7.39466 6.64537
#
# Compressibility (1/GPa) = 0.01363617
#
# Stress axis : x y z
#
# Youngs Moduli (GPa) = 61.93343 97.89858 101.52517
#
# Poissons Ratio (x) = 0.53202 0.36157
# Poissons Ratio (y) = 0.33657 0.23265
# Poissons Ratio (z) = 0.22057 0.22434
#
# Static dielectric constant tensor:
#      x y z
#    x 3.694820 0.000000 0.000000 
#    y 0.000000 3.837040 0.000000 
#    z 0.000000 0.000000 3.651290 
# 
# 
# High freq. dielectric constant tensor:
#      x y z
#    x 1.786810 0.000000 0.000000 
#    y 0.000000 1.798290 0.000000 
#    z 0.000000 0.000000 1.793540 
# 
# From -- ./inp_files/6538.got.cif
#   From: 2010.03.12/outbox.cif.g09.slc.cpg/sg49_4_cif.got.tgz:6538.got - 2010.04.14 03:58:27.
