data_PCOD8203315
_publ_section_title
;
Structure prediction by ZEFSAII (Michael W. Deem and Ramdas Pophale) SiO2 
 PCOD8203315
Probable space group: P C C M
;
_chemical_formula_sum "Si O2"
_cell_formula_units_Z 32
_cell_length_a 9.586759
_cell_length_b 9.314880
_cell_length_c 16.134342
_cell_angle_alpha 90.000000
_cell_angle_beta 90.000000
_cell_angle_gamma 90.000000
_cell_volume 1440.788830
_symmetry_space_group_name_H-M "P C C M"
_symmetry_group_IT_number 49
_symmetry_cell_setting 'orthorhombic'
loop_
_space_group_symop_operation_xyz
x,y,z
-x,-y,z
x,-y,1/2-z
-x,y,1/2-z
-x,-y,-z
x,y,-z
-x,y,1/2+z
x,-y,1/2+z
loop_
_atom_site_type_symbol
_atom_site_label
_atom_site_fract_x
_atom_site_fract_y
_atom_site_fract_z
Si Si1 0.306318 0.097024 0.098299
Si Si2 0.806599 0.429800 0.160369
Si Si3 0.930089 0.700773 0.905670
Si Si4 0.598715 0.790389 0.598307
O O1 0.163549 0.168796 0.130889
O O2 0.440324 0.187863 0.130186
O O3 0.314010 0.931579 0.126486
O O4 0.311909 0.104932 0.000000
O O5 0.804626 0.500000 0.250000
O O6 0.835541 0.556375 0.094462
O O7 0.661425 0.350037 0.142371
O O8 0.933659 0.315487 0.151907
O O9 0.976793 0.732504 0.000000
O O10 0.607244 0.769460 0.500000
#
# Coordination Sequence:
#
# PCOD8203315 Si02
#       4
#     8   8   8   8
#     4   8  17  33  59  89 113 137 183 239 287 335
#     4  11  22  35  51  77 115 154 190 230 276 337
#     4  10  19  35  57  82 108 144 189 237 284 333
#     4   9  17  35  59  86 115 145 181 234 289 339
#
# _framework density 22.210056000000002
#
# number of rings (size 3 to 8) (size 9 to 14) (size 15 to 20)
#    0.000    2.500    0.000    6.000    0.000    2.000 
#    0.000   12.500    0.000    9.000    0.000    0.000 
#    0.000    0.000    0.000    0.000    0.000    0.000 
#
# Total GULP energy -396657.461101 kJ/mol
# GULP energy per Si atom -12395.545659 kJ/mol
# Density = 2.215951 g / cm^3
# Si number density = 22.210056 Si / 1000 Ang^3
#
#
#
# Elastic Constant Matrix: (Units=GPa)
#
#
# Indices 1 2 3 4 5 6 
#
# 1 55.3063 24.1252 34.8883 0.0000 0.0000 0.0000
# 2 24.1252 46.6064 23.0308 0.0000 0.0000 0.0000
# 3 34.8883 23.0308 66.5956 0.0000 0.0000 0.0000
# 4 0.0000 0.0000 0.0000 15.3376 0.0000 0.0000
# 5 0.0000 0.0000 0.0000 0.0000 16.6967 0.0000
# 6 0.0000 0.0000 0.0000 0.0000 0.0000 57.9237
#
#
#
# Elastic Compliance Matrix: (Units=1/GPa)
#
#
# Indices 1 2 3 4 5 6 
#
# 1 0.030061 -0.009382 -0.012504 0.000000 0.000000 0.000000
# 2 -0.009382 0.028807 -0.005047 0.000000 0.000000 0.000000
# 3 -0.012504 -0.005047 0.023312 0.000000 0.000000 0.000000
# 4 0.000000 0.000000 0.000000 0.065199 0.000000 0.000000
# 5 0.000000 0.000000 0.000000 0.000000 0.059892 0.000000
# 6 0.000000 0.000000 0.000000 0.000000 0.000000 0.017264
#
#
# Mechanical properties :
#
#
# Convention : Reuss Voigt Hill
#
# Bulk Modulus (GPa) = 35.31837 36.95521 36.13679
# Shear Modulus (GPa) = 17.37072 23.75587 20.56329
#
# Velocity S-wave (km/s) = 2.79966 3.27402 3.04609
# Velocity P-wave (km/s) = 5.13685 5.56483 5.35512
#
# Compressibility (1/GPa) = 0.02831388
#
# Stress axis : x y z
#
# Youngs Moduli (GPa) = 33.26516 34.71391 42.89597
#
# Poissons Ratio (x) = 0.32568 0.53638
# Poissons Ratio (y) = 0.31209 0.21651
# Poissons Ratio (z) = 0.41595 0.17521
#
# Static dielectric constant tensor:
#      x y z
#    x 4.297730 0.000000 0.000000 
#    y 0.000000 4.238110 0.000000 
#    z 0.000000 0.000000 3.528610 
# 
# 
# High freq. dielectric constant tensor:
#      x y z
#    x 1.871900 0.000000 0.000000 
#    y 0.000000 1.869960 0.000000 
#    z 0.000000 0.000000 1.837600 
# 
# From -- ./inp_files/11181.got.cif
#   From: 2010.03.12/outbox.cif.g09.slc.cpg/sg49_6_cif.got.tgz:11181.got - 2010.04.14 03:58:27.
