data_PCOD8203198
_publ_section_title
;
Structure prediction by ZEFSAII (Michael W. Deem and Ramdas Pophale) SiO2 
 PCOD8203198
Probable space group: P C C M
;
_chemical_formula_sum "Si O2"
_cell_formula_units_Z 64
_cell_length_a 17.257287
_cell_length_b 12.241100
_cell_length_c 18.037227
_cell_angle_alpha 90.000000
_cell_angle_beta 90.000000
_cell_angle_gamma 90.000000
_cell_volume 3810.331302
_symmetry_space_group_name_H-M "P C C M"
_symmetry_group_IT_number 49
_symmetry_cell_setting 'orthorhombic'
loop_
_space_group_symop_operation_xyz
x,y,z
-x,-y,z
x,-y,1/2-z
-x,y,1/2-z
-x,-y,-z
x,y,-z
-x,y,1/2+z
x,-y,1/2+z
loop_
_atom_site_type_symbol
_atom_site_label
_atom_site_fract_x
_atom_site_fract_y
_atom_site_fract_z
Si Si1 0.448140 0.286989 0.325708
Si Si2 0.306085 0.125615 0.670059
Si Si3 0.410205 0.522540 0.081255
Si Si4 0.704183 0.120417 0.662210
Si Si5 0.004742 0.130398 0.666660
Si Si6 0.855445 0.877100 0.082968
Si Si7 0.156684 0.863024 0.915946
Si Si8 0.404993 0.281037 0.085249
O O1 0.500000 0.299960 0.250000
O O2 0.388030 0.187456 0.325696
O O3 0.397681 0.395217 0.348769
O O4 0.504301 0.269987 0.395619
O O5 0.271839 0.123791 0.752296
O O6 0.238344 0.178511 0.619078
O O7 0.321369 0.002772 0.640403
O O8 0.500000 0.500000 0.071546
O O9 0.372474 0.403927 0.099542
O O10 0.379010 0.564918 0.000000
O O11 0.777323 0.168391 0.618498
O O12 0.634338 0.199816 0.643067
O O13 0.929695 0.174013 0.623484
O O14 0.000000 0.174282 0.750000
O O15 0.082348 0.180501 0.629603
O O16 0.000000 0.000000 0.663966
O O17 0.850161 0.007201 0.087649
O O18 0.860580 0.834309 0.000000
O O19 0.152653 0.819663 0.000000
O O20 0.392318 0.245332 0.000000
#
# Coordination Sequence:
#
# PCOD8203198 Si02
#       8
#     8   8   8   8   8   8   8   8
#     4  11  20  34  50  72  93 123 163 202 247 295
#     4  10  21  33  46  65  96 132 164 199 238 291
#     4   8  17  33  52  71  92 114 147 202 256 295
#     4  10  19  34  46  65  96 133 162 196 241 287
#     4   9  15  24  40  63  88 120 158 199 242 282
#     4   9  16  26  43  63  87 121 163 201 234 280
#     4   9  17  28  42  62  90 124 162 202 241 282
#     4  10  20  35  52  71  93 121 159 203 250 295
#
# _framework density 16.79644
#
# number of rings (size 3 to 8) (size 9 to 14) (size 15 to 20)
#    0.000    2.500    1.250    2.625    0.000    8.750 
#    0.000    0.625    0.000    0.000    0.000    0.000 
#    0.000    1.000    0.000    8.875    0.000    6.375 
#
# Total GULP energy -792944.755019 kJ/mol
# GULP energy per Si atom -12389.761797 kJ/mol
# Density = 1.675821 g / cm^3
# Si number density = 16.796440 Si / 1000 Ang^3
#
#
#
# Elastic Constant Matrix: (Units=GPa)
#
#
# Indices 1 2 3 4 5 6 
#
# 1 83.5443 30.6213 46.0352 0.0000 0.0000 0.0000
# 2 30.6213 52.6727 31.9609 0.0000 0.0000 0.0000
# 3 46.0352 31.9609 110.3158 0.0000 0.0000 0.0000
# 4 0.0000 0.0000 0.0000 18.7352 0.0000 0.0000
# 5 0.0000 0.0000 0.0000 0.0000 30.6745 0.0000
# 6 0.0000 0.0000 0.0000 0.0000 0.0000 0.9190
#
#
#
# Elastic Compliance Matrix: (Units=1/GPa)
#
#
# Indices 1 2 3 4 5 6 
#
# 1 0.017406 -0.006930 -0.005256 0.000000 0.000000 0.000000
# 2 -0.006930 0.025794 -0.004581 0.000000 0.000000 0.000000
# 3 -0.005256 -0.004581 0.012585 0.000000 0.000000 0.000000
# 4 0.000000 0.000000 0.000000 0.053376 0.000000 0.000000
# 5 0.000000 0.000000 0.000000 0.000000 0.032600 0.000000
# 6 0.000000 0.000000 0.000000 0.000000 0.000000 1.088137
#
#
# Mechanical properties :
#
#
# Convention : Reuss Voigt Hill
#
# Bulk Modulus (GPa) = 44.94108 51.52974 48.23541
# Shear Modulus (GPa) = 3.93438 19.26009 11.59723
#
# Velocity S-wave (km/s) = 1.53215 3.38994 2.63051
# Velocity P-wave (km/s) = 5.47214 6.78732 6.16491
#
# Compressibility (1/GPa) = 0.02225135
#
# Stress axis : x y z
#
# Youngs Moduli (GPa) = 57.45242 38.76935 79.45715
#
# Poissons Ratio (x) = 0.26866 0.41761
# Poissons Ratio (y) = 0.39813 0.36401
# Poissons Ratio (z) = 0.30196 0.17761
#
# Static dielectric constant tensor:
#      x y z
#    x 3.084880 0.000000 0.000000 
#    y 0.000000 2.937480 0.000000 
#    z 0.000000 0.000000 3.359050 
# 
# 
# High freq. dielectric constant tensor:
#      x y z
#    x 1.634700 0.000000 0.000000 
#    y 0.000000 1.589010 0.000000 
#    z 0.000000 0.000000 1.665840 
# 
# From -- ./inp_files/18251.got.cif
#   From: 2010.03.12/outbox.cif.g09.slc.cpg/sg49_10_cif.got.tgz:18251.got - 2010.04.14 03:58:27.
