data_PCOD8203715
_publ_section_title
;
Structure prediction by ZEFSAII (Michael W. Deem and Ramdas Pophale) SiO2 
 PCOD8203715
Probable space group: P C C M
;
_chemical_formula_sum "Si O2"
_cell_formula_units_Z 48
_cell_length_a 14.256510
_cell_length_b 20.485325
_cell_length_c 8.440402
_cell_angle_alpha 90.000000
_cell_angle_beta 90.000000
_cell_angle_gamma 90.000000
_cell_volume 2465.012995
_symmetry_space_group_name_H-M "P C C M"
_symmetry_group_IT_number 49
_symmetry_cell_setting 'orthorhombic'
loop_
_space_group_symop_operation_xyz
x,y,z
-x,-y,z
x,-y,1/2-z
-x,y,1/2-z
-x,-y,-z
x,y,-z
-x,y,1/2+z
x,-y,1/2+z
loop_
_atom_site_type_symbol
_atom_site_label
_atom_site_fract_x
_atom_site_fract_y
_atom_site_fract_z
Si Si1 0.600207 0.388324 0.685814
Si Si2 0.209056 0.185686 0.682362
Si Si3 0.211123 0.568508 0.814534
Si Si4 0.403938 0.753981 0.185146
Si Si5 0.896643 0.309426 0.685287
Si Si6 0.899947 0.930649 0.816853
O O1 0.500000 0.412278 0.750000
O O2 0.609628 0.402482 0.500000
O O3 0.677946 0.428764 0.781201
O O4 0.614932 0.311698 0.717344
O O5 0.190592 0.169741 0.500000
O O6 0.319098 0.196436 0.716783
O O7 0.150495 0.249386 0.725526
O O8 0.178081 0.123504 0.783073
O O9 0.171026 0.500000 0.750000
O O10 0.161515 0.625476 0.717154
O O11 0.189852 0.576168 0.000000
O O12 0.500000 0.786712 0.250000
O O13 0.412663 0.736072 0.000000
O O14 0.898469 0.294058 0.500000
O O15 0.000000 0.320193 0.750000
O O16 0.000000 0.907517 0.750000
O O17 0.866376 0.000000 0.750000
O O18 0.913594 0.939956 0.000000
#
# Coordination Sequence:
#
# PCOD8203715 Si02
#       6
#     8   8   8   8   8   8
#     4  11  21  36  59  86 117 152 192 239 295 354
#     4  11  22  38  61  90 123 159 198 243 292 346
#     4  12  25  43  62  85 115 151 195 243 298 358
#     4  10  20  34  57  86 120 155 194 241 292 346
#     4  12  25  42  63  88 116 152 195 245 296 349
#     4  11  22  38  60  88 124 162 201 244 293 351
#
# _framework density 19.472512999999999
#
# number of rings (size 3 to 8) (size 9 to 14) (size 15 to 20)
#    0.000    0.833    1.667    9.000    0.000    2.667 
#    0.000    3.333    0.000    0.500    0.000    3.500 
#    0.000    0.000    0.000    0.000    0.000    0.000 
#
# Total GULP energy -595486.199677 kJ/mol
# GULP energy per Si atom -12405.962493 kJ/mol
# Density = 1.942819 g / cm^3
# Si number density = 19.472513 Si / 1000 Ang^3
#
#
#
# Elastic Constant Matrix: (Units=GPa)
#
#
# Indices 1 2 3 4 5 6 
#
# 1 86.0960 32.3283 13.4751 0.0000 0.0000 0.0000
# 2 32.3283 93.3565 4.2563 0.0000 0.0000 0.0000
# 3 13.4751 4.2563 93.5047 0.0000 0.0000 0.0000
# 4 0.0000 0.0000 0.0000 31.9277 0.0000 0.0000
# 5 0.0000 0.0000 0.0000 0.0000 33.9428 0.0000
# 6 0.0000 0.0000 0.0000 0.0000 0.0000 21.7076
#
#
#
# Elastic Compliance Matrix: (Units=1/GPa)
#
#
# Indices 1 2 3 4 5 6 
#
# 1 0.013632 -0.004641 -0.001753 0.000000 0.000000 0.000000
# 2 -0.004641 0.012314 0.000108 0.000000 0.000000 0.000000
# 3 -0.001753 0.000108 0.010942 0.000000 0.000000 0.000000
# 4 0.000000 0.000000 0.000000 0.031321 0.000000 0.000000
# 5 0.000000 0.000000 0.000000 0.000000 0.029461 0.000000
# 6 0.000000 0.000000 0.000000 0.000000 0.000000 0.046067
#
#
# Mechanical properties :
#
#
# Convention : Reuss Voigt Hill
#
# Bulk Modulus (GPa) = 41.12410 41.45298 41.28854
# Shear Modulus (GPa) = 30.41109 32.37545 31.39327
#
# Velocity S-wave (km/s) = 3.95618 4.08195 4.01956
# Velocity P-wave (km/s) = 6.48331 6.59929 6.54156
#
# Compressibility (1/GPa) = 0.02431664
#
# Stress axis : x y z
#
# Youngs Moduli (GPa) = 73.35752 81.21046 91.38768
#
# Poissons Ratio (x) = 0.37687 0.16023
# Poissons Ratio (y) = 0.34042 -0.00989
# Poissons Ratio (z) = 0.12862 -0.00879
#
# Static dielectric constant tensor:
#      x y z
#    x 3.753670 0.000000 0.000000 
#    y 0.000000 3.418110 0.000000 
#    z 0.000000 0.000000 3.705830 
# 
# 
# High freq. dielectric constant tensor:
#      x y z
#    x 1.762690 0.000000 0.000000 
#    y 0.000000 1.742520 0.000000 
#    z 0.000000 0.000000 1.779820 
# 
# From -- ./inp_files/3735.got.cif
#   From: 2010.03.12/outbox.cif.g09.slc.cpg/sg49_2_cif.got.tgz:3735.got - 2010.04.14 03:58:27.
