data_PCOD8203257
_publ_section_title
;
Structure prediction by ZEFSAII (Michael W. Deem and Ramdas Pophale) SiO2 
 PCOD8203257
Probable space group: P C C M
;
_chemical_formula_sum "Si O2"
_cell_formula_units_Z 64
_cell_length_a 23.950997
_cell_length_b 15.509136
_cell_length_c 8.710684
_cell_angle_alpha 90.000000
_cell_angle_beta 90.000000
_cell_angle_gamma 90.000000
_cell_volume 3235.664318
_symmetry_space_group_name_H-M "P C C M"
_symmetry_group_IT_number 49
_symmetry_cell_setting 'orthorhombic'
loop_
_space_group_symop_operation_xyz
x,y,z
-x,-y,z
x,-y,1/2-z
-x,y,1/2-z
-x,-y,-z
x,y,-z
-x,y,1/2+z
x,-y,1/2+z
loop_
_atom_site_type_symbol
_atom_site_label
_atom_site_fract_x
_atom_site_fract_y
_atom_site_fract_z
Si Si1 0.173759 0.910396 0.318209
Si Si2 0.943504 0.843157 0.819791
Si Si3 0.240113 0.752985 0.182159
Si Si4 0.170633 0.412699 0.318446
Si Si5 0.439585 0.909373 0.182975
Si Si6 0.560517 0.590047 0.683025
Si Si7 0.942506 0.645469 0.181680
Si Si8 0.366446 0.250592 0.318273
O O1 0.176405 0.912793 0.500000
O O2 0.110378 0.894850 0.259470
O O3 0.213419 0.835683 0.259565
O O4 0.195726 0.000000 0.250000
O O5 0.936316 0.744653 0.766013
O O6 0.000000 0.883835 0.750000
O O7 0.948786 0.849135 0.000000
O O8 0.207674 0.667746 0.237904
O O9 0.303358 0.746849 0.243314
O O10 0.237089 0.763488 0.000000
O O11 0.197692 0.500000 0.250000
O O12 0.169351 0.418211 0.500000
O O13 0.108142 0.406575 0.254554
O O14 0.500000 0.886408 0.250000
O O15 0.397013 0.835849 0.240159
O O16 0.417712 0.000000 0.250000
O O17 0.443504 0.915087 0.000000
O O18 0.583381 0.500000 0.750000
O O19 0.500000 0.611249 0.750000
O O20 0.557013 0.584629 0.500000
O O21 0.601668 0.664815 0.742083
O O22 0.000000 0.607527 0.250000
O O23 0.941766 0.634379 0.000000
O O24 0.366741 0.251442 0.500000
#
# Coordination Sequence:
#
# PCOD8203257 Si02
#       8
#     8   8   8   8   8   8   8   8
#     4  11  23  40  60  86 115 150 190 235 286 339
#     4   9  19  34  56  83 114 146 180 226 280 337
#     4  10  22  42  62  82 111 150 194 240 287 335
#     4  11  23  38  60  85 112 149 190 234 287 343
#     4  10  19  34  56  83 116 149 183 226 275 328
#     4  10  19  34  56  84 118 152 187 230 278 333
#     4  10  19  35  58  85 116 146 183 230 284 344
#     4   9  20  37  58  82 112 149 189 233 280 330
#
# _framework density 19.779554999999998
#
# number of rings (size 3 to 8) (size 9 to 14) (size 15 to 20)
#    0.000    2.000    1.250    3.000    0.000    3.500 
#    0.000    8.125    0.000    0.000    0.000    0.000 
#    0.000    0.000    0.000    0.000    0.000    0.000 
#
# Total GULP energy -793758.101597 kJ/mol
# GULP energy per Si atom -12402.470337 kJ/mol
# Density = 1.973454 g / cm^3
# Si number density = 19.779555 Si / 1000 Ang^3
#
#
#
# Elastic Constant Matrix: (Units=GPa)
#
#
# Indices 1 2 3 4 5 6 
#
# 1 148.4859 95.8463 36.9408 0.0000 0.0000 0.0000
# 2 95.8463 168.4631 44.3377 0.0000 0.0000 0.0000
# 3 36.9408 44.3377 62.4072 0.0000 0.0000 0.0000
# 4 0.0000 0.0000 0.0000 24.8750 0.0000 0.0000
# 5 0.0000 0.0000 0.0000 0.0000 24.0203 0.0000
# 6 0.0000 0.0000 0.0000 0.0000 0.0000 23.5148
#
#
#
# Elastic Compliance Matrix: (Units=1/GPa)
#
#
# Indices 1 2 3 4 5 6 
#
# 1 0.010959 -0.005569 -0.002530 0.000000 0.000000 0.000000
# 2 -0.005569 0.010131 -0.003901 0.000000 0.000000 0.000000
# 3 -0.002530 -0.003901 0.020293 0.000000 0.000000 0.000000
# 4 0.000000 0.000000 0.000000 0.040201 0.000000 0.000000
# 5 0.000000 0.000000 0.000000 0.000000 0.041631 0.000000
# 6 0.000000 0.000000 0.000000 0.000000 0.000000 0.042526
#
#
# Mechanical properties :
#
#
# Convention : Reuss Voigt Hill
#
# Bulk Modulus (GPa) = 57.53068 81.51173 69.52120
# Shear Modulus (GPa) = 25.57048 27.96412 26.76730
#
# Velocity S-wave (km/s) = 3.59942 3.76412 3.68269
# Velocity P-wave (km/s) = 6.81348 7.75829 7.30118
#
# Compressibility (1/GPa) = 0.01738203
#
# Stress axis : x y z
#
# Youngs Moduli (GPa) = 91.24967 98.70384 49.27721
#
# Poissons Ratio (x) = 0.54969 0.12469
# Poissons Ratio (y) = 0.50818 0.19225
# Poissons Ratio (z) = 0.23089 0.38508
#
# Static dielectric constant tensor:
#      x y z
#    x 3.773450 0.000000 0.000000 
#    y 0.000000 3.782460 0.000000 
#    z 0.000000 0.000000 3.449740 
# 
# 
# High freq. dielectric constant tensor:
#      x y z
#    x 1.768940 0.000000 0.000000 
#    y 0.000000 1.780890 0.000000 
#    z 0.000000 0.000000 1.763330 
# 
# From -- ./inp_files/6477.got.cif
#   From: 2010.03.12/outbox.cif.g09.slc.cpg/sg49_4_cif.got.tgz:6477.got - 2010.04.14 03:58:27.
