data_PCOD8203047
_publ_section_title
;
Structure prediction by ZEFSAII (Michael W. Deem and Ramdas Pophale) SiO2 
 PCOD8203047
Probable space group: P C C M
;
_chemical_formula_sum "Si O2"
_cell_formula_units_Z 56
_cell_length_a 5.020159
_cell_length_b 16.501319
_cell_length_c 33.588081
_cell_angle_alpha 90.000000
_cell_angle_beta 90.000000
_cell_angle_gamma 90.000000
_cell_volume 2782.411274
_symmetry_space_group_name_H-M "P C C M"
_symmetry_group_IT_number 49
_symmetry_cell_setting 'orthorhombic'
loop_
_space_group_symop_operation_xyz
x,y,z
-x,-y,z
x,-y,1/2-z
-x,y,1/2-z
-x,-y,-z
x,y,-z
-x,y,1/2+z
x,-y,1/2+z
loop_
_atom_site_type_symbol
_atom_site_label
_atom_site_fract_x
_atom_site_fract_y
_atom_site_fract_z
Si Si1 0.868747 0.235894 0.546683
Si Si2 0.381797 0.288466 0.408579
Si Si3 0.762114 0.362496 0.776419
Si Si4 0.861317 0.917110 0.094673
Si Si5 0.367710 0.135178 0.639241
Si Si6 0.746309 0.445176 0.139366
Si Si7 0.757246 0.820196 0.724000
O O1 0.848956 0.247611 0.500000
O O2 0.658977 0.297629 0.567298
O O3 0.797893 0.141998 0.557551
O O4 0.167015 0.253340 0.560733
O O5 0.450131 0.226783 0.372393
O O6 0.266314 0.370970 0.391183
O O7 0.500000 0.367643 0.750000
O O8 0.733112 0.416214 0.815378
O O9 0.837751 0.270686 0.789678
O O10 0.000000 0.398948 0.750000
O O11 0.587892 0.927209 0.120729
O O12 0.072163 0.876690 0.123572
O O13 0.000000 0.000000 0.079171
O O14 0.330503 0.124825 0.686582
O O15 0.500000 0.500000 0.129219
O O16 0.000000 0.500000 0.130643
O O17 0.500000 0.813041 0.750000
O O18 0.000000 0.858676 0.750000
#
# Coordination Sequence:
#
# PCOD8203047 Si02
#       7
#     8   8   8   8   8   8   8
#     4  10  21  38  65  89 113 148 180 228 284 342
#     4  10  21  39  58  84 114 146 198 231 274 347
#     4  10  21  35  52  78 114 150 190 240 294 340
#     4  10  21  35  58  90 120 147 178 222 284 350
#     4  10  19  36  58  79 113 155 192 232 277 333
#     4  12  24  37  57  81 115 157 194 241 293 337
#     4  10  19  32  54  80 107 145 197 248 281 317
#
# _framework density 20.126429999999999
#
# number of rings (size 3 to 8) (size 9 to 14) (size 15 to 20)
#    0.000    1.714    1.429    3.429    0.000    2.000 
#    0.000    0.000    0.000   20.143    0.000    0.000 
#    0.000    0.000    0.000    0.000    0.000    0.000 
#
# Total GULP energy -694207.558996 kJ/mol
# GULP energy per Si atom -12396.563554 kJ/mol
# Density = 2.008062 g / cm^3
# Si number density = 20.126430 Si / 1000 Ang^3
#
#
#
# Elastic Constant Matrix: (Units=GPa)
#
#
# Indices 1 2 3 4 5 6 
#
# 1 119.4068 15.0418 27.5430 0.0000 0.0000 0.0000
# 2 15.0418 70.3734 25.9696 0.0000 0.0000 0.0000
# 3 27.5430 25.9696 99.2727 0.0000 0.0000 0.0000
# 4 0.0000 0.0000 0.0000 19.5038 0.0000 0.0000
# 5 0.0000 0.0000 0.0000 0.0000 28.3814 0.0000
# 6 0.0000 0.0000 0.0000 0.0000 0.0000 37.9700
#
#
#
# Elastic Compliance Matrix: (Units=1/GPa)
#
#
# Indices 1 2 3 4 5 6 
#
# 1 0.009025 -0.001112 -0.002213 0.000000 0.000000 0.000000
# 2 -0.001112 0.015865 -0.003842 0.000000 0.000000 0.000000
# 3 -0.002213 -0.003842 0.011692 0.000000 0.000000 0.000000
# 4 0.000000 0.000000 0.000000 0.051272 0.000000 0.000000
# 5 0.000000 0.000000 0.000000 0.000000 0.035234 0.000000
# 6 0.000000 0.000000 0.000000 0.000000 0.000000 0.026337
#
#
# Mechanical properties :
#
#
# Convention : Reuss Voigt Hill
#
# Bulk Modulus (GPa) = 44.94668 47.35129 46.14899
# Shear Modulus (GPa) = 29.20959 31.87093 30.54026
#
# Velocity S-wave (km/s) = 3.81373 3.98368 3.89963
# Velocity P-wave (km/s) = 6.46323 6.68862 6.57689
#
# Compressibility (1/GPa) = 0.02224858
#
# Stress axis : x y z
#
# Youngs Moduli (GPa) = 110.79914 63.03034 85.52667
#
# Poissons Ratio (x) = 0.07012 0.18927
# Poissons Ratio (y) = 0.12326 0.32857
# Poissons Ratio (z) = 0.24520 0.24214
#
# Static dielectric constant tensor:
#      x y z
#    x 3.801630 0.000000 0.000000 
#    y 0.000000 3.573110 0.000000 
#    z 0.000000 0.000000 3.427710 
# 
# 
# High freq. dielectric constant tensor:
#      x y z
#    x 1.808160 0.000000 0.000000 
#    y 0.000000 1.765380 0.000000 
#    z 0.000000 0.000000 1.769640 
# 
# From -- ./inp_files/25815.got.cif
#   From: 2010.03.12/outbox.cif.g09.slc.cpg/sg49_13_cif.got.tgz:25815.got - 2010.04.14 03:58:27.
