data_PCOD8203920
_publ_section_title
;
Structure prediction by ZEFSAII (Michael W. Deem and Ramdas Pophale) SiO2 
 PCOD8203920
Probable space group: P C C M
;
_chemical_formula_sum "Si O2"
_cell_formula_units_Z 48
_cell_length_a 8.503537
_cell_length_b 19.033359
_cell_length_c 14.759269
_cell_angle_alpha 90.000000
_cell_angle_beta 90.000000
_cell_angle_gamma 90.000000
_cell_volume 2388.800565
_symmetry_space_group_name_H-M "P C C M"
_symmetry_group_IT_number 49
_symmetry_cell_setting 'orthorhombic'
loop_
_space_group_symop_operation_xyz
x,y,z
-x,-y,z
x,-y,1/2-z
-x,y,1/2-z
-x,-y,-z
x,y,-z
-x,y,1/2+z
x,-y,1/2+z
loop_
_atom_site_type_symbol
_atom_site_label
_atom_site_fract_x
_atom_site_fract_y
_atom_site_fract_z
Si Si1 0.683079 0.601200 0.500000
Si Si2 0.186230 0.500000 0.854244
Si Si3 0.676939 0.000000 0.606633
Si Si4 0.683079 0.398800 0.500000
Si Si5 0.180717 0.247916 0.000000
Si Si6 0.819283 0.752084 0.500000
Si Si7 0.680760 0.849011 0.648122
Si Si8 0.680761 0.849012 0.851878
O O1 0.755691 0.568764 0.591809
O O2 0.500000 0.584366 0.500000
O O3 0.710649 0.683898 0.500000
O O4 0.249653 0.500000 0.750000
O O5 0.244309 0.431236 0.908191
O O6 0.000000 0.500000 0.853650
O O7 0.686557 0.000001 0.500000
O O8 0.754920 0.927910 0.642917
O O9 0.500000 0.000000 0.644155
O O10 0.754920 0.072090 0.642917
O O11 0.710649 0.316102 0.500000
O O12 0.215367 0.202636 0.911248
O O13 0.000000 0.271301 0.000000
O O14 0.784632 0.797364 0.588752
O O15 0.689673 0.820771 0.750000
O O16 0.500000 0.849800 0.612428
#
# Coordination Sequence:
#
# PCOD8203920 Si02
#       8
#     4   8   8   4   4   4   8   8
#     4  11  23  40  64  91 121 156 198 243 281 328
#     4  10  21  40  67  97 128 158 187 225 280 343
#     4   9  15  29  57  85 111 142 187 246 299 350
#     4  11  23  40  64  91 121 156 198 243 281 328
#     4  12  25  40  57  80 119 160 195 238 293 352
#     4  12  25  40  57  80 119 160 195 238 293 352
#     4  10  20  36  59  85 112 147 195 247 297 350
#     4  10  20  36  59  85 112 147 195 247 297 350
#
# _framework density 20.093767
#
# number of rings (size 3 to 8) (size 9 to 14) (size 15 to 20)
#    0.000    1.667    1.667    5.000    0.000    5.333 
#    0.000    1.667    0.000    2.000    0.000    0.000 
#    0.000    0.000    0.000    0.000    0.000    0.000 
#
# Total GULP energy -595171.294724 kJ/mol
# GULP energy per Si atom -12399.401973 kJ/mol
# Density = 2.004803 g / cm^3
# Si number density = 20.093767 Si / 1000 Ang^3
#
#
#
# Elastic Constant Matrix: (Units=GPa)
#
#
# Indices 1 2 3 4 5 6 
#
# 1 70.7121 16.9532 30.3834 0.0000 0.0000 0.0000
# 2 16.9532 129.4202 47.8127 0.0000 0.0000 0.0000
# 3 30.3834 47.8127 144.9753 0.0000 0.0000 0.0000
# 4 0.0000 0.0000 0.0000 -193.9647 0.0000 0.0000
# 5 0.0000 0.0000 0.0000 0.0000 24.4065 0.0000
# 6 0.0000 0.0000 0.0000 0.0000 0.0000 2.1761
#
#
#
# Elastic Compliance Matrix: (Units=1/GPa)
#
#
# Indices 1 2 3 4 5 6 
#
# 1 0.015644 -0.000954 -0.002964 0.000000 0.000000 0.000000
# 2 -0.000954 0.008857 -0.002721 0.000000 0.000000 0.000000
# 3 -0.002964 -0.002721 0.008416 0.000000 0.000000 0.000000
# 4 0.000000 0.000000 0.000000 -0.005156 0.000000 0.000000
# 5 0.000000 0.000000 0.000000 0.000000 0.040973 0.000000
# 6 0.000000 0.000000 0.000000 0.000000 0.000000 0.459541
#
#
# Mechanical properties :
#
#
# Convention : Reuss Voigt Hill
#
# Bulk Modulus (GPa) = 50.91919 59.48959 55.20439
# Shear Modulus (GPa) = 9.12242 -16.81254 -3.84506
#
# Velocity S-wave (km/s) = 2.13302 -2.89572 -1.38481
# Velocity P-wave (km/s) = 5.60912 4.30000 4.99761
#
# Compressibility (1/GPa) = 0.01963896
#
# Stress axis : x y z
#
# Youngs Moduli (GPa) = 63.92160 112.90467 118.81722
#
# Poissons Ratio (x) = 0.10774 0.35216
# Poissons Ratio (y) = 0.06100 0.32331
# Poissons Ratio (z) = 0.18946 0.30722
#
# Static dielectric constant tensor:
#      x y z
#    x 3.395200 0.000000 0.000000 
#    y 0.000000 3.677660 0.000000 
#    z 0.000000 0.000000 3.751530 
# 
# 
# High freq. dielectric constant tensor:
#      x y z
#    x 1.756710 0.000000 0.000000 
#    y 0.000000 1.787700 0.000000 
#    z 0.000000 0.000000 1.794820 
# 
# From -- ./inp_files/11923.got.cif
#   From: 2010.03.12/outbox.cif.g09.slc.cpg/sg49_6_cif.got.tgz:11923.got - 2010.04.14 03:58:27.
