data_PCOD8203088
_publ_section_title
;
Structure prediction by ZEFSAII (Michael W. Deem and Ramdas Pophale) SiO2 
 PCOD8203088
Probable space group: P C C M
;
_chemical_formula_sum "Si O2"
_cell_formula_units_Z 48
_cell_length_a 14.707136
_cell_length_b 18.743251
_cell_length_c 8.724192
_cell_angle_alpha 90.000000
_cell_angle_beta 90.000000
_cell_angle_gamma 90.000000
_cell_volume 2404.906767
_symmetry_space_group_name_H-M "P C C M"
_symmetry_group_IT_number 49
_symmetry_cell_setting 'orthorhombic'
loop_
_space_group_symop_operation_xyz
x,y,z
-x,-y,z
x,-y,1/2-z
-x,y,1/2-z
-x,-y,-z
x,y,-z
-x,y,1/2+z
x,-y,1/2+z
loop_
_atom_site_type_symbol
_atom_site_label
_atom_site_fract_x
_atom_site_fract_y
_atom_site_fract_z
Si Si1 0.096097 0.921845 0.683195
Si Si2 0.241710 0.182560 0.325453
Si Si3 0.918560 0.714183 0.667905
Si Si4 0.595525 0.730812 0.182389
Si Si5 0.651222 0.572521 0.181173
Si Si6 0.149940 0.569221 0.817245
O O1 0.089778 0.923118 0.500000
O O2 0.185461 0.877716 0.734079
O O3 0.000000 0.891210 0.750000
O O4 0.111377 0.000000 0.750000
O O5 0.262189 0.156808 0.500000
O O6 0.178814 0.251155 0.326224
O O7 0.332758 0.210120 0.243638
O O8 0.956710 0.706973 0.500000
O O9 0.907910 0.636114 0.741267
O O10 0.000000 0.757274 0.750000
O O11 0.500000 0.756837 0.250000
O O12 0.609769 0.648529 0.238213
O O13 0.596894 0.734998 0.000000
O O14 0.603315 0.500000 0.250000
O O15 0.753701 0.573243 0.235488
O O16 0.644444 0.566933 0.000000
O O17 0.098586 0.500000 0.750000
O O18 0.162726 0.567997 0.000000
#
# Coordination Sequence:
#
# PCOD8203088 Si02
#       6
#     8   8   8   8   8   8
#     4  11  22  39  64  98 134 169 206 243 287 343
#     4  11  22  40  62  87 121 159 195 243 299 352
#     4  10  22  35  52  77 108 146 189 234 286 344
#     4  11  24  40  60  87 116 154 200 251 306 366
#     4  10  20  34  55  80 107 144 191 246 308 365
#     4  10  19  33  50  72 100 140 186 236 291 346
#
# _framework density 19.959194
#
# number of rings (size 3 to 8) (size 9 to 14) (size 15 to 20)
#    0.000    1.500    1.667    5.500    0.000    6.667 
#    0.000    3.333    0.000    0.500    0.000    3.500 
#    0.000    0.000    0.000    0.000    0.000    0.000 
#
# Total GULP energy -594641.441391 kJ/mol
# GULP energy per Si atom -12388.363362 kJ/mol
# Density = 1.991377 g / cm^3
# Si number density = 19.959194 Si / 1000 Ang^3
#
#
#
# Elastic Constant Matrix: (Units=GPa)
#
#
# Indices 1 2 3 4 5 6 
#
# 1 112.4585 44.2877 42.1239 0.0000 0.0000 0.0000
# 2 44.2877 102.4159 48.6801 0.0000 0.0000 0.0000
# 3 42.1239 48.6801 110.7539 0.0000 0.0000 0.0000
# 4 0.0000 0.0000 0.0000 32.6406 0.0000 0.0000
# 5 0.0000 0.0000 0.0000 0.0000 28.2259 0.0000
# 6 0.0000 0.0000 0.0000 0.0000 0.0000 39.5072
#
#
#
# Elastic Compliance Matrix: (Units=1/GPa)
#
#
# Indices 1 2 3 4 5 6 
#
# 1 0.011333 -0.003605 -0.002726 0.000000 0.000000 0.000000
# 2 -0.003605 0.013490 -0.004558 0.000000 0.000000 0.000000
# 3 -0.002726 -0.004558 0.012069 0.000000 0.000000 0.000000
# 4 0.000000 0.000000 0.000000 0.030637 0.000000 0.000000
# 5 0.000000 0.000000 0.000000 0.000000 0.035428 0.000000
# 6 0.000000 0.000000 0.000000 0.000000 0.000000 0.025312
#
#
# Mechanical properties :
#
#
# Convention : Reuss Voigt Hill
#
# Bulk Modulus (GPa) = 66.16415 66.20130 66.18273
# Shear Modulus (GPa) = 32.24055 32.77717 32.50886
#
# Velocity S-wave (km/s) = 4.02347 4.05681 4.04018
# Velocity P-wave (km/s) = 7.40311 7.42859 7.41586
#
# Compressibility (1/GPa) = 0.01511393
#
# Stress axis : x y z
#
# Youngs Moduli (GPa) = 88.23863 74.13153 82.85604
#
# Poissons Ratio (x) = 0.26725 0.22585
# Poissons Ratio (y) = 0.31811 0.37765
# Poissons Ratio (z) = 0.24052 0.33789
#
# Static dielectric constant tensor:
#      x y z
#    x 3.268820 0.000000 0.000000 
#    y 0.000000 3.873080 0.000000 
#    z 0.000000 0.000000 3.635810 
# 
# 
# High freq. dielectric constant tensor:
#      x y z
#    x 1.768130 0.000000 0.000000 
#    y 0.000000 1.775420 0.000000 
#    z 0.000000 0.000000 1.789330 
# 
# From -- ./inp_files/3741.got.cif
#   From: 2010.03.12/outbox.cif.g09.slc.cpg/sg49_2_cif.got.tgz:3741.got - 2010.04.14 03:58:27.
