data_PCOD8203401
_publ_section_title
;
Structure prediction by ZEFSAII (Michael W. Deem and Ramdas Pophale) SiO2 
 PCOD8203401
Probable space group: P C C M
;
_chemical_formula_sum "Si O2"
_cell_formula_units_Z 48
_cell_length_a 9.735117
_cell_length_b 14.188117
_cell_length_c 15.471075
_cell_angle_alpha 90.000000
_cell_angle_beta 90.000000
_cell_angle_gamma 90.000000
_cell_volume 2136.910967
_symmetry_space_group_name_H-M "P C C M"
_symmetry_group_IT_number 49
_symmetry_cell_setting 'orthorhombic'
loop_
_space_group_symop_operation_xyz
x,y,z
-x,-y,z
x,-y,1/2-z
-x,y,1/2-z
-x,-y,-z
x,y,-z
-x,y,1/2+z
x,-y,1/2+z
loop_
_atom_site_type_symbol
_atom_site_label
_atom_site_fract_x
_atom_site_fract_y
_atom_site_fract_z
Si Si1 0.383065 0.923725 0.102756
Si Si2 0.271731 0.617410 0.339657
Si Si3 0.075027 0.085946 0.656158
Si Si4 0.993376 0.286627 0.647368
Si Si5 0.524164 0.719783 0.595513
Si Si6 0.764282 0.590174 0.638122
O O1 0.239477 0.936261 0.155539
O O2 0.443392 0.823116 0.132175
O O3 0.500000 0.000000 0.128974
O O4 0.352117 0.927389 0.000000
O O5 0.419181 0.665489 0.343359
O O6 0.262672 0.517714 0.390412
O O7 0.244529 0.598939 0.240384
O O8 0.161935 0.689984 0.380986
O O9 0.044983 0.186048 0.609257
O O10 0.000000 0.089466 0.750000
O O11 0.000000 0.000000 0.605232
O O12 0.085576 0.372446 0.610678
O O13 0.000000 0.281838 0.750000
O O14 0.460003 0.728876 0.500000
O O15 0.659809 0.657643 0.589583
#
# Coordination Sequence:
#
# PCOD8203401 Si02
#       6
#     8   8   8   8   8   8
#     4  10  23  44  66  89 124 169 209 248 306 382
#     4  10  21  34  60  89 116 158 204 244 300 365
#     4  10  21  39  63  94 124 150 201 262 316 366
#     4   9  18  35  59  85 120 152 190 248 296 359
#     4  11  23  39  58  84 119 157 202 251 299 354
#     4  10  19  38  58  85 118 158 204 245 300 365
#
# _framework density 22.462330000000001
#
# number of rings (size 3 to 8) (size 9 to 14) (size 15 to 20)
#    0.000    2.000    1.667    1.500    2.333    5.000 
#    0.000    3.333    0.000    2.000    0.000    0.000 
#    0.000    0.000    0.000    0.000    0.000    0.000 
#
# Total GULP energy -594827.462907 kJ/mol
# GULP energy per Si atom -12392.238811 kJ/mol
# Density = 2.241120 g / cm^3
# Si number density = 22.462330 Si / 1000 Ang^3
#
#
#
# Elastic Constant Matrix: (Units=GPa)
#
#
# Indices 1 2 3 4 5 6 
#
# 1 142.7290 77.6457 20.0171 0.0000 0.0000 0.0000
# 2 77.6457 192.2644 13.3969 0.0000 0.0000 0.0000
# 3 20.0171 13.3969 26.2176 0.0000 0.0000 0.0000
# 4 0.0000 0.0000 0.0000 12.8811 0.0000 0.0000
# 5 0.0000 0.0000 0.0000 0.0000 11.8504 0.0000
# 6 0.0000 0.0000 0.0000 0.0000 0.0000 48.7769
#
#
#
# Elastic Compliance Matrix: (Units=1/GPa)
#
#
# Indices 1 2 3 4 5 6 
#
# 1 0.009715 -0.003532 -0.005612 0.000000 0.000000 0.000000
# 2 -0.003532 0.006678 -0.000715 0.000000 0.000000 0.000000
# 3 -0.005612 -0.000715 0.042793 0.000000 0.000000 0.000000
# 4 0.000000 0.000000 0.000000 0.077633 0.000000 0.000000
# 5 0.000000 0.000000 0.000000 0.000000 0.084386 0.000000
# 6 0.000000 0.000000 0.000000 0.000000 0.000000 0.020502
#
#
# Mechanical properties :
#
#
# Convention : Reuss Voigt Hill
#
# Bulk Modulus (GPa) = 25.33860 64.81449 45.07655
# Shear Modulus (GPa) = 18.20960 31.37844 24.79402
#
# Velocity S-wave (km/s) = 2.85032 3.74162 3.32596
# Velocity P-wave (km/s) = 4.70504 6.89809 5.90428
#
# Compressibility (1/GPa) = 0.03946548
#
# Stress axis : x y z
#
# Youngs Moduli (GPa) = 102.93352 149.75600 23.36838
#
# Poissons Ratio (x) = 0.52899 0.13115
# Poissons Ratio (y) = 0.36359 0.01671
# Poissons Ratio (z) = 0.57771 0.10711
#
# Static dielectric constant tensor:
#      x y z
#    x 4.115580 0.000000 0.000000 
#    y 0.000000 4.794860 0.000000 
#    z 0.000000 0.000000 3.556610 
# 
# 
# High freq. dielectric constant tensor:
#      x y z
#    x 1.891650 0.000000 0.000000 
#    y 0.000000 1.905370 0.000000 
#    z 0.000000 0.000000 1.841990 
# 
# From -- ./inp_files/16321.got.cif
#   From: 2010.03.12/outbox.cif.g09.slc.cpg/sg49_9_cif.got.tgz:16321.got - 2010.04.14 03:58:27.
