data_PCOD8203032
_publ_section_title
;
Structure prediction by ZEFSAII (Michael W. Deem and Ramdas Pophale) SiO2 
 PCOD8203032
Probable space group: P C C M
;
_chemical_formula_sum "Si O2"
_cell_formula_units_Z 48
_cell_length_a 14.395577
_cell_length_b 20.553016
_cell_length_c 8.833276
_cell_angle_alpha 90.000000
_cell_angle_beta 90.000000
_cell_angle_gamma 90.000000
_cell_volume 2613.523669
_symmetry_space_group_name_H-M "P C C M"
_symmetry_group_IT_number 49
_symmetry_cell_setting 'orthorhombic'
loop_
_space_group_symop_operation_xyz
x,y,z
-x,-y,z
x,-y,1/2-z
-x,y,1/2-z
-x,-y,-z
x,y,-z
-x,y,1/2+z
x,-y,1/2+z
loop_
_atom_site_type_symbol
_atom_site_label
_atom_site_fract_x
_atom_site_fract_y
_atom_site_fract_z
Si Si1 0.908757 0.261639 0.175722
Si Si2 0.600205 0.808339 0.821449
Si Si3 0.709472 0.306553 0.826095
Si Si4 0.711828 0.066764 0.321752
Si Si5 0.093666 0.121885 0.820948
Si Si6 0.401895 0.567080 0.178178
O O1 0.820259 0.308041 0.200769
O O2 0.889202 0.193487 0.256670
O O3 0.000000 0.295039 0.250000
O O4 0.927895 0.248318 0.000000
O O5 0.500000 0.800460 0.750000
O O6 0.663008 0.747124 0.779009
O O7 0.648558 0.874179 0.760334
O O8 0.589863 0.810313 0.000000
O O9 0.672365 0.377519 0.781719
O O10 0.685473 0.289589 0.000000
O O11 0.702369 0.061548 0.500000
O O12 0.818729 0.078066 0.273158
O O13 0.675110 0.000000 0.250000
O O14 0.000000 0.090896 0.750000
O O15 0.083329 0.126336 0.000000
O O16 0.365058 0.500000 0.250000
O O17 0.500000 0.587490 0.250000
O O18 0.415121 0.557802 0.000000
#
# Coordination Sequence:
#
# PCOD8203032 Si02
#       6
#     8   8   8   8   8   8
#     4  10  19  32  53  81 110 141 176 218 267 317
#     4  11  23  39  57  80 107 137 179 226 271 323
#     4  10  21  36  57  84 112 144 181 222 267 317
#     4  10  23  39  55  75 104 139 178 222 270 325
#     4  10  19  34  53  78 106 136 174 217 268 323
#     4  10  20  35  54  81 114 147 183 219 263 316
#
# _framework density 18.366008000000001
#
# number of rings (size 3 to 8) (size 9 to 14) (size 15 to 20)
#    0.000    1.833    1.667    4.000    0.000    6.667 
#    0.000    3.333    0.000    0.500    0.000    3.500 
#    0.000    0.000    0.000    0.000    0.000    0.000 
#
# Total GULP energy -595272.409048 kJ/mol
# GULP energy per Si atom -12401.508522 kJ/mol
# Density = 1.832421 g / cm^3
# Si number density = 18.366008 Si / 1000 Ang^3
#
#
#
# Elastic Constant Matrix: (Units=GPa)
#
#
# Indices 1 2 3 4 5 6 
#
# 1 113.0666 56.9551 39.8794 0.0000 0.0000 0.0000
# 2 56.9551 108.5342 37.0407 0.0000 0.0000 0.0000
# 3 39.8794 37.0407 76.6626 0.0000 0.0000 0.0000
# 4 0.0000 0.0000 0.0000 21.7478 0.0000 0.0000
# 5 0.0000 0.0000 0.0000 0.0000 27.1276 0.0000
# 6 0.0000 0.0000 0.0000 0.0000 0.0000 30.6567
#
#
#
# Elastic Compliance Matrix: (Units=1/GPa)
#
#
# Indices 1 2 3 4 5 6 
#
# 1 0.013046 -0.005425 -0.004166 0.000000 0.000000 0.000000
# 2 -0.005425 0.013288 -0.003599 0.000000 0.000000 0.000000
# 3 -0.004166 -0.003599 0.016950 0.000000 0.000000 0.000000
# 4 0.000000 0.000000 0.000000 0.045982 0.000000 0.000000
# 5 0.000000 0.000000 0.000000 0.000000 0.036863 0.000000
# 6 0.000000 0.000000 0.000000 0.000000 0.000000 0.032619
#
#
# Mechanical properties :
#
#
# Convention : Reuss Voigt Hill
#
# Bulk Modulus (GPa) = 59.14779 62.89041 61.01910
# Shear Modulus (GPa) = 26.21075 26.86562 26.53818
#
# Velocity S-wave (km/s) = 3.78184 3.82879 3.80539
# Velocity P-wave (km/s) = 7.16552 7.33917 7.25286
#
# Compressibility (1/GPa) = 0.01690680
#
# Stress axis : x y z
#
# Youngs Moduli (GPa) = 76.65157 75.25326 58.99759
#
# Poissons Ratio (x) = 0.40821 0.24576
# Poissons Ratio (y) = 0.41580 0.21232
# Poissons Ratio (z) = 0.31930 0.27082
#
# Static dielectric constant tensor:
#      x y z
#    x 3.602760 0.000000 0.000000 
#    y 0.000000 3.299650 0.000000 
#    z 0.000000 0.000000 3.433780 
# 
# 
# High freq. dielectric constant tensor:
#      x y z
#    x 1.719330 0.000000 0.000000 
#    y 0.000000 1.693650 0.000000 
#    z 0.000000 0.000000 1.721820 
# 
# From -- ./inp_files/3732.got.cif
#   From: 2010.03.12/outbox.cif.g09.slc.cpg/sg49_2_cif.got.tgz:3732.got - 2010.04.14 03:58:27.
