data_PCOD8203643
_publ_section_title
;
Structure prediction by ZEFSAII (Michael W. Deem and Ramdas Pophale) SiO2 
 PCOD8203643
Probable space group: P C C M
;
_chemical_formula_sum "Si O2"
_cell_formula_units_Z 58
_cell_length_a 23.598084
_cell_length_b 14.766814
_cell_length_c 8.951544
_cell_angle_alpha 90.000000
_cell_angle_beta 90.000000
_cell_angle_gamma 90.000000
_cell_volume 3119.331264
_symmetry_space_group_name_H-M "P C C M"
_symmetry_group_IT_number 49
_symmetry_cell_setting 'orthorhombic'
loop_
_space_group_symop_operation_xyz
x,y,z
-x,-y,z
x,-y,1/2-z
-x,y,1/2-z
-x,-y,-z
x,y,-z
-x,y,1/2+z
x,-y,1/2+z
loop_
_atom_site_type_symbol
_atom_site_label
_atom_site_fract_x
_atom_site_fract_y
_atom_site_fract_z
Si Si1 0.399903 0.906180 0.322890
Si Si2 0.000000 0.000000 0.750000
Si Si3 0.218751 0.405529 0.322985
Si Si4 0.443624 0.269268 0.322454
Si Si5 0.108650 0.085888 0.333906
Si Si6 0.270690 0.908812 0.326416
Si Si7 0.348018 0.592031 0.825442
Si Si8 0.824463 0.769262 0.176679
O O1 0.409488 0.908752 0.500000
O O2 0.437919 0.829619 0.248352
O O3 0.334772 0.885922 0.279063
O O4 0.419731 0.000000 0.250000
O O5 0.959148 0.066537 0.846041
O O6 0.199687 0.500000 0.250000
O O7 0.210281 0.410426 0.500000
O O8 0.283807 0.383867 0.277945
O O9 0.178838 0.328264 0.254216
O O10 0.500000 0.313513 0.250000
O O11 0.449484 0.263378 0.500000
O O12 0.389428 0.328152 0.272840
O O13 0.134008 0.095177 0.500000
O O14 0.120997 0.177130 0.240479
O O15 0.138021 0.000000 0.250000
O O16 0.265996 0.926767 0.500000
O O17 0.231429 0.825468 0.276665
O O18 0.248887 0.000000 0.250000
O O19 0.368858 0.500000 0.750000
O O20 0.352065 0.575850 0.000000
O O21 0.830803 0.757175 0.000000
#
# Coordination Sequence:
#
# PCOD8203643 Si02
#       8
#     8   2   8   8   8   8   8   8
#     4  10  20  36  55  74  98 132 170 210 258 312
#     4   8  22  36  58  76 116 156 202 236 276 308
#     4  10  20  36  56  79 107 140 178 221 270 324
#     4  11  23  38  54  76 101 128 166 213 263 315
#     4  10  20  34  53  78 111 151 192 233 273 314
#     4   9  19  32  48  73 105 138 171 209 257 315
#     4   9  20  37  58  80 104 135 170 211 263 324
#     4  11  21  32  50  79 112 146 183 223 269 320
#
# _framework density 18.593729
#
# number of rings (size 3 to 8) (size 9 to 14) (size 15 to 20)
#    0.414    1.655    0.000    3.517    0.000    4.966 
#    0.000    2.759    0.000    0.000    0.000    0.483 
#    0.000    3.310    0.000    0.000    0.000    0.000 
#
# Total GULP energy -719169.034035 kJ/mol
# GULP energy per Si atom -12399.466104 kJ/mol
# Density = 1.855141 g / cm^3
# Si number density = 18.593729 Si / 1000 Ang^3
#
#
#
# Elastic Constant Matrix: (Units=GPa)
#
#
# Indices 1 2 3 4 5 6 
#
# 1 64.2629 44.2162 28.7645 0.0000 0.0000 0.0000
# 2 44.2162 134.2057 53.2962 0.0000 0.0000 0.0000
# 3 28.7645 53.2962 92.6495 0.0000 0.0000 0.0000
# 4 0.0000 0.0000 0.0000 36.0722 0.0000 0.0000
# 5 0.0000 0.0000 0.0000 0.0000 21.7514 0.0000
# 6 0.0000 0.0000 0.0000 0.0000 0.0000 22.0486
#
#
#
# Elastic Compliance Matrix: (Units=1/GPa)
#
#
# Indices 1 2 3 4 5 6 
#
# 1 0.020860 -0.005574 -0.003270 0.000000 0.000000 0.000000
# 2 -0.005574 0.011147 -0.004682 0.000000 0.000000 0.000000
# 3 -0.003270 -0.004682 0.014502 0.000000 0.000000 0.000000
# 4 0.000000 0.000000 0.000000 0.027722 0.000000 0.000000
# 5 0.000000 0.000000 0.000000 0.000000 0.045974 0.000000
# 6 0.000000 0.000000 0.000000 0.000000 0.000000 0.045354
#
#
# Mechanical properties :
#
#
# Convention : Reuss Voigt Hill
#
# Bulk Modulus (GPa) = 51.39448 60.40800 55.90124
# Shear Modulus (GPa) = 25.11351 26.96386 26.03869
#
# Velocity S-wave (km/s) = 3.67910 3.81223 3.74625
# Velocity P-wave (km/s) = 6.76376 7.20669 6.98873
#
# Compressibility (1/GPa) = 0.01945734
#
# Stress axis : x y z
#
# Youngs Moduli (GPa) = 47.93868 89.71092 68.95783
#
# Poissons Ratio (x) = 0.50006 0.22548
# Poissons Ratio (y) = 0.26722 0.32283
# Poissons Ratio (z) = 0.15675 0.41999
#
# Static dielectric constant tensor:
#      x y z
#    x 3.287890 0.000000 0.000000 
#    y 0.000000 3.384170 0.000000 
#    z 0.000000 0.000000 3.369550 
# 
# 
# High freq. dielectric constant tensor:
#      x y z
#    x 1.699710 0.000000 0.000000 
#    y 0.000000 1.714410 0.000000 
#    z 0.000000 0.000000 1.730590 
# 
# From -- ./inp_files/6462.got.cif
#   From: 2010.03.12/outbox.cif.g09.slc.cpg/sg49_4_cif.got.tgz:6462.got - 2010.04.14 03:58:27.
