data_PCOD8203865
_publ_section_title
;
Structure prediction by ZEFSAII (Michael W. Deem and Ramdas Pophale) SiO2 
 PCOD8203865
Probable space group: P C C M
;
_chemical_formula_sum "Si O2"
_cell_formula_units_Z 26
_cell_length_a 5.324401
_cell_length_b 14.068034
_cell_length_c 14.636791
_cell_angle_alpha 90.000000
_cell_angle_beta 90.000000
_cell_angle_gamma 90.000000
_cell_volume 1096.352060
_symmetry_space_group_name_H-M "P C C M"
_symmetry_group_IT_number 49
_symmetry_cell_setting 'orthorhombic'
loop_
_space_group_symop_operation_xyz
x,y,z
-x,-y,z
x,-y,1/2-z
-x,y,1/2-z
-x,-y,-z
x,y,-z
-x,y,1/2+z
x,-y,1/2+z
loop_
_atom_site_type_symbol
_atom_site_label
_atom_site_fract_x
_atom_site_fract_y
_atom_site_fract_z
Si Si1 0.999556 0.607758 0.141241
Si Si2 0.324478 0.089653 0.400244
Si Si3 0.000000 0.000000 0.750000
Si Si4 0.499121 0.708187 0.142714
O O1 0.248889 0.658726 0.101936
O O2 0.000000 0.500000 0.105309
O O3 0.000000 0.610904 0.250000
O O4 0.752090 0.660942 0.102017
O O5 0.187648 0.097506 0.500000
O O6 0.497021 0.181418 0.383899
O O7 0.500000 0.000000 0.401358
O O8 0.140731 0.075268 0.314839
O O9 0.500000 0.693599 0.250000
#
# Coordination Sequence:
#
# PCOD8203865 Si02
#       4
#     8   8   2   8
#     4   9  18  33  58  93 130 171 226 282 336 399
#     4  11  26  44  66  99 138 179 227 285 347 417
#     4  12  24  44  72  96 134 184 232 288 342 418
#     4  10  20  35  62  93 129 179 221 281 341 402
#
# _framework density 23.715012000000002
#
# number of rings (size 3 to 8) (size 9 to 14) (size 15 to 20)
#    0.000    1.846    0.000    3.692   10.769    3.692 
#    0.000    0.000    0.000    5.538    0.000    0.000 
#    0.000    0.000    0.000    0.000    0.000    0.000 
#
# Total GULP energy -322286.506458 kJ/mol
# GULP energy per Si atom -12395.634864 kJ/mol
# Density = 2.366104 g / cm^3
# Si number density = 23.715012 Si / 1000 Ang^3
#
#
#
# Elastic Constant Matrix: (Units=GPa)
#
#
# Indices 1 2 3 4 5 6 
#
# 1 196.1836 107.3639 42.4260 0.0000 0.0000 0.0000
# 2 107.3639 216.1158 13.0296 0.0000 0.0000 0.0000
# 3 42.4260 13.0296 111.3983 0.0000 0.0000 0.0000
# 4 0.0000 0.0000 0.0000 -146.2965 0.0000 0.0000
# 5 0.0000 0.0000 0.0000 0.0000 5.7786 0.0000
# 6 0.0000 0.0000 0.0000 0.0000 0.0000 43.8520
#
#
#
# Elastic Compliance Matrix: (Units=1/GPa)
#
#
# Indices 1 2 3 4 5 6 
#
# 1 0.007624 -0.003638 -0.002478 0.000000 0.000000 0.000000
# 2 -0.003638 0.006396 0.000637 0.000000 0.000000 0.000000
# 3 -0.002478 0.000637 0.009846 0.000000 0.000000 0.000000
# 4 0.000000 0.000000 0.000000 -0.006835 0.000000 0.000000
# 5 0.000000 0.000000 0.000000 0.000000 0.173051 0.000000
# 6 0.000000 0.000000 0.000000 0.000000 0.000000 0.022804
#
#
# Mechanical properties :
#
#
# Convention : Reuss Voigt Hill
#
# Bulk Modulus (GPa) = 77.46733 94.37076 85.91904
# Shear Modulus (GPa) = 21.91574 4.72539 13.32056
#
# Velocity S-wave (km/s) = 3.04325 1.41312 2.37258
# Velocity P-wave (km/s) = 6.71456 6.52247 6.61921
#
# Compressibility (1/GPa) = 0.01290867
#
# Stress axis : x y z
#
# Youngs Moduli (GPa) = 131.16045 156.34409 101.56370
#
# Poissons Ratio (x) = 0.56882 0.25169
# Poissons Ratio (y) = 0.47719 -0.06475
# Poissons Ratio (z) = 0.32503 -0.09967
#
# Static dielectric constant tensor:
#      x y z
#    x 4.666270 0.000000 0.000000 
#    y 0.000000 4.291050 0.000000 
#    z 0.000000 0.000000 4.622100 
# 
# 
# High freq. dielectric constant tensor:
#      x y z
#    x 1.932820 0.000000 0.000000 
#    y 0.000000 1.951300 0.000000 
#    z 0.000000 0.000000 1.934720 
# 
# From -- ./inp_files/15032.got.cif
#   From: 2010.03.12/outbox.cif.g09.slc.cpg/sg49_8_cif.got.tgz:15032.got - 2010.04.14 03:58:27.
