data_PCOD8203900
_publ_section_title
;
Structure prediction by ZEFSAII (Michael W. Deem and Ramdas Pophale) SiO2 
 PCOD8203900
Probable space group: P C C M
;
_chemical_formula_sum "Si O2"
_cell_formula_units_Z 48
_cell_length_a 9.079520
_cell_length_b 30.601466
_cell_length_c 8.487768
_cell_angle_alpha 90.000000
_cell_angle_beta 90.000000
_cell_angle_gamma 90.000000
_cell_volume 2358.297672
_symmetry_space_group_name_H-M "P C C M"
_symmetry_group_IT_number 49
_symmetry_cell_setting 'orthorhombic'
loop_
_space_group_symop_operation_xyz
x,y,z
-x,-y,z
x,-y,1/2-z
-x,y,1/2-z
-x,-y,-z
x,y,-z
-x,y,1/2+z
x,-y,1/2+z
loop_
_atom_site_type_symbol
_atom_site_label
_atom_site_fract_x
_atom_site_fract_y
_atom_site_fract_z
Si Si1 0.338437 0.628936 0.185411
Si Si2 0.661320 0.204556 0.685561
Si Si3 0.162974 0.714532 0.812979
Si Si4 0.342876 0.952248 0.314044
Si Si5 0.162603 0.454199 0.313166
Si Si6 0.160225 0.875210 0.814446
O O1 0.500000 0.634369 0.250000
O O2 0.245134 0.670586 0.239663
O O3 0.264812 0.584737 0.252411
O O4 0.345060 0.626187 0.000000
O O5 0.500000 0.214780 0.750000
O O6 0.656770 0.196270 0.500000
O O7 0.763413 0.245303 0.724468
O O8 0.723749 0.161852 0.769727
O O9 0.000000 0.709905 0.750000
O O10 0.167071 0.722251 0.000000
O O11 0.500000 0.935250 0.250000
O O12 0.351757 0.953871 0.500000
O O13 0.212291 0.920689 0.260091
O O14 0.305435 0.000000 0.250000
O O15 0.227346 0.500000 0.250000
O O16 0.157593 0.455337 0.500000
O O17 0.000000 0.445952 0.250000
O O18 0.000000 0.862412 0.750000
O O19 0.152092 0.880288 0.000000
#
# Coordination Sequence:
#
# PCOD8203900 Si02
#       6
#     8   8   8   8   8   8
#     4  10  23  39  58  84 117 153 195 240 292 349
#     4  12  25  43  65  92 123 159 199 246 297 354
#     4  11  23  41  63  90 120 156 197 243 295 353
#     4  11  22  40  64  93 125 163 206 253 304 360
#     4  10  20  36  57  84 113 149 192 239 290 348
#     4  12  25  43  64  91 124 162 204 251 302 358
#
# _framework density 20.353663999999998
#
# number of rings (size 3 to 8) (size 9 to 14) (size 15 to 20)
#    0.000    1.000    0.000    8.500    0.000    4.667 
#    0.000    3.333    0.000    0.000    0.000    0.000 
#    0.000    0.000    0.000    0.000    0.000    0.000 
#
# Total GULP energy -595506.701525 kJ/mol
# GULP energy per Si atom -12406.389615 kJ/mol
# Density = 2.030734 g / cm^3
# Si number density = 20.353664 Si / 1000 Ang^3
#
#
#
# Elastic Constant Matrix: (Units=GPa)
#
#
# Indices 1 2 3 4 5 6 
#
# 1 124.3047 58.6230 28.9049 0.0000 0.0000 0.0000
# 2 58.6230 130.4865 38.1667 0.0000 0.0000 0.0000
# 3 28.9049 38.1667 119.1817 0.0000 0.0000 0.0000
# 4 0.0000 0.0000 0.0000 35.0243 0.0000 0.0000
# 5 0.0000 0.0000 0.0000 0.0000 33.5393 0.0000
# 6 0.0000 0.0000 0.0000 0.0000 0.0000 83.0942
#
#
#
# Elastic Compliance Matrix: (Units=1/GPa)
#
#
# Indices 1 2 3 4 5 6 
#
# 1 0.010343 -0.004317 -0.001126 0.000000 0.000000 0.000000
# 2 -0.004317 0.010258 -0.002238 0.000000 0.000000 0.000000
# 3 -0.001126 -0.002238 0.009380 0.000000 0.000000 0.000000
# 4 0.000000 0.000000 0.000000 0.028552 0.000000 0.000000
# 5 0.000000 0.000000 0.000000 0.000000 0.029816 0.000000
# 6 0.000000 0.000000 0.000000 0.000000 0.000000 0.012035
#
#
# Mechanical properties :
#
#
# Convention : Reuss Voigt Hill
#
# Bulk Modulus (GPa) = 68.40556 69.48469 68.94512
# Shear Modulus (GPa) = 41.45336 46.88342 44.16839
#
# Velocity S-wave (km/s) = 4.51783 4.80462 4.66343
# Velocity P-wave (km/s) = 7.80357 8.06176 7.93372
#
# Compressibility (1/GPa) = 0.01461870
#
# Stress axis : x y z
#
# Youngs Moduli (GPa) = 96.68750 97.48673 106.60694
#
# Poissons Ratio (x) = 0.42088 0.12002
# Poissons Ratio (y) = 0.41743 0.23858
# Poissons Ratio (z) = 0.10885 0.21817
#
# Static dielectric constant tensor:
#      x y z
#    x 3.698940 0.000000 0.000000 
#    y 0.000000 4.017630 0.000000 
#    z 0.000000 0.000000 3.816980 
# 
# 
# High freq. dielectric constant tensor:
#      x y z
#    x 1.802970 0.000000 0.000000 
#    y 0.000000 1.814140 0.000000 
#    z 0.000000 0.000000 1.809740 
# 
# From -- ./inp_files/2021.got.cif
#   From: 2010.03.12/outbox.cif.g09.slc.cpg/sg49_2_cif.got.tgz:2021.got - 2010.04.14 03:58:27.
