data_PCOD8203811
_publ_section_title
;
Structure prediction by ZEFSAII (Michael W. Deem and Ramdas Pophale) SiO2 
 PCOD8203811
Probable space group: P C C M
;
_chemical_formula_sum "Si O2"
_cell_formula_units_Z 48
_cell_length_a 14.755269
_cell_length_b 18.773057
_cell_length_c 8.614938
_cell_angle_alpha 90.000000
_cell_angle_beta 90.000000
_cell_angle_gamma 90.000000
_cell_volume 2386.350800
_symmetry_space_group_name_H-M "P C C M"
_symmetry_group_IT_number 49
_symmetry_cell_setting 'orthorhombic'
loop_
_space_group_symop_operation_xyz
x,y,z
-x,-y,z
x,-y,1/2-z
-x,y,1/2-z
-x,-y,-z
x,y,-z
-x,y,1/2+z
x,-y,1/2+z
loop_
_atom_site_type_symbol
_atom_site_label
_atom_site_fract_x
_atom_site_fract_y
_atom_site_fract_z
Si Si1 0.085311 0.294030 0.319903
Si Si2 0.403536 0.270033 0.685147
Si Si3 0.767969 0.201094 0.317590
Si Si4 0.657942 0.425919 0.182099
Si Si5 0.855259 0.430331 0.680830
Si Si6 0.095983 0.076589 0.181818
O O1 0.074887 0.308608 0.500000
O O2 0.180270 0.258599 0.285137
O O3 0.078985 0.365837 0.219323
O O4 0.000000 0.248594 0.250000
O O5 0.500000 0.245489 0.750000
O O6 0.398402 0.263993 0.500000
O O7 0.334879 0.211391 0.760215
O O8 0.387795 0.352099 0.741836
O O9 0.775428 0.217852 0.500000
O O10 0.816835 0.125990 0.278424
O O11 0.614976 0.500000 0.250000
O O12 0.762012 0.419891 0.227265
O O13 0.646895 0.431222 0.000000
O O14 0.903890 0.500000 0.750000
O O15 0.834857 0.437592 0.500000
O O16 0.000000 0.105269 0.250000
O O17 0.120643 0.000000 0.250000
O O18 0.081436 0.070266 0.000000
#
# Coordination Sequence:
#
# PCOD8203811 Si02
#       6
#     8   8   8   8   8   8
#     4  12  24  38  56  82 113 150 196 240 292 351
#     4  11  24  40  61  87 118 156 202 252 306 364
#     4  11  23  40  62  89 121 158 197 241 296 351
#     4  10  20  35  56  82 110 148 195 247 309 364
#     4  11  21  35  55  77 106 146 190 241 295 351
#     4  10  21  37  62  96 131 166 201 238 283 341
#
# _framework density 20.114394999999998
#
# number of rings (size 3 to 8) (size 9 to 14) (size 15 to 20)
#    0.000    1.167    1.667    7.000    0.000    6.667 
#    0.000    3.333    0.000    0.500    0.000    3.500 
#    0.000    0.000    0.000    0.000    0.000    0.000 
#
# Total GULP energy -594911.441363 kJ/mol
# GULP energy per Si atom -12393.988362 kJ/mol
# Density = 2.006861 g / cm^3
# Si number density = 20.114395 Si / 1000 Ang^3
#
#
#
# Elastic Constant Matrix: (Units=GPa)
#
#
# Indices 1 2 3 4 5 6 
#
# 1 120.8533 52.2876 27.6751 0.0000 0.0000 0.0000
# 2 52.2876 110.2808 48.0052 0.0000 0.0000 0.0000
# 3 27.6751 48.0052 91.6432 0.0000 0.0000 0.0000
# 4 0.0000 0.0000 0.0000 19.9802 0.0000 0.0000
# 5 0.0000 0.0000 0.0000 0.0000 27.8044 0.0000
# 6 0.0000 0.0000 0.0000 0.0000 0.0000 41.2119
#
#
#
# Elastic Compliance Matrix: (Units=1/GPa)
#
#
# Indices 1 2 3 4 5 6 
#
# 1 0.010447 -0.004637 -0.000726 0.000000 0.000000 0.000000
# 2 -0.004637 0.013805 -0.005831 0.000000 0.000000 0.000000
# 3 -0.000726 -0.005831 0.014185 0.000000 0.000000 0.000000
# 4 0.000000 0.000000 0.000000 0.050050 0.000000 0.000000
# 5 0.000000 0.000000 0.000000 0.000000 0.035966 0.000000
# 6 0.000000 0.000000 0.000000 0.000000 0.000000 0.024265
#
#
# Mechanical properties :
#
#
# Convention : Reuss Voigt Hill
#
# Bulk Modulus (GPa) = 62.30805 64.30146 63.30476
# Shear Modulus (GPa) = 28.33591 30.78659 29.56125
#
# Velocity S-wave (km/s) = 3.75739 3.91650 3.83777
# Velocity P-wave (km/s) = 7.06173 7.24495 7.15393
#
# Compressibility (1/GPa) = 0.01604929
#
# Stress axis : x y z
#
# Youngs Moduli (GPa) = 95.72077 72.43938 70.49512
#
# Poissons Ratio (x) = 0.33593 0.05116
# Poissons Ratio (y) = 0.44389 0.41104
# Poissons Ratio (z) = 0.06946 0.42238
#
# Static dielectric constant tensor:
#      x y z
#    x 3.703720 0.000000 0.000000 
#    y 0.000000 3.959060 0.000000 
#    z 0.000000 0.000000 3.620310 
# 
# 
# High freq. dielectric constant tensor:
#      x y z
#    x 1.780030 0.000000 0.000000 
#    y 0.000000 1.770560 0.000000 
#    z 0.000000 0.000000 1.799760 
# 
# From -- ./inp_files/3842.got.cif
#   From: 2010.03.12/outbox.cif.g09.slc.cpg/sg49_2_cif.got.tgz:3842.got - 2010.04.14 03:58:27.
