data_PCOD8203133
_publ_section_title
;
Structure prediction by ZEFSAII (Michael W. Deem and Ramdas Pophale) SiO2 
 PCOD8203133
Probable space group: P C C M
;
_chemical_formula_sum "Si O2"
_cell_formula_units_Z 64
_cell_length_a 20.416022
_cell_length_b 19.449014
_cell_length_c 9.233651
_cell_angle_alpha 90.000000
_cell_angle_beta 90.000000
_cell_angle_gamma 90.000000
_cell_volume 3666.419632
_symmetry_space_group_name_H-M "P C C M"
_symmetry_group_IT_number 49
_symmetry_cell_setting 'orthorhombic'
loop_
_space_group_symop_operation_xyz
x,y,z
-x,-y,z
x,-y,1/2-z
-x,y,1/2-z
-x,-y,-z
x,y,-z
-x,y,1/2+z
x,-y,1/2+z
loop_
_atom_site_type_symbol
_atom_site_label
_atom_site_fract_x
_atom_site_fract_y
_atom_site_fract_z
Si Si1 0.770521 0.568294 0.829347
Si Si2 0.619127 0.566267 0.832530
Si Si3 0.318974 0.213771 0.332086
Si Si4 0.730592 0.065751 0.167810
Si Si5 0.119401 0.066692 0.329994
Si Si6 0.189832 0.700058 0.168439
Si Si7 0.935595 0.788967 0.330269
Si Si8 0.565853 0.712539 0.171525
O O1 0.796545 0.500000 0.750000
O O2 0.694423 0.579725 0.790815
O O3 0.810237 0.632317 0.766373
O O4 0.782825 0.561824 0.000000
O O5 0.590611 0.500000 0.750000
O O6 0.578560 0.633201 0.786446
O O7 0.611705 0.549732 0.000000
O O8 0.338030 0.225047 0.500000
O O9 0.311017 0.133410 0.295490
O O10 0.251726 0.252355 0.295421
O O11 0.375296 0.241029 0.228171
O O12 0.805348 0.078434 0.216394
O O13 0.700225 0.000000 0.250000
O O14 0.727313 0.048509 0.000000
O O15 0.113100 0.054969 0.500000
O O16 0.079350 0.133358 0.279186
O O17 0.089937 0.000000 0.250000
O O18 0.124943 0.740944 0.212416
O O19 0.189862 0.679109 0.000000
O O20 0.948285 0.786300 0.500000
O O21 0.000000 0.761500 0.250000
O O22 0.500000 0.737094 0.250000
O O23 0.559650 0.722372 0.000000
#
# Coordination Sequence:
#
# PCOD8203133 Si02
#       8
#     8   8   8   8   8   8   8   8
#     4  10  19  33  53  81 110 137 173 218 265 314
#     4   9  19  33  50  74 106 140 175 213 252 303
#     4  10  19  34  57  80 104 139 178 219 267 315
#     4   9  17  31  52  79 107 136 173 216 265 315
#     4   9  17  31  49  72 104 141 179 218 257 311
#     4  10  19  34  56  79 105 140 178 220 268 315
#     4  10  21  36  52  74 107 144 182 221 266 317
#     4  11  23  38  53  77 109 142 180 220 263 313
#
# _framework density 17.455722000000002
#
# number of rings (size 3 to 8) (size 9 to 14) (size 15 to 20)
#    0.000    2.250    2.500    0.750    0.000    3.500 
#    0.000    2.500    0.000    0.750    0.000    5.250 
#    0.000    0.000    0.000    0.000    0.000    0.000 
#
# Total GULP energy -793743.675559 kJ/mol
# GULP energy per Si atom -12402.244931 kJ/mol
# Density = 1.741599 g / cm^3
# Si number density = 17.455722 Si / 1000 Ang^3
#
#
#
# Elastic Constant Matrix: (Units=GPa)
#
#
# Indices 1 2 3 4 5 6 
#
# 1 98.0557 51.5992 49.0161 0.0000 0.0000 0.0000
# 2 51.5992 115.4334 61.1338 0.0000 0.0000 0.0000
# 3 49.0161 61.1338 69.4340 0.0000 0.0000 0.0000
# 4 0.0000 0.0000 0.0000 35.9229 0.0000 0.0000
# 5 0.0000 0.0000 0.0000 0.0000 24.3354 0.0000
# 6 0.0000 0.0000 0.0000 0.0000 0.0000 17.4542
#
#
#
# Elastic Compliance Matrix: (Units=1/GPa)
#
#
# Indices 1 2 3 4 5 6 
#
# 1 0.016052 -0.002200 -0.009395 0.000000 0.000000 0.000000
# 2 -0.002200 0.016533 -0.013004 0.000000 0.000000 0.000000
# 3 -0.009395 -0.013004 0.032484 0.000000 0.000000 0.000000
# 4 0.000000 0.000000 0.000000 0.027837 0.000000 0.000000
# 5 0.000000 0.000000 0.000000 0.000000 0.041092 0.000000
# 6 0.000000 0.000000 0.000000 0.000000 0.000000 0.057293
#
#
# Mechanical properties :
#
#
# Convention : Reuss Voigt Hill
#
# Bulk Modulus (GPa) = 63.00460 67.38014 65.19237
# Shear Modulus (GPa) = 20.34335 23.62075 21.98205
#
# Velocity S-wave (km/s) = 3.41754 3.68255 3.55252
# Velocity P-wave (km/s) = 7.19340 7.53432 7.36583
#
# Compressibility (1/GPa) = 0.01587186
#
# Stress axis : x y z
#
# Youngs Moduli (GPa) = 62.29641 60.48425 30.78440
#
# Poissons Ratio (x) = 0.13305 0.28922
# Poissons Ratio (y) = 0.13704 0.40032
# Poissons Ratio (z) = 0.58528 0.78653
#
# Static dielectric constant tensor:
#      x y z
#    x 3.032080 0.000000 0.000000 
#    y 0.000000 3.344990 0.000000 
#    z 0.000000 0.000000 3.166160 
# 
# 
# High freq. dielectric constant tensor:
#      x y z
#    x 1.650890 0.000000 0.000000 
#    y 0.000000 1.677810 0.000000 
#    z 0.000000 0.000000 1.673790 
# 
# From -- ./inp_files/5258.got.cif
#   From: 2010.03.12/outbox.cif.g09.slc.cpg/sg49_3_cif.got.tgz:5258.got - 2010.04.14 03:58:27.
