data_PCOD8203842
_publ_section_title
;
Structure prediction by ZEFSAII (Michael W. Deem and Ramdas Pophale) SiO2 
 PCOD8203842
Probable space group: P C C M
;
_chemical_formula_sum "Si O2"
_cell_formula_units_Z 64
_cell_length_a 14.610463
_cell_length_b 9.373495
_cell_length_c 24.011081
_cell_angle_alpha 90.000000
_cell_angle_beta 90.000000
_cell_angle_gamma 90.000000
_cell_volume 3288.344000
_symmetry_space_group_name_H-M "P C C M"
_symmetry_group_IT_number 49
_symmetry_cell_setting 'orthorhombic'
loop_
_space_group_symop_operation_xyz
x,y,z
-x,-y,z
x,-y,1/2-z
-x,y,1/2-z
-x,-y,-z
x,y,-z
-x,y,1/2+z
x,-y,1/2+z
loop_
_atom_site_type_symbol
_atom_site_label
_atom_site_fract_x
_atom_site_fract_y
_atom_site_fract_z
Si Si1 0.183730 0.346265 0.437262
Si Si2 0.224679 0.350214 0.250715
Si Si3 0.160857 0.673174 0.564830
Si Si4 0.078594 0.855787 0.783639
Si Si5 0.984206 0.845778 0.592955
Si Si6 0.323141 0.321654 0.139467
Si Si7 0.657664 0.642281 0.647344
Si Si8 0.504418 0.169055 0.684405
O O1 0.224366 0.344593 0.500000
O O2 0.149370 0.505171 0.421705
O O3 0.096377 0.242158 0.436622
O O4 0.263277 0.298522 0.394218
O O5 0.169334 0.500000 0.250000
O O6 0.170873 0.231133 0.283901
O O7 0.249005 0.309353 0.188516
O O8 0.314590 0.371274 0.288124
O O9 0.155234 0.707787 0.500000
O O10 0.261451 0.723923 0.586282
O O11 0.077960 0.755995 0.594533
O O12 0.048189 0.885304 0.845595
O O13 0.000000 0.768845 0.750000
O O14 0.096484 0.000000 0.750000
O O15 0.000000 0.000000 0.562959
O O16 0.367078 0.479363 0.129748
O O17 0.401747 0.210712 0.154099
O O18 0.573082 0.751791 0.647600
O O19 0.500000 0.212848 0.750000
O O20 0.500000 0.000000 0.678338
#
# Coordination Sequence:
#
# PCOD8203842 Si02
#       8
#     8   8   8   8   8   8   8   8
#     4  10  22  42  65  88 116 154 203 254 299 346
#     4  10  20  35  57  87 112 148 199 246 296 353
#     4  10  23  43  64  87 116 154 204 255 297 343
#     4  11  22  37  50  78 121 163 191 235 299 351
#     4  12  23  38  59  85 119 160 203 240 293 358
#     4  10  21  37  62  87 116 152 192 242 298 352
#     4  10  20  38  60  87 118 150 191 243 297 351
#     4  11  23  37  58  90 123 155 190 232 291 360
#
# _framework density 19.462683999999999
#
# number of rings (size 3 to 8) (size 9 to 14) (size 15 to 20)
#    0.000    1.500    3.750    1.875    0.000    4.750 
#    2.250    0.625    0.000    3.750    0.000    0.000 
#    0.000    0.000    0.000    0.000    0.000    0.000 
#
# Total GULP energy -793154.482023 kJ/mol
# GULP energy per Si atom -12393.038782 kJ/mol
# Density = 1.941839 g / cm^3
# Si number density = 19.462684 Si / 1000 Ang^3
#
#
#
# Elastic Constant Matrix: (Units=GPa)
#
#
# Indices 1 2 3 4 5 6 
#
# 1 108.8511 72.2763 30.8243 0.0000 0.0000 0.0000
# 2 72.2763 108.8297 37.2129 0.0000 0.0000 0.0000
# 3 30.8243 37.2129 76.0212 0.0000 0.0000 0.0000
# 4 0.0000 0.0000 0.0000 34.1645 0.0000 0.0000
# 5 0.0000 0.0000 0.0000 0.0000 15.9515 0.0000
# 6 0.0000 0.0000 0.0000 0.0000 0.0000 26.3690
#
#
#
# Elastic Compliance Matrix: (Units=1/GPa)
#
#
# Indices 1 2 3 4 5 6 
#
# 1 0.016594 -0.010473 -0.001602 0.000000 0.000000 0.000000
# 2 -0.010473 0.017646 -0.004391 0.000000 0.000000 0.000000
# 3 -0.001602 -0.004391 0.015953 0.000000 0.000000 0.000000
# 4 0.000000 0.000000 0.000000 0.029270 0.000000 0.000000
# 5 0.000000 0.000000 0.000000 0.000000 0.062690 0.000000
# 6 0.000000 0.000000 0.000000 0.000000 0.000000 0.037923
#
#
# Mechanical properties :
#
#
# Convention : Reuss Voigt Hill
#
# Bulk Modulus (GPa) = 57.93370 63.81432 60.87401
# Shear Modulus (GPa) = 22.85582 25.52290 24.18936
#
# Velocity S-wave (km/s) = 3.43058 3.62522 3.52924
# Velocity P-wave (km/s) = 6.74708 7.09804 6.92478
#
# Compressibility (1/GPa) = 0.01726111
#
# Stress axis : x y z
#
# Youngs Moduli (GPa) = 60.26096 56.67162 62.68311
#
# Poissons Ratio (x) = 0.59352 0.10042
# Poissons Ratio (y) = 0.63111 0.27525
# Poissons Ratio (z) = 0.09653 0.24885
#
# Static dielectric constant tensor:
#      x y z
#    x 3.629470 0.000000 0.000000 
#    y 0.000000 3.610610 0.000000 
#    z 0.000000 0.000000 3.528150 
# 
# 
# High freq. dielectric constant tensor:
#      x y z
#    x 1.746870 0.000000 0.000000 
#    y 0.000000 1.756810 0.000000 
#    z 0.000000 0.000000 1.756450 
# 
# From -- ./inp_files/23221.got.cif
#   From: 2010.03.12/outbox.cif.g09.slc.cpg/sg49_12_cif.got.tgz:23221.got - 2010.04.14 03:58:27.
