data_PCOD8203788
_publ_section_title
;
Structure prediction by ZEFSAII (Michael W. Deem and Ramdas Pophale) SiO2 
 PCOD8203788
Probable space group: P C C M
;
_chemical_formula_sum "Si O2"
_cell_formula_units_Z 40
_cell_length_a 9.217523
_cell_length_b 25.748071
_cell_length_c 8.731849
_cell_angle_alpha 90.000000
_cell_angle_beta 90.000000
_cell_angle_gamma 90.000000
_cell_volume 2072.359731
_symmetry_space_group_name_H-M "P C C M"
_symmetry_group_IT_number 49
_symmetry_cell_setting 'orthorhombic'
loop_
_space_group_symop_operation_xyz
x,y,z
-x,-y,z
x,-y,1/2-z
-x,y,1/2-z
-x,-y,-z
x,y,-z
-x,y,1/2+z
x,-y,1/2+z
loop_
_atom_site_type_symbol
_atom_site_label
_atom_site_fract_x
_atom_site_fract_y
_atom_site_fract_z
Si Si1 0.652976 0.553885 0.178844
Si Si2 0.840585 0.164361 0.320502
Si Si3 0.341632 0.745027 0.818550
Si Si4 0.157922 0.652795 0.320038
Si Si5 0.157109 0.950661 0.676703
O O1 0.709634 0.500000 0.250000
O O2 0.500000 0.571019 0.250000
O O3 0.770321 0.597543 0.216050
O O4 0.629757 0.545939 0.000000
O O5 0.851029 0.177578 0.500000
O O6 0.728381 0.201616 0.237610
O O7 0.774730 0.106281 0.293860
O O8 0.000000 0.171345 0.250000
O O9 0.500000 0.738877 0.750000
O O10 0.246537 0.697221 0.763454
O O11 0.351644 0.745116 0.000000
O O12 0.152280 0.664754 0.500000
O O13 0.000000 0.651669 0.250000
O O14 0.142035 0.962413 0.500000
O O15 0.000000 0.949102 0.750000
O O16 0.245152 0.000000 0.750000
#
# Coordination Sequence:
#
# PCOD8203788 Si02
#       5
#     8   8   8   8   8
#     4  10  21  37  60  87 117 153 192 232 277 329
#     4  10  20  35  55  82 114 148 186 230 279 331
#     4  12  25  41  61  83 110 146 186 232 282 338
#     4  11  24  41  61  87 117 151 189 233 283 334
#     4   9  16  26  45  73 107 143 180 223 271 323
#
# _framework density 19.301666000000001
#
# number of rings (size 3 to 8) (size 9 to 14) (size 15 to 20)
#    0.000    1.600    0.000    6.600    0.000    7.600 
#    0.000    2.000    0.000    0.600    0.000    4.200 
#    0.000    0.000    0.000    0.000    0.000    0.000 
#
# Total GULP energy -495925.567906 kJ/mol
# GULP energy per Si atom -12398.139198 kJ/mol
# Density = 1.925773 g / cm^3
# Si number density = 19.301666 Si / 1000 Ang^3
#
#
#
# Elastic Constant Matrix: (Units=GPa)
#
#
# Indices 1 2 3 4 5 6 
#
# 1 119.2792 80.0235 66.5971 0.0000 0.0000 0.0000
# 2 80.0235 159.0773 94.7559 0.0000 0.0000 0.0000
# 3 66.5971 94.7559 169.3867 0.0000 0.0000 0.0000
# 4 0.0000 0.0000 0.0000 35.2647 0.0000 0.0000
# 5 0.0000 0.0000 0.0000 0.0000 28.8686 0.0000
# 6 0.0000 0.0000 0.0000 0.0000 0.0000 545.8662
#
#
#
# Elastic Compliance Matrix: (Units=1/GPa)
#
#
# Indices 1 2 3 4 5 6 
#
# 1 0.013184 -0.005316 -0.002210 0.000000 0.000000 0.000000
# 2 -0.005316 0.011571 -0.004383 0.000000 0.000000 0.000000
# 3 -0.002210 -0.004383 0.009224 0.000000 0.000000 0.000000
# 4 0.000000 0.000000 0.000000 0.028357 0.000000 0.000000
# 5 0.000000 0.000000 0.000000 0.000000 0.034640 0.000000
# 6 0.000000 0.000000 0.000000 0.000000 0.000000 0.001832
#
#
# Mechanical properties :
#
#
# Convention : Reuss Voigt Hill
#
# Bulk Modulus (GPa) = 98.40388 103.38848 100.89618
# Shear Modulus (GPa) = 39.67868 135.75767 87.71818
#
# Velocity S-wave (km/s) = 4.53892 8.39568 6.74867
# Velocity P-wave (km/s) = 8.86351 12.15171 10.63545
#
# Compressibility (1/GPa) = 0.01016220
#
# Stress axis : x y z
#
# Youngs Moduli (GPa) = 75.85064 86.42198 108.40955
#
# Poissons Ratio (x) = 0.45941 0.23955
# Poissons Ratio (y) = 0.40321 0.47515
# Poissons Ratio (z) = 0.16761 0.37878
#
# Static dielectric constant tensor:
#      x y z
#    x 3.314180 0.000000 0.000000 
#    y 0.000000 4.467450 0.000000 
#    z 0.000000 0.000000 3.746360 
# 
# 
# High freq. dielectric constant tensor:
#      x y z
#    x 1.721500 0.000000 0.000000 
#    y 0.000000 1.779100 0.000000 
#    z 0.000000 0.000000 1.774080 
# 
# From -- ./inp_files/1667.got.cif
#   From: 2010.03.12/outbox.cif.g09.slc.cpg/sg49_1_cif.got.tgz:1667.got - 2010.04.14 03:58:27.
