data_PCOD8203736
_publ_section_title
;
Structure prediction by ZEFSAII (Michael W. Deem and Ramdas Pophale) SiO2 
 PCOD8203736
Probable space group: P C C M
;
_chemical_formula_sum "Si O2"
_cell_formula_units_Z 52
_cell_length_a 17.692068
_cell_length_b 16.054349
_cell_length_c 9.600382
_cell_angle_alpha 90.000000
_cell_angle_beta 90.000000
_cell_angle_gamma 90.000000
_cell_volume 2726.840990
_symmetry_space_group_name_H-M "P C C M"
_symmetry_group_IT_number 49
_symmetry_cell_setting 'orthorhombic'
loop_
_space_group_symop_operation_xyz
x,y,z
-x,-y,z
x,-y,1/2-z
-x,y,1/2-z
-x,-y,-z
x,y,-z
-x,y,1/2+z
x,-y,1/2+z
loop_
_atom_site_type_symbol
_atom_site_label
_atom_site_fract_x
_atom_site_fract_y
_atom_site_fract_z
Si Si1 0.698394 0.000000 0.250000
Si Si2 0.634376 0.245529 0.336709
Si Si3 0.320257 0.425233 0.158705
Si Si4 0.219057 0.156919 0.842066
Si Si5 0.146218 0.577806 0.338992
Si Si6 0.925957 0.245923 0.335953
Si Si7 0.565794 0.109580 0.841164
O O1 0.755503 0.939543 0.167517
O O2 0.642629 0.945310 0.346924
O O3 0.622659 0.221030 0.500000
O O4 0.628102 0.344226 0.314052
O O5 0.716078 0.215906 0.280215
O O6 0.575309 0.197982 0.238513
O O7 0.353750 0.500000 0.250000
O O8 0.233738 0.405127 0.198485
O O9 0.325900 0.453856 0.000000
O O10 0.137520 0.180419 0.777457
O O11 0.209770 0.184259 0.000000
O O12 0.114682 0.500000 0.250000
O O13 0.136394 0.554409 0.500000
O O14 0.099773 0.660224 0.300663
O O15 0.942425 0.235211 0.500000
O O16 0.000000 0.223591 0.250000
O O17 0.500000 0.064163 0.750000
O O18 0.539033 0.123967 0.000000
#
# Coordination Sequence:
#
# PCOD8203736 Si02
#       7
#     4   8   8   8   8   8   8
#     4  10  21  36  61  84 106 134 172 218 263 312
#     4   9  17  33  56  78 105 145 183 218 264 315
#     4   9  16  28  49  77 106 139 180 223 268 313
#     4   9  17  34  56  75 100 137 177 217 266 322
#     4   9  17  30  49  73 103 138 178 220 267 317
#     4  10  20  35  53  73 102 142 182 221 268 320
#     4  11  23  37  56  86 117 143 172 208 257 317
#
# _framework density 19.069683999999999
#
# number of rings (size 3 to 8) (size 9 to 14) (size 15 to 20)
#    0.000    2.462    1.538    1.154    0.000    4.000 
#    0.000    5.769    0.000    2.308    0.000    3.231 
#    0.000    0.000    0.000    0.000    0.000    0.000 
#
# Total GULP energy -644385.246702 kJ/mol
# GULP energy per Si atom -12392.023975 kJ/mol
# Density = 1.902628 g / cm^3
# Si number density = 19.069684 Si / 1000 Ang^3
#
#
#
# Elastic Constant Matrix: (Units=GPa)
#
#
# Indices 1 2 3 4 5 6 
#
# 1 87.6456 47.3303 38.2187 0.0000 0.0000 0.0000
# 2 47.3303 111.4122 43.8156 0.0000 0.0000 0.0000
# 3 38.2187 43.8156 87.5970 0.0000 0.0000 0.0000
# 4 0.0000 0.0000 0.0000 19.4551 0.0000 0.0000
# 5 0.0000 0.0000 0.0000 0.0000 26.1419 0.0000
# 6 0.0000 0.0000 0.0000 0.0000 0.0000 21.2462
#
#
#
# Elastic Compliance Matrix: (Units=1/GPa)
#
#
# Indices 1 2 3 4 5 6 
#
# 1 0.016109 -0.005078 -0.004488 0.000000 0.000000 0.000000
# 2 -0.005078 0.012775 -0.004174 0.000000 0.000000 0.000000
# 3 -0.004488 -0.004174 0.015462 0.000000 0.000000 0.000000
# 4 0.000000 0.000000 0.000000 0.051400 0.000000 0.000000
# 5 0.000000 0.000000 0.000000 0.000000 0.038253 0.000000
# 6 0.000000 0.000000 0.000000 0.000000 0.000000 0.047067
#
#
# Mechanical properties :
#
#
# Convention : Reuss Voigt Hill
#
# Bulk Modulus (GPa) = 59.29685 60.59823 59.94754
# Shear Modulus (GPa) = 23.34603 23.85466 23.60034
#
# Velocity S-wave (km/s) = 3.50272 3.54067 3.52175
# Velocity P-wave (km/s) = 6.89355 6.96860 6.93118
#
# Compressibility (1/GPa) = 0.01686430
#
# Stress axis : x y z
#
# Youngs Moduli (GPa) = 62.07647 78.27993 64.67459
#
# Poissons Ratio (x) = 0.39754 0.29028
# Poissons Ratio (y) = 0.31525 0.26996
# Poissons Ratio (z) = 0.27862 0.32675
#
# Static dielectric constant tensor:
#      x y z
#    x 3.487230 0.000000 0.000000 
#    y 0.000000 3.576930 0.000000 
#    z 0.000000 0.000000 3.267790 
# 
# 
# High freq. dielectric constant tensor:
#      x y z
#    x 1.725680 0.000000 0.000000 
#    y 0.000000 1.741870 0.000000 
#    z 0.000000 0.000000 1.719880 
# 
# From -- ./inp_files/5030.got.cif
#   From: 2010.03.12/outbox.cif.g09.slc.cpg/sg49_3_cif.got.tgz:5030.got - 2010.04.14 03:58:27.
