data_PCOD8203441
_publ_section_title
;
Structure prediction by ZEFSAII (Michael W. Deem and Ramdas Pophale) SiO2 
 PCOD8203441
Probable space group: P C C M
;
_chemical_formula_sum "Si O2"
_cell_formula_units_Z 64
_cell_length_a 23.129361
_cell_length_b 17.990541
_cell_length_c 8.951736
_cell_angle_alpha 90.000000
_cell_angle_beta 90.000000
_cell_angle_gamma 90.000000
_cell_volume 3724.904337
_symmetry_space_group_name_H-M "P C C M"
_symmetry_group_IT_number 49
_symmetry_cell_setting 'orthorhombic'
loop_
_space_group_symop_operation_xyz
x,y,z
-x,-y,z
x,-y,1/2-z
-x,y,1/2-z
-x,-y,-z
x,y,-z
-x,y,1/2+z
x,-y,1/2+z
loop_
_atom_site_type_symbol
_atom_site_label
_atom_site_fract_x
_atom_site_fract_y
_atom_site_fract_z
Si Si1 0.880722 0.076054 0.176862
Si Si2 0.776183 0.134879 0.333662
Si Si3 0.060109 0.782858 0.677722
Si Si4 0.272828 0.342866 0.329445
Si Si5 0.665066 0.210420 0.325611
Si Si6 0.561064 0.272259 0.176951
Si Si7 0.170629 0.701712 0.335054
Si Si8 0.382663 0.574205 0.169270
O O1 0.812465 0.086068 0.216412
O O2 0.919118 0.141018 0.246824
O O3 0.903407 0.000000 0.250000
O O4 0.888894 0.074406 0.000000
O O5 0.783477 0.100296 0.500000
O O6 0.707700 0.140105 0.290524
O O7 0.800852 0.217571 0.334932
O O8 0.055371 0.795367 0.500000
O O9 0.104223 0.714918 0.714978
O O10 0.000000 0.758326 0.750000
O O11 0.273900 0.313659 0.500000
O O12 0.300782 0.284044 0.218962
O O13 0.206045 0.353628 0.276315
O O14 0.312744 0.416414 0.315694
O O15 0.650184 0.213743 0.500000
O O16 0.605367 0.207899 0.232558
O O17 0.500000 0.255372 0.250000
O O18 0.584206 0.352963 0.231964
O O19 0.556628 0.268078 0.000000
O O20 0.173050 0.666074 0.500000
O O21 0.403693 0.500000 0.250000
O O22 0.401311 0.563561 0.000000
#
# Coordination Sequence:
#
# PCOD8203441 Si02
#       8
#     8   8   8   8   8   8   8   8
#     4  11  21  32  46  63  86 117 150 182 216 251
#     4   8  15  28  44  63  85 107 136 174 215 258
#     4  10  20  33  46  63  87 114 148 182 213 252
#     4   9  16  26  41  62  84 105 136 175 214 256
#     4   9  16  27  44  63  83 108 136 171 217 259
#     4  10  20  32  44  61  85 113 148 183 215 253
#     4   8  15  27  43  62  83 107 135 171 214 257
#     4   9  19  31  42  59  83 113 147 182 214 250
#
# _framework density 17.181649
#
# number of rings (size 3 to 8) (size 9 to 14) (size 15 to 20)
#    0.000    2.750    0.000    4.875    0.000    9.000 
#    0.000    2.500    0.000    0.000    0.000    0.000 
#    0.000    1.000    0.000   10.750    0.000    6.750 
#
# Total GULP energy -792931.077837 kJ/mol
# GULP energy per Si atom -12389.548091 kJ/mol
# Density = 1.714254 g / cm^3
# Si number density = 17.181649 Si / 1000 Ang^3
#
#
#
# Elastic Constant Matrix: (Units=GPa)
#
#
# Indices 1 2 3 4 5 6 
#
# 1 119.4699 7.3601 38.9630 0.0000 0.0000 0.0000
# 2 7.3601 2.2903 4.0997 0.0000 0.0000 0.0000
# 3 38.9630 4.0997 79.5255 0.0000 0.0000 0.0000
# 4 0.0000 0.0000 0.0000 19.5952 0.0000 0.0000
# 5 0.0000 0.0000 0.0000 0.0000 27.4860 0.0000
# 6 0.0000 0.0000 0.0000 0.0000 0.0000 14.5641
#
#
#
# Elastic Compliance Matrix: (Units=1/GPa)
#
#
# Indices 1 2 3 4 5 6 
#
# 1 0.011547 -0.029722 -0.004125 0.000000 0.000000 0.000000
# 2 -0.029722 0.557513 -0.014179 0.000000 0.000000 0.000000
# 3 -0.004125 -0.014179 0.015327 0.000000 0.000000 0.000000
# 4 0.000000 0.000000 0.000000 0.051033 0.000000 0.000000
# 5 0.000000 0.000000 0.000000 0.000000 0.036382 0.000000
# 6 0.000000 0.000000 0.000000 0.000000 0.000000 0.068662
#
#
# Mechanical properties :
#
#
# Convention : Reuss Voigt Hill
#
# Bulk Modulus (GPa) = 2.04778 33.57016 17.80897
# Shear Modulus (GPa) = 5.00354 22.38660 13.69507
#
# Velocity S-wave (km/s) = 1.70835 3.61354 2.82632
# Velocity P-wave (km/s) = 2.25515 6.08202 4.58676
#
# Compressibility (1/GPa) = 0.48833378
#
# Stress axis : x y z
#
# Youngs Moduli (GPa) = 86.60491 1.79368 65.24631
#
# Poissons Ratio (x) = 0.05331 0.26914
# Poissons Ratio (y) = 2.57410 0.92511
# Poissons Ratio (z) = 0.35724 0.02543
#
# Static dielectric constant tensor:
#      x y z
#    x 3.725920 0.000000 0.000000 
#    y 0.000000 2.831990 0.000000 
#    z 0.000000 0.000000 3.294420 
# 
# 
# High freq. dielectric constant tensor:
#      x y z
#    x 1.666010 0.000000 0.000000 
#    y 0.000000 1.596670 0.000000 
#    z 0.000000 0.000000 1.673230 
# 
# From -- ./inp_files/5420.got.cif
#   From: 2010.03.12/outbox.cif.g09.slc.cpg/sg49_3_cif.got.tgz:5420.got - 2010.04.14 03:58:27.
