data_PCOD8203679
_publ_section_title
;
Structure prediction by ZEFSAII (Michael W. Deem and Ramdas Pophale) SiO2 
 PCOD8203679
Probable space group: P C C M
;
_chemical_formula_sum "Si O2"
_cell_formula_units_Z 40
_cell_length_a 9.231052
_cell_length_b 25.558391
_cell_length_c 8.748582
_cell_angle_alpha 90.000000
_cell_angle_beta 90.000000
_cell_angle_gamma 90.000000
_cell_volume 2064.060268
_symmetry_space_group_name_H-M "P C C M"
_symmetry_group_IT_number 49
_symmetry_cell_setting 'orthorhombic'
loop_
_space_group_symop_operation_xyz
x,y,z
-x,-y,z
x,-y,1/2-z
-x,y,1/2-z
-x,-y,-z
x,y,-z
-x,y,1/2+z
x,-y,1/2+z
loop_
_atom_site_type_symbol
_atom_site_label
_atom_site_fract_x
_atom_site_fract_y
_atom_site_fract_z
Si Si1 0.151921 0.943511 0.317978
Si Si2 0.845462 0.245147 0.177493
Si Si3 0.657060 0.549761 0.822955
Si Si4 0.657973 0.665407 0.821525
Si Si5 0.654753 0.143858 0.178939
O O1 0.140548 0.946689 0.500000
O O2 0.278998 0.905124 0.268078
O O3 0.000000 0.922757 0.250000
O O4 0.189193 0.000000 0.250000
O O5 0.772952 0.295532 0.251314
O O6 0.749906 0.194585 0.210663
O O7 0.000000 0.234349 0.250000
O O8 0.864687 0.256229 0.000000
O O9 0.744927 0.500000 0.750000
O O10 0.500000 0.550861 0.750000
O O11 0.724221 0.607138 0.790770
O O12 0.643446 0.538646 0.000000
O O13 0.500000 0.673529 0.750000
O O14 0.640785 0.676460 0.000000
O O15 0.500000 0.156111 0.250000
O O16 0.643091 0.130711 0.000000
#
# Coordination Sequence:
#
# PCOD8203679 Si02
#       5
#     8   8   8   8   8
#     4  11  22  39  63  90 121 157 195 235 279 331
#     4  11  24  40  60  83 111 147 187 231 281 337
#     4   9  16  26  44  72 105 141 178 222 271 324
#     4  10  20  34  54  81 113 146 185 230 279 331
#     4  11  24  41  61  88 118 150 189 234 283 334
#
# _framework density 19.379277999999999
#
# number of rings (size 3 to 8) (size 9 to 14) (size 15 to 20)
#    0.000    1.600    0.000    6.600    0.000    9.200 
#    0.000    2.000    0.000    0.600    0.000    4.200 
#    0.000    0.000    0.000    0.000    0.000    0.000 
#
# Total GULP energy -495960.727576 kJ/mol
# GULP energy per Si atom -12399.018189 kJ/mol
# Density = 1.933517 g / cm^3
# Si number density = 19.379278 Si / 1000 Ang^3
#
#
#
# Elastic Constant Matrix: (Units=GPa)
#
#
# Indices 1 2 3 4 5 6 
#
# 1 107.9487 58.4151 68.9700 0.0000 0.0000 0.0000
# 2 58.4151 123.4181 85.3173 0.0000 0.0000 0.0000
# 3 68.9700 85.3173 163.5600 0.0000 0.0000 0.0000
# 4 0.0000 0.0000 0.0000 33.6991 0.0000 0.0000
# 5 0.0000 0.0000 0.0000 0.0000 31.9917 0.0000
# 6 0.0000 0.0000 0.0000 0.0000 0.0000 3.0708
#
#
#
# Elastic Compliance Matrix: (Units=1/GPa)
#
#
# Indices 1 2 3 4 5 6 
#
# 1 0.013796 -0.003923 -0.003771 0.000000 0.000000 0.000000
# 2 -0.003923 0.013787 -0.005538 0.000000 0.000000 0.000000
# 3 -0.003771 -0.005538 0.010593 0.000000 0.000000 0.000000
# 4 0.000000 0.000000 0.000000 0.029674 0.000000 0.000000
# 5 0.000000 0.000000 0.000000 0.000000 0.031258 0.000000
# 6 0.000000 0.000000 0.000000 0.000000 0.000000 0.325646
#
#
# Mechanical properties :
#
#
# Convention : Reuss Voigt Hill
#
# Bulk Modulus (GPa) = 85.37738 91.14795 88.26266
# Shear Modulus (GPa) = 10.98606 25.90062 18.44334
#
# Velocity S-wave (km/s) = 2.38354 3.65980 3.08832
# Velocity P-wave (km/s) = 7.19213 8.06193 7.63942
#
# Compressibility (1/GPa) = 0.01171270
#
# Stress axis : x y z
#
# Youngs Moduli (GPa) = 72.48524 72.53020 94.40327
#
# Poissons Ratio (x) = 0.28452 0.35602
# Poissons Ratio (y) = 0.28434 0.52278
# Poissons Ratio (z) = 0.27336 0.40165
#
# Static dielectric constant tensor:
#      x y z
#    x 3.281250 0.000000 0.000000 
#    y 0.000000 4.341010 0.000000 
#    z 0.000000 0.000000 3.734460 
# 
# 
# High freq. dielectric constant tensor:
#      x y z
#    x 1.725370 0.000000 0.000000 
#    y 0.000000 1.778740 0.000000 
#    z 0.000000 0.000000 1.776690 
# 
# From -- ./inp_files/1674.got.cif
#   From: 2010.03.12/outbox.cif.g09.slc.cpg/sg49_1_cif.got.tgz:1674.got - 2010.04.14 03:58:27.
