data_PCOD8203058
_publ_section_title
;
Structure prediction by ZEFSAII (Michael W. Deem and Ramdas Pophale) SiO2 
 PCOD8203058
Probable space group: P C C M
;
_chemical_formula_sum "Si O2"
_cell_formula_units_Z 40
_cell_length_a 9.192680
_cell_length_b 14.770286
_cell_length_c 14.969496
_cell_angle_alpha 90.000000
_cell_angle_beta 90.000000
_cell_angle_gamma 90.000000
_cell_volume 2032.535903
_symmetry_space_group_name_H-M "P C C M"
_symmetry_group_IT_number 49
_symmetry_cell_setting 'orthorhombic'
loop_
_space_group_symop_operation_xyz
x,y,z
-x,-y,z
x,-y,1/2-z
-x,y,1/2-z
-x,-y,-z
x,y,-z
-x,y,1/2+z
x,-y,1/2+z
loop_
_atom_site_type_symbol
_atom_site_label
_atom_site_fract_x
_atom_site_fract_y
_atom_site_fract_z
Si Si1 0.620865 0.754873 0.100904
Si Si2 0.923672 0.404704 0.500000
Si Si3 0.414538 0.407679 0.000000
Si Si4 0.065303 0.730739 0.342782
Si Si5 0.584452 0.088022 0.893590
Si Si6 0.910570 0.085140 0.105428
O O1 0.761783 0.750243 0.164244
O O2 0.502508 0.823497 0.141805
O O3 0.673089 0.786119 0.000000
O O4 0.549400 0.654043 0.088282
O O5 0.755076 0.428697 0.500000
O O6 0.970064 0.347074 0.413862
O O7 0.000000 0.500000 0.500000
O O8 0.500000 0.500000 0.000000
O O9 0.000000 0.695046 0.250000
O O10 0.988854 0.823600 0.368112
O O11 0.747291 0.086360 0.854101
O O12 0.500000 0.000000 0.858385
O O13 0.589292 0.091015 0.000000
O O14 0.901160 0.075328 0.000000
O O15 0.000000 0.000000 0.145508
#
# Coordination Sequence:
#
# PCOD8203058 Si02
#       6
#     8   4   4   8   8   8
#     4   8  16  32  52  78 114 145 188 231 282 343
#     4  10  22  40  61  86 115 144 191 244 298 352
#     4   8  16  30  53  80 105 142 177 226 288 346
#     4  11  21  37  59  84 117 154 191 239 294 347
#     4   9  16  27  49  78 107 149 195 237 284 332
#     4  10  19  32  54  83 117 155 198 242 285 344
#
# _framework density 19.679849000000001
#
# number of rings (size 3 to 8) (size 9 to 14) (size 15 to 20)
#    0.600    2.000    2.000    1.200    0.000    5.600 
#    0.000    1.000    0.000    1.200    0.000    1.400 
#    0.000    0.000    0.000    0.000    0.000    0.000 
#
# Total GULP energy -495711.795537 kJ/mol
# GULP energy per Si atom -12392.794888 kJ/mol
# Density = 1.963506 g / cm^3
# Si number density = 19.679849 Si / 1000 Ang^3
#
#
#
# Elastic Constant Matrix: (Units=GPa)
#
#
# Indices 1 2 3 4 5 6 
#
# 1 141.6758 104.6783 48.3783 0.0000 0.0000 0.0000
# 2 104.6783 205.3304 36.4279 0.0000 0.0000 0.0000
# 3 48.3783 36.4279 48.7837 0.0000 0.0000 0.0000
# 4 0.0000 0.0000 0.0000 -11.6611 0.0000 0.0000
# 5 0.0000 0.0000 0.0000 0.0000 15.6304 0.0000
# 6 0.0000 0.0000 0.0000 0.0000 0.0000 45.7565
#
#
#
# Elastic Compliance Matrix: (Units=1/GPa)
#
#
# Indices 1 2 3 4 5 6 
#
# 1 0.014855 -0.005717 -0.010463 0.000000 0.000000 0.000000
# 2 -0.005717 0.007814 -0.000165 0.000000 0.000000 0.000000
# 3 -0.010463 -0.000165 0.030998 0.000000 0.000000 0.000000
# 4 0.000000 0.000000 0.000000 -0.085755 0.000000 0.000000
# 5 0.000000 0.000000 0.000000 0.000000 0.063978 0.000000
# 6 0.000000 0.000000 0.000000 0.000000 0.000000 0.021855
#
#
# Mechanical properties :
#
#
# Convention : Reuss Voigt Hill
#
# Bulk Modulus (GPa) = 47.67155 86.08431 66.87793
# Shear Modulus (GPa) = 53.51753 23.69885 38.60819
#
# Velocity S-wave (km/s) = 5.22045 3.47395 4.43404
# Velocity P-wave (km/s) = 7.78547 7.74135 7.76344
#
# Compressibility (1/GPa) = 0.02097687
#
# Stress axis : x y z
#
# Youngs Moduli (GPa) = 67.31669 127.97346 32.26024
#
# Poissons Ratio (x) = 0.73163 0.33753
# Poissons Ratio (y) = 0.38485 0.00534
# Poissons Ratio (z) = 0.70431 0.02117
#
# Static dielectric constant tensor:
#      x y z
#    x 3.700580 0.000000 0.000000 
#    y 0.000000 3.602200 0.000000 
#    z 0.000000 0.000000 3.324990 
# 
# 
# High freq. dielectric constant tensor:
#      x y z
#    x 1.771810 0.000000 0.000000 
#    y 0.000000 1.766450 0.000000 
#    z 0.000000 0.000000 1.729320 
# 
# From -- ./inp_files/16173.got.cif
#   From: 2010.03.12/outbox.cif.g09.slc.cpg/sg49_9_cif.got.tgz:16173.got - 2010.04.14 03:58:27.
