data_PCOD8203424
_publ_section_title
;
Structure prediction by ZEFSAII (Michael W. Deem and Ramdas Pophale) SiO2 
 PCOD8203424
Probable space group: P C C M
;
_chemical_formula_sum "Si O2"
_cell_formula_units_Z 38
_cell_length_a 6.405356
_cell_length_b 11.308719
_cell_length_c 29.252278
_cell_angle_alpha 90.000000
_cell_angle_beta 90.000000
_cell_angle_gamma 90.000000
_cell_volume 2118.928865
_symmetry_space_group_name_H-M "P C C M"
_symmetry_group_IT_number 49
_symmetry_cell_setting 'orthorhombic'
loop_
_space_group_symop_operation_xyz
x,y,z
-x,-y,z
x,-y,1/2-z
-x,y,1/2-z
-x,-y,-z
x,y,-z
-x,y,1/2+z
x,-y,1/2+z
loop_
_atom_site_type_symbol
_atom_site_label
_atom_site_fract_x
_atom_site_fract_y
_atom_site_fract_z
Si Si1 0.470050 0.863866 0.053081
Si Si2 0.500000 0.500000 0.750000
Si Si3 0.877501 0.618773 0.706423
Si Si4 0.202447 0.695811 0.888018
Si Si5 0.815787 0.681388 0.949833
Si Si6 0.500000 0.500000 0.081522
O O1 0.294173 0.812419 0.087385
O O2 0.691135 0.801149 0.062458
O O3 0.500000 0.000000 0.065180
O O4 0.400742 0.845394 0.000000
O O5 0.641799 0.585348 0.719228
O O6 0.865399 0.714024 0.664984
O O7 0.000000 0.500000 0.690801
O O8 0.000000 0.675390 0.750000
O O9 0.370696 0.590213 0.886981
O O10 0.996022 0.655596 0.914189
O O11 0.655049 0.572530 0.950838
O O12 0.916732 0.692220 0.000000
#
# Coordination Sequence:
#
# PCOD8203424 Si02
#       6
#     8   2   8   8   8   4
#     4   9  20  37  53  73 100 133 179 223 254 297
#     4   8  16  32  52  68 100 140 162 202 254 292
#     4   9  18  30  47  74 102 129 164 202 247 309
#     4  11  20  32  51  75 103 136 169 206 254 303
#     4  10  20  32  49  73 102 135 166 203 252 301
#     4  10  20  30  46  72 106 138 168 198 234 304
#
# _framework density 17.933589000000001
#
# number of rings (size 3 to 8) (size 9 to 14) (size 15 to 20)
#    0.000    2.526    0.000    3.474    0.000    9.263 
#    0.000    3.158    0.000    0.000    0.000   11.053 
#    0.000    0.000    0.000    0.000    0.000    0.000 
#
# Total GULP energy -471043.948062 kJ/mol
# GULP energy per Si atom -12395.893370 kJ/mol
# Density = 1.789277 g / cm^3
# Si number density = 17.933589 Si / 1000 Ang^3
#
#
#
# Elastic Constant Matrix: (Units=GPa)
#
#
# Indices 1 2 3 4 5 6 
#
# 1 108.8836 33.8660 58.5038 0.0000 0.0000 0.0000
# 2 33.8660 95.6562 40.7245 0.0000 0.0000 0.0000
# 3 58.5038 40.7245 146.1332 0.0000 0.0000 0.0000
# 4 0.0000 0.0000 0.0000 20.0572 0.0000 0.0000
# 5 0.0000 0.0000 0.0000 0.0000 20.4401 0.0000
# 6 0.0000 0.0000 0.0000 0.0000 0.0000 12.7298
#
#
#
# Elastic Compliance Matrix: (Units=1/GPa)
#
#
# Indices 1 2 3 4 5 6 
#
# 1 0.012224 -0.002546 -0.004184 0.000000 0.000000 0.000000
# 2 -0.002546 0.012392 -0.002434 0.000000 0.000000 0.000000
# 3 -0.004184 -0.002434 0.009197 0.000000 0.000000 0.000000
# 4 0.000000 0.000000 0.000000 0.049857 0.000000 0.000000
# 5 0.000000 0.000000 0.000000 0.000000 0.048924 0.000000
# 6 0.000000 0.000000 0.000000 0.000000 0.000000 0.078556
#
#
# Mechanical properties :
#
#
# Convention : Reuss Voigt Hill
#
# Bulk Modulus (GPa) = 64.58541 68.54018 66.56280
# Shear Modulus (GPa) = 21.30923 25.15066 23.22994
#
# Velocity S-wave (km/s) = 3.45081 3.74897 3.60298
# Velocity P-wave (km/s) = 7.20897 7.55259 7.38278
#
# Compressibility (1/GPa) = 0.01548337
#
# Stress axis : x y z
#
# Youngs Moduli (GPa) = 81.80345 80.69806 108.73664
#
# Poissons Ratio (x) = 0.20550 0.45499
# Poissons Ratio (y) = 0.20831 0.26465
# Poissons Ratio (z) = 0.34229 0.19641
#
# Static dielectric constant tensor:
#      x y z
#    x 3.429950 0.000000 0.000000 
#    y 0.000000 3.037570 0.000000 
#    z 0.000000 0.000000 3.262450 
# 
# 
# High freq. dielectric constant tensor:
#      x y z
#    x 1.707490 0.000000 0.000000 
#    y 0.000000 1.652040 0.000000 
#    z 0.000000 0.000000 1.689300 
# 
# From -- ./inp_files/24692.got.cif
#   From: 2010.03.12/outbox.cif.g09.slc.cpg/sg49_13_cif.got.tgz:24692.got - 2010.04.14 03:58:27.
