data_PCOD8203283
_publ_section_title
;
Structure prediction by ZEFSAII (Michael W. Deem and Ramdas Pophale) SiO2 
 PCOD8203283
Probable space group: P C C M
;
_chemical_formula_sum "Si O2"
_cell_formula_units_Z 60
_cell_length_a 15.898420
_cell_length_b 21.551767
_cell_length_c 9.079862
_cell_angle_alpha 90.000000
_cell_angle_beta 90.000000
_cell_angle_gamma 90.000000
_cell_volume 3111.115231
_symmetry_space_group_name_H-M "P C C M"
_symmetry_group_IT_number 49
_symmetry_cell_setting 'orthorhombic'
loop_
_space_group_symop_operation_xyz
x,y,z
-x,-y,z
x,-y,1/2-z
-x,y,1/2-z
-x,-y,-z
x,y,-z
-x,y,1/2+z
x,-y,1/2+z
loop_
_atom_site_type_symbol
_atom_site_label
_atom_site_fract_x
_atom_site_fract_y
_atom_site_fract_z
Si Si1 0.585606 0.147672 0.327983
Si Si2 0.000000 0.648107 0.750000
Si Si3 0.856559 0.562405 0.165748
Si Si4 0.585237 0.290466 0.326601
Si Si5 0.915975 0.129696 0.673507
Si Si6 0.743293 0.934635 0.174420
Si Si7 0.119624 0.748996 0.839679
Si Si8 0.739885 0.655578 0.672954
O O1 0.500000 0.124276 0.250000
O O2 0.570872 0.138064 0.500000
O O3 0.604945 0.218844 0.288493
O O4 0.666662 0.109106 0.272938
O O5 0.061097 0.605409 0.653139
O O6 0.054085 0.692479 0.855730
O O7 0.881266 0.500000 0.250000
O O8 0.783265 0.595617 0.257050
O O9 0.825767 0.548062 0.000000
O O10 0.500000 0.311155 0.250000
O O11 0.579990 0.301404 0.500000
O O12 0.653031 0.335809 0.256488
O O13 0.928352 0.125238 0.500000
O O14 0.832875 0.093315 0.726704
O O15 0.906355 0.201832 0.715973
O O16 0.000000 0.101606 0.750000
O O17 0.729551 0.000000 0.250000
O O18 0.742773 0.942611 0.000000
O O19 0.208608 0.718901 0.796981
O O20 0.123748 0.782040 0.000000
O O21 0.726671 0.643984 0.500000
#
# Coordination Sequence:
#
# PCOD8203283 Si02
#       8
#     8   4   8   8   8   8   8   8
#     4   9  19  36  58  86 117 147 181 223 280 344
#     4  10  21  34  56  84 113 144 188 228 278 334
#     4  11  23  38  56  79 112 154 195 236 279 326
#     4  10  19  34  58  87 118 149 182 225 279 336
#     4  11  23  38  57  80 109 144 186 237 289 340
#     4  10  23  41  58  79 108 146 190 234 281 338
#     4  10  20  34  54  82 113 144 182 228 280 337
#     4  10  21  36  55  82 114 148 189 233 278 333
#
# _framework density 19.285688
#
# number of rings (size 3 to 8) (size 9 to 14) (size 15 to 20)
#    0.000    1.867    0.667    3.000    0.000    8.533 
#    0.000    2.667    0.000    0.400    0.000    2.800 
#    0.000    0.000    0.000    0.000    0.000    0.000 
#
# Total GULP energy -744023.685515 kJ/mol
# GULP energy per Si atom -12400.394759 kJ/mol
# Density = 1.924179 g / cm^3
# Si number density = 19.285688 Si / 1000 Ang^3
#
#
#
# Elastic Constant Matrix: (Units=GPa)
#
#
# Indices 1 2 3 4 5 6 
#
# 1 137.2172 37.7763 42.8762 0.0000 0.0000 0.0000
# 2 37.7763 62.3301 23.9255 0.0000 0.0000 0.0000
# 3 42.8762 23.9255 89.6223 0.0000 0.0000 0.0000
# 4 0.0000 0.0000 0.0000 28.4139 0.0000 0.0000
# 5 0.0000 0.0000 0.0000 0.0000 30.4918 0.0000
# 6 0.0000 0.0000 0.0000 0.0000 0.0000 22.4090
#
#
#
# Elastic Compliance Matrix: (Units=1/GPa)
#
#
# Indices 1 2 3 4 5 6 
#
# 1 0.009587 -0.004512 -0.003382 0.000000 0.000000 0.000000
# 2 -0.004512 0.019999 -0.003180 0.000000 0.000000 0.000000
# 3 -0.003382 -0.003180 0.013625 0.000000 0.000000 0.000000
# 4 0.000000 0.000000 0.000000 0.035194 0.000000 0.000000
# 5 0.000000 0.000000 0.000000 0.000000 0.032796 0.000000
# 6 0.000000 0.000000 0.000000 0.000000 0.000000 0.044625
#
#
# Mechanical properties :
#
#
# Convention : Reuss Voigt Hill
#
# Bulk Modulus (GPa) = 47.47855 55.36951 51.42403
# Shear Modulus (GPa) = 27.02789 28.56905 27.79847
#
# Velocity S-wave (km/s) = 3.74765 3.85302 3.80070
# Velocity P-wave (km/s) = 6.58776 6.96899 6.78105
#
# Compressibility (1/GPa) = 0.02106214
#
# Stress axis : x y z
#
# Youngs Moduli (GPa) = 104.31230 50.00252 73.39530
#
# Poissons Ratio (x) = 0.22561 0.24821
# Poissons Ratio (y) = 0.47066 0.23342
# Poissons Ratio (z) = 0.35276 0.15902
#
# Static dielectric constant tensor:
#      x y z
#    x 3.589320 0.000000 0.000000 
#    y 0.000000 3.332250 0.000000 
#    z 0.000000 0.000000 3.439990 
# 
# 
# High freq. dielectric constant tensor:
#      x y z
#    x 1.757360 0.000000 0.000000 
#    y 0.000000 1.731830 0.000000 
#    z 0.000000 0.000000 1.754770 
# 
# From -- ./inp_files/4247.got.cif
#   From: 2010.03.12/outbox.cif.g09.slc.cpg/sg49_3_cif.got.tgz:4247.got - 2010.04.14 03:58:27.
