data_PCOD8203877
_publ_section_title
;
Structure prediction by ZEFSAII (Michael W. Deem and Ramdas Pophale) SiO2 
 PCOD8203877
Probable space group: P C C M
;
_chemical_formula_sum "Si O2"
_cell_formula_units_Z 64
_cell_length_a 25.506230
_cell_length_b 14.509499
_cell_length_c 8.657538
_cell_angle_alpha 90.000000
_cell_angle_beta 90.000000
_cell_angle_gamma 90.000000
_cell_volume 3204.004334
_symmetry_space_group_name_H-M "P C C M"
_symmetry_group_IT_number 49
_symmetry_cell_setting 'orthorhombic'
loop_
_space_group_symop_operation_xyz
x,y,z
-x,-y,z
x,-y,1/2-z
-x,y,1/2-z
-x,-y,-z
x,y,-z
-x,y,1/2+z
x,-y,1/2+z
loop_
_atom_site_type_symbol
_atom_site_label
_atom_site_fract_x
_atom_site_fract_y
_atom_site_fract_z
Si Si1 0.143042 0.900949 0.319953
Si Si2 0.354122 0.219043 0.681607
Si Si3 0.318930 0.398011 0.180014
Si Si4 0.908540 0.601469 0.816428
Si Si5 0.444077 0.097986 0.182554
Si Si6 0.205208 0.404778 0.175352
Si Si7 0.053002 0.220757 0.681529
Si Si8 0.263380 0.100306 0.818635
O O1 0.131161 0.904682 0.500000
O O2 0.104840 0.827651 0.244045
O O3 0.203024 0.870685 0.288378
O O4 0.130971 0.000000 0.250000
O O5 0.362170 0.208243 0.500000
O O6 0.355637 0.326955 0.728305
O O7 0.401929 0.173586 0.771629
O O8 0.299631 0.173010 0.731888
O O9 0.325288 0.500000 0.250000
O O10 0.260124 0.351286 0.197894
O O11 0.334229 0.402591 0.000000
O O12 0.919452 0.500000 0.750000
O O13 0.849698 0.636875 0.763829
O O14 0.947414 0.672750 0.735478
O O15 0.917581 0.602854 0.000000
O O16 0.500000 0.128123 0.250000
O O17 0.425883 0.000000 0.250000
O O18 0.448362 0.089594 0.000000
O O19 0.218920 0.500000 0.250000
O O20 0.193260 0.426841 0.000000
O O21 0.051480 0.212286 0.500000
O O22 0.000000 0.174705 0.750000
O O23 0.274756 0.000000 0.750000
O O24 0.276519 0.099488 0.000000
#
# Coordination Sequence:
#
# PCOD8203877 Si02
#       8
#     8   8   8   8   8   8   8   8
#     4  10  22  42  66  90 118 151 189 237 294 355
#     4  12  24  37  57  89 125 166 210 252 298 353
#     4  10  20  36  55  82 118 161 205 251 302 352
#     4  10  20  37  59  86 116 151 189 235 290 350
#     4  11  22  40  64  92 126 165 207 256 307 361
#     4   8  16  30  51  76 107 143 184 229 280 339
#     4  12  26  43  62  86 113 147 192 241 292 351
#     4  10  21  38  60  88 123 158 193 238 294 356
#
# _framework density 19.975004999999999
#
# number of rings (size 3 to 8) (size 9 to 14) (size 15 to 20)
#    0.000    1.625    0.000    5.625    1.750    3.000 
#    0.000    2.500    0.000    0.375    0.000    2.625 
#    0.000    0.000    0.000    0.000    0.000    0.000 
#
# Total GULP energy -793297.220875 kJ/mol
# GULP energy per Si atom -12395.269076 kJ/mol
# Density = 1.992954 g / cm^3
# Si number density = 19.975005 Si / 1000 Ang^3
#
#
#
# Elastic Constant Matrix: (Units=GPa)
#
#
# Indices 1 2 3 4 5 6 
#
# 1 90.7686 53.5010 44.7683 0.0000 0.0000 0.0000
# 2 53.5010 91.7948 45.6202 0.0000 0.0000 0.0000
# 3 44.7683 45.6202 136.2355 0.0000 0.0000 0.0000
# 4 0.0000 0.0000 0.0000 36.0929 0.0000 0.0000
# 5 0.0000 0.0000 0.0000 0.0000 31.5874 0.0000
# 6 0.0000 0.0000 0.0000 0.0000 0.0000 27.9195
#
#
#
# Elastic Compliance Matrix: (Units=1/GPa)
#
#
# Indices 1 2 3 4 5 6 
#
# 1 0.017644 -0.008880 -0.002824 0.000000 0.000000 0.000000
# 2 -0.008880 0.017538 -0.002955 0.000000 0.000000 0.000000
# 3 -0.002824 -0.002955 0.009258 0.000000 0.000000 0.000000
# 4 0.000000 0.000000 0.000000 0.027706 0.000000 0.000000
# 5 0.000000 0.000000 0.000000 0.000000 0.031658 0.000000
# 6 0.000000 0.000000 0.000000 0.000000 0.000000 0.035817
#
#
# Mechanical properties :
#
#
# Convention : Reuss Voigt Hill
#
# Bulk Modulus (GPa) = 66.13087 67.39753 66.76420
# Shear Modulus (GPa) = 28.73893 30.78057 29.75975
#
# Velocity S-wave (km/s) = 3.79719 3.92976 3.86404
# Velocity P-wave (km/s) = 7.23903 7.37596 7.30782
#
# Compressibility (1/GPa) = 0.01512153
#
# Stress axis : x y z
#
# Youngs Moduli (GPa) = 56.67632 57.01981 108.01679
#
# Poissons Ratio (x) = 0.50633 0.30509
# Poissons Ratio (y) = 0.50328 0.31916
# Poissons Ratio (z) = 0.16008 0.16848
#
# Static dielectric constant tensor:
#      x y z
#    x 3.741520 0.000000 0.000000 
#    y 0.000000 3.284080 0.000000 
#    z 0.000000 0.000000 3.744260 
# 
# 
# High freq. dielectric constant tensor:
#      x y z
#    x 1.776750 0.000000 0.000000 
#    y 0.000000 1.771340 0.000000 
#    z 0.000000 0.000000 1.793520 
# 
# From -- ./inp_files/6560.got.cif
#   From: 2010.03.12/outbox.cif.g09.slc.cpg/sg49_4_cif.got.tgz:6560.got - 2010.04.14 03:58:27.
