data_PCOD8203009
_publ_section_title
;
Structure prediction by ZEFSAII (Michael W. Deem and Ramdas Pophale) SiO2 
 PCOD8203009
Probable space group: P C C M
;
_chemical_formula_sum "Si O2"
_cell_formula_units_Z 64
_cell_length_a 18.106937
_cell_length_b 20.525503
_cell_length_c 9.073757
_cell_angle_alpha 90.000000
_cell_angle_beta 90.000000
_cell_angle_gamma 90.000000
_cell_volume 3372.297991
_symmetry_space_group_name_H-M "P C C M"
_symmetry_group_IT_number 49
_symmetry_cell_setting 'orthorhombic'
loop_
_space_group_symop_operation_xyz
x,y,z
-x,-y,z
x,-y,1/2-z
-x,y,1/2-z
-x,-y,-z
x,y,-z
-x,y,1/2+z
x,-y,1/2+z
loop_
_atom_site_type_symbol
_atom_site_label
_atom_site_fract_x
_atom_site_fract_y
_atom_site_fract_z
Si Si1 0.680101 0.933974 0.826589
Si Si2 0.345773 0.701060 0.828091
Si Si3 0.576456 0.833230 0.327757
Si Si4 0.812928 0.437727 0.834680
Si Si5 0.851985 0.064709 0.671287
Si Si6 0.075795 0.197142 0.173255
Si Si7 0.362504 0.560412 0.838487
Si Si8 0.806106 0.306205 0.673922
O O1 0.640125 0.873811 0.750576
O O2 0.766158 0.923754 0.794218
O O3 0.651434 0.000000 0.750000
O O4 0.662331 0.936402 0.000000
O O5 0.405732 0.757183 0.804012
O O6 0.381630 0.632262 0.773018
O O7 0.272672 0.716976 0.735821
O O8 0.322849 0.694062 0.000000
O O9 0.500000 0.850396 0.250000
O O10 0.572137 0.851224 0.500000
O O11 0.847200 0.500000 0.750000
O O12 0.725376 0.445137 0.841454
O O13 0.834894 0.372694 0.747138
O O14 0.845780 0.434712 0.000000
O O15 0.865363 0.054611 0.500000
O O16 0.896673 0.126866 0.731528
O O17 0.882130 0.000000 0.750000
O O18 0.136294 0.250430 0.216175
O O19 0.000000 0.216660 0.250000
O O20 0.063100 0.195120 0.000000
O O21 0.397669 0.500000 0.750000
O O22 0.396787 0.553959 0.000000
O O23 0.798850 0.316828 0.500000
#
# Coordination Sequence:
#
# PCOD8203009 Si02
#       8
#     8   8   8   8   8   8   8   8
#     4  10  20  37  60  84 109 136 169 211 258 309
#     4   9  19  34  52  75 104 137 174 216 262 314
#     4  11  23  38  55  77 106 140 177 217 262 311
#     4   9  16  27  45  72 104 135 169 211 261 313
#     4   9  19  36  57  81 107 135 170 212 257 307
#     4  10  22  37  52  74 105 140 176 214 257 307
#     4   8  14  25  42  68  99 128 161 204 251 299
#     4  10  19  32  52  77 104 135 174 219 265 312
#
# _framework density 18.978156999999999
#
# number of rings (size 3 to 8) (size 9 to 14) (size 15 to 20)
#    0.000    2.500    0.000    3.000    0.000    7.500 
#    0.000    2.500    0.000    0.750    0.000    5.250 
#    0.000    0.000    0.000    0.000    0.000    0.000 
#
# Total GULP energy -793557.029756 kJ/mol
# GULP energy per Si atom -12399.328590 kJ/mol
# Density = 1.893496 g / cm^3
# Si number density = 18.978157 Si / 1000 Ang^3
#
#
#
# Elastic Constant Matrix: (Units=GPa)
#
#
# Indices 1 2 3 4 5 6 
#
# 1 27.7507 6.8204 18.2565 0.0000 0.0000 0.0000
# 2 6.8204 92.6420 33.5125 0.0000 0.0000 0.0000
# 3 18.2565 33.5125 82.1037 0.0000 0.0000 0.0000
# 4 0.0000 0.0000 0.0000 36.2833 0.0000 0.0000
# 5 0.0000 0.0000 0.0000 0.0000 20.7040 0.0000
# 6 0.0000 0.0000 0.0000 0.0000 0.0000 4.7188
#
#
#
# Elastic Compliance Matrix: (Units=1/GPa)
#
#
# Indices 1 2 3 4 5 6 
#
# 1 0.042219 0.000338 -0.009525 0.000000 0.000000 0.000000
# 2 0.000338 0.012667 -0.005245 0.000000 0.000000 0.000000
# 3 -0.009525 -0.005245 0.016439 0.000000 0.000000 0.000000
# 4 0.000000 0.000000 0.000000 0.027561 0.000000 0.000000
# 5 0.000000 0.000000 0.000000 0.000000 0.048300 0.000000
# 6 0.000000 0.000000 0.000000 0.000000 0.000000 0.211919
#
#
# Mechanical properties :
#
#
# Convention : Reuss Voigt Hill
#
# Bulk Modulus (GPa) = 23.55273 35.51945 29.53609
# Shear Modulus (GPa) = 12.43400 21.93501 17.18451
#
# Velocity S-wave (km/s) = 2.56241 3.40340 3.01240
# Velocity P-wave (km/s) = 4.60348 5.84814 5.26274
#
# Compressibility (1/GPa) = 0.04245792
#
# Stress axis : x y z
#
# Youngs Moduli (GPa) = 23.68615 78.94631 60.83174
#
# Poissons Ratio (x) = -0.02665 0.57945
# Poissons Ratio (y) = -0.00800 0.31908
# Poissons Ratio (z) = 0.22562 0.41410
#
# Static dielectric constant tensor:
#      x y z
#    x 3.051380 0.000000 0.000000 
#    y 0.000000 3.802010 0.000000 
#    z 0.000000 0.000000 3.576060 
# 
# 
# High freq. dielectric constant tensor:
#      x y z
#    x 1.697200 0.000000 0.000000 
#    y 0.000000 1.756870 0.000000 
#    z 0.000000 0.000000 1.742210 
# 
# From -- ./inp_files/5246.got.cif
#   From: 2010.03.12/outbox.cif.g09.slc.cpg/sg49_3_cif.got.tgz:5246.got - 2010.04.14 03:58:27.
