data_PCOD8203779
_publ_section_title
;
Structure prediction by ZEFSAII (Michael W. Deem and Ramdas Pophale) SiO2 
 PCOD8203779
Probable space group: P C C M
;
_chemical_formula_sum "Si O2"
_cell_formula_units_Z 34
_cell_length_a 9.314841
_cell_length_b 21.343994
_cell_length_c 9.429862
_cell_angle_alpha 90.000000
_cell_angle_beta 90.000000
_cell_angle_gamma 90.000000
_cell_volume 1874.806599
_symmetry_space_group_name_H-M "P C C M"
_symmetry_group_IT_number 49
_symmetry_cell_setting 'orthorhombic'
loop_
_space_group_symop_operation_xyz
x,y,z
-x,-y,z
x,-y,1/2-z
-x,y,1/2-z
-x,-y,-z
x,y,-z
-x,y,1/2+z
x,-y,1/2+z
loop_
_atom_site_type_symbol
_atom_site_label
_atom_site_fract_x
_atom_site_fract_y
_atom_site_fract_z
Si Si1 0.854311 0.824356 0.836367
Si Si2 0.875617 0.620925 0.156576
Si Si3 0.000000 0.500000 0.750000
Si Si4 0.641790 0.936470 0.830775
Si Si5 0.355420 0.713032 0.664738
O O1 0.770497 0.888520 0.807148
O O2 0.753829 0.767065 0.787725
O O3 0.000000 0.824350 0.750000
O O4 0.895136 0.817345 0.000000
O O5 0.718845 0.645729 0.203099
O O6 0.000000 0.652970 0.250000
O O7 0.892164 0.544876 0.160449
O O8 0.903907 0.646243 0.000000
O O9 0.500000 0.910417 0.750000
O O10 0.687065 0.000000 0.750000
O O11 0.612424 0.946830 0.000000
O O12 0.500000 0.719421 0.750000
O O13 0.395033 0.718590 0.500000
#
# Coordination Sequence:
#
# PCOD8203779 Si02
#       5
#     8   8   2   8   8
#     4  10  22  37  55  79 108 138 179 222 268 316
#     4   9  18  32  54  79 105 135 175 213 255 309
#     4   8  18  32  56  80 110 136 174 212 262 304
#     4  10  20  35  55  80 107 142 179 220 264 319
#     4  10  21  37  54  79 108 139 176 220 264 316
#
# _framework density 18.135203000000001
#
# number of rings (size 3 to 8) (size 9 to 14) (size 15 to 20)
#    0.706    1.647    0.000    3.176    0.000    4.235 
#    0.000    2.941    0.000    2.824    0.000    0.000 
#    0.000    0.000    0.000    0.000    0.000    0.000 
#
# Total GULP energy -421241.747054 kJ/mol
# GULP energy per Si atom -12389.463149 kJ/mol
# Density = 1.809393 g / cm^3
# Si number density = 18.135203 Si / 1000 Ang^3
#
#
#
# Elastic Constant Matrix: (Units=GPa)
#
#
# Indices 1 2 3 4 5 6 
#
# 1 166.6243 79.7740 82.5340 0.0000 0.0000 0.0000
# 2 79.7740 103.1753 48.2282 0.0000 0.0000 0.0000
# 3 82.5340 48.2282 102.8948 0.0000 0.0000 0.0000
# 4 0.0000 0.0000 0.0000 37.2444 0.0000 0.0000
# 5 0.0000 0.0000 0.0000 0.0000 39.1804 0.0000
# 6 0.0000 0.0000 0.0000 0.0000 0.0000 32.2567
#
#
#
# Elastic Compliance Matrix: (Units=1/GPa)
#
#
# Indices 1 2 3 4 5 6 
#
# 1 0.012584 -0.006417 -0.007086 0.000000 0.000000 0.000000
# 2 -0.006417 0.015684 -0.002204 0.000000 0.000000 0.000000
# 3 -0.007086 -0.002204 0.016435 0.000000 0.000000 0.000000
# 4 0.000000 0.000000 0.000000 0.026850 0.000000 0.000000
# 5 0.000000 0.000000 0.000000 0.000000 0.025523 0.000000
# 6 0.000000 0.000000 0.000000 0.000000 0.000000 0.031001
#
#
# Mechanical properties :
#
#
# Convention : Reuss Voigt Hill
#
# Bulk Modulus (GPa) = 75.24913 88.19630 81.72272
# Shear Modulus (GPa) = 30.50246 32.54685 31.52466
#
# Velocity S-wave (km/s) = 4.10560 4.24096 4.17383
# Velocity P-wave (km/s) = 8.00363 8.52756 8.26974
#
# Compressibility (1/GPa) = 0.01328919
#
# Stress axis : x y z
#
# Youngs Moduli (GPa) = 79.46751 63.75790 60.84482
#
# Poissons Ratio (x) = 0.40916 0.43113
# Poissons Ratio (y) = 0.50998 0.13409
# Poissons Ratio (z) = 0.56309 0.14051
#
# Static dielectric constant tensor:
#      x y z
#    x 3.241730 0.000000 0.000000 
#    y 0.000000 3.436240 0.000000 
#    z 0.000000 0.000000 3.373810 
# 
# 
# High freq. dielectric constant tensor:
#      x y z
#    x 1.694070 0.000000 0.000000 
#    y 0.000000 1.707760 0.000000 
#    z 0.000000 0.000000 1.705260 
# 
# From -- ./inp_files/1873.got.cif
#   From: 2010.03.12/outbox.cif.g09.slc.cpg/sg49_1_cif.got.tgz:1873.got - 2010.04.14 03:58:27.
