data_PCOD8203294
_publ_section_title
;
Structure prediction by ZEFSAII (Michael W. Deem and Ramdas Pophale) SiO2 
 PCOD8203294
Probable space group: P C C M
;
_chemical_formula_sum "Si O2"
_cell_formula_units_Z 48
_cell_length_a 14.640485
_cell_length_b 18.741927
_cell_length_c 9.070574
_cell_angle_alpha 90.000000
_cell_angle_beta 90.000000
_cell_angle_gamma 90.000000
_cell_volume 2488.882973
_symmetry_space_group_name_H-M "P C C M"
_symmetry_group_IT_number 49
_symmetry_cell_setting 'orthorhombic'
loop_
_space_group_symop_operation_xyz
x,y,z
-x,-y,z
x,-y,1/2-z
-x,y,1/2-z
-x,-y,-z
x,y,-z
-x,y,1/2+z
x,-y,1/2+z
loop_
_atom_site_type_symbol
_atom_site_label
_atom_site_fract_x
_atom_site_fract_y
_atom_site_fract_z
Si Si1 0.775866 0.797528 0.831655
Si Si2 0.590742 0.725517 0.828446
Si Si3 0.130182 0.569933 0.669361
Si Si4 0.346332 0.570990 0.332438
Si Si5 0.093006 0.925942 0.326900
Si Si6 0.915509 0.290694 0.172420
O O1 0.668048 0.786728 0.800897
O O2 0.817707 0.876005 0.803373
O O3 0.821150 0.745348 0.714744
O O4 0.797622 0.773242 0.000000
O O5 0.500000 0.754044 0.750000
O O6 0.615900 0.646102 0.766473
O O7 0.571243 0.718336 0.000000
O O8 0.094402 0.500000 0.750000
O O9 0.098038 0.572154 0.500000
O O10 0.238417 0.576423 0.681426
O O11 0.082270 0.630883 0.761880
O O12 0.383770 0.500000 0.250000
O O13 0.377741 0.562037 0.500000
O O14 0.073035 0.936772 0.500000
O O15 0.000000 0.895738 0.250000
O O16 0.119557 0.000000 0.250000
O O17 0.000000 0.248592 0.250000
O O18 0.929830 0.290989 0.000000
#
# Coordination Sequence:
#
# PCOD8203294 Si02
#       6
#     8   8   8   8   8   8
#     4  10  21  40  60  81 115 153 185 229 284 330
#     4  10  21  38  57  81 111 146 188 237 290 340
#     4  10  19  35  54  74 103 140 183 232 285 337
#     4   9  18  33  54  75 104 140 179 234 290 342
#     4  10  20  35  60  90 123 156 186 224 269 325
#     4  12  24  36  54  80 108 144 187 230 278 336
#
# _framework density 19.285761000000001
#
# number of rings (size 3 to 8) (size 9 to 14) (size 15 to 20)
#    0.000    1.833    1.667    3.500    0.000    5.333 
#    0.000    3.333    0.000    0.500    0.000    3.500 
#    0.000    0.000    0.000    0.000    0.000    0.000 
#
# Total GULP energy -594923.144666 kJ/mol
# GULP energy per Si atom -12394.232181 kJ/mol
# Density = 1.924187 g / cm^3
# Si number density = 19.285761 Si / 1000 Ang^3
#
#
#
# Elastic Constant Matrix: (Units=GPa)
#
#
# Indices 1 2 3 4 5 6 
#
# 1 110.7148 56.4093 56.6475 0.0000 0.0000 0.0000
# 2 56.4093 102.8037 48.9248 0.0000 0.0000 0.0000
# 3 56.6475 48.9248 130.6506 0.0000 0.0000 0.0000
# 4 0.0000 0.0000 0.0000 22.0190 0.0000 0.0000
# 5 0.0000 0.0000 0.0000 0.0000 29.5640 0.0000
# 6 0.0000 0.0000 0.0000 0.0000 0.0000 19.8041
#
#
#
# Elastic Compliance Matrix: (Units=1/GPa)
#
#
# Indices 1 2 3 4 5 6 
#
# 1 0.013988 -0.005828 -0.003883 0.000000 0.000000 0.000000
# 2 -0.005828 0.014265 -0.002815 0.000000 0.000000 0.000000
# 3 -0.003883 -0.002815 0.010392 0.000000 0.000000 0.000000
# 4 0.000000 0.000000 0.000000 0.045415 0.000000 0.000000
# 5 0.000000 0.000000 0.000000 0.000000 0.033825 0.000000
# 6 0.000000 0.000000 0.000000 0.000000 0.000000 0.050495
#
#
# Mechanical properties :
#
#
# Convention : Reuss Voigt Hill
#
# Bulk Modulus (GPa) = 73.56312 74.23693 73.90003
# Shear Modulus (GPa) = 25.25758 26.42325 25.84042
#
# Velocity S-wave (km/s) = 3.62283 3.70549 3.66439
# Velocity P-wave (km/s) = 7.46502 7.54216 7.50369
#
# Compressibility (1/GPa) = 0.01359377
#
# Stress axis : x y z
#
# Youngs Moduli (GPa) = 71.49032 70.10399 96.23199
#
# Poissons Ratio (x) = 0.40853 0.37364
# Poissons Ratio (y) = 0.41661 0.27089
# Poissons Ratio (z) = 0.27757 0.19734
#
# Static dielectric constant tensor:
#      x y z
#    x 3.558850 0.000000 0.000000 
#    y 0.000000 3.437320 0.000000 
#    z 0.000000 0.000000 3.527230 
# 
# 
# High freq. dielectric constant tensor:
#      x y z
#    x 1.744820 0.000000 0.000000 
#    y 0.000000 1.734850 0.000000 
#    z 0.000000 0.000000 1.752300 
# 
# From -- ./inp_files/3677.got.cif
#   From: 2010.03.12/outbox.cif.g09.slc.cpg/sg49_2_cif.got.tgz:3677.got - 2010.04.14 03:58:27.
