data_PCOD8203335
_publ_section_title
;
Structure prediction by ZEFSAII (Michael W. Deem and Ramdas Pophale) SiO2 
 PCOD8203335
Probable space group: P C C M
;
_chemical_formula_sum "Si O2"
_cell_formula_units_Z 64
_cell_length_a 14.516627
_cell_length_b 25.689741
_cell_length_c 8.770466
_cell_angle_alpha 90.000000
_cell_angle_beta 90.000000
_cell_angle_gamma 90.000000
_cell_volume 3270.755746
_symmetry_space_group_name_H-M "P C C M"
_symmetry_group_IT_number 49
_symmetry_cell_setting 'orthorhombic'
loop_
_space_group_symop_operation_xyz
x,y,z
-x,-y,z
x,-y,1/2-z
-x,y,1/2-z
-x,-y,-z
x,y,-z
-x,y,1/2+z
x,-y,1/2+z
loop_
_atom_site_type_symbol
_atom_site_label
_atom_site_fract_x
_atom_site_fract_y
_atom_site_fract_z
Si Si1 0.719455 0.054043 0.318369
Si Si2 0.904463 0.908752 0.320654
Si Si3 0.400831 0.654036 0.818696
Si Si4 0.912567 0.443477 0.177615
Si Si5 0.399013 0.853462 0.818145
Si Si6 0.711858 0.247446 0.818898
Si Si7 0.906282 0.212814 0.822893
Si Si8 0.709732 0.556000 0.321593
O O1 0.712522 0.054028 0.500000
O O2 0.824528 0.060939 0.266098
O O3 0.656522 0.098595 0.248788
O O4 0.681985 0.000000 0.250000
O O5 0.900228 0.920894 0.500000
O O6 0.892556 0.847785 0.286684
O O7 0.000000 0.929033 0.250000
O O8 0.500000 0.664366 0.750000
O O9 0.332840 0.699163 0.758351
O O10 0.362904 0.598354 0.760158
O O11 0.406932 0.655354 0.000000
O O12 0.912092 0.500000 0.250000
O O13 0.811634 0.420235 0.215159
O O14 0.000000 0.411773 0.250000
O O15 0.930025 0.447220 0.000000
O O16 0.500000 0.853505 0.750000
O O17 0.349386 0.800799 0.762084
O O18 0.402102 0.857757 0.000000
O O19 0.816576 0.242565 0.755688
O O20 0.715605 0.246497 0.000000
O O21 0.000000 0.234915 0.750000
O O22 0.915667 0.223310 0.000000
O O23 0.689413 0.500000 0.250000
O O24 0.699127 0.547712 0.500000
#
# Coordination Sequence:
#
# PCOD8203335 Si02
#       8
#     8   8   8   8   8   8   8   8
#     4  12  25  41  60  85 116 154 194 240 289 341
#     4  10  19  35  58  86 119 154 193 235 282 339
#     4  10  21  38  58  81 109 144 186 232 283 335
#     4   9  15  25  43  69  99 133 173 216 261 312
#     4  11  22  40  62  87 113 145 188 236 290 348
#     4   9  18  36  61  84 114 149 182 226 281 335
#     4   9  17  32  55  84 115 150 183 221 271 329
#     4   9  19  34  53  77 108 147 187 227 276 334
#
# _framework density 19.567343000000001
#
# number of rings (size 3 to 8) (size 9 to 14) (size 15 to 20)
#    0.000    2.125    1.250    3.000    0.000    2.250 
#    0.000    5.625    0.000    0.000    0.000    0.000 
#    0.000    0.000    0.000    0.000    0.000    0.000 
#
# Total GULP energy -793392.304043 kJ/mol
# GULP energy per Si atom -12396.754751 kJ/mol
# Density = 1.952281 g / cm^3
# Si number density = 19.567343 Si / 1000 Ang^3
#
#
#
# Elastic Constant Matrix: (Units=GPa)
#
#
# Indices 1 2 3 4 5 6 
#
# 1 138.4840 65.7884 38.4321 0.0000 0.0000 0.0000
# 2 65.7884 119.4526 37.6676 0.0000 0.0000 0.0000
# 3 38.4321 37.6676 70.8155 0.0000 0.0000 0.0000
# 4 0.0000 0.0000 0.0000 19.2862 0.0000 0.0000
# 5 0.0000 0.0000 0.0000 0.0000 58.6157 0.0000
# 6 0.0000 0.0000 0.0000 0.0000 0.0000 18.0843
#
#
#
# Elastic Compliance Matrix: (Units=1/GPa)
#
#
# Indices 1 2 3 4 5 6 
#
# 1 0.010315 -0.004705 -0.003096 0.000000 0.000000 0.000000
# 2 -0.004705 0.012205 -0.003938 0.000000 0.000000 0.000000
# 3 -0.003096 -0.003938 0.017896 0.000000 0.000000 0.000000
# 4 0.000000 0.000000 0.000000 0.051851 0.000000 0.000000
# 5 0.000000 0.000000 0.000000 0.000000 0.017060 0.000000
# 6 0.000000 0.000000 0.000000 0.000000 0.000000 0.055297
#
#
# Mechanical properties :
#
#
# Convention : Reuss Voigt Hill
#
# Bulk Modulus (GPa) = 59.03819 68.05870 63.54844
# Shear Modulus (GPa) = 25.80680 31.65484 28.73082
#
# Velocity S-wave (km/s) = 3.63557 4.02648 3.83600
# Velocity P-wave (km/s) = 6.91812 7.51492 7.22269
#
# Compressibility (1/GPa) = 0.01693819
#
# Stress axis : x y z
#
# Youngs Moduli (GPa) = 96.94345 81.93559 55.87830
#
# Poissons Ratio (x) = 0.38551 0.17297
# Poissons Ratio (y) = 0.45612 0.22007
# Poissons Ratio (z) = 0.30009 0.32269
#
# Static dielectric constant tensor:
#      x y z
#    x 4.825600 0.000000 0.000000 
#    y 0.000000 3.535960 0.000000 
#    z 0.000000 0.000000 3.464200 
# 
# 
# High freq. dielectric constant tensor:
#      x y z
#    x 1.781280 0.000000 0.000000 
#    y 0.000000 1.744730 0.000000 
#    z 0.000000 0.000000 1.751040 
# 
# From -- ./inp_files/4387.got.cif
#   From: 2010.03.12/outbox.cif.g09.slc.cpg/sg49_3_cif.got.tgz:4387.got - 2010.04.14 03:58:27.
