data_PCOD8203692
_publ_section_title
;
Structure prediction by ZEFSAII (Michael W. Deem and Ramdas Pophale) SiO2 
 PCOD8203692
Probable space group: P C C M
;
_chemical_formula_sum "Si O2"
_cell_formula_units_Z 44
_cell_length_a 15.942329
_cell_length_b 15.106269
_cell_length_c 9.307705
_cell_angle_alpha 90.000000
_cell_angle_beta 90.000000
_cell_angle_gamma 90.000000
_cell_volume 2241.566315
_symmetry_space_group_name_H-M "P C C M"
_symmetry_group_IT_number 49
_symmetry_cell_setting 'orthorhombic'
loop_
_space_group_symop_operation_xyz
x,y,z
-x,-y,z
x,-y,1/2-z
-x,y,1/2-z
-x,-y,-z
x,y,-z
-x,y,1/2+z
x,-y,1/2+z
loop_
_atom_site_type_symbol
_atom_site_label
_atom_site_fract_x
_atom_site_fract_y
_atom_site_fract_z
Si Si1 0.080674 0.274026 0.837358
Si Si2 0.334039 0.718211 0.162357
Si Si3 0.178947 0.154082 0.348026
Si Si4 0.577994 0.134215 0.663681
Si Si5 0.713896 0.000000 0.750000
Si Si6 0.231295 0.411465 0.833428
O O1 0.114012 0.178807 0.778014
O O2 0.151116 0.348330 0.823225
O O3 0.000000 0.306933 0.750000
O O4 0.053856 0.257949 0.000000
O O5 0.249465 0.772105 0.150562
O O6 0.401267 0.775399 0.251551
O O7 0.312805 0.630085 0.253752
O O8 0.367082 0.696156 0.000000
O O9 0.129927 0.157491 0.500000
O O10 0.223226 0.058856 0.343056
O O11 0.500000 0.090782 0.750000
O O12 0.552667 0.156303 0.500000
O O13 0.655179 0.065135 0.656679
O O14 0.206429 0.500000 0.750000
O O15 0.254021 0.430136 0.000000
#
# Coordination Sequence:
#
# PCOD8203692 Si02
#       6
#     8   8   8   8   4   8
#     4  10  21  36  54  76 105 140 176 217 266 317
#     4   9  18  34  54  76 105 141 178 216 261 314
#     4   9  18  33  53  75 101 136 176 217 263 314
#     4  11  22  35  53  79 111 144 179 219 266 317
#     4  10  21  34  55  80 106 138 178 224 267 312
#     4  10  20  34  55  83 110 139 176 217 262 312
#
# _framework density 19.629131000000001
#
# number of rings (size 3 to 8) (size 9 to 14) (size 15 to 20)
#    0.000    2.182    0.000    3.000    0.000   10.545 
#    0.000    2.273    0.000    2.727    0.000    3.818 
#    0.000    0.000    0.000    0.000    0.000    0.000 
#
# Total GULP energy -545280.790501 kJ/mol
# GULP energy per Si atom -12392.745239 kJ/mol
# Density = 1.958445 g / cm^3
# Si number density = 19.629131 Si / 1000 Ang^3
#
#
#
# Elastic Constant Matrix: (Units=GPa)
#
#
# Indices 1 2 3 4 5 6 
#
# 1 38.8042 34.5287 39.7652 0.0000 0.0000 0.0000
# 2 34.5287 81.1277 58.3115 0.0000 0.0000 0.0000
# 3 39.7652 58.3115 194.0479 0.0000 0.0000 0.0000
# 4 0.0000 0.0000 0.0000 8.3483 0.0000 0.0000
# 5 0.0000 0.0000 0.0000 0.0000 32.0393 0.0000
# 6 0.0000 0.0000 0.0000 0.0000 0.0000 16.0346
#
#
#
# Elastic Compliance Matrix: (Units=1/GPa)
#
#
# Indices 1 2 3 4 5 6 
#
# 1 0.044170 -0.015680 -0.004340 0.000000 0.000000 0.000000
# 2 -0.015680 0.021288 -0.003184 0.000000 0.000000 0.000000
# 3 -0.004340 -0.003184 0.006999 0.000000 0.000000 0.000000
# 4 0.000000 0.000000 0.000000 0.119785 0.000000 0.000000
# 5 0.000000 0.000000 0.000000 0.000000 0.031212 0.000000
# 6 0.000000 0.000000 0.000000 0.000000 0.000000 0.062365
#
#
# Mechanical properties :
#
#
# Convention : Reuss Voigt Hill
#
# Bulk Modulus (GPa) = 38.38694 64.35452 51.37073
# Shear Modulus (GPa) = 14.66663 23.37606 19.02135
#
# Velocity S-wave (km/s) = 2.73644 3.45467 3.11631
# Velocity P-wave (km/s) = 5.43900 6.98350 6.25907
#
# Compressibility (1/GPa) = 0.02605053
#
# Stress axis : x y z
#
# Youngs Moduli (GPa) = 22.63984 46.97422 142.86844
#
# Poissons Ratio (x) = 0.73655 0.62000
# Poissons Ratio (y) = 0.35499 0.45488
# Poissons Ratio (z) = 0.09825 0.14956
#
# Static dielectric constant tensor:
#      x y z
#    x 3.373760 0.000000 0.000000 
#    y 0.000000 3.550450 0.000000 
#    z 0.000000 0.000000 3.900930 
# 
# 
# High freq. dielectric constant tensor:
#      x y z
#    x 1.741060 0.000000 0.000000 
#    y 0.000000 1.745870 0.000000 
#    z 0.000000 0.000000 1.782430 
# 
# From -- ./inp_files/3616.got.cif
#   From: 2010.03.12/outbox.cif.g09.slc.cpg/sg49_2_cif.got.tgz:3616.got - 2010.04.14 03:58:27.
