data_PCOD8203961
_publ_section_title
;
Structure prediction by ZEFSAII (Michael W. Deem and Ramdas Pophale) SiO2 
 PCOD8203961
Probable space group: P C C M
;
_chemical_formula_sum "Si O2"
_cell_formula_units_Z 58
_cell_length_a 14.514218
_cell_length_b 25.269903
_cell_length_c 9.190960
_cell_angle_alpha 90.000000
_cell_angle_beta 90.000000
_cell_angle_gamma 90.000000
_cell_volume 3370.994878
_symmetry_space_group_name_H-M "P C C M"
_symmetry_group_IT_number 49
_symmetry_cell_setting 'orthorhombic'
loop_
_space_group_symop_operation_xyz
x,y,z
-x,-y,z
x,-y,1/2-z
-x,y,1/2-z
-x,-y,-z
x,y,-z
-x,y,1/2+z
x,-y,1/2+z
loop_
_atom_site_type_symbol
_atom_site_label
_atom_site_fract_x
_atom_site_fract_y
_atom_site_fract_z
Si Si1 0.000000 0.500000 0.750000
Si Si2 0.597173 0.952015 0.830359
Si Si3 0.856040 0.582234 0.338450
Si Si4 0.264149 0.744501 0.670638
Si Si5 0.321621 0.551172 0.329507
Si Si6 0.403452 0.834612 0.668591
Si Si7 0.907072 0.701332 0.328154
Si Si8 0.588669 0.658723 0.833055
O O1 0.937931 0.539303 0.653015
O O2 0.500000 0.949914 0.750000
O O3 0.639647 0.893520 0.808224
O O4 0.654135 0.000000 0.750000
O O5 0.586406 0.965659 0.000000
O O6 0.812444 0.586205 0.500000
O O7 0.781230 0.562879 0.223612
O O8 0.890646 0.639880 0.288196
O O9 0.239184 0.748266 0.500000
O O10 0.324243 0.794805 0.723082
O O11 0.172202 0.739726 0.765418
O O12 0.322118 0.692262 0.707525
O O13 0.362869 0.500000 0.250000
O O14 0.315634 0.540660 0.500000
O O15 0.390353 0.598493 0.289945
O O16 0.500000 0.825317 0.750000
O O17 0.425627 0.824122 0.500000
O O18 0.915303 0.710096 0.500000
O O19 0.000000 0.719960 0.250000
O O20 0.500000 0.680309 0.750000
O O21 0.564121 0.665298 0.000000
#
# Coordination Sequence:
#
# PCOD8203961 Si02
#       8
#     2   8   8   8   8   8   8   8
#     4  12  22  36  56  82 104 120 154 192 248 304
#     4   9  15  24  39  64  97 139 180 218 256 298
#     4  11  23  36  53  77 101 125 153 190 240 299
#     4  10  20  37  55  75 103 135 169 212 256 299
#     4  11  23  38  55  74  97 124 156 196 243 295
#     4   9  18  30  48  73 105 141 182 221 260 300
#     4  11  23  38  56  79 102 130 164 202 249 305
#     4  10  22  37  55  76  98 128 163 203 249 296
#
# _framework density 17.205604000000001
#
# number of rings (size 3 to 8) (size 9 to 14) (size 15 to 20)
#    0.000    1.793    2.759    2.276    0.000    4.138 
#    0.000    1.379    0.000    0.000    0.000    0.000 
#    0.000    0.552    0.000    6.345    0.000    1.931 
#
# Total GULP energy -719013.729372 kJ/mol
# GULP energy per Si atom -12396.788437 kJ/mol
# Density = 1.716644 g / cm^3
# Si number density = 17.205604 Si / 1000 Ang^3
#
#
#
# Elastic Constant Matrix: (Units=GPa)
#
#
# Indices 1 2 3 4 5 6 
#
# 1 75.8436 43.0937 33.2647 0.0000 0.0000 0.0000
# 2 43.0937 110.4279 50.2709 0.0000 0.0000 0.0000
# 3 33.2647 50.2709 76.2478 0.0000 0.0000 0.0000
# 4 0.0000 0.0000 0.0000 20.4860 0.0000 0.0000
# 5 0.0000 0.0000 0.0000 0.0000 25.9159 0.0000
# 6 0.0000 0.0000 0.0000 0.0000 0.0000 8.1476
#
#
#
# Elastic Compliance Matrix: (Units=1/GPa)
#
#
# Indices 1 2 3 4 5 6 
#
# 1 0.018006 -0.004930 -0.004605 0.000000 0.000000 0.000000
# 2 -0.004930 0.014289 -0.007270 0.000000 0.000000 0.000000
# 3 -0.004605 -0.007270 0.019917 0.000000 0.000000 0.000000
# 4 0.000000 0.000000 0.000000 0.048814 0.000000 0.000000
# 5 0.000000 0.000000 0.000000 0.000000 0.038586 0.000000
# 6 0.000000 0.000000 0.000000 0.000000 0.000000 0.122735
#
#
# Mechanical properties :
#
#
# Convention : Reuss Voigt Hill
#
# Bulk Modulus (GPa) = 53.75763 57.30867 55.53315
# Shear Modulus (GPa) = 16.54754 19.96925 18.25839
#
# Velocity S-wave (km/s) = 3.10458 3.41049 3.26112
# Velocity P-wave (km/s) = 6.64555 6.99207 6.82101
#
# Compressibility (1/GPa) = 0.01860201
#
# Stress axis : x y z
#
# Youngs Moduli (GPa) = 55.53658 69.98207 50.20749
#
# Poissons Ratio (x) = 0.34504 0.23120
# Poissons Ratio (y) = 0.27382 0.36501
# Poissons Ratio (z) = 0.25574 0.50878
#
# Static dielectric constant tensor:
#      x y z
#    x 2.943790 0.000000 0.000000 
#    y 0.000000 4.235190 0.000000 
#    z 0.000000 0.000000 3.212980 
# 
# 
# High freq. dielectric constant tensor:
#      x y z
#    x 1.631920 0.000000 0.000000 
#    y 0.000000 1.661820 0.000000 
#    z 0.000000 0.000000 1.671830 
# 
# From -- ./inp_files/4238.got.cif
#   From: 2010.03.12/outbox.cif.g09.slc.cpg/sg49_3_cif.got.tgz:4238.got - 2010.04.14 03:58:27.
