data_PCOD8203310
_publ_section_title
;
Structure prediction by ZEFSAII (Michael W. Deem and Ramdas Pophale) SiO2 
 PCOD8203310
Probable space group: P C C M
;
_chemical_formula_sum "Si O2"
_cell_formula_units_Z 64
_cell_length_a 12.639808
_cell_length_b 14.795743
_cell_length_c 17.616571
_cell_angle_alpha 90.000000
_cell_angle_beta 90.000000
_cell_angle_gamma 90.000000
_cell_volume 3294.569204
_symmetry_space_group_name_H-M "P C C M"
_symmetry_group_IT_number 49
_symmetry_cell_setting 'orthorhombic'
loop_
_space_group_symop_operation_xyz
x,y,z
-x,-y,z
x,-y,1/2-z
-x,y,1/2-z
-x,-y,-z
x,y,-z
-x,y,1/2+z
x,-y,1/2+z
loop_
_atom_site_type_symbol
_atom_site_label
_atom_site_fract_x
_atom_site_fract_y
_atom_site_fract_z
Si Si1 0.613533 0.809168 0.155995
Si Si2 0.118497 0.489939 0.338542
Si Si3 0.898852 0.955244 0.911699
Si Si4 0.795569 0.326822 0.653932
Si Si5 0.671654 0.003261 0.589448
Si Si6 0.818631 0.707034 0.669892
Si Si7 0.620455 0.178583 0.830894
Si Si8 0.017962 0.235219 0.086302
O O1 0.690891 0.727926 0.126343
O O2 0.620487 0.899137 0.105262
O O3 0.492367 0.773725 0.151899
O O4 0.640483 0.836638 0.241911
O O5 0.099112 0.500000 0.250000
O O6 0.210297 0.564648 0.357781
O O7 0.168763 0.394051 0.363737
O O8 0.000000 0.500000 0.376104
O O9 0.790893 0.993830 0.877242
O O10 0.906080 0.849490 0.897546
O O11 0.898734 0.980562 0.000000
O O12 0.000000 0.000000 0.871030
O O13 0.820267 0.296799 0.739559
O O14 0.900963 0.314560 0.603725
O O15 0.665528 0.985847 0.500000
O O16 0.615703 0.920139 0.630892
O O17 0.712053 0.754651 0.637983
O O18 0.917082 0.766709 0.641318
O O19 0.976325 0.238041 0.000000
#
# Coordination Sequence:
#
# PCOD8203310 Si02
#       8
#     8   8   8   8   8   8   8   8
#     4  10  21  38  56  77 109 143 182 225 269 311
#     4   9  16  30  55  82 106 137 176 219 265 318
#     4   9  18  31  47  70 103 137 168 210 263 309
#     4  10  19  35  57  78 106 141 181 218 265 321
#     4  11  21  35  56  80 106 142 186 222 261 318
#     4  10  20  35  56  79 108 142 181 217 266 326
#     4  10  22  37  55  78 108 145 180 226 271 309
#     4  11  20  32  52  78 111 142 172 218 269 316
#
# _framework density 19.425909000000001
#
# number of rings (size 3 to 8) (size 9 to 14) (size 15 to 20)
#    0.000    2.000    2.500    1.875    0.000    3.500 
#    0.000    1.875    0.000    3.750    0.000    0.000 
#    0.000    4.000    0.000    0.000    0.000    0.000 
#
# Total GULP energy -792984.331419 kJ/mol
# GULP energy per Si atom -12390.380178 kJ/mol
# Density = 1.938169 g / cm^3
# Si number density = 19.425909 Si / 1000 Ang^3
#
#
#
# Elastic Constant Matrix: (Units=GPa)
#
#
# Indices 1 2 3 4 5 6 
#
# 1 131.1600 47.6928 13.7592 0.0000 0.0000 0.0000
# 2 47.6928 94.5952 17.1968 0.0000 0.0000 0.0000
# 3 13.7592 17.1968 25.7894 0.0000 0.0000 0.0000
# 4 0.0000 0.0000 0.0000 12.3521 0.0000 0.0000
# 5 0.0000 0.0000 0.0000 0.0000 17.6020 0.0000
# 6 0.0000 0.0000 0.0000 0.0000 0.0000 21.4641
#
#
#
# Elastic Compliance Matrix: (Units=1/GPa)
#
#
# Indices 1 2 3 4 5 6 
#
# 1 0.009436 -0.004372 -0.002119 0.000000 0.000000 0.000000
# 2 -0.004372 0.014056 -0.007040 0.000000 0.000000 0.000000
# 3 -0.002119 -0.007040 0.044600 0.000000 0.000000 0.000000
# 4 0.000000 0.000000 0.000000 0.080958 0.000000 0.000000
# 5 0.000000 0.000000 0.000000 0.000000 0.056812 0.000000
# 6 0.000000 0.000000 0.000000 0.000000 0.000000 0.046590
#
#
# Mechanical properties :
#
#
# Convention : Reuss Voigt Hill
#
# Bulk Modulus (GPa) = 24.37228 45.42692 34.89960
# Shear Modulus (GPa) = 17.05372 21.81000 19.43186
#
# Velocity S-wave (km/s) = 2.96613 3.35435 3.16619
# Velocity P-wave (km/s) = 4.92991 6.19981 5.60097
#
# Compressibility (1/GPa) = 0.04103023
#
# Stress axis : x y z
#
# Youngs Moduli (GPa) = 105.97167 71.14585 22.42130
#
# Poissons Ratio (x) = 0.31108 0.04751
# Poissons Ratio (y) = 0.46336 0.15784
# Poissons Ratio (z) = 0.22455 0.50085
#
# Static dielectric constant tensor:
#      x y z
#    x 3.773830 0.000000 0.000000 
#    y 0.000000 3.668200 0.000000 
#    z 0.000000 0.000000 3.218470 
# 
# 
# High freq. dielectric constant tensor:
#      x y z
#    x 1.760140 0.000000 0.000000 
#    y 0.000000 1.753430 0.000000 
#    z 0.000000 0.000000 1.722010 
# 
# From -- ./inp_files/17272.got.cif
#   From: 2010.03.12/outbox.cif.g09.slc.cpg/sg49_9_cif.got.tgz:17272.got - 2010.04.14 03:58:27.
