data_PCOD8203291
_publ_section_title
;
Structure prediction by ZEFSAII (Michael W. Deem and Ramdas Pophale) SiO2 
 PCOD8203291
Probable space group: P C C M
;
_chemical_formula_sum "Si O2"
_cell_formula_units_Z 32
_cell_length_a 7.861087
_cell_length_b 5.210108
_cell_length_c 33.825307
_cell_angle_alpha 90.000000
_cell_angle_beta 90.000000
_cell_angle_gamma 90.000000
_cell_volume 1385.386896
_symmetry_space_group_name_H-M "P C C M"
_symmetry_group_IT_number 49
_symmetry_cell_setting 'orthorhombic'
loop_
_space_group_symop_operation_xyz
x,y,z
-x,-y,z
x,-y,1/2-z
-x,y,1/2-z
-x,-y,-z
x,y,-z
-x,y,1/2+z
x,-y,1/2+z
loop_
_atom_site_type_symbol
_atom_site_label
_atom_site_fract_x
_atom_site_fract_y
_atom_site_fract_z
Si Si1 0.307908 0.044743 0.203668
Si Si2 0.312686 0.202982 0.954258
Si Si3 0.309782 0.300707 0.421179
Si Si4 0.189736 0.561180 0.837694
O O1 0.258539 0.331809 0.190089
O O2 0.500000 0.000000 0.189121
O O3 0.291932 0.000000 0.250000
O O4 0.184885 0.828993 0.185709
O O5 0.498479 0.251434 0.935698
O O6 0.217654 0.473922 0.946884
O O7 0.217323 0.972000 0.930396
O O8 0.323582 0.129167 0.000000
O O9 0.307369 0.389811 0.375790
O O10 0.000000 0.500000 0.852022
#
# Coordination Sequence:
#
# PCOD8203291 Si02
#       4
#     8   8   8   8
#     4  11  26  46  70  97 128 168 222 277 320 379
#     4  10  19  34  60  90 120 166 221 270 317 376
#     4  10  20  33  56  89 124 159 207 270 313 373
#     4  12  26  42  66  98 137 176 213 261 334 403
#
# _framework density 23.098241000000002
#
# number of rings (size 3 to 8) (size 9 to 14) (size 15 to 20)
#    0.000    1.250    0.000    7.500   10.500    5.000 
#    0.000    0.000    0.000    8.250    0.000    0.000 
#    0.000    0.000    0.000    0.000    0.000    0.000 
#
# Total GULP energy -396488.508187 kJ/mol
# GULP energy per Si atom -12390.265881 kJ/mol
# Density = 2.304567 g / cm^3
# Si number density = 23.098241 Si / 1000 Ang^3
#
#
#
# Elastic Constant Matrix: (Units=GPa)
#
#
# Indices 1 2 3 4 5 6 
#
# 1 38.5782 10.3353 22.4692 0.0000 0.0000 0.0000
# 2 10.3353 237.0935 68.9359 0.0000 0.0000 0.0000
# 3 22.4692 68.9359 149.0068 0.0000 0.0000 0.0000
# 4 0.0000 0.0000 0.0000 49.7539 0.0000 0.0000
# 5 0.0000 0.0000 0.0000 0.0000 6.0516 0.0000
# 6 0.0000 0.0000 0.0000 0.0000 0.0000 20.8156
#
#
#
# Elastic Compliance Matrix: (Units=1/GPa)
#
#
# Indices 1 2 3 4 5 6 
#
# 1 0.028417 0.000008 -0.004289 0.000000 0.000000 0.000000
# 2 0.000008 0.004873 -0.002256 0.000000 0.000000 0.000000
# 3 -0.004289 -0.002256 0.008401 0.000000 0.000000 0.000000
# 4 0.000000 0.000000 0.000000 0.020099 0.000000 0.000000
# 5 0.000000 0.000000 0.000000 0.000000 0.165247 0.000000
# 6 0.000000 0.000000 0.000000 0.000000 0.000000 0.048041
#
#
# Mechanical properties :
#
#
# Convention : Reuss Voigt Hill
#
# Bulk Modulus (GPa) = 34.94182 69.79546 52.36864
# Shear Modulus (GPa) = 16.79594 36.85343 26.82469
#
# Velocity S-wave (km/s) = 2.69950 3.99871 3.41153
# Velocity P-wave (km/s) = 4.98766 7.18345 6.18380
#
# Compressibility (1/GPa) = 0.02861900
#
# Stress axis : x y z
#
# Youngs Moduli (GPa) = 35.18994 205.20119 119.02696
#
# Poissons Ratio (x) = -0.00170 0.51050
# Poissons Ratio (y) = -0.00029 0.26850
# Poissons Ratio (z) = 0.15093 0.46289
#
# Static dielectric constant tensor:
#      x y z
#    x 3.553000 0.000000 0.000000 
#    y 0.000000 2.040940 0.000000 
#    z 0.000000 0.000000 4.137720 
# 
# 
# High freq. dielectric constant tensor:
#      x y z
#    x 1.862840 0.000000 0.000000 
#    y 0.000000 1.959190 0.000000 
#    z 0.000000 0.000000 1.917600 
# 
# From -- ./inp_files/26062.got.cif
#   From: 2010.03.12/outbox.cif.g09.slc.cpg/sg49_14_cif.got.tgz:26062.got - 2010.04.14 03:58:27.
