data_PCOD8203523
_publ_section_title
;
Structure prediction by ZEFSAII (Michael W. Deem and Ramdas Pophale) SiO2 
 PCOD8203523
Probable space group: P C C M
;
_chemical_formula_sum "Si O2"
_cell_formula_units_Z 64
_cell_length_a 14.785390
_cell_length_b 27.770157
_cell_length_c 8.801327
_cell_angle_alpha 90.000000
_cell_angle_beta 90.000000
_cell_angle_gamma 90.000000
_cell_volume 3613.759751
_symmetry_space_group_name_H-M "P C C M"
_symmetry_group_IT_number 49
_symmetry_cell_setting 'orthorhombic'
loop_
_space_group_symop_operation_xyz
x,y,z
-x,-y,z
x,-y,1/2-z
-x,y,1/2-z
-x,-y,-z
x,y,-z
-x,y,1/2+z
x,-y,1/2+z
loop_
_atom_site_type_symbol
_atom_site_label
_atom_site_fract_x
_atom_site_fract_y
_atom_site_fract_z
Si Si1 0.901807 0.045853 0.677345
Si Si2 0.274771 0.548783 0.679884
Si Si3 0.906643 0.577787 0.323924
Si Si4 0.593859 0.735726 0.677793
Si Si5 0.097650 0.848282 0.677664
Si Si6 0.093030 0.308762 0.324934
Si Si7 0.225373 0.763049 0.319914
Si Si8 0.593754 0.623796 0.678174
O O1 0.908836 0.036814 0.500000
O O2 0.860213 0.098584 0.714118
O O3 0.000000 0.046379 0.750000
O O4 0.847223 0.000000 0.750000
O O5 0.317565 0.500000 0.750000
O O6 0.283475 0.547713 0.500000
O O7 0.170866 0.551247 0.730336
O O8 0.325311 0.595028 0.745391
O O9 0.902453 0.562567 0.500000
O O10 0.895051 0.634675 0.304958
O O11 0.000000 0.560340 0.250000
O O12 0.500000 0.753546 0.750000
O O13 0.590692 0.745669 0.500000
O O14 0.674387 0.766501 0.751342
O O15 0.609985 0.679665 0.714798
O O16 0.082471 0.842013 0.500000
O O17 0.169348 0.809389 0.738527
O O18 0.000000 0.839415 0.750000
O O19 0.092681 0.293122 0.500000
O O20 0.177213 0.284923 0.240289
O O21 0.000000 0.290488 0.250000
O O22 0.232220 0.760970 0.500000
O O23 0.500000 0.605835 0.750000
O O24 0.592386 0.613372 0.500000
#
# Coordination Sequence:
#
# PCOD8203523 Si02
#       8
#     8   8   8   8   8   8   8   8
#     4   9  15  25  40  59  85 121 167 212 253 292
#     4  12  25  40  58  80 105 132 162 197 240 288
#     4  10  21  38  57  77 101 130 166 205 243 284
#     4  10  21  37  57  79 102 129 162 201 242 288
#     4   9  19  31  43  64  97 135 172 211 251 293
#     4  10  20  33  50  73 101 132 166 203 241 285
#     4  11  21  32  48  71 101 135 168 203 246 294
#     4  10  21  39  61  84 107 130 159 195 238 288
#
# _framework density 17.710087000000001
#
# number of rings (size 3 to 8) (size 9 to 14) (size 15 to 20)
#    0.000    1.875    0.000    4.875    0.000    9.000 
#    0.000    2.500    0.000    0.000    0.000    0.000 
#    0.000    0.500    0.000    5.750    0.000    1.750 
#
# Total GULP energy -793650.905337 kJ/mol
# GULP energy per Si atom -12400.795396 kJ/mol
# Density = 1.766978 g / cm^3
# Si number density = 17.710087 Si / 1000 Ang^3
#
#
#
# Elastic Constant Matrix: (Units=GPa)
#
#
# Indices 1 2 3 4 5 6 
#
# 1 104.5449 38.4018 41.0221 0.0000 0.0000 0.0000
# 2 38.4018 66.9336 39.5307 0.0000 0.0000 0.0000
# 3 41.0221 39.5307 100.5892 0.0000 0.0000 0.0000
# 4 0.0000 0.0000 0.0000 49.9128 0.0000 0.0000
# 5 0.0000 0.0000 0.0000 0.0000 33.1198 0.0000
# 6 0.0000 0.0000 0.0000 0.0000 0.0000 12.5139
#
#
#
# Elastic Compliance Matrix: (Units=1/GPa)
#
#
# Indices 1 2 3 4 5 6 
#
# 1 0.012795 -0.005546 -0.003038 0.000000 0.000000 0.000000
# 2 -0.005546 0.021860 -0.006329 0.000000 0.000000 0.000000
# 3 -0.003038 -0.006329 0.013668 0.000000 0.000000 0.000000
# 4 0.000000 0.000000 0.000000 0.020035 0.000000 0.000000
# 5 0.000000 0.000000 0.000000 0.000000 0.030193 0.000000
# 6 0.000000 0.000000 0.000000 0.000000 0.000000 0.079911
#
#
# Mechanical properties :
#
#
# Convention : Reuss Voigt Hill
#
# Bulk Modulus (GPa) = 54.06727 56.66410 55.36569
# Shear Modulus (GPa) = 23.31501 29.31686 26.31593
#
# Velocity S-wave (km/s) = 3.63227 4.07305 3.85896
# Velocity P-wave (km/s) = 6.94165 7.36101 7.15440
#
# Compressibility (1/GPa) = 0.01849548
#
# Stress axis : x y z
#
# Youngs Moduli (GPa) = 78.15711 45.74537 73.16516
#
# Poissons Ratio (x) = 0.25372 0.22229
# Poissons Ratio (y) = 0.43349 0.46306
# Poissons Ratio (z) = 0.23746 0.28952
#
# Static dielectric constant tensor:
#      x y z
#    x 3.164820 0.000000 0.000000 
#    y 0.000000 3.873160 0.000000 
#    z 0.000000 0.000000 3.413340 
# 
# 
# High freq. dielectric constant tensor:
#      x y z
#    x 1.662790 0.000000 0.000000 
#    y 0.000000 1.676310 0.000000 
#    z 0.000000 0.000000 1.702170 
# 
# From -- ./inp_files/4526.got.cif
#   From: 2010.03.12/outbox.cif.g09.slc.cpg/sg49_3_cif.got.tgz:4526.got - 2010.04.14 03:58:27.
