data_PCOD8203086
_publ_section_title
;
Structure prediction by ZEFSAII (Michael W. Deem and Ramdas Pophale) SiO2 
 PCOD8203086
Probable space group: P C C M
;
_chemical_formula_sum "Si O2"
_cell_formula_units_Z 48
_cell_length_a 24.375470
_cell_length_b 13.644426
_cell_length_c 8.488829
_cell_angle_alpha 90.000000
_cell_angle_beta 90.000000
_cell_angle_gamma 90.000000
_cell_volume 2823.293666
_symmetry_space_group_name_H-M "P C C M"
_symmetry_group_IT_number 49
_symmetry_cell_setting 'orthorhombic'
loop_
_space_group_symop_operation_xyz
x,y,z
-x,-y,z
x,-y,1/2-z
-x,y,1/2-z
-x,-y,-z
x,y,-z
-x,y,1/2+z
x,-y,1/2+z
loop_
_atom_site_type_symbol
_atom_site_label
_atom_site_fract_x
_atom_site_fract_y
_atom_site_fract_z
Si Si1 0.720028 0.217817 0.685942
Si Si2 0.658852 0.604250 0.685181
Si Si3 0.054038 0.891314 0.315553
Si Si4 0.826445 0.891887 0.814443
Si Si5 0.619797 0.895219 0.313973
Si Si6 0.558156 0.283965 0.314157
O O1 0.718282 0.237387 0.500000
O O2 0.706628 0.318102 0.776579
O O3 0.779638 0.182141 0.745879
O O4 0.676241 0.134203 0.728748
O O5 0.678625 0.500000 0.750000
O O6 0.648200 0.600869 0.500000
O O7 0.602780 0.633794 0.772389
O O8 0.048584 0.893545 0.500000
O O9 0.113579 0.847713 0.264540
O O10 0.000000 0.833230 0.250000
O O11 0.052425 0.000000 0.250000
O O12 0.816114 0.000000 0.750000
O O13 0.822541 0.901832 0.000000
O O14 0.629055 0.897385 0.500000
O O15 0.572465 0.818026 0.271356
O O16 0.600583 0.000000 0.250000
O O17 0.500000 0.321424 0.250000
O O18 0.556668 0.267521 0.500000
#
# Coordination Sequence:
#
# PCOD8203086 Si02
#       6
#     8   8   8   8   8   8
#     4  10  19  33  50  71  96 124 156 196 237 281
#     4  11  22  38  57  77  97 122 151 187 233 283
#     4   9  15  24  36  55  83 121 162 200 233 268
#     4   9  18  28  42  64  94 128 164 198 234 273
#     4  11  21  34  50  71  97 129 162 195 232 275
#     4  11  22  38  56  77 100 124 154 191 230 276
#
# _framework density 17.00142
#
# number of rings (size 3 to 8) (size 9 to 14) (size 15 to 20)
#    0.000    1.833    0.000    8.500    0.000    4.000 
#    0.000    3.333    0.000    0.000    0.000    0.000 
#    0.000    0.667    0.000    7.667    0.000    2.333 
#
# Total GULP energy -595051.048870 kJ/mol
# GULP energy per Si atom -12396.896851 kJ/mol
# Density = 1.696272 g / cm^3
# Si number density = 17.001420 Si / 1000 Ang^3
#
#
#
# Elastic Constant Matrix: (Units=GPa)
#
#
# Indices 1 2 3 4 5 6 
#
# 1 141.3301 35.7783 24.6797 0.0000 0.0000 0.0000
# 2 35.7783 79.8629 17.0490 0.0000 0.0000 0.0000
# 3 24.6797 17.0490 65.6920 0.0000 0.0000 0.0000
# 4 0.0000 0.0000 0.0000 24.1383 0.0000 0.0000
# 5 0.0000 0.0000 0.0000 0.0000 28.3642 0.0000
# 6 0.0000 0.0000 0.0000 0.0000 0.0000 -4.9948
#
#
#
# Elastic Compliance Matrix: (Units=1/GPa)
#
#
# Indices 1 2 3 4 5 6 
#
# 1 0.008290 -0.003228 -0.002277 0.000000 0.000000 0.000000
# 2 -0.003228 0.014513 -0.002554 0.000000 0.000000 0.000000
# 3 -0.002277 -0.002554 0.016741 0.000000 0.000000 0.000000
# 4 0.000000 0.000000 0.000000 0.041428 0.000000 0.000000
# 5 0.000000 0.000000 0.000000 0.000000 0.035256 0.000000
# 6 0.000000 0.000000 0.000000 0.000000 0.000000 -0.200209
#
#
# Mechanical properties :
#
#
# Convention : Reuss Voigt Hill
#
# Bulk Modulus (GPa) = 42.68643 49.09989 45.89316
# Shear Modulus (GPa) = -83.25661 23.46007 -29.89827
#
# Velocity S-wave (km/s) = -7.00548 3.71872 -4.19809
# Velocity P-wave (km/s) = 6.34614 6.88339 1.88514
#
# Compressibility (1/GPa) = 0.02342665
#
# Stress axis : x y z
#
# Youngs Moduli (GPa) = 120.62124 68.90480 59.73459
#
# Poissons Ratio (x) = 0.22243 0.13601
# Poissons Ratio (y) = 0.38937 0.15255
# Poissons Ratio (z) = 0.27464 0.17597
#
# Static dielectric constant tensor:
#      x y z
#    x 3.964740 0.000000 0.000000 
#    y 0.000000 3.033930 0.000000 
#    z 0.000000 0.000000 3.362410 
# 
# 
# High freq. dielectric constant tensor:
#      x y z
#    x 1.660910 0.000000 0.000000 
#    y 0.000000 1.615110 0.000000 
#    z 0.000000 0.000000 1.674810 
# 
# From -- ./inp_files/6367.got.cif
#   From: 2010.03.12/outbox.cif.g09.slc.cpg/sg49_4_cif.got.tgz:6367.got - 2010.04.14 03:58:27.
