data_PCOD8203110
_publ_section_title
;
Structure prediction by ZEFSAII (Michael W. Deem and Ramdas Pophale) SiO2 
 PCOD8203110
Probable space group: P C C M
;
_chemical_formula_sum "Si O2"
_cell_formula_units_Z 58
_cell_length_a 17.686444
_cell_length_b 18.453321
_cell_length_c 9.760275
_cell_angle_alpha 90.000000
_cell_angle_beta 90.000000
_cell_angle_gamma 90.000000
_cell_volume 3185.496367
_symmetry_space_group_name_H-M "P C C M"
_symmetry_group_IT_number 49
_symmetry_cell_setting 'orthorhombic'
loop_
_space_group_symop_operation_xyz
x,y,z
-x,-y,z
x,-y,1/2-z
-x,y,1/2-z
-x,-y,-z
x,y,-z
-x,y,1/2+z
x,-y,1/2+z
loop_
_atom_site_type_symbol
_atom_site_label
_atom_site_fract_x
_atom_site_fract_y
_atom_site_fract_z
Si Si1 0.625725 0.393552 0.652436
Si Si2 0.500000 0.500000 0.250000
Si Si3 0.692108 0.199874 0.850505
Si Si4 0.204274 0.065336 0.348706
Si Si5 0.928432 0.330624 0.159811
Si Si6 0.932495 0.162588 0.841210
Si Si7 0.431437 0.234770 0.157317
Si Si8 0.760067 0.353451 0.842990
O O1 0.660174 0.397061 0.500000
O O2 0.559000 0.452686 0.662182
O O3 0.582155 0.319403 0.678936
O O4 0.698287 0.399600 0.754646
O O5 0.728702 0.122005 0.857789
O O6 0.638792 0.192300 0.719823
O O7 0.749275 0.266953 0.825240
O O8 0.652243 0.214140 0.000000
O O9 0.187860 0.033518 0.500000
O O10 0.134455 0.111127 0.291705
O O11 0.225745 0.000000 0.250000
O O12 0.914873 0.246195 0.190514
O O13 0.848127 0.369793 0.198887
O O14 0.000000 0.359819 0.250000
O O15 0.947570 0.344065 0.000000
O O16 0.000000 0.133751 0.750000
O O17 0.951540 0.151987 0.000000
O O18 0.500000 0.209213 0.250000
O O19 0.443974 0.212870 0.000000
O O20 0.746949 0.377225 0.000000
#
# Coordination Sequence:
#
# PCOD8203110 Si02
#       8
#     8   2   8   8   8   8   8   8
#     4  10  22  35  52  78 109 145 180 210 239 288
#     4  12  22  40  56  78 120 156 174 198 242 288
#     4   9  17  32  51  69  94 130 165 210 259 305
#     4  10  20  33  48  66  93 128 169 210 258 315
#     4   9  16  28  48  74 101 133 171 216 269 314
#     4   9  17  30  45  64  92 127 167 209 254 307
#     4  10  19  33  52  78 103 128 166 206 244 292
#     4   9  17  32  53  74 101 137 177 216 262 307
#
# _framework density 18.207523999999999
#
# number of rings (size 3 to 8) (size 9 to 14) (size 15 to 20)
#    0.000    2.483    2.069    0.621    0.000    3.586 
#    0.000    1.379    0.000    0.414    0.000    3.379 
#    0.000    3.310    0.000    0.000    0.000    0.000 
#
# Total GULP energy -718544.128391 kJ/mol
# GULP energy per Si atom -12388.691869 kJ/mol
# Density = 1.816608 g / cm^3
# Si number density = 18.207524 Si / 1000 Ang^3
#
#
#
# Elastic Constant Matrix: (Units=GPa)
#
#
# Indices 1 2 3 4 5 6 
#
# 1 122.1797 24.9122 71.4773 0.0000 0.0000 0.0000
# 2 24.9122 39.1358 18.3489 0.0000 0.0000 0.0000
# 3 71.4773 18.3489 101.7872 0.0000 0.0000 0.0000
# 4 0.0000 0.0000 0.0000 7.9231 0.0000 0.0000
# 5 0.0000 0.0000 0.0000 0.0000 35.3451 0.0000
# 6 0.0000 0.0000 0.0000 0.0000 0.0000 19.5540
#
#
#
# Elastic Compliance Matrix: (Units=1/GPa)
#
#
# Indices 1 2 3 4 5 6 
#
# 1 0.014717 -0.004940 -0.009444 0.000000 0.000000 0.000000
# 2 -0.004940 0.029569 -0.001861 0.000000 0.000000 0.000000
# 3 -0.009444 -0.001861 0.016792 0.000000 0.000000 0.000000
# 4 0.000000 0.000000 0.000000 0.126214 0.000000 0.000000
# 5 0.000000 0.000000 0.000000 0.000000 0.028292 0.000000
# 6 0.000000 0.000000 0.000000 0.000000 0.000000 0.051140
#
#
# Mechanical properties :
#
#
# Convention : Reuss Voigt Hill
#
# Bulk Modulus (GPa) = 34.98085 54.73105 44.85595
# Shear Modulus (GPa) = 16.19462 22.45539 19.32500
#
# Velocity S-wave (km/s) = 2.98559 3.51565 3.26141
# Velocity P-wave (km/s) = 5.58024 6.82675 6.23473
#
# Compressibility (1/GPa) = 0.02858707
#
# Stress axis : x y z
#
# Youngs Moduli (GPa) = 67.94932 33.81869 59.55328
#
# Poissons Ratio (x) = 0.16707 0.56242
# Poissons Ratio (y) = 0.33569 0.11084
# Poissons Ratio (z) = 0.64171 0.06294
#
# Static dielectric constant tensor:
#      x y z
#    x 3.496360 0.000000 0.000000 
#    y 0.000000 2.995200 0.000000 
#    z 0.000000 0.000000 3.655760 
# 
# 
# High freq. dielectric constant tensor:
#      x y z
#    x 1.706030 0.000000 0.000000 
#    y 0.000000 1.665670 0.000000 
#    z 0.000000 0.000000 1.708740 
# 
# From -- ./inp_files/5098.got.cif
#   From: 2010.03.12/outbox.cif.g09.slc.cpg/sg49_3_cif.got.tgz:5098.got - 2010.04.14 03:58:27.
