data_PCOD8203025
_publ_section_title
;
Structure prediction by ZEFSAII (Michael W. Deem and Ramdas Pophale) SiO2 
 PCOD8203025
Probable space group: P C C M
;
_chemical_formula_sum "Si O2"
_cell_formula_units_Z 64
_cell_length_a 19.798141
_cell_length_b 19.673463
_cell_length_c 9.094456
_cell_angle_alpha 90.000000
_cell_angle_beta 90.000000
_cell_angle_gamma 90.000000
_cell_volume 3542.272372
_symmetry_space_group_name_H-M "P C C M"
_symmetry_group_IT_number 49
_symmetry_cell_setting 'orthorhombic'
loop_
_space_group_symop_operation_xyz
x,y,z
-x,-y,z
x,-y,1/2-z
-x,y,1/2-z
-x,-y,-z
x,y,-z
-x,y,1/2+z
x,-y,1/2+z
loop_
_atom_site_type_symbol
_atom_site_label
_atom_site_fract_x
_atom_site_fract_y
_atom_site_fract_z
Si Si1 0.244868 0.384862 0.667378
Si Si2 0.067490 0.283967 0.324690
Si Si3 0.431229 0.070699 0.174083
Si Si4 0.434297 0.712014 0.828262
Si Si5 0.100805 0.434974 0.664563
Si Si6 0.388871 0.565344 0.830291
Si Si7 0.336162 0.193684 0.168369
Si Si8 0.199207 0.745797 0.670085
O O1 0.253066 0.356112 0.500000
O O2 0.181915 0.436151 0.673606
O O3 0.310845 0.425703 0.716443
O O4 0.234639 0.323516 0.779801
O O5 0.064852 0.277077 0.500000
O O6 0.074859 0.362625 0.272649
O O7 0.131593 0.240816 0.265503
O O8 0.000000 0.254045 0.250000
O O9 0.500000 0.098831 0.250000
O O10 0.368697 0.120870 0.206506
O O11 0.411232 0.000000 0.250000
O O12 0.443485 0.061010 0.000000
O O13 0.500000 0.743435 0.750000
O O14 0.429671 0.632711 0.786623
O O15 0.367519 0.749164 0.772656
O O16 0.441000 0.724421 0.000000
O O17 0.071014 0.500000 0.750000
O O18 0.074374 0.442940 0.500000
O O19 0.420192 0.500000 0.750000
O O20 0.395572 0.549858 0.000000
O O21 0.254720 0.193880 0.193592
O O22 0.352479 0.213276 0.000000
O O23 0.178116 0.739857 0.500000
#
# Coordination Sequence:
#
# PCOD8203025 Si02
#       8
#     8   8   8   8   8   8   8   8
#     4   9  17  32  47  66  93 120 157 204 256 313
#     4  10  21  36  51  70  98 131 166 209 258 314
#     4  10  20  35  54  81 116 152 187 219 254 303
#     4  11  23  37  53  72  97 129 169 216 266 318
#     4   9  18  29  44  64  89 118 153 198 248 308
#     4  10  21  34  49  67  89 121 161 211 268 323
#     4  10  21  36  56  82 109 138 177 218 257 305
#     4  10  19  32  53  78 101 129 165 209 257 303
#
# _framework density 18.067496999999999
#
# number of rings (size 3 to 8) (size 9 to 14) (size 15 to 20)
#    0.000    2.125    1.250    3.375    0.000    7.000 
#    0.000    2.500    0.000    0.000    0.000    0.000 
#    0.000    0.500    0.000    5.750    0.000    1.750 
#
# Total GULP energy -793452.835740 kJ/mol
# GULP energy per Si atom -12397.700558 kJ/mol
# Density = 1.802638 g / cm^3
# Si number density = 18.067497 Si / 1000 Ang^3
#
#
#
# Elastic Constant Matrix: (Units=GPa)
#
#
# Indices 1 2 3 4 5 6 
#
# 1 108.6817 39.1364 50.0455 0.0000 0.0000 0.0000
# 2 39.1364 60.3159 44.0491 0.0000 0.0000 0.0000
# 3 50.0455 44.0491 88.4809 0.0000 0.0000 0.0000
# 4 0.0000 0.0000 0.0000 19.6829 0.0000 0.0000
# 5 0.0000 0.0000 0.0000 0.0000 25.2367 0.0000
# 6 0.0000 0.0000 0.0000 0.0000 0.0000 22.5938
#
#
#
# Elastic Compliance Matrix: (Units=1/GPa)
#
#
# Indices 1 2 3 4 5 6 
#
# 1 0.013314 -0.004933 -0.005075 0.000000 0.000000 0.000000
# 2 -0.004933 0.027878 -0.011089 0.000000 0.000000 0.000000
# 3 -0.005075 -0.011089 0.019693 0.000000 0.000000 0.000000
# 4 0.000000 0.000000 0.000000 0.050805 0.000000 0.000000
# 5 0.000000 0.000000 0.000000 0.000000 0.039625 0.000000
# 6 0.000000 0.000000 0.000000 0.000000 0.000000 0.044260
#
#
# Mechanical properties :
#
#
# Convention : Reuss Voigt Hill
#
# Bulk Modulus (GPa) = 53.49830 58.21564 55.85697
# Shear Modulus (GPa) = 20.49184 21.78587 21.13886
#
# Velocity S-wave (km/s) = 3.37142 3.47624 3.42423
# Velocity P-wave (km/s) = 6.69551 6.95726 6.82764
#
# Compressibility (1/GPa) = 0.01869218
#
# Stress axis : x y z
#
# Youngs Moduli (GPa) = 75.10651 35.87015 50.78014
#
# Poissons Ratio (x) = 0.17694 0.25771
# Poissons Ratio (y) = 0.37049 0.56309
# Poissons Ratio (z) = 0.38116 0.39776
#
# Static dielectric constant tensor:
#      x y z
#    x 3.450830 0.000000 0.000000 
#    y 0.000000 3.009650 0.000000 
#    z 0.000000 0.000000 3.352670 
# 
# 
# High freq. dielectric constant tensor:
#      x y z
#    x 1.703630 0.000000 0.000000 
#    y 0.000000 1.651090 0.000000 
#    z 0.000000 0.000000 1.707860 
# 
# From -- ./inp_files/6099.got.cif
#   From: 2010.03.12/outbox.cif.g09.slc.cpg/sg49_4_cif.got.tgz:6099.got - 2010.04.14 03:58:27.
