data_PCOD8203500
_publ_section_title
;
Structure prediction by ZEFSAII (Michael W. Deem and Ramdas Pophale) SiO2 
 PCOD8203500
Probable space group: P C C M
;
_chemical_formula_sum "Si O2"
_cell_formula_units_Z 56
_cell_length_a 19.870286
_cell_length_b 15.361773
_cell_length_c 8.856719
_cell_angle_alpha 90.000000
_cell_angle_beta 90.000000
_cell_angle_gamma 90.000000
_cell_volume 2703.449910
_symmetry_space_group_name_H-M "P C C M"
_symmetry_group_IT_number 49
_symmetry_cell_setting 'orthorhombic'
loop_
_space_group_symop_operation_xyz
x,y,z
-x,-y,z
x,-y,1/2-z
-x,y,1/2-z
-x,-y,-z
x,y,-z
-x,y,1/2+z
x,-y,1/2+z
loop_
_atom_site_type_symbol
_atom_site_label
_atom_site_fract_x
_atom_site_fract_y
_atom_site_fract_z
Si Si1 0.169080 0.409199 0.676201
Si Si2 0.930068 0.273027 0.679538
Si Si3 0.749222 0.870000 0.669803
Si Si4 0.432409 0.731842 0.321762
Si Si5 0.118704 0.085708 0.823984
Si Si6 0.400698 0.913897 0.827874
Si Si7 0.301515 0.683785 0.826193
O O1 0.147978 0.500000 0.750000
O O2 0.150499 0.409692 0.500000
O O3 0.129055 0.332666 0.757427
O O4 0.249305 0.394954 0.700034
O O5 0.932082 0.281124 0.500000
O O6 0.917043 0.173789 0.733469
O O7 0.000000 0.305352 0.750000
O O8 0.779182 0.871967 0.500000
O O9 0.802335 0.912669 0.782887
O O10 0.679810 0.922341 0.677487
O O11 0.736882 0.771230 0.722969
O O12 0.500000 0.690839 0.250000
O O13 0.438077 0.731463 0.500000
O O14 0.425208 0.830238 0.263351
O O15 0.368920 0.672142 0.272554
O O16 0.084740 0.000000 0.750000
O O17 0.110761 0.075708 0.000000
O O18 0.431466 0.000000 0.750000
O O19 0.426394 0.906363 0.000000
O O20 0.324391 0.692059 0.000000
#
# Coordination Sequence:
#
# PCOD8203500 Si02
#       7
#     8   8   8   8   8   8   8
#     4  11  23  42  70 101 132 163 200 251 307 371
#     4  11  25  44  65  92 126 167 211 258 311 370
#     4   9  17  32  54  79 111 151 197 247 303 359
#     4  11  22  36  56  81 113 155 201 249 302 365
#     4  11  23  36  56  85 119 160 209 259 306 363
#     4  10  20  33  48  73 108 148 198 252 307 363
#     4   9  19  37  61  88 120 158 197 245 302 359
#
# _framework density 20.714272999999999
#
# number of rings (size 3 to 8) (size 9 to 14) (size 15 to 20)
#    0.000    1.714    1.429    4.286    0.000    7.714 
#    0.000    4.286    0.000    0.429    0.000    3.000 
#    0.000    0.000    0.000    0.000    0.000    0.000 
#
# Total GULP energy -694508.031510 kJ/mol
# GULP energy per Si atom -12401.929134 kJ/mol
# Density = 2.066713 g / cm^3
# Si number density = 20.714273 Si / 1000 Ang^3
#
#
#
# Elastic Constant Matrix: (Units=GPa)
#
#
# Indices 1 2 3 4 5 6 
#
# 1 94.6084 24.9213 48.9289 0.0000 0.0000 0.0000
# 2 24.9213 91.0277 46.3881 0.0000 0.0000 0.0000
# 3 48.9289 46.3881 127.8172 0.0000 0.0000 0.0000
# 4 0.0000 0.0000 0.0000 23.6930 0.0000 0.0000
# 5 0.0000 0.0000 0.0000 0.0000 30.2604 0.0000
# 6 0.0000 0.0000 0.0000 0.0000 0.0000 6.4555
#
#
#
# Elastic Compliance Matrix: (Units=1/GPa)
#
#
# Indices 1 2 3 4 5 6 
#
# 1 0.013300 -0.001284 -0.004625 0.000000 0.000000 0.000000
# 2 -0.001284 0.013602 -0.004445 0.000000 0.000000 0.000000
# 3 -0.004625 -0.004445 0.011207 0.000000 0.000000 0.000000
# 4 0.000000 0.000000 0.000000 0.042207 0.000000 0.000000
# 5 0.000000 0.000000 0.000000 0.000000 0.033047 0.000000
# 6 0.000000 0.000000 0.000000 0.000000 0.000000 0.154907
#
#
# Mechanical properties :
#
#
# Convention : Reuss Voigt Hill
#
# Bulk Modulus (GPa) = 57.46795 61.54775 59.50785
# Shear Modulus (GPa) = 16.96182 24.96278 20.96230
#
# Velocity S-wave (km/s) = 2.86465 3.47522 3.18460
# Velocity P-wave (km/s) = 6.22455 6.77349 6.50481
#
# Compressibility (1/GPa) = 0.01740100
#
# Stress axis : x y z
#
# Youngs Moduli (GPa) = 75.18651 73.51595 89.22612
#
# Poissons Ratio (x) = 0.09441 0.41270
# Poissons Ratio (y) = 0.09656 0.39662
# Poissons Ratio (z) = 0.34776 0.32678
#
# Static dielectric constant tensor:
#      x y z
#    x 3.776320 0.000000 0.000000 
#    y 0.000000 3.618650 0.000000 
#    z 0.000000 0.000000 3.719820 
# 
# 
# High freq. dielectric constant tensor:
#      x y z
#    x 1.810220 0.000000 0.000000 
#    y 0.000000 1.788600 0.000000 
#    z 0.000000 0.000000 1.814860 
# 
# From -- ./inp_files/5770.got.cif
#   From: 2010.03.12/outbox.cif.g09.slc.cpg/sg49_3_cif.got.tgz:5770.got - 2010.04.14 03:58:27.
