data_PCOD8203006
_publ_section_title
;
Structure prediction by ZEFSAII (Michael W. Deem and Ramdas Pophale) SiO2 
 PCOD8203006
Probable space group: P C C M
;
_chemical_formula_sum "Si O2"
_cell_formula_units_Z 64
_cell_length_a 28.408875
_cell_length_b 14.471698
_cell_length_c 8.970868
_cell_angle_alpha 90.000000
_cell_angle_beta 90.000000
_cell_angle_gamma 90.000000
_cell_volume 3688.145052
_symmetry_space_group_name_H-M "P C C M"
_symmetry_group_IT_number 49
_symmetry_cell_setting 'orthorhombic'
loop_
_space_group_symop_operation_xyz
x,y,z
-x,-y,z
x,-y,1/2-z
-x,y,1/2-z
-x,-y,-z
x,y,-z
-x,y,1/2+z
x,-y,1/2+z
loop_
_atom_site_type_symbol
_atom_site_label
_atom_site_fract_x
_atom_site_fract_y
_atom_site_fract_z
Si Si1 0.147506 0.402021 0.326725
Si Si2 0.325357 0.646195 0.334105
Si Si3 0.361809 0.852342 0.332947
Si Si4 0.585142 0.588611 0.674573
Si Si5 0.236855 0.710425 0.175057
Si Si6 0.270760 0.910260 0.824044
Si Si7 0.548735 0.210960 0.823438
Si Si8 0.044080 0.400624 0.674438
O O1 0.156511 0.500000 0.250000
O O2 0.152385 0.423356 0.500000
O O3 0.185404 0.325393 0.276091
O O4 0.095766 0.357759 0.292464
O O5 0.321765 0.603102 0.500000
O O6 0.344056 0.749023 0.344100
O O7 0.361365 0.588379 0.234235
O O8 0.274280 0.645195 0.257831
O O9 0.367577 0.893744 0.500000
O O10 0.323911 0.909355 0.238609
O O11 0.411330 0.855108 0.245733
O O12 0.559375 0.500000 0.750000
O O13 0.586085 0.574013 0.500000
O O14 0.558047 0.682000 0.719020
O O15 0.242121 0.817951 0.222323
O O16 0.246114 0.700456 0.000000
O O17 0.245550 0.000000 0.750000
O O18 0.272419 0.922401 0.000000
O O19 0.500000 0.180135 0.750000
O O20 0.547440 0.196635 0.000000
O O21 0.045087 0.500000 0.750000
O O22 0.034271 0.408809 0.500000
O O23 0.000000 0.344542 0.750000
#
# Coordination Sequence:
#
# PCOD8203006 Si02
#       8
#     8   8   8   8   8   8   8   8
#     4   9  18  30  43  62  90 126 164 198 234 277
#     4   9  17  29  45  63  83 110 144 181 221 264
#     4   9  17  31  50  70  91 114 143 177 213 260
#     4  10  20  32  45  61  83 112 148 188 227 269
#     4   9  18  32  47  65  94 128 158 190 231 279
#     4  10  19  32  52  75  98 124 154 189 230 276
#     4  10  20  33  49  68  89 115 146 181 225 273
#     4   9  15  24  39  58  82 114 155 199 239 277
#
# _framework density 17.352896999999999
#
# number of rings (size 3 to 8) (size 9 to 14) (size 15 to 20)
#    0.000    2.625    0.000    2.625    0.000    6.750 
#    0.000    2.500    0.000    0.375    0.000    2.625 
#    0.000    0.500    0.000    6.250    0.000    0.000 
#
# Total GULP energy -793209.684850 kJ/mol
# GULP energy per Si atom -12393.901326 kJ/mol
# Density = 1.731340 g / cm^3
# Si number density = 17.352897 Si / 1000 Ang^3
#
#
#
# Elastic Constant Matrix: (Units=GPa)
#
#
# Indices 1 2 3 4 5 6 
#
# 1 130.2432 26.9499 40.6756 0.0000 0.0000 0.0000
# 2 26.9499 50.8964 20.4369 0.0000 0.0000 0.0000
# 3 40.6756 20.4369 79.7192 0.0000 0.0000 0.0000
# 4 0.0000 0.0000 0.0000 22.2389 0.0000 0.0000
# 5 0.0000 0.0000 0.0000 0.0000 21.6875 0.0000
# 6 0.0000 0.0000 0.0000 0.0000 0.0000 13.1142
#
#
#
# Elastic Compliance Matrix: (Units=1/GPa)
#
#
# Indices 1 2 3 4 5 6 
#
# 1 0.009661 -0.003496 -0.004033 0.000000 0.000000 0.000000
# 2 -0.003496 0.023168 -0.004155 0.000000 0.000000 0.000000
# 3 -0.004033 -0.004155 0.015667 0.000000 0.000000 0.000000
# 4 0.000000 0.000000 0.000000 0.044966 0.000000 0.000000
# 5 0.000000 0.000000 0.000000 0.000000 0.046110 0.000000
# 6 0.000000 0.000000 0.000000 0.000000 0.000000 0.076253
#
#
# Mechanical properties :
#
#
# Convention : Reuss Voigt Hill
#
# Bulk Modulus (GPa) = 39.79876 48.55372 44.17624
# Shear Modulus (GPa) = 20.19640 22.92788 21.56214
#
# Velocity S-wave (km/s) = 3.41524 3.63887 3.52883
# Velocity P-wave (km/s) = 6.20778 6.75989 6.48971
#
# Compressibility (1/GPa) = 0.02512641
#
# Stress axis : x y z
#
# Youngs Moduli (GPa) = 103.50998 43.16390 63.82781
#
# Poissons Ratio (x) = 0.15090 0.25742
# Poissons Ratio (y) = 0.36188 0.26523
# Poissons Ratio (z) = 0.41746 0.17936
#
# Static dielectric constant tensor:
#      x y z
#    x 3.784400 0.000000 0.000000 
#    y 0.000000 3.076110 0.000000 
#    z 0.000000 0.000000 3.387580 
# 
# 
# High freq. dielectric constant tensor:
#      x y z
#    x 1.658230 0.000000 0.000000 
#    y 0.000000 1.634670 0.000000 
#    z 0.000000 0.000000 1.684540 
# 
# From -- ./inp_files/7065.got.cif
#   From: 2010.03.12/outbox.cif.g09.slc.cpg/sg49_4_cif.got.tgz:7065.got - 2010.04.14 03:58:27.
