data_PCOD8203276
_publ_section_title
;
Structure prediction by ZEFSAII (Michael W. Deem and Ramdas Pophale) SiO2 
 PCOD8203276
Probable space group: P C C M
;
_chemical_formula_sum "Si O2"
_cell_formula_units_Z 64
_cell_length_a 17.821768
_cell_length_b 11.111597
_cell_length_c 15.095248
_cell_angle_alpha 90.000000
_cell_angle_beta 90.000000
_cell_angle_gamma 90.000000
_cell_volume 2989.286358
_symmetry_space_group_name_H-M "P C C M"
_symmetry_group_IT_number 49
_symmetry_cell_setting 'orthorhombic'
loop_
_space_group_symop_operation_xyz
x,y,z
-x,-y,z
x,-y,1/2-z
-x,y,1/2-z
-x,-y,-z
x,y,-z
-x,y,1/2+z
x,-y,1/2+z
loop_
_atom_site_type_symbol
_atom_site_label
_atom_site_fract_x
_atom_site_fract_y
_atom_site_fract_z
Si Si1 0.255041 0.515823 0.146251
Si Si2 0.911349 0.140088 0.749196
Si Si3 0.417860 0.221156 0.270999
Si Si4 0.810617 0.773372 0.400543
Si Si5 0.172605 0.283383 0.099474
Si Si6 0.420472 0.464831 0.351066
Si Si7 0.663144 0.795634 0.902975
Si Si8 0.331579 0.075548 0.403230
O O1 0.261308 0.500000 0.250000
O O2 0.233452 0.651600 0.123353
O O3 0.190238 0.426374 0.110880
O O4 0.340303 0.487592 0.107182
O O5 0.880703 0.205972 0.836502
O O6 0.885757 0.220292 0.665262
O O7 0.000000 0.146979 0.750000
O O8 0.884978 0.000000 0.750000
O O9 0.500000 0.175028 0.250000
O O10 0.415130 0.320810 0.348009
O O11 0.382938 0.266960 0.176903
O O12 0.374388 0.112525 0.314912
O O13 0.842433 0.764416 0.500000
O O14 0.755131 0.887095 0.390347
O O15 0.250125 0.218458 0.118185
O O16 0.142244 0.262640 0.000000
O O17 0.500000 0.500000 0.400681
O O18 0.429805 0.500000 0.250000
O O19 0.651105 0.936235 0.904655
O O20 0.641161 0.741064 0.000000
O O21 0.357948 0.127793 0.500000
#
# Coordination Sequence:
#
# PCOD8203276 Si02
#       8
#     8   8   8   8   8   8   8   8
#     4  11  20  38  68  94 128 174 217 271 325 378
#     4  11  25  45  70 101 135 170 208 254 314 384
#     4  12  22  36  59  80 114 162 207 258 323 379
#     4  11  22  41  68  99 130 168 215 263 317 381
#     4  11  23  41  67  99 132 166 212 266 319 378
#     4  10  19  34  57  90 121 161 212 265 319 380
#     4  10  22  39  59  86 119 158 209 265 315 372
#     4  10  22  39  59  86 119 157 211 266 311 373
#
# _framework density 21.409791999999999
#
# number of rings (size 3 to 8) (size 9 to 14) (size 15 to 20)
#    0.000    1.250    3.750    3.750    0.000    3.500 
#    0.000    3.750    0.000    3.750    0.000    0.000 
#    0.000    0.000    0.000    0.000    0.000    0.000 
#
# Total GULP energy -792915.659657 kJ/mol
# GULP energy per Si atom -12389.307182 kJ/mol
# Density = 2.136106 g / cm^3
# Si number density = 21.409792 Si / 1000 Ang^3
#
#
#
# Elastic Constant Matrix: (Units=GPa)
#
#
# Indices 1 2 3 4 5 6 
#
# 1 97.7408 28.4294 51.4734 0.0000 0.0000 0.0000
# 2 28.4294 62.2615 18.8998 0.0000 0.0000 0.0000
# 3 51.4734 18.8998 125.5940 0.0000 0.0000 0.0000
# 4 0.0000 0.0000 0.0000 12.8120 0.0000 0.0000
# 5 0.0000 0.0000 0.0000 0.0000 -1.3139 0.0000
# 6 0.0000 0.0000 0.0000 0.0000 0.0000 -79.9609
#
#
#
# Elastic Compliance Matrix: (Units=1/GPa)
#
#
# Indices 1 2 3 4 5 6 
#
# 1 0.014400 -0.005013 -0.005147 0.000000 0.000000 0.000000
# 2 -0.005013 0.018575 -0.000741 0.000000 0.000000 0.000000
# 3 -0.005147 -0.000741 0.010183 0.000000 0.000000 0.000000
# 4 0.000000 0.000000 0.000000 0.078052 0.000000 0.000000
# 5 0.000000 0.000000 0.000000 0.000000 -0.761071 0.000000
# 6 0.000000 0.000000 0.000000 0.000000 0.000000 -0.012506
#
#
# Mechanical properties :
#
#
# Convention : Reuss Voigt Hill
#
# Bulk Modulus (GPa) = 46.82421 53.68903 50.25662
# Shear Modulus (GPa) = -8.01993 -1.23966 -4.62979
#
# Velocity S-wave (km/s) = -1.93754 -0.76176 -1.47213
# Velocity P-wave (km/s) = 4.11249 4.93534 4.54258
#
# Compressibility (1/GPa) = 0.02135648
#
# Stress axis : x y z
#
# Youngs Moduli (GPa) = 69.44490 53.83572 98.20072
#
# Poissons Ratio (x) = 0.26986 0.50547
# Poissons Ratio (y) = 0.34811 0.07275
# Poissons Ratio (z) = 0.35746 0.03988
#
# Static dielectric constant tensor:
#      x y z
#    x 3.779780 0.000000 0.000000 
#    y 0.000000 5.514610 0.000000 
#    z 0.000000 0.000000 4.111710 
# 
# 
# High freq. dielectric constant tensor:
#      x y z
#    x 1.812550 0.000000 0.000000 
#    y 0.000000 1.854020 0.000000 
#    z 0.000000 0.000000 1.843500 
# 
# From -- ./inp_files/14182.got.cif
#   From: 2010.03.12/outbox.cif.g09.slc.cpg/sg49_8_cif.got.tgz:14182.got - 2010.04.14 03:58:27.
