data_PCOD8203596
_publ_section_title
;
Structure prediction by ZEFSAII (Michael W. Deem and Ramdas Pophale) SiO2 
 PCOD8203596
Probable space group: P C C M
;
_chemical_formula_sum "Si O2"
_cell_formula_units_Z 48
_cell_length_a 9.474291
_cell_length_b 30.458485
_cell_length_c 8.648209
_cell_angle_alpha 90.000000
_cell_angle_beta 90.000000
_cell_angle_gamma 90.000000
_cell_volume 2495.635727
_symmetry_space_group_name_H-M "P C C M"
_symmetry_group_IT_number 49
_symmetry_cell_setting 'orthorhombic'
loop_
_space_group_symop_operation_xyz
x,y,z
-x,-y,z
x,-y,1/2-z
-x,y,1/2-z
-x,-y,-z
x,y,-z
-x,y,1/2+z
x,-y,1/2+z
loop_
_atom_site_type_symbol
_atom_site_label
_atom_site_fract_x
_atom_site_fract_y
_atom_site_fract_z
Si Si1 0.851604 0.622107 0.817520
Si Si2 0.155146 0.879663 0.683587
Si Si3 0.352218 0.951814 0.184093
Si Si4 0.654369 0.455274 0.316549
Si Si5 0.150149 0.279563 0.816981
Si Si6 0.345484 0.797717 0.317919
O O1 0.738870 0.587075 0.756310
O O2 0.810501 0.671169 0.760685
O O3 0.000000 0.607328 0.750000
O O4 0.862042 0.620974 0.000000
O O5 0.148655 0.885286 0.500000
O O6 0.222034 0.922672 0.760008
O O7 0.249951 0.838458 0.734682
O O8 0.000000 0.872305 0.750000
O O9 0.500000 0.932663 0.250000
O O10 0.325805 0.000000 0.250000
O O11 0.359870 0.953099 0.000000
O O12 0.724047 0.500000 0.250000
O O13 0.500000 0.449706 0.250000
O O14 0.650131 0.458171 0.500000
O O15 0.271338 0.246803 0.755716
O O16 0.000000 0.264617 0.750000
O O17 0.137708 0.276870 0.000000
O O18 0.500000 0.802555 0.250000
O O19 0.360239 0.796220 0.500000
#
# Coordination Sequence:
#
# PCOD8203596 Si02
#       6
#     8   8   8   8   8   8
#     4   9  19  34  53  76 104 135 172 214 261 313
#     4  11  23  39  58  84 114 148 187 229 275 326
#     4  11  22  39  62  88 117 151 188 230 276 326
#     4  10  20  34  51  73 100 134 172 215 261 312
#     4   9  18  35  55  78 106 138 174 216 262 314
#     4  10  22  37  56  81 111 143 180 222 267 318
#
# _framework density 19.233575999999999
#
# number of rings (size 3 to 8) (size 9 to 14) (size 15 to 20)
#    0.000    2.000    0.000    4.500    0.000    6.000 
#    0.000    3.333    0.000    0.000    0.000    0.000 
#    0.000    0.000    0.000    0.000    0.000    0.000 
#
# Total GULP energy -595258.540203 kJ/mol
# GULP energy per Si atom -12401.219588 kJ/mol
# Density = 1.918980 g / cm^3
# Si number density = 19.233576 Si / 1000 Ang^3
#
#
#
# Elastic Constant Matrix: (Units=GPa)
#
#
# Indices 1 2 3 4 5 6 
#
# 1 151.8439 93.9828 44.6095 0.0000 0.0000 0.0000
# 2 93.9828 134.2565 44.7361 0.0000 0.0000 0.0000
# 3 44.6095 44.7361 70.4943 0.0000 0.0000 0.0000
# 4 0.0000 0.0000 0.0000 26.0904 0.0000 0.0000
# 5 0.0000 0.0000 0.0000 0.0000 34.9716 0.0000
# 6 0.0000 0.0000 0.0000 0.0000 0.0000 44.0812
#
#
#
# Elastic Compliance Matrix: (Units=1/GPa)
#
#
# Indices 1 2 3 4 5 6 
#
# 1 0.012066 -0.007485 -0.002886 0.000000 0.000000 0.000000
# 2 -0.007485 0.014089 -0.004204 0.000000 0.000000 0.000000
# 3 -0.002886 -0.004204 0.018680 0.000000 0.000000 0.000000
# 4 0.000000 0.000000 0.000000 0.038328 0.000000 0.000000
# 5 0.000000 0.000000 0.000000 0.000000 0.028595 0.000000
# 6 0.000000 0.000000 0.000000 0.000000 0.000000 0.022685
#
#
# Mechanical properties :
#
#
# Convention : Reuss Voigt Hill
#
# Bulk Modulus (GPa) = 63.75535 80.36127 72.05831
# Shear Modulus (GPa) = 29.61692 32.57972 31.09832
#
# Velocity S-wave (km/s) = 3.92836 4.12016 4.02540
# Velocity P-wave (km/s) = 7.33457 8.03161 7.69099
#
# Compressibility (1/GPa) = 0.01568496
#
# Stress axis : x y z
#
# Youngs Moduli (GPa) = 82.87473 70.97601 53.53413
#
# Poissons Ratio (x) = 0.53128 0.15447
# Poissons Ratio (y) = 0.62034 0.22508
# Poissons Ratio (z) = 0.23914 0.29841
#
# Static dielectric constant tensor:
#      x y z
#    x 3.595180 0.000000 0.000000 
#    y 0.000000 3.969710 0.000000 
#    z 0.000000 0.000000 3.488070 
# 
# 
# High freq. dielectric constant tensor:
#      x y z
#    x 1.747400 0.000000 0.000000 
#    y 0.000000 1.763940 0.000000 
#    z 0.000000 0.000000 1.749050 
# 
# From -- ./inp_files/2056.got.cif
#   From: 2010.03.12/outbox.cif.g09.slc.cpg/sg49_2_cif.got.tgz:2056.got - 2010.04.14 03:58:27.
