data_PCOD8203638
_publ_section_title
;
Structure prediction by ZEFSAII (Michael W. Deem and Ramdas Pophale) SiO2 
 PCOD8203638
Probable space group: P C C M
;
_chemical_formula_sum "Si O2"
_cell_formula_units_Z 56
_cell_length_a 13.488335
_cell_length_b 21.190038
_cell_length_c 9.313612
_cell_angle_alpha 90.000000
_cell_angle_beta 90.000000
_cell_angle_gamma 90.000000
_cell_volume 2662.001039
_symmetry_space_group_name_H-M "P C C M"
_symmetry_group_IT_number 49
_symmetry_cell_setting 'orthorhombic'
loop_
_space_group_symop_operation_xyz
x,y,z
-x,-y,z
x,-y,1/2-z
-x,y,1/2-z
-x,-y,-z
x,y,-z
-x,y,1/2+z
x,-y,1/2+z
loop_
_atom_site_type_symbol
_atom_site_label
_atom_site_fract_x
_atom_site_fract_y
_atom_site_fract_z
Si Si1 0.642808 0.058037 0.000000
Si Si2 0.589829 0.082559 0.500000
Si Si3 0.863823 0.318695 0.160919
Si Si4 0.409745 0.608217 0.334520
Si Si5 0.696345 0.856138 0.252886
Si Si6 0.358549 0.720163 0.154190
Si Si7 0.091849 0.806031 0.330365
Si Si8 0.189026 0.563724 0.670216
O O1 0.527145 0.074243 0.000000
O O2 0.700571 0.086818 0.134846
O O3 0.651677 0.982683 0.000000
O O4 0.619296 0.123642 0.365755
O O5 0.749518 0.307777 0.137805
O O6 0.907599 0.262517 0.256345
O O7 0.877746 0.382205 0.254994
O O8 0.912921 0.323154 0.000000
O O9 0.500000 0.573374 0.250000
O O10 0.436271 0.607018 0.500000
O O11 0.410118 0.681553 0.282153
O O12 0.306000 0.574516 0.302374
O O13 0.646536 0.794243 0.318031
O O14 0.806745 0.844044 0.194182
O O15 0.412988 0.709614 0.000000
O O16 0.072015 0.799659 0.500000
O O17 0.000000 0.841874 0.250000
O O18 0.157706 0.500000 0.750000
O O19 0.166176 0.560978 0.500000
#
# Coordination Sequence:
#
# PCOD8203638 Si02
#       8
#     4   4   8   8   8   8   8   8
#     4  11  24  42  65  89 129 171 219 262 310 366
#     4  11  24  42  63  95 123 171 221 262 308 364
#     4   9  18  34  58  85 117 150 191 245 303 363
#     4  10  21  33  47  69 103 143 191 254 314 372
#     4  11  22  40  64  92 127 165 210 266 315 374
#     4   9  18  33  52  77 108 147 190 240 308 371
#     4  11  23  39  66  99 130 163 205 256 319 386
#     4  10  20  34  53  76 106 151 203 249 302 367
#
# _framework density 21.036805999999999
#
# number of rings (size 3 to 8) (size 9 to 14) (size 15 to 20)
#    0.000    1.857    1.429    2.571    3.000    6.000 
#    0.000    1.429    0.000    3.000    0.000    3.000 
#    0.000    0.000    0.000    0.000    0.000    0.000 
#
# Total GULP energy -694044.162803 kJ/mol
# GULP energy per Si atom -12393.645764 kJ/mol
# Density = 2.098893 g / cm^3
# Si number density = 21.036806 Si / 1000 Ang^3
#
#
#
# Elastic Constant Matrix: (Units=GPa)
#
#
# Indices 1 2 3 4 5 6 
#
# 1 55.8140 5.3603 25.8963 0.0000 0.0000 0.0000
# 2 5.3603 89.1129 35.4690 0.0000 0.0000 0.0000
# 3 25.8963 35.4690 172.0230 0.0000 0.0000 0.0000
# 4 0.0000 0.0000 0.0000 107.0177 0.0000 0.0000
# 5 0.0000 0.0000 0.0000 0.0000 31.8743 0.0000
# 6 0.0000 0.0000 0.0000 0.0000 0.0000 94.7515
#
#
#
# Elastic Compliance Matrix: (Units=1/GPa)
#
#
# Indices 1 2 3 4 5 6 
#
# 1 0.019262 -0.000005 -0.002899 0.000000 0.000000 0.000000
# 2 -0.000005 0.012225 -0.002520 0.000000 0.000000 0.000000
# 3 -0.002899 -0.002520 0.006769 0.000000 0.000000 0.000000
# 4 0.000000 0.000000 0.000000 0.009344 0.000000 0.000000
# 5 0.000000 0.000000 0.000000 0.000000 0.031373 0.000000
# 6 0.000000 0.000000 0.000000 0.000000 0.000000 0.010554
#
#
# Mechanical properties :
#
#
# Convention : Reuss Voigt Hill
#
# Bulk Modulus (GPa) = 36.48414 50.04455 43.26435
# Shear Modulus (GPa) = 45.65756 63.41034 54.53395
#
# Velocity S-wave (km/s) = 4.66377 5.49618 5.09700
# Velocity P-wave (km/s) = 6.81041 8.00737 7.43302
#
# Compressibility (1/GPa) = 0.02740917
#
# Stress axis : x y z
#
# Youngs Moduli (GPa) = 51.91558 81.79969 147.72977
#
# Poissons Ratio (x) = 0.00040 0.42822
# Poissons Ratio (y) = 0.00025 0.37226
# Poissons Ratio (z) = 0.15049 0.20613
#
# Static dielectric constant tensor:
#      x y z
#    x 4.186850 0.000000 0.000000 
#    y 0.000000 3.743840 0.000000 
#    z 0.000000 0.000000 4.036700 
# 
# 
# High freq. dielectric constant tensor:
#      x y z
#    x 1.817770 0.000000 0.000000 
#    y 0.000000 1.806670 0.000000 
#    z 0.000000 0.000000 1.844940 
# 
# From -- ./inp_files/4113.got.cif
#   From: 2010.03.12/outbox.cif.g09.slc.cpg/sg49_3_cif.got.tgz:4113.got - 2010.04.14 03:58:27.
