data_PCOD8203572
_publ_section_title
;
Structure prediction by ZEFSAII (Michael W. Deem and Ramdas Pophale) SiO2 
 PCOD8203572
Probable space group: P C C M
;
_chemical_formula_sum "Si O2"
_cell_formula_units_Z 64
_cell_length_a 14.992027
_cell_length_b 25.032063
_cell_length_c 9.059973
_cell_angle_alpha 90.000000
_cell_angle_beta 90.000000
_cell_angle_gamma 90.000000
_cell_volume 3400.039029
_symmetry_space_group_name_H-M "P C C M"
_symmetry_group_IT_number 49
_symmetry_cell_setting 'orthorhombic'
loop_
_space_group_symop_operation_xyz
x,y,z
-x,-y,z
x,-y,1/2-z
-x,y,1/2-z
-x,-y,-z
x,y,-z
-x,y,1/2+z
x,-y,1/2+z
loop_
_atom_site_type_symbol
_atom_site_label
_atom_site_fract_x
_atom_site_fract_y
_atom_site_fract_z
Si Si1 0.235836 0.144430 0.171967
Si Si2 0.905100 0.650380 0.674329
Si Si3 0.415242 0.862737 0.164557
Si Si4 0.582684 0.736355 0.661283
Si Si5 0.779218 0.443771 0.171614
Si Si6 0.091717 0.946049 0.673082
Si Si7 0.777369 0.745865 0.324539
Si Si8 0.417824 0.443137 0.328245
O O1 0.326224 0.123232 0.246133
O O2 0.162035 0.100230 0.200964
O O3 0.199805 0.198869 0.244525
O O4 0.253996 0.154558 0.000000
O O5 0.917532 0.648084 0.500000
O O6 0.850528 0.598913 0.731498
O O7 0.852415 0.703653 0.720716
O O8 0.000000 0.651145 0.750000
O O9 0.500000 0.887833 0.250000
O O10 0.427830 0.799639 0.152015
O O11 0.409608 0.887527 0.000000
O O12 0.500000 0.710953 0.750000
O O13 0.576889 0.709837 0.500000
O O14 0.680330 0.723839 0.729885
O O15 0.794697 0.500000 0.250000
O O16 0.680386 0.417935 0.197613
O O17 0.793480 0.454898 0.000000
O O18 0.075826 0.956332 0.500000
O O19 0.000000 0.928155 0.750000
O O20 0.127557 0.000000 0.750000
O O21 0.772888 0.756201 0.500000
O O22 0.413720 0.500000 0.250000
O O23 0.500000 0.410541 0.250000
O O24 0.439332 0.449305 0.500000
#
# Coordination Sequence:
#
# PCOD8203572 Si02
#       8
#     8   8   8   8   8   8   8   8
#     4  10  20  33  52  80 109 138 176 217 258 309
#     4  10  22  40  57  74  99 132 170 214 264 312
#     4   9  16  27  46  73 105 141 178 216 258 304
#     4   8  14  25  43  68  96 128 163 198 239 288
#     4   9  19  35  55  77 102 132 167 209 255 306
#     4  10  21  36  55  78 105 137 173 218 267 315
#     4   9  19  35  53  73 102 139 173 206 253 310
#     4   9  15  25  44  71 101 131 160 193 237 289
#
# _framework density 18.823314
#
# number of rings (size 3 to 8) (size 9 to 14) (size 15 to 20)
#    0.000    2.750    0.000    3.000    0.000    7.250 
#    0.000    4.375    0.000    0.375    0.000    2.625 
#    0.000    0.000    0.000    0.000    0.000    0.000 
#
# Total GULP energy -793219.488720 kJ/mol
# GULP energy per Si atom -12394.054511 kJ/mol
# Density = 1.878047 g / cm^3
# Si number density = 18.823314 Si / 1000 Ang^3
#
#
#
# Elastic Constant Matrix: (Units=GPa)
#
#
# Indices 1 2 3 4 5 6 
#
# 1 172.6580 74.6901 74.5644 0.0000 0.0000 0.0000
# 2 74.6901 83.1016 50.9440 0.0000 0.0000 0.0000
# 3 74.5644 50.9440 106.0860 0.0000 0.0000 0.0000
# 4 0.0000 0.0000 0.0000 16.3015 0.0000 0.0000
# 5 0.0000 0.0000 0.0000 0.0000 36.2830 0.0000
# 6 0.0000 0.0000 0.0000 0.0000 0.0000 -17.7114
#
#
#
# Elastic Compliance Matrix: (Units=1/GPa)
#
#
# Indices 1 2 3 4 5 6 
#
# 1 0.010586 -0.007020 -0.004070 0.000000 0.000000 0.000000
# 2 -0.007020 0.021709 -0.005491 0.000000 0.000000 0.000000
# 3 -0.004070 -0.005491 0.014924 0.000000 0.000000 0.000000
# 4 0.000000 0.000000 0.000000 0.061344 0.000000 0.000000
# 5 0.000000 0.000000 0.000000 0.000000 0.027561 0.000000
# 6 0.000000 0.000000 0.000000 0.000000 0.000000 -0.056461
#
#
# Mechanical properties :
#
#
# Convention : Reuss Voigt Hill
#
# Bulk Modulus (GPa) = 71.13477 84.69362 77.91420
# Shear Modulus (GPa) = 42.55014 17.75111 30.15063
#
# Velocity S-wave (km/s) = 4.75963 3.07422 4.00655
# Velocity P-wave (km/s) = 8.25096 7.59558 7.93004
#
# Compressibility (1/GPa) = 0.01405782
#
# Stress axis : x y z
#
# Youngs Moduli (GPa) = 94.46522 46.06455 67.00830
#
# Poissons Ratio (x) = 0.32336 0.27270
# Poissons Ratio (y) = 0.66311 0.36794
# Poissons Ratio (z) = 0.38443 0.25294
#
# Static dielectric constant tensor:
#      x y z
#    x 3.912040 0.000000 0.000000 
#    y 0.000000 3.106700 0.000000 
#    z 0.000000 0.000000 3.585450 
# 
# 
# High freq. dielectric constant tensor:
#      x y z
#    x 1.743820 0.000000 0.000000 
#    y 0.000000 1.696600 0.000000 
#    z 0.000000 0.000000 1.734690 
# 
# From -- ./inp_files/4373.got.cif
#   From: 2010.03.12/outbox.cif.g09.slc.cpg/sg49_3_cif.got.tgz:4373.got - 2010.04.14 03:58:27.
