data_PCOD8203168
_publ_section_title
;
Structure prediction by ZEFSAII (Michael W. Deem and Ramdas Pophale) SiO2 
 PCOD8203168
Probable space group: P C C M
;
_chemical_formula_sum "Si O2"
_cell_formula_units_Z 48
_cell_length_a 15.639025
_cell_length_b 8.940552
_cell_length_c 15.288693
_cell_angle_alpha 90.000000
_cell_angle_beta 90.000000
_cell_angle_gamma 90.000000
_cell_volume 2137.688237
_symmetry_space_group_name_H-M "P C C M"
_symmetry_group_IT_number 49
_symmetry_cell_setting 'orthorhombic'
loop_
_space_group_symop_operation_xyz
x,y,z
-x,-y,z
x,-y,1/2-z
-x,y,1/2-z
-x,-y,-z
x,y,-z
-x,y,1/2+z
x,-y,1/2+z
loop_
_atom_site_type_symbol
_atom_site_label
_atom_site_fract_x
_atom_site_fract_y
_atom_site_fract_z
Si Si1 0.252839 0.087119 0.099345
Si Si2 0.914033 0.933525 0.653751
Si Si3 0.081729 0.599557 0.103272
Si Si4 0.415508 0.083093 0.395456
Si Si5 0.584722 0.580350 0.395692
Si Si6 0.245558 0.582014 0.604270
O O1 0.238594 0.249639 0.143362
O O2 0.168683 0.984869 0.100290
O O3 0.332437 0.001324 0.143942
O O4 0.279323 0.116611 0.000000
O O5 0.921734 0.754918 0.655340
O O6 0.904400 0.000000 0.750000
O O7 0.000000 0.000000 0.609299
O O8 0.164807 0.512113 0.137837
O O9 0.000000 0.500000 0.127543
O O10 0.085286 0.633755 0.000000
O O11 0.413513 0.085636 0.500000
O O12 0.414358 0.251436 0.359115
O O13 0.500000 0.000000 0.360770
O O14 0.500000 0.500000 0.359214
O O15 0.584878 0.579112 0.500000
O O16 0.667792 0.493293 0.360065
O O17 0.243348 0.584619 0.500000
#
# Coordination Sequence:
#
# PCOD8203168 Si02
#       6
#     8   8   8   8   8   8
#     4  10  19  33  55  80 108 143 184 229 275 331
#     4  11  24  40  55  78 111 146 184 226 281 344
#     4  10  20  36  60  86 110 140 183 235 287 338
#     4   9  16  26  44  74 108 140 175 220 276 330
#     4   9  15  23  37  62 101 141 171 207 260 321
#     4   9  17  29  47  75 105 134 173 219 268 319
#
# _framework density 22.454163999999999
#
# number of rings (size 3 to 8) (size 9 to 14) (size 15 to 20)
#    0.000    2.333    0.000    3.500    0.000    9.333 
#    0.000    5.833    0.000    0.500    0.000    0.000 
#    0.000    1.333    0.000    0.000    0.000    0.000 
#
# Total GULP energy -595222.569437 kJ/mol
# GULP energy per Si atom -12400.470197 kJ/mol
# Density = 2.240306 g / cm^3
# Si number density = 22.454164 Si / 1000 Ang^3
#
#
#
# Elastic Constant Matrix: (Units=GPa)
#
#
# Indices 1 2 3 4 5 6 
#
# 1 230.3532 113.3273 0.7764 0.0000 0.0000 0.0000
# 2 113.3273 241.9947 18.1462 0.0000 0.0000 0.0000
# 3 0.7764 18.1462 19.6795 0.0000 0.0000 0.0000
# 4 0.0000 0.0000 0.0000 18.0279 0.0000 0.0000
# 5 0.0000 0.0000 0.0000 0.0000 -5.7629 0.0000
# 6 0.0000 0.0000 0.0000 0.0000 0.0000 52.7674
#
#
#
# Elastic Compliance Matrix: (Units=1/GPa)
#
#
# Indices 1 2 3 4 5 6 
#
# 1 0.005746 -0.002873 0.002422 0.000000 0.000000 0.000000
# 2 -0.002873 0.005875 -0.005304 0.000000 0.000000 0.000000
# 3 0.002422 -0.005304 0.055610 0.000000 0.000000 0.000000
# 4 0.000000 0.000000 0.000000 0.055470 0.000000 0.000000
# 5 0.000000 0.000000 0.000000 0.000000 -0.173523 0.000000
# 6 0.000000 0.000000 0.000000 0.000000 0.000000 0.018951
#
#
# Mechanical properties :
#
#
# Convention : Reuss Voigt Hill
#
# Bulk Modulus (GPa) = 17.94635 84.05859 51.00247
# Shear Modulus (GPa) = -2796.27117 36.99165 -1379.63976
#
# Velocity S-wave (km/s) = -35.32743 4.06326 -24.81449
# Velocity P-wave (km/s) = 40.69431 7.71559 28.25329
#
# Compressibility (1/GPa) = 0.05572165
#
# Stress axis : x y z
#
# Youngs Moduli (GPa) = 174.02675 170.20334 17.98252
#
# Poissons Ratio (x) = 0.48893 -0.04356
# Poissons Ratio (y) = 0.49991 0.09538
# Poissons Ratio (z) = -0.42151 0.90280
#
# Static dielectric constant tensor:
#      x y z
#    x 4.333230 0.000000 0.000000 
#    y 0.000000 4.256260 0.000000 
#    z 0.000000 0.000000 3.238720 
# 
# 
# High freq. dielectric constant tensor:
#      x y z
#    x 1.902550 0.000000 0.000000 
#    y 0.000000 1.901810 0.000000 
#    z 0.000000 0.000000 1.826330 
# 
# From -- ./inp_files/16325.got.cif
#   From: 2010.03.12/outbox.cif.g09.slc.cpg/sg49_9_cif.got.tgz:16325.got - 2010.04.14 03:58:27.
