data_PCOD8203587
_publ_section_title
;
Structure prediction by ZEFSAII (Michael W. Deem and Ramdas Pophale) SiO2 
 PCOD8203587
Probable space group: P C C M
;
_chemical_formula_sum "Si O2"
_cell_formula_units_Z 40
_cell_length_a 13.704529
_cell_length_b 18.685535
_cell_length_c 8.601437
_cell_angle_alpha 90.000000
_cell_angle_beta 90.000000
_cell_angle_gamma 90.000000
_cell_volume 2202.625506
_symmetry_space_group_name_H-M "P C C M"
_symmetry_group_IT_number 49
_symmetry_cell_setting 'orthorhombic'
loop_
_space_group_symop_operation_xyz
x,y,z
-x,-y,z
x,-y,1/2-z
-x,y,1/2-z
-x,-y,-z
x,y,-z
-x,y,1/2+z
x,-y,1/2+z
loop_
_atom_site_type_symbol
_atom_site_label
_atom_site_fract_x
_atom_site_fract_y
_atom_site_fract_z
Si Si1 0.395246 0.077003 0.815447
Si Si2 0.396946 0.658444 0.684318
Si Si3 0.791087 0.575670 0.181600
Si Si4 0.105071 0.282668 0.815497
Si Si5 0.289715 0.208589 0.315846
O O1 0.500000 0.101063 0.750000
O O2 0.313961 0.132440 0.759113
O O3 0.364764 0.000000 0.750000
O O4 0.400432 0.074102 0.000000
O O5 0.500000 0.631783 0.750000
O O6 0.400186 0.667913 0.500000
O O7 0.317367 0.599147 0.735231
O O8 0.369455 0.734310 0.758410
O O9 0.822444 0.500000 0.250000
O O10 0.867775 0.636269 0.235417
O O11 0.793776 0.567045 0.000000
O O12 0.181682 0.228469 0.740217
O O13 0.000000 0.262575 0.750000
O O14 0.108974 0.274063 0.000000
O O15 0.293337 0.203528 0.500000
#
# Coordination Sequence:
#
# PCOD8203587 Si02
#       5
#     8   8   8   8   8
#     4  11  21  35  54  81 115 149 182 217 255 304
#     4  10  20  34  50  73 102 137 177 218 260 311
#     4   9  20  35  51  72 102 134 171 215 263 314
#     4  10  21  38  57  80 104 133 172 218 266 316
#     4  11  21  35  55  79 106 140 176 217 263 310
#
# _framework density 18.160145
#
# number of rings (size 3 to 8) (size 9 to 14) (size 15 to 20)
#    0.000    1.800    0.000    7.200    0.000    5.600 
#    0.000    4.000    0.000    0.600    0.000    4.200 
#    0.000    0.000    0.000    0.000    0.000    0.000 
#
# Total GULP energy -496115.115988 kJ/mol
# GULP energy per Si atom -12402.877900 kJ/mol
# Density = 1.811881 g / cm^3
# Si number density = 18.160145 Si / 1000 Ang^3
#
#
#
# Elastic Constant Matrix: (Units=GPa)
#
#
# Indices 1 2 3 4 5 6 
#
# 1 85.7674 35.8700 30.4520 0.0000 0.0000 0.0000
# 2 35.8700 110.3120 41.4402 0.0000 0.0000 0.0000
# 3 30.4520 41.4402 122.6809 0.0000 0.0000 0.0000
# 4 0.0000 0.0000 0.0000 30.8787 0.0000 0.0000
# 5 0.0000 0.0000 0.0000 0.0000 8347.6066 0.0000
# 6 0.0000 0.0000 0.0000 0.0000 0.0000 18.1383
#
#
#
# Elastic Compliance Matrix: (Units=1/GPa)
#
#
# Indices 1 2 3 4 5 6 
#
# 1 0.014003 -0.003720 -0.002219 0.000000 0.000000 0.000000
# 2 -0.003720 0.011371 -0.002918 0.000000 0.000000 0.000000
# 3 -0.002219 -0.002918 0.009688 0.000000 0.000000 0.000000
# 4 0.000000 0.000000 0.000000 0.032385 0.000000 0.000000
# 5 0.000000 0.000000 0.000000 0.000000 0.000120 0.000000
# 6 0.000000 0.000000 0.000000 0.000000 0.000000 0.055132
#
#
# Mechanical properties :
#
#
# Convention : Reuss Voigt Hill
#
# Bulk Modulus (GPa) = 57.64285 59.36496 58.50391
# Shear Modulus (GPa) = 34.20111 1693.39125 863.79618
#
# Velocity S-wave (km/s) = 4.34442 30.56961 21.83317
# Velocity P-wave (km/s) = 7.54822 35.75978 25.84316
#
# Compressibility (1/GPa) = 0.01734820
#
# Stress axis : x y z
#
# Youngs Moduli (GPa) = 71.41280 87.94501 103.22392
#
# Poissons Ratio (x) = 0.32712 0.22910
# Poissons Ratio (y) = 0.26563 0.30117
# Poissons Ratio (z) = 0.15850 0.25659
#
# Static dielectric constant tensor:
#      x y z
#    x 3.237780 0.000000 0.000000 
#    y 0.000000 6.107840 0.000000 
#    z 0.000000 0.000000 3.426020 
# 
# 
# High freq. dielectric constant tensor:
#      x y z
#    x 1.696670 0.000000 0.000000 
#    y 0.000000 1.696640 0.000000 
#    z 0.000000 0.000000 1.720450 
# 
# From -- ./inp_files/2674.got.cif
#   From: 2010.03.12/outbox.cif.g09.slc.cpg/sg49_2_cif.got.tgz:2674.got - 2010.04.14 03:58:27.
