data_PCOD8203482
_publ_section_title
;
Structure prediction by ZEFSAII (Michael W. Deem and Ramdas Pophale) SiO2 
 PCOD8203482
Probable space group: P C C M
;
_chemical_formula_sum "Si O2"
_cell_formula_units_Z 56
_cell_length_a 22.630528
_cell_length_b 14.776818
_cell_length_c 8.676056
_cell_angle_alpha 90.000000
_cell_angle_beta 90.000000
_cell_angle_gamma 90.000000
_cell_volume 2901.335538
_symmetry_space_group_name_H-M "P C C M"
_symmetry_group_IT_number 49
_symmetry_cell_setting 'orthorhombic'
loop_
_space_group_symop_operation_xyz
x,y,z
-x,-y,z
x,-y,1/2-z
-x,y,1/2-z
-x,-y,-z
x,y,-z
-x,y,1/2+z
x,-y,1/2+z
loop_
_atom_site_type_symbol
_atom_site_label
_atom_site_fract_x
_atom_site_fract_y
_atom_site_fract_z
Si Si1 0.215054 0.408282 0.320400
Si Si2 0.829096 0.782656 0.322027
Si Si3 0.937263 0.096512 0.182358
Si Si4 0.735650 0.092411 0.679575
Si Si5 0.439461 0.724104 0.182406
Si Si6 0.399636 0.094800 0.183045
Si Si7 0.657212 0.594959 0.182889
O O1 0.186778 0.500000 0.250000
O O2 0.228291 0.423419 0.500000
O O3 0.169501 0.325529 0.293029
O O4 0.276302 0.385689 0.236566
O O5 0.818443 0.805193 0.500000
O O6 0.890393 0.827087 0.266144
O O7 0.774011 0.822505 0.230378
O O8 0.000000 0.126984 0.250000
O O9 0.917091 0.000000 0.250000
O O10 0.942560 0.087573 0.000000
O O11 0.739816 0.080918 0.500000
O O12 0.668543 0.108614 0.732450
O O13 0.761670 0.000000 0.750000
O O14 0.500000 0.681721 0.250000
O O15 0.437333 0.828390 0.233348
O O16 0.383688 0.674264 0.255128
O O17 0.438550 0.713926 0.000000
O O18 0.422991 0.000000 0.250000
O O19 0.408656 0.099411 0.000000
O O20 0.634016 0.500000 0.250000
O O21 0.654605 0.593111 0.000000
#
# Coordination Sequence:
#
# PCOD8203482 Si02
#       7
#     8   8   8   8   8   8   8
#     4  10  20  36  57  83 112 143 177 220 269 321
#     4  10  21  34  52  78 110 143 180 223 269 317
#     4  10  20  35  53  77 108 146 186 226 267 314
#     4  10  20  32  51  78 109 140 174 214 263 319
#     4  12  25  41  59  81 107 139 179 225 271 322
#     4  10  21  38  57  80 108 142 180 222 269 323
#     4  11  22  39  61  86 113 143 177 217 268 328
#
# _framework density 19.301455000000001
#
# number of rings (size 3 to 8) (size 9 to 14) (size 15 to 20)
#    0.000    1.571    0.000    6.857    0.000    8.000 
#    0.000    2.857    0.000    0.429    0.000    3.000 
#    0.000    0.000    0.000    0.000    0.000    0.000 
#
# Total GULP energy -694606.132340 kJ/mol
# GULP energy per Si atom -12403.680935 kJ/mol
# Density = 1.925752 g / cm^3
# Si number density = 19.301455 Si / 1000 Ang^3
#
#
#
# Elastic Constant Matrix: (Units=GPa)
#
#
# Indices 1 2 3 4 5 6 
#
# 1 71.5953 48.2188 35.7297 0.0000 0.0000 0.0000
# 2 48.2188 118.3794 42.1716 0.0000 0.0000 0.0000
# 3 35.7297 42.1716 119.6863 0.0000 0.0000 0.0000
# 4 0.0000 0.0000 0.0000 35.6062 0.0000 0.0000
# 5 0.0000 0.0000 0.0000 0.0000 4.6285 0.0000
# 6 0.0000 0.0000 0.0000 0.0000 0.0000 21.8125
#
#
#
# Elastic Compliance Matrix: (Units=1/GPa)
#
#
# Indices 1 2 3 4 5 6 
#
# 1 0.020548 -0.007072 -0.003642 0.000000 0.000000 0.000000
# 2 -0.007072 0.012094 -0.002150 0.000000 0.000000 0.000000
# 3 -0.003642 -0.002150 0.010200 0.000000 0.000000 0.000000
# 4 0.000000 0.000000 0.000000 0.028085 0.000000 0.000000
# 5 0.000000 0.000000 0.000000 0.000000 0.216054 0.000000
# 6 0.000000 0.000000 0.000000 0.000000 0.000000 0.045845
#
#
# Mechanical properties :
#
#
# Convention : Reuss Voigt Hill
#
# Bulk Modulus (GPa) = 58.43483 62.43345 60.43414
# Shear Modulus (GPa) = 13.72646 24.64549 19.18597
#
# Velocity S-wave (km/s) = 2.66965 3.57721 3.15622
# Velocity P-wave (km/s) = 6.31215 7.03411 6.68289
#
# Compressibility (1/GPa) = 0.01711308
#
# Stress axis : x y z
#
# Youngs Moduli (GPa) = 48.66608 82.68513 98.03834
#
# Poissons Ratio (x) = 0.58477 0.35708
# Poissons Ratio (y) = 0.34418 0.21079
# Poissons Ratio (z) = 0.17726 0.17778
#
# Static dielectric constant tensor:
#      x y z
#    x 3.471110 0.000000 0.000000 
#    y 0.000000 3.816290 0.000000 
#    z 0.000000 0.000000 3.605230 
# 
# 
# High freq. dielectric constant tensor:
#      x y z
#    x 1.732680 0.000000 0.000000 
#    y 0.000000 1.755100 0.000000 
#    z 0.000000 0.000000 1.766260 
# 
# From -- ./inp_files/5823.got.cif
#   From: 2010.03.12/outbox.cif.g09.slc.cpg/sg49_3_cif.got.tgz:5823.got - 2010.04.14 03:58:27.
