data_PCOD8203522
_publ_section_title
;
Structure prediction by ZEFSAII (Michael W. Deem and Ramdas Pophale) SiO2 
 PCOD8203522
Probable space group: P C C M
;
_chemical_formula_sum "Si O2"
_cell_formula_units_Z 58
_cell_length_a 18.739949
_cell_length_b 18.748012
_cell_length_c 8.932093
_cell_angle_alpha 90.000000
_cell_angle_beta 90.000000
_cell_angle_gamma 90.000000
_cell_volume 3138.172871
_symmetry_space_group_name_H-M "P C C M"
_symmetry_group_IT_number 49
_symmetry_cell_setting 'orthorhombic'
loop_
_space_group_symop_operation_xyz
x,y,z
-x,-y,z
x,-y,1/2-z
-x,y,1/2-z
-x,-y,-z
x,y,-z
-x,y,1/2+z
x,-y,1/2+z
loop_
_atom_site_type_symbol
_atom_site_label
_atom_site_fract_x
_atom_site_fract_y
_atom_site_fract_z
Si Si1 0.202323 0.427048 0.175617
Si Si2 0.576576 0.225089 0.825407
Si Si3 0.000000 0.000000 0.750000
Si Si4 0.705787 0.708926 0.174469
Si Si5 0.923603 0.653583 0.674821
Si Si6 0.169878 0.211265 0.673906
Si Si7 0.423430 0.066910 0.673935
Si Si8 0.864057 0.067114 0.665978
O O1 0.229033 0.500000 0.250000
O O2 0.264072 0.369618 0.208863
O O3 0.128039 0.404265 0.250427
O O4 0.189501 0.436857 0.000000
O O5 0.500000 0.233884 0.750000
O O6 0.629859 0.282959 0.755327
O O7 0.610225 0.145415 0.798965
O O8 0.567172 0.240640 0.000000
O O9 0.948727 0.949853 0.851037
O O10 0.759676 0.767745 0.236800
O O11 0.695467 0.722544 0.000000
O O12 0.929837 0.636198 0.500000
O O13 0.893291 0.732583 0.703744
O O14 0.000000 0.647366 0.750000
O O15 0.189694 0.206910 0.500000
O O16 0.144123 0.135604 0.731320
O O17 0.500000 0.069351 0.750000
O O18 0.431084 0.050380 0.500000
O O19 0.380169 0.000000 0.750000
O O20 0.831577 0.078534 0.500000
O O21 0.825773 0.000000 0.750000
#
# Coordination Sequence:
#
# PCOD8203522 Si02
#       8
#     8   8   2   8   8   8   8   8
#     4  10  21  38  60  84 110 142 178 216 261 319
#     4  10  20  34  55  83 113 145 182 225 272 322
#     4   8  22  32  50  72 102 136 182 232 286 328
#     4  10  21  38  59  83 110 141 178 219 266 322
#     4  10  21  35  53  80 111 143 179 222 268 317
#     4  10  21  36  54  76 105 142 182 226 276 327
#     4   9  16  26  43  69 101 136 172 210 252 299
#     4  10  20  33  50  72 101 137 183 232 280 329
#
# _framework density 18.482092000000002
#
# number of rings (size 3 to 8) (size 9 to 14) (size 15 to 20)
#    0.414    1.793    0.000    3.517    0.966    5.241 
#    0.000    2.069    0.000    2.069    0.000    2.897 
#    0.000    0.000    0.000    0.000    0.000    0.000 
#
# Total GULP energy -718951.166067 kJ/mol
# GULP energy per Si atom -12395.709760 kJ/mol
# Density = 1.844003 g / cm^3
# Si number density = 18.482092 Si / 1000 Ang^3
#
#
#
# Elastic Constant Matrix: (Units=GPa)
#
#
# Indices 1 2 3 4 5 6 
#
# 1 96.7123 49.9212 56.7796 0.0000 0.0000 0.0000
# 2 49.9212 117.8281 59.6829 0.0000 0.0000 0.0000
# 3 56.7796 59.6829 132.4723 0.0000 0.0000 0.0000
# 4 0.0000 0.0000 0.0000 24.6427 0.0000 0.0000
# 5 0.0000 0.0000 0.0000 0.0000 29.9215 0.0000
# 6 0.0000 0.0000 0.0000 0.0000 0.0000 16.2428
#
#
#
# Elastic Compliance Matrix: (Units=1/GPa)
#
#
# Indices 1 2 3 4 5 6 
#
# 1 0.015184 -0.004064 -0.004677 0.000000 0.000000 0.000000
# 2 -0.004064 0.012084 -0.003702 0.000000 0.000000 0.000000
# 3 -0.004677 -0.003702 0.011221 0.000000 0.000000 0.000000
# 4 0.000000 0.000000 0.000000 0.040580 0.000000 0.000000
# 5 0.000000 0.000000 0.000000 0.000000 0.033421 0.000000
# 6 0.000000 0.000000 0.000000 0.000000 0.000000 0.061566
#
#
# Mechanical properties :
#
#
# Convention : Reuss Voigt Hill
#
# Bulk Modulus (GPa) = 73.51618 75.53112 74.52365
# Shear Modulus (GPa) = 24.57292 26.20335 25.38814
#
# Velocity S-wave (km/s) = 3.65026 3.76941 3.71031
# Velocity P-wave (km/s) = 7.59139 7.73954 7.66582
#
# Compressibility (1/GPa) = 0.01360245
#
# Stress axis : x y z
#
# Youngs Moduli (GPa) = 65.86096 82.75337 89.11541
#
# Poissons Ratio (x) = 0.33630 0.41679
# Poissons Ratio (y) = 0.26765 0.32994
# Poissons Ratio (z) = 0.30803 0.30639
#
# Static dielectric constant tensor:
#      x y z
#    x 3.110180 0.000000 0.000000 
#    y 0.000000 3.644560 0.000000 
#    z 0.000000 0.000000 3.515760 
# 
# 
# High freq. dielectric constant tensor:
#      x y z
#    x 1.688470 0.000000 0.000000 
#    y 0.000000 1.714760 0.000000 
#    z 0.000000 0.000000 1.736540 
# 
# From -- ./inp_files/5110.got.cif
#   From: 2010.03.12/outbox.cif.g09.slc.cpg/sg49_3_cif.got.tgz:5110.got - 2010.04.14 03:58:27.
