data_PCOD8203340
_publ_section_title
;
Structure prediction by ZEFSAII (Michael W. Deem and Ramdas Pophale) SiO2 
 PCOD8203340
Probable space group: P C C M
;
_chemical_formula_sum "Si O2"
_cell_formula_units_Z 64
_cell_length_a 9.219011
_cell_length_b 19.356309
_cell_length_c 16.575308
_cell_angle_alpha 90.000000
_cell_angle_beta 90.000000
_cell_angle_gamma 90.000000
_cell_volume 2957.797836
_symmetry_space_group_name_H-M "P C C M"
_symmetry_group_IT_number 49
_symmetry_cell_setting 'orthorhombic'
loop_
_space_group_symop_operation_xyz
x,y,z
-x,-y,z
x,-y,1/2-z
-x,y,1/2-z
-x,-y,-z
x,y,-z
-x,y,1/2+z
x,-y,1/2+z
loop_
_atom_site_type_symbol
_atom_site_label
_atom_site_fract_x
_atom_site_fract_y
_atom_site_fract_z
Si Si1 0.655257 0.365643 0.094037
Si Si2 0.950563 0.183591 0.838741
Si Si3 0.161472 0.520272 0.842411
Si Si4 0.652088 0.203802 0.905541
Si Si5 0.655814 0.596468 0.093166
Si Si6 0.900259 0.059034 0.591815
Si Si7 0.163044 0.277541 0.904753
Si Si8 0.650401 0.147419 0.404350
O O1 0.793325 0.399605 0.141826
O O2 0.632569 0.284834 0.110538
O O3 0.506734 0.399892 0.128627
O O4 0.682245 0.380262 0.000000
O O5 0.778612 0.178844 0.846667
O O6 0.000000 0.160864 0.750000
O O7 0.013454 0.130677 0.904595
O O8 0.008070 0.260693 0.862360
O O9 0.178901 0.500000 0.750000
O O10 0.278927 0.478933 0.894987
O O11 0.000000 0.500000 0.872653
O O12 0.515809 0.156740 0.876423
O O13 0.686048 0.190776 0.000000
O O14 0.768083 0.652244 0.131443
O O15 0.639884 0.616214 0.000000
O O16 0.879195 0.034807 0.500000
O O17 0.737740 0.078186 0.627909
O O18 0.000000 0.000000 0.636503
O O19 0.268602 0.216419 0.876017
O O20 0.138463 0.282791 0.000000
O O21 0.655350 0.144792 0.500000
#
# Coordination Sequence:
#
# PCOD8203340 Si02
#       8
#     8   8   8   8   8   8   8   8
#     4  10  21  38  61  87 109 141 192 247 304 363
#     4  11  23  35  51  82 122 158 192 234 285 349
#     4  11  26  42  53  74 114 154 190 239 297 367
#     4  10  19  35  59  87 118 149 190 250 304 349
#     4  10  20  37  62  84 103 135 189 246 297 352
#     4   9  18  36  62  87 114 154 200 238 278 338
#     4   9  17  34  57  80 105 142 187 235 290 347
#     4   8  14  30  57  86 115 143 182 237 290 338
#
# _framework density 21.637718
#
# number of rings (size 3 to 8) (size 9 to 14) (size 15 to 20)
#    0.000    2.250    1.250    2.625    1.750    4.250 
#    0.000    3.125    0.000    3.000    0.000    3.500 
#    0.000    0.000    0.000    0.000    0.000    0.250 
#
# Total GULP energy -792879.635702 kJ/mol
# GULP energy per Si atom -12388.744308 kJ/mol
# Density = 2.158847 g / cm^3
# Si number density = 21.637718 Si / 1000 Ang^3
#
#
#
# Elastic Constant Matrix: (Units=GPa)
#
#
# Indices 1 2 3 4 5 6 
#
# 1 177.1036 56.1745 27.3781 0.0000 0.0000 0.0000
# 2 56.1745 81.4886 14.4787 0.0000 0.0000 0.0000
# 3 27.3781 14.4787 36.2252 0.0000 0.0000 0.0000
# 4 0.0000 0.0000 0.0000 9.8322 0.0000 0.0000
# 5 0.0000 0.0000 0.0000 0.0000 15.7558 0.0000
# 6 0.0000 0.0000 0.0000 0.0000 0.0000 47.5547
#
#
#
# Elastic Compliance Matrix: (Units=1/GPa)
#
#
# Indices 1 2 3 4 5 6 
#
# 1 0.007729 -0.004618 -0.003996 0.000000 0.000000 0.000000
# 2 -0.004618 0.015969 -0.002892 0.000000 0.000000 0.000000
# 3 -0.003996 -0.002892 0.031781 0.000000 0.000000 0.000000
# 4 0.000000 0.000000 0.000000 0.101707 0.000000 0.000000
# 5 0.000000 0.000000 0.000000 0.000000 0.063469 0.000000
# 6 0.000000 0.000000 0.000000 0.000000 0.000000 0.021028
#
#
# Mechanical properties :
#
#
# Convention : Reuss Voigt Hill
#
# Bulk Modulus (GPa) = 30.80068 54.54224 42.67146
# Shear Modulus (GPa) = 18.14770 27.74761 22.94766
#
# Velocity S-wave (km/s) = 2.89919 3.58491 3.26013
# Velocity P-wave (km/s) = 5.04704 6.51131 5.82537
#
# Compressibility (1/GPa) = 0.03246682
#
# Stress axis : x y z
#
# Youngs Moduli (GPa) = 129.38587 62.62134 31.46548
#
# Poissons Ratio (x) = 0.28918 0.12572
# Poissons Ratio (y) = 0.59750 0.09101
# Poissons Ratio (z) = 0.51696 0.18113
#
# Static dielectric constant tensor:
#      x y z
#    x 4.341130 0.000000 0.000000 
#    y 0.000000 3.886870 0.000000 
#    z 0.000000 0.000000 3.366130 
# 
# 
# High freq. dielectric constant tensor:
#      x y z
#    x 1.862310 0.000000 0.000000 
#    y 0.000000 1.835320 0.000000 
#    z 0.000000 0.000000 1.804250 
# 
# From -- ./inp_files/16589.got.cif
#   From: 2010.03.12/outbox.cif.g09.slc.cpg/sg49_9_cif.got.tgz:16589.got - 2010.04.14 03:58:27.
