data_PCOD8203221
_publ_section_title
;
Structure prediction by ZEFSAII (Michael W. Deem and Ramdas Pophale) SiO2 
 PCOD8203221
Probable space group: P C C M
;
_chemical_formula_sum "Si O2"
_cell_formula_units_Z 52
_cell_length_a 18.063152
_cell_length_b 16.020972
_cell_length_c 9.464916
_cell_angle_alpha 90.000000
_cell_angle_beta 90.000000
_cell_angle_gamma 90.000000
_cell_volume 2739.044965
_symmetry_space_group_name_H-M "P C C M"
_symmetry_group_IT_number 49
_symmetry_cell_setting 'orthorhombic'
loop_
_space_group_symop_operation_xyz
x,y,z
-x,-y,z
x,-y,1/2-z
-x,y,1/2-z
-x,-y,-z
x,y,-z
-x,y,1/2+z
x,-y,1/2+z
loop_
_atom_site_type_symbol
_atom_site_label
_atom_site_fract_x
_atom_site_fract_y
_atom_site_fract_z
Si Si1 0.928522 0.856376 0.843836
Si Si2 0.430174 0.332720 0.838113
Si Si3 0.290726 0.876454 0.159322
Si Si4 0.572132 0.864107 0.834723
Si Si5 0.204387 0.252527 0.163006
Si Si6 0.279371 0.419187 0.162382
Si Si7 0.826001 0.000000 0.750000
O O1 0.879804 0.775131 0.801723
O O2 0.877347 0.938527 0.840361
O O3 0.000000 0.865976 0.750000
O O4 0.959958 0.845943 0.000000
O O5 0.500000 0.365893 0.750000
O O6 0.417789 0.234724 0.816346
O O7 0.357123 0.380602 0.784919
O O8 0.446915 0.353249 0.000000
O O9 0.358719 0.908278 0.256638
O O10 0.259931 0.793019 0.231492
O O11 0.226828 0.946230 0.148023
O O12 0.317732 0.855968 0.000000
O O13 0.500000 0.895037 0.750000
O O14 0.568125 0.890204 0.000000
O O15 0.213939 0.351448 0.184532
O O16 0.224381 0.227779 0.000000
O O17 0.257307 0.500000 0.250000
O O18 0.285501 0.445447 0.000000
#
# Coordination Sequence:
#
# PCOD8203221 Si02
#       7
#     8   8   8   8   8   8   4
#     4  10  21  37  60  85 113 146 175 213 263 321
#     4   9  18  32  50  72 103 141 180 224 274 326
#     4  11  21  34  56  83 108 141 189 233 271 325
#     4  10  19  34  54  76 105 144 188 234 284 331
#     4   9  19  38  57  76 110 151 182 217 275 331
#     4  10  20  35  53  77 108 144 185 228 276 325
#     4  10  23  38  55  82 118 150 176 212 267 326
#
# _framework density 18.984718999999998
#
# number of rings (size 3 to 8) (size 9 to 14) (size 15 to 20)
#    0.000    2.154    1.538    1.615    0.000    7.692 
#    0.000    1.923    0.000    2.308    0.000    3.231 
#    0.000    0.000    0.000    0.000    0.000    0.000 
#
# Total GULP energy -644712.207726 kJ/mol
# GULP energy per Si atom -12398.311687 kJ/mol
# Density = 1.894151 g / cm^3
# Si number density = 18.984719 Si / 1000 Ang^3
#
#
#
# Elastic Constant Matrix: (Units=GPa)
#
#
# Indices 1 2 3 4 5 6 
#
# 1 125.0067 48.1742 62.1170 0.0000 0.0000 0.0000
# 2 48.1742 80.5929 28.8220 0.0000 0.0000 0.0000
# 3 62.1170 28.8220 108.0303 0.0000 0.0000 0.0000
# 4 0.0000 0.0000 0.0000 18.5115 0.0000 0.0000
# 5 0.0000 0.0000 0.0000 0.0000 22.4988 0.0000
# 6 0.0000 0.0000 0.0000 0.0000 0.0000 18.9624
#
#
#
# Elastic Compliance Matrix: (Units=1/GPa)
#
#
# Indices 1 2 3 4 5 6 
#
# 1 0.013229 -0.005734 -0.006077 0.000000 0.000000 0.000000
# 2 -0.005734 0.016203 -0.001025 0.000000 0.000000 0.000000
# 3 -0.006077 -0.001025 0.013024 0.000000 0.000000 0.000000
# 4 0.000000 0.000000 0.000000 0.054021 0.000000 0.000000
# 5 0.000000 0.000000 0.000000 0.000000 0.044447 0.000000
# 6 0.000000 0.000000 0.000000 0.000000 0.000000 0.052736
#
#
# Mechanical properties :
#
#
# Convention : Reuss Voigt Hill
#
# Bulk Modulus (GPa) = 59.58546 65.76184 62.67365
# Shear Modulus (GPa) = 22.22946 23.62898 22.92922
#
# Velocity S-wave (km/s) = 3.42557 3.53176 3.47907
# Velocity P-wave (km/s) = 6.86296 7.16559 7.01591
#
# Compressibility (1/GPa) = 0.01678262
#
# Stress axis : x y z
#
# Youngs Moduli (GPa) = 75.59117 61.71880 76.77921
#
# Poissons Ratio (x) = 0.35392 0.46657
# Poissons Ratio (y) = 0.43347 0.07874
# Poissons Ratio (z) = 0.45935 0.06329
#
# Static dielectric constant tensor:
#      x y z
#    x 3.490630 0.000000 0.000000 
#    y 0.000000 3.292930 0.000000 
#    z 0.000000 0.000000 3.413200 
# 
# 
# High freq. dielectric constant tensor:
#      x y z
#    x 1.731900 0.000000 0.000000 
#    y 0.000000 1.716890 0.000000 
#    z 0.000000 0.000000 1.738550 
# 
# From -- ./inp_files/5746.got.cif
#   From: 2010.03.12/outbox.cif.g09.slc.cpg/sg49_3_cif.got.tgz:5746.got - 2010.04.14 03:58:27.
