data_PCOD8203935
_publ_section_title
;
Structure prediction by ZEFSAII (Michael W. Deem and Ramdas Pophale) SiO2 
 PCOD8203935
Probable space group: P C C M
;
_chemical_formula_sum "Si O2"
_cell_formula_units_Z 40
_cell_length_a 15.611156
_cell_length_b 15.340546
_cell_length_c 8.847115
_cell_angle_alpha 90.000000
_cell_angle_beta 90.000000
_cell_angle_gamma 90.000000
_cell_volume 2118.739452
_symmetry_space_group_name_H-M "P C C M"
_symmetry_group_IT_number 49
_symmetry_cell_setting 'orthorhombic'
loop_
_space_group_symop_operation_xyz
x,y,z
-x,-y,z
x,-y,1/2-z
-x,y,1/2-z
-x,-y,-z
x,y,-z
-x,y,1/2+z
x,-y,1/2+z
loop_
_atom_site_type_symbol
_atom_site_label
_atom_site_fract_x
_atom_site_fract_y
_atom_site_fract_z
Si Si1 0.267373 0.730853 0.820923
Si Si2 0.743007 0.912850 0.821761
Si Si3 0.918692 0.302890 0.836557
Si Si4 0.589550 0.408809 0.821456
Si Si5 0.919841 0.898652 0.666133
O O1 0.294490 0.822895 0.746703
O O2 0.176145 0.691915 0.758332
O O3 0.340397 0.662724 0.778775
O O4 0.257413 0.746939 0.000000
O O5 0.842544 0.916766 0.779813
O O6 0.698411 0.000000 0.750000
O O7 0.728123 0.912849 0.000000
O O8 0.938918 0.202133 0.858525
O O9 0.000000 0.346467 0.750000
O O10 0.914998 0.349786 0.000000
O O11 0.619413 0.500000 0.750000
O O12 0.500000 0.378171 0.750000
O O13 0.578810 0.420002 0.000000
O O14 0.902606 0.940644 0.500000
O O15 0.000000 0.942762 0.750000
#
# Coordination Sequence:
#
# PCOD8203935 Si02
#       5
#     8   8   8   8   8
#     4   9  19  35  53  75 106 143 177 216 265 315
#     4  11  21  32  47  68  97 135 178 221 263 311
#     4   8  14  25  42  65  95 131 172 213 254 298
#     4  10  20  36  60  88 116 139 165 207 262 321
#     4   9  16  27  41  60  89 126 172 223 271 315
#
# _framework density 18.879149999999999
#
# number of rings (size 3 to 8) (size 9 to 14) (size 15 to 20)
#    0.000    2.600    0.000    4.800    0.000    6.800 
#    0.000    2.000    0.000    1.200    0.000    8.400 
#    0.000    0.000    0.000    0.000    0.000    0.000 
#
# Total GULP energy -495543.151797 kJ/mol
# GULP energy per Si atom -12388.578795 kJ/mol
# Density = 1.883618 g / cm^3
# Si number density = 18.879150 Si / 1000 Ang^3
#
#
#
# Elastic Constant Matrix: (Units=GPa)
#
#
# Indices 1 2 3 4 5 6 
#
# 1 104.3284 73.7216 47.2253 0.0000 0.0000 0.0000
# 2 73.7216 99.4569 48.1987 0.0000 0.0000 0.0000
# 3 47.2253 48.1987 106.3079 0.0000 0.0000 0.0000
# 4 0.0000 0.0000 0.0000 18.9020 0.0000 0.0000
# 5 0.0000 0.0000 0.0000 0.0000 21.5718 0.0000
# 6 0.0000 0.0000 0.0000 0.0000 0.0000 153.8989
#
#
#
# Elastic Compliance Matrix: (Units=1/GPa)
#
#
# Indices 1 2 3 4 5 6 
#
# 1 0.020795 -0.014017 -0.002883 0.000000 0.000000 0.000000
# 2 -0.014017 0.022334 -0.003899 0.000000 0.000000 0.000000
# 3 -0.002883 -0.003899 0.012455 0.000000 0.000000 0.000000
# 4 0.000000 0.000000 0.000000 0.052904 0.000000 0.000000
# 5 0.000000 0.000000 0.000000 0.000000 0.046357 0.000000
# 6 0.000000 0.000000 0.000000 0.000000 0.000000 0.006498
#
#
# Mechanical properties :
#
#
# Convention : Reuss Voigt Hill
#
# Bulk Modulus (GPa) = 71.49806 72.04270 71.77038
# Shear Modulus (GPa) = 24.08443 48.27105 36.17774
#
# Velocity S-wave (km/s) = 3.57559 5.06201 4.38228
# Velocity P-wave (km/s) = 7.41621 8.50929 7.98148
#
# Compressibility (1/GPa) = 0.01398639
#
# Stress axis : x y z
#
# Youngs Moduli (GPa) = 48.08903 44.77427 80.28870
#
# Poissons Ratio (x) = 0.62760 0.23144
# Poissons Ratio (y) = 0.67406 0.31307
# Poissons Ratio (z) = 0.13862 0.17459
#
# Static dielectric constant tensor:
#      x y z
#    x 3.316640 0.000000 0.000000 
#    y 0.000000 3.429070 0.000000 
#    z 0.000000 0.000000 3.793940 
# 
# 
# High freq. dielectric constant tensor:
#      x y z
#    x 1.704340 0.000000 0.000000 
#    y 0.000000 1.716670 0.000000 
#    z 0.000000 0.000000 1.739280 
# 
# From -- ./inp_files/3557.got.cif
#   From: 2010.03.12/outbox.cif.g09.slc.cpg/sg49_2_cif.got.tgz:3557.got - 2010.04.14 03:58:27.
