data_PCOD8203239
_publ_section_title
;
Structure prediction by ZEFSAII (Michael W. Deem and Ramdas Pophale) SiO2 
 PCOD8203239
Probable space group: P C C M
;
_chemical_formula_sum "Si O2"
_cell_formula_units_Z 64
_cell_length_a 10.676835
_cell_length_b 15.956281
_cell_length_c 19.280103
_cell_angle_alpha 90.000000
_cell_angle_beta 90.000000
_cell_angle_gamma 90.000000
_cell_volume 3284.608079
_symmetry_space_group_name_H-M "P C C M"
_symmetry_group_IT_number 49
_symmetry_cell_setting 'orthorhombic'
loop_
_space_group_symop_operation_xyz
x,y,z
-x,-y,z
x,-y,1/2-z
-x,y,1/2-z
-x,-y,-z
x,y,-z
-x,y,1/2+z
x,-y,1/2+z
loop_
_atom_site_type_symbol
_atom_site_label
_atom_site_fract_x
_atom_site_fract_y
_atom_site_fract_z
Si Si1 0.253833 0.315707 0.422068
Si Si2 0.127598 0.868286 0.714006
Si Si3 0.862257 0.032391 0.424352
Si Si4 0.991699 0.598004 0.078919
Si Si5 0.379425 0.137764 0.717511
Si Si6 0.371354 0.330655 0.279795
Si Si7 0.878998 0.669340 0.208423
Si Si8 0.301899 0.128646 0.575557
O O1 0.302011 0.339629 0.500000
O O2 0.356651 0.341871 0.363654
O O3 0.224454 0.215970 0.417939
O O4 0.125480 0.361422 0.404094
O O5 0.150391 0.899503 0.635842
O O6 0.245863 0.901438 0.759495
O O7 0.121175 0.769026 0.711344
O O8 0.000000 0.903860 0.750000
O O9 0.823510 0.071138 0.500000
O O10 0.784574 0.949436 0.408572
O O11 0.000000 0.000000 0.429198
O O12 0.887554 0.638147 0.129070
O O13 0.000000 0.500000 0.092994
O O14 0.950829 0.617013 0.000000
O O15 0.500000 0.091358 0.750000
O O16 0.376734 0.233744 0.741459
O O17 0.405775 0.129137 0.635313
O O18 0.500000 0.373265 0.250000
O O19 0.248477 0.368571 0.241708
O O20 0.000000 0.634500 0.250000
O O21 0.366815 0.122626 0.500000
#
# Coordination Sequence:
#
# PCOD8203239 Si02
#       8
#     8   8   8   8   8   8   8   8
#     4   9  17  32  55  78 105 144 182 216 265 325
#     4  10  21  34  53  76 106 137 174 220 262 314
#     4  10  21  33  47  72 105 138 174 218 266 311
#     4  10  21  35  55  84 112 138 174 220 267 317
#     4   9  18  33  53  75 103 137 175 220 265 308
#     4   9  17  32  53  81 112 138 176 225 263 312
#     4  10  19  34  55  81 107 139 179 220 267 313
#     4   9  18  32  51  74 101 138 181 218 255 316
#
# _framework density 19.484822000000001
#
# number of rings (size 3 to 8) (size 9 to 14) (size 15 to 20)
#    0.000    2.500    1.250    0.750    3.500    2.500 
#    0.000    2.500    0.000    7.500    0.000    2.625 
#    0.000    0.000    0.000    0.000    0.000    0.000 
#
# Total GULP energy -792988.060549 kJ/mol
# GULP energy per Si atom -12390.438446 kJ/mol
# Density = 1.944047 g / cm^3
# Si number density = 19.484822 Si / 1000 Ang^3
#
#
#
# Elastic Constant Matrix: (Units=GPa)
#
#
# Indices 1 2 3 4 5 6 
#
# 1 136.4889 17.6316 80.0677 0.0000 0.0000 0.0000
# 2 17.6316 22.7128 25.9628 0.0000 0.0000 0.0000
# 3 80.0677 25.9628 163.9539 0.0000 0.0000 0.0000
# 4 0.0000 0.0000 0.0000 24.3204 0.0000 0.0000
# 5 0.0000 0.0000 0.0000 0.0000 27.8463 0.0000
# 6 0.0000 0.0000 0.0000 0.0000 0.0000 3.2860
#
#
#
# Elastic Compliance Matrix: (Units=1/GPa)
#
#
# Indices 1 2 3 4 5 6 
#
# 1 0.010409 -0.002771 -0.004645 0.000000 0.000000 0.000000
# 2 -0.002771 0.054497 -0.007276 0.000000 0.000000 0.000000
# 3 -0.004645 -0.007276 0.009520 0.000000 0.000000 0.000000
# 4 0.000000 0.000000 0.000000 0.041118 0.000000 0.000000
# 5 0.000000 0.000000 0.000000 0.000000 0.035911 0.000000
# 6 0.000000 0.000000 0.000000 0.000000 0.000000 0.304326
#
#
# Mechanical properties :
#
#
# Convention : Reuss Voigt Hill
#
# Bulk Modulus (GPa) = 22.20191 63.38664 42.79428
# Shear Modulus (GPa) = 9.99642 24.39011 17.19327
#
# Velocity S-wave (km/s) = 2.26749 3.54185 2.97373
# Velocity P-wave (km/s) = 4.27487 7.02340 5.81389
#
# Compressibility (1/GPa) = 0.04504116
#
# Stress axis : x y z
#
# Youngs Moduli (GPa) = 96.06882 18.34968 105.04540
#
# Poissons Ratio (x) = 0.05085 0.48789
# Poissons Ratio (y) = 0.26625 0.76435
# Poissons Ratio (z) = 0.44619 0.13352
#
# Static dielectric constant tensor:
#      x y z
#    x 3.591520 0.000000 0.000000 
#    y 0.000000 3.234500 0.000000 
#    z 0.000000 0.000000 4.110160 
# 
# 
# High freq. dielectric constant tensor:
#      x y z
#    x 1.731680 0.000000 0.000000 
#    y 0.000000 1.729320 0.000000 
#    z 0.000000 0.000000 1.780640 
# 
# From -- ./inp_files/17329.got.cif
#   From: 2010.03.12/outbox.cif.g09.slc.cpg/sg49_9_cif.got.tgz:17329.got - 2010.04.14 03:58:27.
