data_PCOD8203139
_publ_section_title
;
Structure prediction by ZEFSAII (Michael W. Deem and Ramdas Pophale) SiO2 
 PCOD8203139
Probable space group: P C C M
;
_chemical_formula_sum "Si O2"
_cell_formula_units_Z 64
_cell_length_a 22.064755
_cell_length_b 16.406689
_cell_length_c 8.939973
_cell_angle_alpha 90.000000
_cell_angle_beta 90.000000
_cell_angle_gamma 90.000000
_cell_volume 3236.355810
_symmetry_space_group_name_H-M "P C C M"
_symmetry_group_IT_number 49
_symmetry_cell_setting 'orthorhombic'
loop_
_space_group_symop_operation_xyz
x,y,z
-x,-y,z
x,-y,1/2-z
-x,y,1/2-z
-x,-y,-z
x,y,-z
-x,y,1/2+z
x,-y,1/2+z
loop_
_atom_site_type_symbol
_atom_site_label
_atom_site_fract_x
_atom_site_fract_y
_atom_site_fract_z
Si Si1 0.779596 0.118085 0.325365
Si Si2 0.255517 0.579548 0.669749
Si Si3 0.357574 0.083032 0.175668
Si Si4 0.100421 0.076975 0.324183
Si Si5 0.058727 0.748644 0.827862
Si Si6 0.808400 0.720037 0.326269
Si Si7 0.563553 0.238839 0.678453
Si Si8 0.600956 0.581902 0.167162
O O1 0.793025 0.104780 0.500000
O O2 0.712968 0.087789 0.280199
O O3 0.829379 0.071998 0.226356
O O4 0.783932 0.212729 0.286525
O O5 0.230324 0.500000 0.750000
O O6 0.229987 0.588807 0.500000
O O7 0.232470 0.644814 0.786865
O O8 0.327215 0.581310 0.666195
O O9 0.390074 0.167091 0.230784
O O10 0.384550 0.000000 0.250000
O O11 0.367150 0.074473 0.000000
O O12 0.097577 0.070376 0.500000
O O13 0.069281 0.159539 0.266145
O O14 0.066051 0.000000 0.250000
O O15 0.120504 0.699030 0.795944
O O16 0.000000 0.708661 0.750000
O O17 0.042688 0.750817 0.000000
O O18 0.800698 0.746719 0.500000
O O19 0.500000 0.214262 0.750000
O O20 0.560103 0.240801 0.500000
O O21 0.581284 0.330316 0.738101
O O22 0.576205 0.500000 0.250000
O O23 0.574935 0.575919 0.000000
#
# Coordination Sequence:
#
# PCOD8203139 Si02
#       8
#     8   8   8   8   8   8   8   8
#     4  10  19  33  54  78 103 135 171 213 267 323
#     4  10  19  33  55  83 112 142 171 206 255 312
#     4  10  22  38  56  78 106 139 180 228 277 324
#     4  10  20  33  48  72 103 133 166 210 260 313
#     4   9  20  35  50  69  96 131 174 217 257 302
#     4  10  20  34  52  78 109 139 172 215 261 312
#     4  10  22  40  57  77 107 143 182 225 267 316
#     4   9  19  36  58  84 115 144 175 215 263 320
#
# _framework density 19.775327999999998
#
# number of rings (size 3 to 8) (size 9 to 14) (size 15 to 20)
#    0.000    2.250    0.000    3.375    0.000    9.250 
#    0.000    5.000    0.000    0.375    0.000    2.625 
#    0.000    0.000    0.000    0.000    0.000    0.000 
#
# Total GULP energy -793110.015029 kJ/mol
# GULP energy per Si atom -12392.343985 kJ/mol
# Density = 1.973032 g / cm^3
# Si number density = 19.775328 Si / 1000 Ang^3
#
#
#
# Elastic Constant Matrix: (Units=GPa)
#
#
# Indices 1 2 3 4 5 6 
#
# 1 40.0304 13.7719 21.7977 0.0000 0.0000 0.0000
# 2 13.7719 93.9077 15.3140 0.0000 0.0000 0.0000
# 3 21.7977 15.3140 50.2951 0.0000 0.0000 0.0000
# 4 0.0000 0.0000 0.0000 29.4085 0.0000 0.0000
# 5 0.0000 0.0000 0.0000 0.0000 27.5053 0.0000
# 6 0.0000 0.0000 0.0000 0.0000 0.0000 8.0763
#
#
#
# Elastic Compliance Matrix: (Units=1/GPa)
#
#
# Indices 1 2 3 4 5 6 
#
# 1 0.033319 -0.002664 -0.013629 0.000000 0.000000 0.000000
# 2 -0.002664 0.011418 -0.002322 0.000000 0.000000 0.000000
# 3 -0.013629 -0.002322 0.026497 0.000000 0.000000 0.000000
# 4 0.000000 0.000000 0.000000 0.034004 0.000000 0.000000
# 5 0.000000 0.000000 0.000000 0.000000 0.036357 0.000000
# 6 0.000000 0.000000 0.000000 0.000000 0.000000 0.123820
#
#
# Mechanical properties :
#
#
# Convention : Reuss Voigt Hill
#
# Bulk Modulus (GPa) = 29.40888 31.77781 30.59334
# Shear Modulus (GPa) = 15.92466 21.88798 18.90632
#
# Velocity S-wave (km/s) = 2.84082 3.33052 3.09537
# Velocity P-wave (km/s) = 5.06598 5.55825 5.31781
#
# Compressibility (1/GPa) = 0.03400334
#
# Stress axis : x y z
#
# Youngs Moduli (GPa) = 30.01294 87.58030 37.74077
#
# Poissons Ratio (x) = 0.23329 0.51438
# Poissons Ratio (y) = 0.07995 0.08764
# Poissons Ratio (z) = 0.40905 0.20337
#
# Static dielectric constant tensor:
#      x y z
#    x 3.518010 0.000000 0.000000 
#    y 0.000000 3.927080 0.000000 
#    z 0.000000 0.000000 3.609990 
# 
# 
# High freq. dielectric constant tensor:
#      x y z
#    x 1.760380 0.000000 0.000000 
#    y 0.000000 1.770170 0.000000 
#    z 0.000000 0.000000 1.767010 
# 
# From -- ./inp_files/4386.got.cif
#   From: 2010.03.12/outbox.cif.g09.slc.cpg/sg49_3_cif.got.tgz:4386.got - 2010.04.14 03:58:27.
