data_PCOD8203910
_publ_section_title
;
Structure prediction by ZEFSAII (Michael W. Deem and Ramdas Pophale) SiO2 
 PCOD8203910
Probable space group: P C C M
;
_chemical_formula_sum "Si O2"
_cell_formula_units_Z 56
_cell_length_a 22.807585
_cell_length_b 14.763234
_cell_length_c 8.620823
_cell_angle_alpha 90.000000
_cell_angle_beta 90.000000
_cell_angle_gamma 90.000000
_cell_volume 2902.749333
_symmetry_space_group_name_H-M "P C C M"
_symmetry_group_IT_number 49
_symmetry_cell_setting 'orthorhombic'
loop_
_space_group_symop_operation_xyz
x,y,z
-x,-y,z
x,-y,1/2-z
-x,y,1/2-z
-x,-y,-z
x,y,-z
-x,y,1/2+z
x,-y,1/2+z
loop_
_atom_site_type_symbol
_atom_site_label
_atom_site_fract_x
_atom_site_fract_y
_atom_site_fract_z
Si Si1 0.668861 0.722861 0.181965
Si Si2 0.437562 0.404372 0.818386
Si Si3 0.293230 0.903165 0.184074
Si Si4 0.109590 0.404582 0.183588
Si Si5 0.236474 0.405584 0.317249
Si Si6 0.939918 0.229671 0.184041
Si Si7 0.159665 0.905238 0.182544
O O1 0.607695 0.674938 0.224196
O O2 0.665909 0.826884 0.237494
O O3 0.719803 0.675004 0.278781
O O4 0.682412 0.716110 0.000000
O O5 0.415359 0.500000 0.750000
O O6 0.500000 0.375401 0.750000
O O7 0.444147 0.417652 0.000000
O O8 0.226046 0.883316 0.235534
O O9 0.313704 0.000000 0.250000
O O10 0.301094 0.901841 0.000000
O O11 0.087663 0.500000 0.250000
O O12 0.174505 0.381542 0.242524
O O13 0.065157 0.329583 0.245555
O O14 0.109226 0.407800 0.000000
O O15 0.261505 0.500000 0.250000
O O16 0.228182 0.414601 0.500000
O O17 0.884582 0.171296 0.244225
O O18 0.000000 0.186396 0.250000
O O19 0.941925 0.233597 0.000000
O O20 0.137935 0.000000 0.250000
O O21 0.156731 0.912351 0.000000
#
# Coordination Sequence:
#
# PCOD8203910 Si02
#       7
#     8   8   8   8   8   8   8
#     4  11  22  35  54  83 114 148 188 231 276 328
#     4  10  21  36  56  81 114 153 194 234 275 322
#     4  10  20  36  58  84 112 145 181 226 279 333
#     4  11  22  38  58  79 105 140 177 221 273 327
#     4  11  21  34  53  80 112 145 179 221 272 329
#     4  11  23  39  56  79 107 138 179 224 268 322
#     4   9  20  37  58  81 108 139 174 216 268 325
#
# _framework density 19.292055999999999
#
# number of rings (size 3 to 8) (size 9 to 14) (size 15 to 20)
#    0.000    1.571    0.000    6.857    0.000    6.857 
#    0.000    2.857    0.000    0.429    0.000    3.000 
#    0.000    0.000    0.000    0.000    0.000    0.000 
#
# Total GULP energy -694647.514855 kJ/mol
# GULP energy per Si atom -12404.419908 kJ/mol
# Density = 1.924815 g / cm^3
# Si number density = 19.292056 Si / 1000 Ang^3
#
#
#
# Elastic Constant Matrix: (Units=GPa)
#
#
# Indices 1 2 3 4 5 6 
#
# 1 77.8753 62.0039 36.5000 0.0000 0.0000 0.0000
# 2 62.0039 133.0452 41.5232 0.0000 0.0000 0.0000
# 3 36.5000 41.5232 100.8098 0.0000 0.0000 0.0000
# 4 0.0000 0.0000 0.0000 34.5038 0.0000 0.0000
# 5 0.0000 0.0000 0.0000 0.0000 16.8325 0.0000
# 6 0.0000 0.0000 0.0000 0.0000 0.0000 32.8439
#
#
#
# Elastic Compliance Matrix: (Units=1/GPa)
#
#
# Indices 1 2 3 4 5 6 
#
# 1 0.021915 -0.008878 -0.004278 0.000000 0.000000 0.000000
# 2 -0.008878 0.012222 -0.001820 0.000000 0.000000 0.000000
# 3 -0.004278 -0.001820 0.012218 0.000000 0.000000 0.000000
# 4 0.000000 0.000000 0.000000 0.028982 0.000000 0.000000
# 5 0.000000 0.000000 0.000000 0.000000 0.059409 0.000000
# 6 0.000000 0.000000 0.000000 0.000000 0.000000 0.030447
#
#
# Mechanical properties :
#
#
# Convention : Reuss Voigt Hill
#
# Bulk Modulus (GPa) = 60.96247 65.75386 63.35816
# Shear Modulus (GPa) = 24.92387 28.28291 26.60339
#
# Velocity S-wave (km/s) = 3.59823 3.83304 3.71749
# Velocity P-wave (km/s) = 6.99510 7.33124 7.16514
#
# Compressibility (1/GPa) = 0.01640354
#
# Stress axis : x y z
#
# Youngs Moduli (GPa) = 45.63176 81.82260 81.84632
#
# Poissons Ratio (x) = 0.72641 0.35012
# Poissons Ratio (y) = 0.40511 0.14893
# Poissons Ratio (z) = 0.19520 0.14889
#
# Static dielectric constant tensor:
#      x y z
#    x 3.524950 0.000000 0.000000 
#    y 0.000000 3.630810 0.000000 
#    z 0.000000 0.000000 3.568370 
# 
# 
# High freq. dielectric constant tensor:
#      x y z
#    x 1.734580 0.000000 0.000000 
#    y 0.000000 1.753800 0.000000 
#    z 0.000000 0.000000 1.764820 
# 
# From -- ./inp_files/4059.got.cif
#   From: 2010.03.12/outbox.cif.g09.slc.cpg/sg49_3_cif.got.tgz:4059.got - 2010.04.14 03:58:27.
