data_PCOD8203028
_publ_section_title
;
Structure prediction by ZEFSAII (Michael W. Deem and Ramdas Pophale) SiO2 
 PCOD8203028
Probable space group: P C C M
;
_chemical_formula_sum "Si O2"
_cell_formula_units_Z 58
_cell_length_a 14.943274
_cell_length_b 23.308976
_cell_length_c 9.081197
_cell_angle_alpha 90.000000
_cell_angle_beta 90.000000
_cell_angle_gamma 90.000000
_cell_volume 3163.093658
_symmetry_space_group_name_H-M "P C C M"
_symmetry_group_IT_number 49
_symmetry_cell_setting 'orthorhombic'
loop_
_space_group_symop_operation_xyz
x,y,z
-x,-y,z
x,-y,1/2-z
-x,y,1/2-z
-x,-y,-z
x,y,-z
-x,y,1/2+z
x,-y,1/2+z
loop_
_atom_site_type_symbol
_atom_site_label
_atom_site_fract_x
_atom_site_fract_y
_atom_site_fract_z
Si Si1 0.500000 0.500000 0.750000
Si Si2 0.086085 0.272458 0.173252
Si Si3 0.277271 0.323210 0.826877
Si Si4 0.326742 0.447503 0.162378
Si Si5 0.776039 0.059740 0.326264
Si Si6 0.414672 0.887403 0.672241
Si Si7 0.153357 0.834602 0.834299
Si Si8 0.348108 0.781575 0.835394
O O1 0.565318 0.541797 0.844423
O O2 0.173533 0.310290 0.208879
O O3 0.092028 0.209074 0.243356
O O4 0.000000 0.302653 0.250000
O O5 0.070798 0.266534 0.000000
O O6 0.301835 0.386404 0.765750
O O7 0.343312 0.280061 0.742912
O O8 0.296659 0.317125 0.000000
O O9 0.280031 0.500000 0.250000
O O10 0.285989 0.448247 0.000000
O O11 0.793971 0.056570 0.500000
O O12 0.673211 0.075752 0.292236
O O13 0.843252 0.105790 0.254721
O O14 0.798195 0.000000 0.250000
O O15 0.500000 0.917970 0.750000
O O16 0.431958 0.882472 0.500000
O O17 0.409196 0.823420 0.738730
O O18 0.250885 0.808382 0.843989
O O19 0.115509 0.844237 0.000000
O O20 0.388074 0.774762 0.000000
#
# Coordination Sequence:
#
# PCOD8203028 Si02
#       8
#     2   8   8   8   8   8   8   8
#     4   8  18  32  54  72 100 128 178 216 256 288
#     4  10  19  32  53  79 107 134 165 203 249 302
#     4   9  18  33  51  73 102 136 168 206 254 305
#     4   9  18  32  51  73 100 134 173 214 256 298
#     4  10  20  33  50  71  94 125 166 208 252 300
#     4  10  20  33  47  64  91 126 163 207 257 307
#     4   9  17  31  51  73  99 127 161 200 243 295
#     4   9  17  30  48  70  93 123 161 202 248 302
#
# _framework density 18.336478
#
# number of rings (size 3 to 8) (size 9 to 14) (size 15 to 20)
#    0.414    2.207    0.000    2.276    0.000    6.345 
#    1.241    1.379    0.000    0.828    0.000    5.793 
#    0.000    0.000    0.000    0.000    0.000    0.000 
#
# Total GULP energy -718890.441087 kJ/mol
# GULP energy per Si atom -12394.662777 kJ/mol
# Density = 1.829474 g / cm^3
# Si number density = 18.336478 Si / 1000 Ang^3
#
#
#
# Elastic Constant Matrix: (Units=GPa)
#
#
# Indices 1 2 3 4 5 6 
#
# 1 46.9654 15.8197 15.7777 0.0000 0.0000 0.0000
# 2 15.8197 127.8900 39.5728 0.0000 0.0000 0.0000
# 3 15.7777 39.5728 95.5978 0.0000 0.0000 0.0000
# 4 0.0000 0.0000 0.0000 30.1034 0.0000 0.0000
# 5 0.0000 0.0000 0.0000 0.0000 26.1903 0.0000
# 6 0.0000 0.0000 0.0000 0.0000 0.0000 17.6470
#
#
#
# Elastic Compliance Matrix: (Units=1/GPa)
#
#
# Indices 1 2 3 4 5 6 
#
# 1 0.022942 -0.001911 -0.002995 0.000000 0.000000 0.000000
# 2 -0.001911 0.009127 -0.003463 0.000000 0.000000 0.000000
# 3 -0.002995 -0.003463 0.012388 0.000000 0.000000 0.000000
# 4 0.000000 0.000000 0.000000 0.033219 0.000000 0.000000
# 5 0.000000 0.000000 0.000000 0.000000 0.038182 0.000000
# 6 0.000000 0.000000 0.000000 0.000000 0.000000 0.056667
#
#
# Mechanical properties :
#
#
# Convention : Reuss Voigt Hill
#
# Bulk Modulus (GPa) = 36.07601 45.86596 40.97099
# Shear Modulus (GPa) = 25.18848 28.07369 26.63108
#
# Velocity S-wave (km/s) = 3.71034 3.91708 3.81511
# Velocity P-wave (km/s) = 6.17031 6.74728 6.46523
#
# Compressibility (1/GPa) = 0.02771925
#
# Stress axis : x y z
#
# Youngs Moduli (GPa) = 43.58770 109.56392 80.72158
#
# Poissons Ratio (x) = 0.20938 0.24179
# Poissons Ratio (y) = 0.08330 0.27952
# Poissons Ratio (z) = 0.13056 0.37939
#
# Static dielectric constant tensor:
#      x y z
#    x 3.206810 0.000000 0.000000 
#    y 0.000000 3.323660 0.000000 
#    z 0.000000 0.000000 3.476260 
# 
# 
# High freq. dielectric constant tensor:
#      x y z
#    x 1.686160 0.000000 0.000000 
#    y 0.000000 1.696040 0.000000 
#    z 0.000000 0.000000 1.721390 
# 
# From -- ./inp_files/4253.got.cif
#   From: 2010.03.12/outbox.cif.g09.slc.cpg/sg49_3_cif.got.tgz:4253.got - 2010.04.14 03:58:27.
