data_PCOD8203432
_publ_section_title
;
Structure prediction by ZEFSAII (Michael W. Deem and Ramdas Pophale) SiO2 
 PCOD8203432
Probable space group: P C C M
;
_chemical_formula_sum "Si O2"
_cell_formula_units_Z 64
_cell_length_a 19.818555
_cell_length_b 19.802794
_cell_length_c 8.710048
_cell_angle_alpha 90.000000
_cell_angle_beta 90.000000
_cell_angle_gamma 90.000000
_cell_volume 3418.369496
_symmetry_space_group_name_H-M "P C C M"
_symmetry_group_IT_number 49
_symmetry_cell_setting 'orthorhombic'
loop_
_space_group_symop_operation_xyz
x,y,z
-x,-y,z
x,-y,1/2-z
-x,y,1/2-z
-x,-y,-z
x,y,-z
-x,y,1/2+z
x,-y,1/2+z
loop_
_atom_site_type_symbol
_atom_site_label
_atom_site_fract_x
_atom_site_fract_y
_atom_site_fract_z
Si Si1 0.685149 0.162540 0.680689
Si Si2 0.786499 0.431451 0.819532
Si Si3 0.066822 0.606372 0.822392
Si Si4 0.747291 0.701077 0.824977
Si Si5 0.572740 0.928759 0.317764
Si Si6 0.206523 0.931059 0.181848
Si Si7 0.101923 0.738109 0.674621
Si Si8 0.069707 0.109229 0.819869
O O1 0.677066 0.149169 0.500000
O O2 0.689948 0.243185 0.715532
O O3 0.622316 0.131689 0.771776
O O4 0.754454 0.130134 0.739038
O O5 0.755299 0.500000 0.750000
O O6 0.863042 0.422811 0.752730
O O7 0.740384 0.367067 0.775093
O O8 0.787504 0.437421 0.000000
O O9 0.064906 0.686348 0.788353
O O10 0.000000 0.571684 0.750000
O O11 0.064307 0.591838 0.000000
O O12 0.818273 0.737702 0.794371
O O13 0.740437 0.677808 0.000000
O O14 0.500000 0.910810 0.250000
O O15 0.568489 0.934891 0.500000
O O16 0.599066 0.000000 0.250000
O O17 0.128271 0.928018 0.226949
O O18 0.237600 0.000000 0.250000
O O19 0.216615 0.928701 0.000000
O O20 0.085966 0.716405 0.500000
O O21 0.073709 0.811331 0.712684
O O22 0.000000 0.081545 0.750000
O O23 0.075870 0.092434 0.000000
#
# Coordination Sequence:
#
# PCOD8203432 Si02
#       8
#     8   8   8   8   8   8   8   8
#     4  11  21  38  61  87 116 148 186 230 275 325
#     4  10  21  35  51  72 100 134 173 218 272 331
#     4  10  20  31  45  67  92 123 163 211 262 326
#     4   9  18  34  56  79 105 137 173 219 270 319
#     4  11  22  38  59  88 124 165 202 236 275 323
#     4  12  25  40  57  77 102 136 177 226 277 332
#     4   9  17  32  51  71  95 125 161 209 266 325
#     4  11  22  37  53  73  97 127 169 220 280 339
#
# _framework density 18.722376000000001
#
# number of rings (size 3 to 8) (size 9 to 14) (size 15 to 20)
#    0.000    1.625    1.250    4.875    0.000    5.000 
#    0.000    2.500    0.000    0.000    0.000    0.000 
#    0.000    0.500    0.000    5.250    0.000    2.250 
#
# Total GULP energy -793652.914303 kJ/mol
# GULP energy per Si atom -12400.826786 kJ/mol
# Density = 1.867976 g / cm^3
# Si number density = 18.722376 Si / 1000 Ang^3
#
#
#
# Elastic Constant Matrix: (Units=GPa)
#
#
# Indices 1 2 3 4 5 6 
#
# 1 72.0878 33.4233 27.2156 0.0000 0.0000 0.0000
# 2 33.4233 100.5354 43.0841 0.0000 0.0000 0.0000
# 3 27.2156 43.0841 99.1951 0.0000 0.0000 0.0000
# 4 0.0000 0.0000 0.0000 27.7893 0.0000 0.0000
# 5 0.0000 0.0000 0.0000 0.0000 25.9664 0.0000
# 6 0.0000 0.0000 0.0000 0.0000 0.0000 12.6659
#
#
#
# Elastic Compliance Matrix: (Units=1/GPa)
#
#
# Indices 1 2 3 4 5 6 
#
# 1 0.016973 -0.004481 -0.002710 0.000000 0.000000 0.000000
# 2 -0.004481 0.013405 -0.004593 0.000000 0.000000 0.000000
# 3 -0.002710 -0.004593 0.012820 0.000000 0.000000 0.000000
# 4 0.000000 0.000000 0.000000 0.035985 0.000000 0.000000
# 5 0.000000 0.000000 0.000000 0.000000 0.038511 0.000000
# 6 0.000000 0.000000 0.000000 0.000000 0.000000 0.078952
#
#
# Mechanical properties :
#
#
# Convention : Reuss Voigt Hill
#
# Bulk Modulus (GPa) = 50.94597 53.25159 52.09878
# Shear Modulus (GPa) = 22.05002 24.49067 23.27035
#
# Velocity S-wave (km/s) = 3.43554 3.62069 3.52933
# Velocity P-wave (km/s) = 6.55802 6.78112 6.67050
#
# Compressibility (1/GPa) = 0.01962864
#
# Stress axis : x y z
#
# Youngs Moduli (GPa) = 58.91734 74.60064 78.00576
#
# Poissons Ratio (x) = 0.33430 0.21143
# Poissons Ratio (y) = 0.26402 0.35826
# Poissons Ratio (z) = 0.15969 0.34262
#
# Static dielectric constant tensor:
#      x y z
#    x 3.205980 0.000000 0.000000 
#    y 0.000000 3.458940 0.000000 
#    z 0.000000 0.000000 3.412490 
# 
# 
# High freq. dielectric constant tensor:
#      x y z
#    x 1.686670 0.000000 0.000000 
#    y 0.000000 1.725210 0.000000 
#    z 0.000000 0.000000 1.735180 
# 
# From -- ./inp_files/5947.got.cif
#   From: 2010.03.12/outbox.cif.g09.slc.cpg/sg49_3_cif.got.tgz:5947.got - 2010.04.14 03:58:27.
