data_PCOD8203222
_publ_section_title
;
Structure prediction by ZEFSAII (Michael W. Deem and Ramdas Pophale) SiO2 
 PCOD8203222
Probable space group: P C C M
;
_chemical_formula_sum "Si O2"
_cell_formula_units_Z 64
_cell_length_a 14.347316
_cell_length_b 30.743649
_cell_length_c 8.908697
_cell_angle_alpha 90.000000
_cell_angle_beta 90.000000
_cell_angle_gamma 90.000000
_cell_volume 3929.526890
_symmetry_space_group_name_H-M "P C C M"
_symmetry_group_IT_number 49
_symmetry_cell_setting 'orthorhombic'
loop_
_space_group_symop_operation_xyz
x,y,z
-x,-y,z
x,-y,1/2-z
-x,y,1/2-z
-x,-y,-z
x,y,-z
-x,y,1/2+z
x,-y,1/2+z
loop_
_atom_site_type_symbol
_atom_site_label
_atom_site_fract_x
_atom_site_fract_y
_atom_site_fract_z
Si Si1 0.904573 0.849252 0.822623
Si Si2 0.400008 0.459344 0.326014
Si Si3 0.600330 0.202001 0.322761
Si Si4 0.093970 0.748670 0.675440
Si Si5 0.399754 0.363043 0.674579
Si Si6 0.288942 0.711955 0.323458
Si Si7 0.403620 0.955398 0.175173
Si Si8 0.720492 0.872869 0.324717
O O1 0.889479 0.798760 0.780864
O O2 0.822804 0.876634 0.745785
O O3 0.000000 0.866377 0.750000
O O4 0.905306 0.857116 0.000000
O O5 0.343092 0.500000 0.250000
O O6 0.500000 0.457942 0.250000
O O7 0.410018 0.469609 0.500000
O O8 0.356676 0.411489 0.298495
O O9 0.500000 0.198520 0.250000
O O10 0.592057 0.196153 0.500000
O O11 0.644694 0.248121 0.279197
O O12 0.664627 0.164258 0.260392
O O13 0.080913 0.743722 0.500000
O O14 0.183615 0.721663 0.731342
O O15 0.000000 0.730027 0.750000
O O16 0.500000 0.356090 0.750000
O O17 0.414859 0.353732 0.500000
O O18 0.323241 0.330776 0.739677
O O19 0.291653 0.703614 0.500000
O O20 0.500000 0.939881 0.250000
O O21 0.326674 0.919105 0.204620
O O22 0.368023 0.000000 0.250000
O O23 0.421326 0.963146 0.000000
O O24 0.725329 0.861315 0.500000
#
# Coordination Sequence:
#
# PCOD8203222 Si02
#       8
#     8   8   8   8   8   8   8   8
#     4  10  19  34  54  77 103 130 162 203 246 290
#     4   9  16  26  41  61  85 114 155 200 241 285
#     4  11  22  35  48  68  98 132 168 204 239 282
#     4   9  18  33  50  71  94 122 159 200 241 283
#     4  10  20  31  44  65  92 127 166 201 241 287
#     4  10  20  34  48  66  95 128 164 199 236 285
#     4  10  21  36  55  78 103 131 165 201 243 291
#     4  11  22  35  53  78 102 130 166 202 243 292
#
# _framework density 16.286947000000001
#
# number of rings (size 3 to 8) (size 9 to 14) (size 15 to 20)
#    0.000    2.000    1.250    3.750    0.000    7.500 
#    0.000    0.000    0.000    0.375    0.000    2.625 
#    0.000    0.500    0.000    5.500    0.000    4.000 
#
# Total GULP energy -793530.860985 kJ/mol
# GULP energy per Si atom -12398.919703 kJ/mol
# Density = 1.624988 g / cm^3
# Si number density = 16.286947 Si / 1000 Ang^3
#
#
#
# Elastic Constant Matrix: (Units=GPa)
#
#
# Indices 1 2 3 4 5 6 
#
# 1 114.0796 54.8083 46.2964 0.0000 0.0000 0.0000
# 2 54.8083 99.4887 55.0642 0.0000 0.0000 0.0000
# 3 46.2964 55.0642 84.4815 0.0000 0.0000 0.0000
# 4 0.0000 0.0000 0.0000 36.1925 0.0000 0.0000
# 5 0.0000 0.0000 0.0000 0.0000 29.0132 0.0000
# 6 0.0000 0.0000 0.0000 0.0000 0.0000 2.3801
#
#
#
# Elastic Compliance Matrix: (Units=1/GPa)
#
#
# Indices 1 2 3 4 5 6 
#
# 1 0.012631 -0.004892 -0.003733 0.000000 0.000000 0.000000
# 2 -0.004892 0.017619 -0.008803 0.000000 0.000000 0.000000
# 3 -0.003733 -0.008803 0.019620 0.000000 0.000000 0.000000
# 4 0.000000 0.000000 0.000000 0.027630 0.000000 0.000000
# 5 0.000000 0.000000 0.000000 0.000000 0.034467 0.000000
# 6 0.000000 0.000000 0.000000 0.000000 0.000000 0.420146
#
#
# Mechanical properties :
#
#
# Convention : Reuss Voigt Hill
#
# Bulk Modulus (GPa) = 66.60569 67.82083 67.21326
# Shear Modulus (GPa) = 8.74166 22.97590 15.85878
#
# Velocity S-wave (km/s) = 2.31925 3.76000 3.12382
# Velocity P-wave (km/s) = 6.93944 7.78342 7.37352
#
# Compressibility (1/GPa) = 0.01501373
#
# Stress axis : x y z
#
# Youngs Moduli (GPa) = 79.16818 56.75834 50.96787
#
# Poissons Ratio (x) = 0.27768 0.19028
# Poissons Ratio (y) = 0.38732 0.44865
# Poissons Ratio (z) = 0.29556 0.49962
#
# Static dielectric constant tensor:
#      x y z
#    x 3.048700 0.000000 0.000000 
#    y 0.000000 3.473030 0.000000 
#    z 0.000000 0.000000 3.212520 
# 
# 
# High freq. dielectric constant tensor:
#      x y z
#    x 1.607020 0.000000 0.000000 
#    y 0.000000 1.618380 0.000000 
#    z 0.000000 0.000000 1.643450 
# 
# From -- ./inp_files/4534.got.cif
#   From: 2010.03.12/outbox.cif.g09.slc.cpg/sg49_3_cif.got.tgz:4534.got - 2010.04.14 03:58:27.
