data_PCOD8203868
_publ_section_title
;
Structure prediction by ZEFSAII (Michael W. Deem and Ramdas Pophale) SiO2 
 PCOD8203868
Probable space group: P C C M
;
_chemical_formula_sum "Si O2"
_cell_formula_units_Z 40
_cell_length_a 18.746023
_cell_length_b 13.708675
_cell_length_c 8.602435
_cell_angle_alpha 90.000000
_cell_angle_beta 90.000000
_cell_angle_gamma 90.000000
_cell_volume 2210.680731
_symmetry_space_group_name_H-M "P C C M"
_symmetry_group_IT_number 49
_symmetry_cell_setting 'orthorhombic'
loop_
_space_group_symop_operation_xyz
x,y,z
-x,-y,z
x,-y,1/2-z
-x,y,1/2-z
-x,-y,-z
x,y,-z
-x,y,1/2+z
x,-y,1/2+z
loop_
_atom_site_type_symbol
_atom_site_label
_atom_site_fract_x
_atom_site_fract_y
_atom_site_fract_z
Si Si1 0.423900 0.395211 0.183674
Si Si2 0.843961 0.396194 0.315541
Si Si3 0.075433 0.781969 0.815399
Si Si4 0.708499 0.705552 0.684136
Si Si5 0.787913 0.103336 0.818403
O O1 0.400816 0.500000 0.250000
O O2 0.500000 0.362084 0.250000
O O3 0.366639 0.315036 0.234845
O O4 0.428670 0.402430 0.000000
O O5 0.868423 0.500000 0.250000
O O6 0.837968 0.398237 0.500000
O O7 0.904374 0.320425 0.262690
O O8 0.767344 0.370340 0.243389
O O9 0.133194 0.863360 0.764440
O O10 0.000000 0.818157 0.750000
O O11 0.073857 0.768257 0.000000
O O12 0.701767 0.694233 0.500000
O O13 0.730942 0.814929 0.733887
O O14 0.765738 0.000000 0.750000
O O15 0.786691 0.091926 0.000000
#
# Coordination Sequence:
#
# PCOD8203868 Si02
#       5
#     8   8   8   8   8
#     4  11  21  34  53  80 112 147 179 213 253 301
#     4  11  21  34  52  75 102 137 175 214 256 307
#     4  10  21  37  53  75 103 134 170 214 261 311
#     4  10  20  36  54  77 107 139 174 216 258 305
#     4   9  20  36  56  78 103 132 169 214 262 311
#
# _framework density 18.093973999999999
#
# number of rings (size 3 to 8) (size 9 to 14) (size 15 to 20)
#    0.000    1.800    0.000    7.200    0.000    5.600 
#    0.000    4.000    0.000    0.600    0.000    4.200 
#    0.000    0.000    0.000    0.000    0.000    0.000 
#
# Total GULP energy -496120.394536 kJ/mol
# GULP energy per Si atom -12403.009863 kJ/mol
# Density = 1.805279 g / cm^3
# Si number density = 18.093974 Si / 1000 Ang^3
#
#
#
# Elastic Constant Matrix: (Units=GPa)
#
#
# Indices 1 2 3 4 5 6 
#
# 1 123.5853 51.2092 44.5264 0.0000 0.0000 0.0000
# 2 51.2092 112.2007 38.4163 0.0000 0.0000 0.0000
# 3 44.5264 38.4163 109.9140 0.0000 0.0000 0.0000
# 4 0.0000 0.0000 0.0000 30.9635 0.0000 0.0000
# 5 0.0000 0.0000 0.0000 0.0000 32.5724 0.0000
# 6 0.0000 0.0000 0.0000 0.0000 0.0000 21.2534
#
#
#
# Elastic Compliance Matrix: (Units=1/GPa)
#
#
# Indices 1 2 3 4 5 6 
#
# 1 0.010789 -0.003894 -0.003010 0.000000 0.000000 0.000000
# 2 -0.003894 0.011529 -0.002452 0.000000 0.000000 0.000000
# 3 -0.003010 -0.002452 0.011174 0.000000 0.000000 0.000000
# 4 0.000000 0.000000 0.000000 0.032296 0.000000 0.000000
# 5 0.000000 0.000000 0.000000 0.000000 0.030701 0.000000
# 6 0.000000 0.000000 0.000000 0.000000 0.000000 0.047051
#
#
# Mechanical properties :
#
#
# Convention : Reuss Voigt Hill
#
# Bulk Modulus (GPa) = 67.65299 68.22265 67.93782
# Shear Modulus (GPa) = 29.90780 31.06109 30.48444
#
# Velocity S-wave (km/s) = 4.07002 4.14775 4.10907
# Velocity P-wave (km/s) = 7.71736 7.79262 7.75508
#
# Compressibility (1/GPa) = 0.01478131
#
# Stress axis : x y z
#
# Youngs Moduli (GPa) = 92.68289 86.73478 89.48997
#
# Poissons Ratio (x) = 0.33773 0.26936
# Poissons Ratio (y) = 0.36089 0.21945
# Poissons Ratio (z) = 0.27897 0.21270
#
# Static dielectric constant tensor:
#      x y z
#    x 1.795920 0.000000 0.000000 
#    y 0.000000 3.943610 0.000000 
#    z 0.000000 0.000000 3.419550 
# 
# 
# High freq. dielectric constant tensor:
#      x y z
#    x 1.696220 0.000000 0.000000 
#    y 0.000000 1.689930 0.000000 
#    z 0.000000 0.000000 1.717470 
# 
# From -- ./inp_files/2670.got.cif
#   From: 2010.03.12/outbox.cif.g09.slc.cpg/sg49_2_cif.got.tgz:2670.got - 2010.04.14 03:58:27.
