data_PCOD8203392
_publ_section_title
;
Structure prediction by ZEFSAII (Michael W. Deem and Ramdas Pophale) SiO2 
 PCOD8203392
Probable space group: P C C M
;
_chemical_formula_sum "Si O2"
_cell_formula_units_Z 58
_cell_length_a 5.235166
_cell_length_b 31.639438
_cell_length_c 17.020288
_cell_angle_alpha 90.000000
_cell_angle_beta 90.000000
_cell_angle_gamma 90.000000
_cell_volume 2819.201529
_symmetry_space_group_name_H-M "P C C M"
_symmetry_group_IT_number 49
_symmetry_cell_setting 'orthorhombic'
loop_
_space_group_symop_operation_xyz
x,y,z
-x,-y,z
x,-y,1/2-z
-x,y,1/2-z
-x,-y,-z
x,y,-z
-x,y,1/2+z
x,-y,1/2+z
loop_
_atom_site_type_symbol
_atom_site_label
_atom_site_fract_x
_atom_site_fract_y
_atom_site_fract_z
Si Si1 0.035183 0.909889 0.407672
Si Si2 0.532542 0.049312 0.159297
Si Si3 0.547013 0.327509 0.841071
Si Si4 0.028486 0.185203 0.092526
Si Si5 0.476296 0.235141 0.593163
Si Si6 0.047096 0.368434 0.909845
Si Si7 0.500000 0.500000 0.250000
Si Si8 0.105886 0.455858 0.835389
O O1 0.980901 0.911051 0.500000
O O2 0.317346 0.927338 0.391311
O O3 0.026757 0.862237 0.373679
O O4 0.816866 0.937316 0.365856
O O5 0.500000 0.061018 0.250000
O O6 0.500000 0.000000 0.143775
O O7 0.500000 0.334754 0.750000
O O8 0.555741 0.278433 0.860974
O O9 0.319144 0.348459 0.889608
O O10 0.819424 0.348342 0.859871
O O11 0.269306 0.211851 0.124880
O O12 0.764981 0.206843 0.117286
O O13 0.060009 0.182752 0.000000
O O14 0.485893 0.243709 0.500000
O O15 0.066356 0.418674 0.897112
O O16 0.984988 0.359215 0.000000
O O17 0.607923 0.533213 0.186968
O O18 0.000000 0.500000 0.869907
O O19 0.000000 0.443517 0.750000
#
# Coordination Sequence:
#
# PCOD8203392 Si02
#       8
#     8   8   8   8   8   8   2   8
#     4  11  22  39  64  94 121 155 211 260 302 364
#     4  11  24  41  59  84 125 170 206 250 315 374
#     4  12  26  44  65  93 127 166 208 257 309 370
#     4   9  19  35  60  89 120 156 194 248 311 367
#     4  10  19  37  62  87 119 159 200 244 304 370
#     4  12  26  43  65  96 128 165 210 260 309 363
#     4   8  18  36  62  90 124 164 212 244 310 376
#     4   9  20  37  62  92 123 167 206 250 309 371
#
# _framework density 20.573201000000001
#
# number of rings (size 3 to 8) (size 9 to 14) (size 15 to 20)
#    0.000    1.655    0.000    5.379    4.828    6.345 
#    0.000    4.483    0.000    0.000    0.000    0.000 
#    0.000    0.000    0.000    0.000    0.000    0.000 
#
# Total GULP energy -718885.565901 kJ/mol
# GULP energy per Si atom -12394.578722 kJ/mol
# Density = 2.052638 g / cm^3
# Si number density = 20.573201 Si / 1000 Ang^3
#
#
#
# Elastic Constant Matrix: (Units=GPa)
#
#
# Indices 1 2 3 4 5 6 
#
# 1 106.3494 30.8331 3.3576 0.0000 0.0000 0.0000
# 2 30.8331 124.8796 27.3407 0.0000 0.0000 0.0000
# 3 3.3576 27.3407 64.5808 0.0000 0.0000 0.0000
# 4 0.0000 0.0000 0.0000 9.2873 0.0000 0.0000
# 5 0.0000 0.0000 0.0000 0.0000 28.4220 0.0000
# 6 0.0000 0.0000 0.0000 0.0000 0.0000 63.0448
#
#
#
# Elastic Compliance Matrix: (Units=1/GPa)
#
#
# Indices 1 2 3 4 5 6 
#
# 1 0.010148 -0.002634 0.000588 0.000000 0.000000 0.000000
# 2 -0.002634 0.009510 -0.003889 0.000000 0.000000 0.000000
# 3 0.000588 -0.003889 0.017100 0.000000 0.000000 0.000000
# 4 0.000000 0.000000 0.000000 0.107674 0.000000 0.000000
# 5 0.000000 0.000000 0.000000 0.000000 0.035184 0.000000
# 6 0.000000 0.000000 0.000000 0.000000 0.000000 0.015862
#
#
# Mechanical properties :
#
#
# Convention : Reuss Voigt Hill
#
# Bulk Modulus (GPa) = 40.18189 46.54140 43.36165
# Shear Modulus (GPa) = 23.18625 35.76936 29.47781
#
# Velocity S-wave (km/s) = 3.36074 4.17422 3.78937
# Velocity P-wave (km/s) = 5.88498 6.77522 6.34573
#
# Compressibility (1/GPa) = 0.02488683
#
# Stress axis : x y z
#
# Youngs Moduli (GPa) = 98.54020 105.15734 58.47830
#
# Poissons Ratio (x) = 0.27701 -0.03436
# Poissons Ratio (y) = 0.25958 0.22742
# Poissons Ratio (z) = -0.05790 0.40895
#
# Static dielectric constant tensor:
#      x y z
#    x 3.892460 0.000000 0.000000 
#    y 0.000000 3.818620 0.000000 
#    z 0.000000 0.000000 3.392090 
# 
# 
# High freq. dielectric constant tensor:
#      x y z
#    x 1.824180 0.000000 0.000000 
#    y 0.000000 1.821240 0.000000 
#    z 0.000000 0.000000 1.784000 
# 
# From -- ./inp_files/15393.got.cif
#   From: 2010.03.12/outbox.cif.g09.slc.cpg/sg49_8_cif.got.tgz:15393.got - 2010.04.14 03:58:27.
