data_PCOD8203114
_publ_section_title
;
Structure prediction by ZEFSAII (Michael W. Deem and Ramdas Pophale) SiO2 
 PCOD8203114
Probable space group: P C C M
;
_chemical_formula_sum "Si O2"
_cell_formula_units_Z 40
_cell_length_a 5.222106
_cell_length_b 21.742691
_cell_length_c 15.994062
_cell_angle_alpha 90.000000
_cell_angle_beta 90.000000
_cell_angle_gamma 90.000000
_cell_volume 1816.007978
_symmetry_space_group_name_H-M "P C C M"
_symmetry_group_IT_number 49
_symmetry_cell_setting 'orthorhombic'
loop_
_space_group_symop_operation_xyz
x,y,z
-x,-y,z
x,-y,1/2-z
-x,y,1/2-z
-x,-y,-z
x,y,-z
-x,y,1/2+z
x,-y,1/2+z
loop_
_atom_site_type_symbol
_atom_site_label
_atom_site_fract_x
_atom_site_fract_y
_atom_site_fract_z
Si Si1 0.349572 0.265540 0.905944
Si Si2 0.484686 0.134347 0.846000
Si Si3 0.860489 0.342894 0.905088
Si Si4 0.007931 0.070049 0.650129
Si Si5 0.754297 0.526747 0.343640
O O1 0.425118 0.206519 0.851990
O O2 0.603036 0.305003 0.904352
O O3 0.103712 0.303536 0.869593
O O4 0.280087 0.244874 0.000000
O O5 0.500000 0.115626 0.750000
O O6 0.749729 0.109087 0.886413
O O7 0.246646 0.099944 0.888955
O O8 0.790025 0.399949 0.845106
O O9 0.924112 0.364598 0.000000
O O10 0.000000 0.074006 0.750000
O O11 0.000000 0.000000 0.619006
O O12 0.500000 0.500000 0.389233
O O13 0.750882 0.500000 0.250000
O O14 0.000000 0.500000 0.392400
#
# Coordination Sequence:
#
# PCOD8203114 Si02
#       5
#     8   8   8   8   8
#     4  10  21  38  57  80 110 147 183 225 275 322
#     4  10  19  33  52  81 109 139 187 228 274 325
#     4  10  21  38  59  80 106 144 188 221 264 331
#     4   9  17  30  52  78 110 145 183 229 274 322
#     4  10  21  38  56  81 112 138 175 222 275 331
#
# _framework density 22.026336000000001
#
# number of rings (size 3 to 8) (size 9 to 14) (size 15 to 20)
#    0.000    2.200    0.000    3.000    0.000    3.200 
#   10.800    0.000    0.000    3.600    0.000    0.000 
#    0.000    0.000    0.000    0.000    0.000    0.000 
#
# Total GULP energy -495587.063328 kJ/mol
# GULP energy per Si atom -12389.676583 kJ/mol
# Density = 2.197620 g / cm^3
# Si number density = 22.026336 Si / 1000 Ang^3
#
#
#
# Elastic Constant Matrix: (Units=GPa)
#
#
# Indices 1 2 3 4 5 6 
#
# 1 224.9421 80.7570 16.3291 0.0000 0.0000 0.0000
# 2 80.7570 160.0563 21.9067 0.0000 0.0000 0.0000
# 3 16.3291 21.9067 22.8071 0.0000 0.0000 0.0000
# 4 0.0000 0.0000 0.0000 7.4364 0.0000 0.0000
# 5 0.0000 0.0000 0.0000 0.0000 11.8057 0.0000
# 6 0.0000 0.0000 0.0000 0.0000 0.0000 50.6460
#
#
#
# Elastic Compliance Matrix: (Units=1/GPa)
#
#
# Indices 1 2 3 4 5 6 
#
# 1 0.005471 -0.002561 -0.001457 0.000000 0.000000 0.000000
# 2 -0.002561 0.008392 -0.006227 0.000000 0.000000 0.000000
# 3 -0.001457 -0.006227 0.050871 0.000000 0.000000 0.000000
# 4 0.000000 0.000000 0.000000 0.134474 0.000000 0.000000
# 5 0.000000 0.000000 0.000000 0.000000 0.084705 0.000000
# 6 0.000000 0.000000 0.000000 0.000000 0.000000 0.019745
#
#
# Mechanical properties :
#
#
# Convention : Reuss Voigt Hill
#
# Bulk Modulus (GPa) = 22.60246 71.75456 47.17851
# Shear Modulus (GPa) = 14.75379 33.23180 23.99280
#
# Velocity S-wave (km/s) = 2.59091 3.88845 3.30400
# Velocity P-wave (km/s) = 4.38568 7.26688 6.00174
#
# Compressibility (1/GPa) = 0.04424297
#
# Stress axis : x y z
#
# Youngs Moduli (GPa) = 182.79061 119.15786 19.65765
#
# Poissons Ratio (x) = 0.30515 0.02864
# Poissons Ratio (y) = 0.46810 0.12242
# Poissons Ratio (z) = 0.26635 0.74205
#
# Static dielectric constant tensor:
#      x y z
#    x 7.720040 0.000000 0.000000 
#    y 0.000000 4.799570 0.000000 
#    z 0.000000 0.000000 3.507130 
# 
# 
# High freq. dielectric constant tensor:
#      x y z
#    x 1.901400 0.000000 0.000000 
#    y 0.000000 1.871150 0.000000 
#    z 0.000000 0.000000 1.811230 
# 
# From -- ./inp_files/15270.got.cif
#   From: 2010.03.12/outbox.cif.g09.slc.cpg/sg49_8_cif.got.tgz:15270.got - 2010.04.14 03:58:27.
