data_PCOD8203255
_publ_section_title
;
Structure prediction by ZEFSAII (Michael W. Deem and Ramdas Pophale) SiO2 
 PCOD8203255
Probable space group: P C C M
;
_chemical_formula_sum "Si O2"
_cell_formula_units_Z 64
_cell_length_a 16.086200
_cell_length_b 21.999315
_cell_length_c 9.101506
_cell_angle_alpha 90.000000
_cell_angle_beta 90.000000
_cell_angle_gamma 90.000000
_cell_volume 3220.889918
_symmetry_space_group_name_H-M "P C C M"
_symmetry_group_IT_number 49
_symmetry_cell_setting 'orthorhombic'
loop_
_space_group_symop_operation_xyz
x,y,z
-x,-y,z
x,-y,1/2-z
-x,y,1/2-z
-x,-y,-z
x,y,-z
-x,y,1/2+z
x,-y,1/2+z
loop_
_atom_site_type_symbol
_atom_site_label
_atom_site_fract_x
_atom_site_fract_y
_atom_site_fract_z
Si Si1 0.079803 0.745063 0.833518
Si Si2 0.423819 0.091639 0.338338
Si Si3 0.081050 0.600942 0.835448
Si Si4 0.417543 0.355607 0.670583
Si Si5 0.760044 0.938761 0.675670
Si Si6 0.368755 0.778916 0.835524
Si Si7 0.212485 0.180962 0.173150
Si Si8 0.737273 0.562465 0.674945
O O1 0.079751 0.673006 0.834355
O O2 0.156607 0.765921 0.737411
O O3 0.000000 0.771452 0.750000
O O4 0.082998 0.770404 0.000000
O O5 0.500000 0.062673 0.250000
O O6 0.431301 0.064613 0.500000
O O7 0.335546 0.070186 0.273339
O O8 0.433147 0.165105 0.339679
O O9 0.169983 0.580245 0.767152
O O10 0.000000 0.575024 0.750000
O O11 0.073410 0.575582 0.000000
O O12 0.500000 0.381821 0.750000
O O13 0.430729 0.368080 0.500000
O O14 0.412332 0.283991 0.706997
O O15 0.332214 0.388073 0.724048
O O16 0.770894 0.939773 0.500000
O O17 0.810295 0.882174 0.744356
O O18 0.794899 0.000000 0.750000
O O19 0.304256 0.796054 0.709150
O O20 0.327339 0.773173 0.000000
O O21 0.200449 0.172736 0.000000
O O22 0.710137 0.500000 0.750000
O O23 0.738316 0.556141 0.500000
#
# Coordination Sequence:
#
# PCOD8203255 Si02
#       8
#     8   8   8   8   8   8   8   8
#     4  10  19  34  56  83 114 143 171 210 259 316
#     4   9  18  30  47  71 100 131 164 205 259 315
#     4   9  19  36  59  85 114 145 177 216 269 328
#     4  10  21  37  57  79 106 141 184 232 286 337
#     4  10  21  37  53  72  99 136 180 224 266 310
#     4   9  18  34  53  75 104 137 171 216 272 327
#     4  11  21  33  53  81 109 141 178 217 263 318
#     4  10  22  39  56  77 107 146 187 229 275 327
#
# _framework density 19.870284999999999
#
# number of rings (size 3 to 8) (size 9 to 14) (size 15 to 20)
#    0.000    2.250    0.000    3.750    0.000    7.250 
#    0.000    5.000    0.000    0.375    0.000    2.625 
#    0.000    0.000    0.000    0.000    0.000    0.000 
#
# Total GULP energy -793317.921120 kJ/mol
# GULP energy per Si atom -12395.592517 kJ/mol
# Density = 1.982506 g / cm^3
# Si number density = 19.870285 Si / 1000 Ang^3
#
#
#
# Elastic Constant Matrix: (Units=GPa)
#
#
# Indices 1 2 3 4 5 6 
#
# 1 80.7473 18.2071 32.1678 0.0000 0.0000 0.0000
# 2 18.2071 52.4633 25.1648 0.0000 0.0000 0.0000
# 3 32.1678 25.1648 94.0994 0.0000 0.0000 0.0000
# 4 0.0000 0.0000 0.0000 28.4623 0.0000 0.0000
# 5 0.0000 0.0000 0.0000 0.0000 34.1556 0.0000
# 6 0.0000 0.0000 0.0000 0.0000 0.0000 11.3278
#
#
#
# Elastic Compliance Matrix: (Units=1/GPa)
#
#
# Indices 1 2 3 4 5 6 
#
# 1 0.014764 -0.003101 -0.004218 0.000000 0.000000 0.000000
# 2 -0.003101 0.022517 -0.004962 0.000000 0.000000 0.000000
# 3 -0.004218 -0.004962 0.013396 0.000000 0.000000 0.000000
# 4 0.000000 0.000000 0.000000 0.035134 0.000000 0.000000
# 5 0.000000 0.000000 0.000000 0.000000 0.029278 0.000000
# 6 0.000000 0.000000 0.000000 0.000000 0.000000 0.088278
#
#
# Mechanical properties :
#
#
# Convention : Reuss Voigt Hill
#
# Bulk Modulus (GPa) = 38.29021 42.04325 40.16673
# Shear Modulus (GPa) = 21.12984 24.90717 23.01851
#
# Velocity S-wave (km/s) = 3.26450 3.54430 3.40728
# Velocity P-wave (km/s) = 5.78975 6.16070 5.97810
#
# Compressibility (1/GPa) = 0.02611634
#
# Stress axis : x y z
#
# Youngs Moduli (GPa) = 67.73367 44.41100 74.65016
#
# Poissons Ratio (x) = 0.13770 0.31486
# Poissons Ratio (y) = 0.21001 0.37039
# Poissons Ratio (z) = 0.28569 0.22036
#
# Static dielectric constant tensor:
#      x y z
#    x 3.686580 0.000000 0.000000 
#    y 0.000000 3.561140 0.000000 
#    z 0.000000 0.000000 3.725780 
# 
# 
# High freq. dielectric constant tensor:
#      x y z
#    x 1.759340 0.000000 0.000000 
#    y 0.000000 1.770730 0.000000 
#    z 0.000000 0.000000 1.771240 
# 
# From -- ./inp_files/4351.got.cif
#   From: 2010.03.12/outbox.cif.g09.slc.cpg/sg49_3_cif.got.tgz:4351.got - 2010.04.14 03:58:27.
