data_PCOD8203300
_publ_section_title
;
Structure prediction by ZEFSAII (Michael W. Deem and Ramdas Pophale) SiO2 
 PCOD8203300
Probable space group: P C C M
;
_chemical_formula_sum "Si O2"
_cell_formula_units_Z 64
_cell_length_a 17.283786
_cell_length_b 21.104081
_cell_length_c 8.651246
_cell_angle_alpha 90.000000
_cell_angle_beta 90.000000
_cell_angle_gamma 90.000000
_cell_volume 3155.614820
_symmetry_space_group_name_H-M "P C C M"
_symmetry_group_IT_number 49
_symmetry_cell_setting 'orthorhombic'
loop_
_space_group_symop_operation_xyz
x,y,z
-x,-y,z
x,-y,1/2-z
-x,y,1/2-z
-x,-y,-z
x,y,-z
-x,y,1/2+z
x,-y,1/2+z
loop_
_atom_site_type_symbol
_atom_site_label
_atom_site_fract_x
_atom_site_fract_y
_atom_site_fract_z
Si Si1 0.925431 0.653132 0.818999
Si Si2 0.190906 0.564377 0.822525
Si Si3 0.079768 0.908605 0.319672
Si Si4 0.243353 0.936196 0.816865
Si Si5 0.709997 0.800207 0.679009
Si Si6 0.884809 0.219419 0.821623
Si Si7 0.626767 0.565281 0.675784
Si Si8 0.581462 0.296830 0.814860
O O1 0.845574 0.619185 0.780017
O O2 0.928801 0.717514 0.722043
O O3 0.000000 0.614907 0.750000
O O4 0.931435 0.664877 0.000000
O O5 0.158860 0.500000 0.750000
O O6 0.281943 0.569042 0.804198
O O7 0.164807 0.570275 0.000000
O O8 0.084688 0.924158 0.500000
O O9 0.153735 0.937903 0.233661
O O10 0.080806 0.833516 0.290840
O O11 0.000000 0.937270 0.250000
O O12 0.287675 0.872802 0.753583
O O13 0.283779 0.000000 0.750000
O O14 0.246467 0.936805 0.000000
O O15 0.690387 0.805465 0.500000
O O16 0.793548 0.769457 0.708118
O O17 0.645494 0.752988 0.752211
O O18 0.899314 0.199995 0.000000
O O19 0.594077 0.500000 0.750000
O O20 0.600842 0.561508 0.500000
O O21 0.594633 0.631039 0.749012
O O22 0.500000 0.272288 0.750000
O O23 0.583752 0.297702 0.000000
#
# Coordination Sequence:
#
# PCOD8203300 Si02
#       8
#     8   8   8   8   8   8   8   8
#     4  12  24  36  50  72 100 134 175 224 275 327
#     4  10  20  37  57  76  97 129 171 219 270 325
#     4  11  21  34  51  76 110 147 184 226 272 325
#     4  10  20  36  57  82 108 142 184 231 281 333
#     4   8  17  35  59  80 106 142 180 219 270 327
#     4  10  19  35  56  77 101 136 179 225 273 325
#     4   9  19  35  57  81 111 146 182 219 264 319
#     4  10  20  36  56  83 114 147 180 217 263 317
#
# _framework density 20.281309
#
# number of rings (size 3 to 8) (size 9 to 14) (size 15 to 20)
#    0.000    2.000    0.000    5.250    0.000    3.750 
#    0.000    8.750    0.000    0.375    0.000    2.625 
#    0.000    0.000    0.000    0.000    0.000    0.000 
#
# Total GULP energy -793268.714741 kJ/mol
# GULP energy per Si atom -12394.823668 kJ/mol
# Density = 2.023515 g / cm^3
# Si number density = 20.281309 Si / 1000 Ang^3
#
#
#
# Elastic Constant Matrix: (Units=GPa)
#
#
# Indices 1 2 3 4 5 6 
#
# 1 72.3358 43.2394 24.8468 0.0000 0.0000 0.0000
# 2 43.2394 124.3362 26.1535 0.0000 0.0000 0.0000
# 3 24.8468 26.1535 73.3970 0.0000 0.0000 0.0000
# 4 0.0000 0.0000 0.0000 32.1474 0.0000 0.0000
# 5 0.0000 0.0000 0.0000 0.0000 26.6335 0.0000
# 6 0.0000 0.0000 0.0000 0.0000 0.0000 -8.0849
#
#
#
# Elastic Compliance Matrix: (Units=1/GPa)
#
#
# Indices 1 2 3 4 5 6 
#
# 1 0.018641 -0.005573 -0.004325 0.000000 0.000000 0.000000
# 2 -0.005573 0.010361 -0.001805 0.000000 0.000000 0.000000
# 3 -0.004325 -0.001805 0.015732 0.000000 0.000000 0.000000
# 4 0.000000 0.000000 0.000000 0.031107 0.000000 0.000000
# 5 0.000000 0.000000 0.000000 0.000000 0.037547 0.000000
# 6 0.000000 0.000000 0.000000 0.000000 0.000000 -0.123688
#
#
# Mechanical properties :
#
#
# Convention : Reuss Voigt Hill
#
# Bulk Modulus (GPa) = 46.88722 50.94982 48.91852
# Shear Modulus (GPa) = 247.34998 21.86115 134.60557
#
# Velocity S-wave (km/s) = 11.05551 3.28670 8.15557
# Velocity P-wave (km/s) = 13.64311 6.29120 10.62341
#
# Compressibility (1/GPa) = 0.02132777
#
# Stress axis : x y z
#
# Youngs Moduli (GPa) = 53.64448 96.52043 63.56558
#
# Poissons Ratio (x) = 0.53791 0.27490
# Poissons Ratio (y) = 0.29896 0.11474
# Poissons Ratio (z) = 0.23200 0.17423
#
# Static dielectric constant tensor:
#      x y z
#    x 3.606000 0.000000 0.000000 
#    y 0.000000 3.593060 0.000000 
#    z 0.000000 0.000000 3.527280 
# 
# 
# High freq. dielectric constant tensor:
#      x y z
#    x 1.773970 0.000000 0.000000 
#    y 0.000000 1.802220 0.000000 
#    z 0.000000 0.000000 1.777750 
# 
# From -- ./inp_files/4308.got.cif
#   From: 2010.03.12/outbox.cif.g09.slc.cpg/sg49_3_cif.got.tgz:4308.got - 2010.04.14 03:58:27.
