data_PCOD8203928
_publ_section_title
;
Structure prediction by ZEFSAII (Michael W. Deem and Ramdas Pophale) SiO2 
 PCOD8203928
Probable space group: P C C M
;
_chemical_formula_sum "Si O2"
_cell_formula_units_Z 48
_cell_length_a 14.616655
_cell_length_b 8.716361
_cell_length_c 18.661237
_cell_angle_alpha 90.000000
_cell_angle_beta 90.000000
_cell_angle_gamma 90.000000
_cell_volume 2377.517015
_symmetry_space_group_name_H-M "P C C M"
_symmetry_group_IT_number 49
_symmetry_cell_setting 'orthorhombic'
loop_
_space_group_symop_operation_xyz
x,y,z
-x,-y,z
x,-y,1/2-z
-x,y,1/2-z
-x,-y,-z
x,y,-z
-x,y,1/2+z
x,-y,1/2+z
loop_
_atom_site_type_symbol
_atom_site_label
_atom_site_fract_x
_atom_site_fract_y
_atom_site_fract_z
Si Si1 0.289843 0.086396 0.178256
Si Si2 0.377081 0.618701 0.081870
Si Si3 0.099024 0.555850 0.916359
Si Si4 0.542912 0.833881 0.079355
Si Si5 0.206752 0.843354 0.080636
Si Si6 0.742422 0.420976 0.325404
O O1 0.375722 0.146771 0.134093
O O2 0.242574 0.245313 0.197042
O O3 0.322213 0.000000 0.250000
O O4 0.216467 0.985377 0.134363
O O5 0.470534 0.703774 0.106455
O O6 0.296793 0.741383 0.089628
O O7 0.351412 0.471820 0.131975
O O8 0.386155 0.561613 0.000000
O O9 0.117719 0.737861 0.901709
O O10 0.171814 0.456248 0.874671
O O11 0.000000 0.500000 0.889897
O O12 0.112907 0.521200 0.000000
O O13 0.500000 0.000000 0.073343
O O14 0.578259 0.786657 0.000000
O O15 0.200035 0.908830 0.000000
O O16 0.745702 0.500000 0.250000
#
# Coordination Sequence:
#
# PCOD8203928 Si02
#       6
#     8   8   8   8   8   8
#     4  12  24  37  55  84 120 161 201 248 302 356
#     4   9  18  37  60  82 111 152 199 247 292 350
#     4   9  19  39  67  92 114 149 194 240 296 366
#     4  10  20  36  60  84 110 151 204 247 294 356
#     4   9  17  34  59  85 115 149 190 236 290 354
#     4  11  24  40  56  83 122 157 197 248 304 363
#
# _framework density 20.189129000000001
#
# number of rings (size 3 to 8) (size 9 to 14) (size 15 to 20)
#    0.000    2.000    1.667    4.000    0.000    4.000 
#    0.000    3.333    0.000    4.000    0.000    0.000 
#    0.000    0.000    0.000    0.000    0.000    0.000 
#
# Total GULP energy -594840.559770 kJ/mol
# GULP energy per Si atom -12392.511662 kJ/mol
# Density = 2.014318 g / cm^3
# Si number density = 20.189129 Si / 1000 Ang^3
#
#
#
# Elastic Constant Matrix: (Units=GPa)
#
#
# Indices 1 2 3 4 5 6 
#
# 1 112.2228 47.8655 57.3221 0.0000 0.0000 0.0000
# 2 47.8655 138.4058 56.2478 0.0000 0.0000 0.0000
# 3 57.3221 56.2478 70.6441 0.0000 0.0000 0.0000
# 4 0.0000 0.0000 0.0000 37.5680 0.0000 0.0000
# 5 0.0000 0.0000 0.0000 0.0000 24.1168 0.0000
# 6 0.0000 0.0000 0.0000 0.0000 0.0000 30.1408
#
#
#
# Elastic Compliance Matrix: (Units=1/GPa)
#
#
# Indices 1 2 3 4 5 6 
#
# 1 0.015231 -0.000362 -0.012070 0.000000 0.000000 0.000000
# 2 -0.000362 0.010690 -0.008218 0.000000 0.000000 0.000000
# 3 -0.012070 -0.008218 0.030493 0.000000 0.000000 0.000000
# 4 0.000000 0.000000 0.000000 0.026618 0.000000 0.000000
# 5 0.000000 0.000000 0.000000 0.000000 0.041465 0.000000
# 6 0.000000 0.000000 0.000000 0.000000 0.000000 0.033178
#
#
# Mechanical properties :
#
#
# Convention : Reuss Voigt Hill
#
# Bulk Modulus (GPa) = 66.16722 71.57149 68.86936
# Shear Modulus (GPa) = 24.50836 29.02091 26.76464
#
# Velocity S-wave (km/s) = 3.48794 3.79549 3.64496
# Velocity P-wave (km/s) = 7.00470 7.39832 7.20420
#
# Compressibility (1/GPa) = 0.01511322
#
# Stress axis : x y z
#
# Youngs Moduli (GPa) = 65.65760 93.54510 32.79476
#
# Poissons Ratio (x) = 0.03386 0.39584
# Poissons Ratio (y) = 0.02376 0.26950
# Poissons Ratio (z) = 0.79250 0.76874
#
# Static dielectric constant tensor:
#      x y z
#    x 3.863790 0.000000 0.000000 
#    y 0.000000 -0.051520 0.000000 
#    z 0.000000 0.000000 3.780110 
# 
# 
# High freq. dielectric constant tensor:
#      x y z
#    x 1.760630 0.000000 0.000000 
#    y 0.000000 1.798800 0.000000 
#    z 0.000000 0.000000 1.788590 
# 
# From -- ./inp_files/17686.got.cif
#   From: 2010.03.12/outbox.cif.g09.slc.cpg/sg49_9_cif.got.tgz:17686.got - 2010.04.14 03:58:27.
