data_PCOD8203823
_publ_section_title
;
Structure prediction by ZEFSAII (Michael W. Deem and Ramdas Pophale) SiO2 
 PCOD8203823
Probable space group: P C C M
;
_chemical_formula_sum "Si O2"
_cell_formula_units_Z 64
_cell_length_a 11.339858
_cell_length_b 15.641634
_cell_length_c 17.392867
_cell_angle_alpha 90.000000
_cell_angle_beta 90.000000
_cell_angle_gamma 90.000000
_cell_volume 3085.040799
_symmetry_space_group_name_H-M "P C C M"
_symmetry_group_IT_number 49
_symmetry_cell_setting 'orthorhombic'
loop_
_space_group_symop_operation_xyz
x,y,z
-x,-y,z
x,-y,1/2-z
-x,y,1/2-z
-x,-y,-z
x,y,-z
-x,y,1/2+z
x,-y,1/2+z
loop_
_atom_site_type_symbol
_atom_site_label
_atom_site_fract_x
_atom_site_fract_y
_atom_site_fract_z
Si Si1 0.494452 0.236322 0.589150
Si Si2 0.219287 0.587904 0.707201
Si Si3 0.748737 0.810690 0.910983
Si Si4 0.250810 0.151051 0.411758
Si Si5 0.469788 0.591999 0.338513
Si Si6 0.895899 0.727136 0.309544
Si Si7 0.075401 0.346685 0.087140
Si Si8 0.127683 0.023521 0.911489
O O1 0.515520 0.251425 0.500000
O O2 0.617682 0.201495 0.625846
O O3 0.388599 0.169892 0.605017
O O4 0.460114 0.329788 0.622539
O O5 0.242105 0.500000 0.750000
O O6 0.331231 0.610825 0.654636
O O7 0.193709 0.662275 0.768647
O O8 0.112778 0.577436 0.645697
O O9 0.829719 0.728309 0.898489
O O10 0.815789 0.891772 0.871862
O O11 0.731351 0.831736 0.000000
O O12 0.219035 0.180520 0.500000
O O13 0.174635 0.193383 0.343908
O O14 0.224639 0.050890 0.403301
O O15 0.500000 0.500000 0.377594
O O16 0.500000 0.588243 0.250000
O O17 0.000000 0.754575 0.250000
O O18 0.947335 0.683559 0.386575
O O19 0.071712 0.379331 0.000000
O O20 0.101423 0.045777 0.000000
O O21 0.000000 0.000000 0.873571
#
# Coordination Sequence:
#
# PCOD8203823 Si02
#       8
#     8   8   8   8   8   8   8   8
#     4  10  21  36  57  88 121 153 192 247 303 353
#     4  11  22  39  59  85 115 148 198 246 295 358
#     4   9  17  32  56  87 119 152 195 240 293 352
#     4  10  20  35  56  87 124 155 196 247 299 351
#     4  11  21  36  60  84 109 151 203 241 288 356
#     4  10  22  37  59  84 116 155 198 246 300 354
#     4  10  20  37  62  86 114 154 199 245 296 354
#     4   9  17  30  54  86 119 156 196 242 292 348
#
# _framework density 20.745267999999999
#
# number of rings (size 3 to 8) (size 9 to 14) (size 15 to 20)
#    0.000    2.000    2.500    1.875    0.000    5.000 
#    0.000    4.375    0.000    8.625    0.000    0.875 
#    0.000    0.000    0.000    0.000    0.000    0.000 
#
# Total GULP energy -793124.652476 kJ/mol
# GULP energy per Si atom -12392.572695 kJ/mol
# Density = 2.069805 g / cm^3
# Si number density = 20.745268 Si / 1000 Ang^3
#
#
#
# Elastic Constant Matrix: (Units=GPa)
#
#
# Indices 1 2 3 4 5 6 
#
# 1 99.9850 33.2329 10.6933 0.0000 0.0000 0.0000
# 2 33.2329 78.8430 13.4055 0.0000 0.0000 0.0000
# 3 10.6933 13.4055 56.7804 0.0000 0.0000 0.0000
# 4 0.0000 0.0000 0.0000 21.7663 0.0000 0.0000
# 5 0.0000 0.0000 0.0000 0.0000 23.6447 0.0000
# 6 0.0000 0.0000 0.0000 0.0000 0.0000 72.2089
#
#
#
# Elastic Compliance Matrix: (Units=1/GPa)
#
#
# Indices 1 2 3 4 5 6 
#
# 1 0.011694 -0.004745 -0.001082 0.000000 0.000000 0.000000
# 2 -0.004745 0.015139 -0.002681 0.000000 0.000000 0.000000
# 3 -0.001082 -0.002681 0.018448 0.000000 0.000000 0.000000
# 4 0.000000 0.000000 0.000000 0.045943 0.000000 0.000000
# 5 0.000000 0.000000 0.000000 0.000000 0.042293 0.000000
# 6 0.000000 0.000000 0.000000 0.000000 0.000000 0.013849
#
#
# Mechanical properties :
#
#
# Convention : Reuss Voigt Hill
#
# Bulk Modulus (GPa) = 35.37792 38.91909 37.14850
# Shear Modulus (GPa) = 28.76798 35.40910 32.08854
#
# Velocity S-wave (km/s) = 3.72792 4.13589 3.93719
# Velocity P-wave (km/s) = 5.96828 6.45047 6.21405
#
# Compressibility (1/GPa) = 0.02826622
#
# Stress axis : x y z
#
# Youngs Moduli (GPa) = 85.51052 66.05286 54.20530
#
# Poissons Ratio (x) = 0.31344 0.05865
# Poissons Ratio (y) = 0.40577 0.14530
# Poissons Ratio (z) = 0.09253 0.17706
#
# Static dielectric constant tensor:
#      x y z
#    x 4.583030 0.000000 0.000000 
#    y 0.000000 3.745360 0.000000 
#    z 0.000000 0.000000 3.528430 
# 
# 
# High freq. dielectric constant tensor:
#      x y z
#    x 1.821750 0.000000 0.000000 
#    y 0.000000 1.801050 0.000000 
#    z 0.000000 0.000000 1.786810 
# 
# From -- ./inp_files/17286.got.cif
#   From: 2010.03.12/outbox.cif.g09.slc.cpg/sg49_9_cif.got.tgz:17286.got - 2010.04.14 03:58:27.
