data_PCOD8203925
_publ_section_title
;
Structure prediction by ZEFSAII (Michael W. Deem and Ramdas Pophale) SiO2 
 PCOD8203925
Probable space group: P C C M
;
_chemical_formula_sum "Si O2"
_cell_formula_units_Z 64
_cell_length_a 14.912654
_cell_length_b 24.930058
_cell_length_c 8.873687
_cell_angle_alpha 90.000000
_cell_angle_beta 90.000000
_cell_angle_gamma 90.000000
_cell_volume 3299.000158
_symmetry_space_group_name_H-M "P C C M"
_symmetry_group_IT_number 49
_symmetry_cell_setting 'orthorhombic'
loop_
_space_group_symop_operation_xyz
x,y,z
-x,-y,z
x,-y,1/2-z
-x,y,1/2-z
-x,-y,-z
x,y,-z
-x,y,1/2+z
x,-y,1/2+z
loop_
_atom_site_type_symbol
_atom_site_label
_atom_site_fract_x
_atom_site_fract_y
_atom_site_fract_z
Si Si1 0.593296 0.943400 0.178349
Si Si2 0.131823 0.303347 0.670100
Si Si3 0.730069 0.850237 0.176446
Si Si4 0.664276 0.333404 0.831468
Si Si5 0.089403 0.409527 0.177497
Si Si6 0.091953 0.182779 0.322232
Si Si7 0.589646 0.763030 0.175750
Si Si8 0.729403 0.553451 0.678569
O O1 0.500000 0.922634 0.250000
O O2 0.673050 0.902722 0.218175
O O3 0.620823 0.000000 0.250000
O O4 0.579793 0.949090 0.000000
O O5 0.097057 0.315088 0.500000
O O6 0.238180 0.307587 0.673092
O O7 0.090083 0.346070 0.785063
O O8 0.103938 0.244671 0.726864
O O9 0.824551 0.852104 0.262681
O O10 0.673852 0.798285 0.230695
O O11 0.750448 0.847081 0.000000
O O12 0.601805 0.299321 0.720692
O O13 0.667584 0.395529 0.778299
O O14 0.624467 0.329500 0.000000
O O15 0.172412 0.439770 0.252076
O O16 0.000000 0.435043 0.250000
O O17 0.091394 0.418616 0.000000
O O18 0.087164 0.176320 0.500000
O O19 0.000000 0.160640 0.250000
O O20 0.500000 0.786488 0.250000
O O21 0.576961 0.768434 0.000000
O O22 0.685158 0.500000 0.750000
O O23 0.738833 0.548531 0.500000
#
# Coordination Sequence:
#
# PCOD8203925 Si02
#       8
#     8   8   8   8   8   8   8   8
#     4  10  20  36  59  88 122 158 199 243 289 343
#     4   9  18  33  51  74 103 140 182 226 275 327
#     4  10  22  38  56  84 120 156 196 241 284 335
#     4   9  18  35  55  77 108 139 174 220 270 328
#     4  11  21  32  48  70  98 133 173 221 275 331
#     4  11  22  35  54  79 112 154 197 241 287 337
#     4  11  22  35  56  85 117 151 185 223 276 339
#     4  10  21  37  55  75  99 130 173 221 273 333
#
# _framework density 19.399816000000001
#
# number of rings (size 3 to 8) (size 9 to 14) (size 15 to 20)
#    0.000    1.875    1.250    4.500    0.000    6.250 
#    0.000    1.250    0.000    0.750    0.000    5.250 
#    0.000    0.000    0.000    0.000    0.000    0.000 
#
# Total GULP energy -793663.671835 kJ/mol
# GULP energy per Si atom -12400.994872 kJ/mol
# Density = 1.935566 g / cm^3
# Si number density = 19.399816 Si / 1000 Ang^3
#
#
#
# Elastic Constant Matrix: (Units=GPa)
#
#
# Indices 1 2 3 4 5 6 
#
# 1 101.1247 47.3775 44.3082 0.0000 0.0000 0.0000
# 2 47.3775 101.5442 43.9701 0.0000 0.0000 0.0000
# 3 44.3082 43.9701 96.0310 0.0000 0.0000 0.0000
# 4 0.0000 0.0000 0.0000 28.6011 0.0000 0.0000
# 5 0.0000 0.0000 0.0000 0.0000 32.7709 0.0000
# 6 0.0000 0.0000 0.0000 0.0000 0.0000 12.3346
#
#
#
# Elastic Compliance Matrix: (Units=1/GPa)
#
#
# Indices 1 2 3 4 5 6 
#
# 1 0.013953 -0.004643 -0.004312 0.000000 0.000000 0.000000
# 2 -0.004643 0.013828 -0.004189 0.000000 0.000000 0.000000
# 3 -0.004312 -0.004189 0.014321 0.000000 0.000000 0.000000
# 4 0.000000 0.000000 0.000000 0.034964 0.000000 0.000000
# 5 0.000000 0.000000 0.000000 0.000000 0.030515 0.000000
# 6 0.000000 0.000000 0.000000 0.000000 0.000000 0.081072
#
#
# Mechanical properties :
#
#
# Convention : Reuss Voigt Hill
#
# Bulk Modulus (GPa) = 63.23589 63.33463 63.28526
# Shear Modulus (GPa) = 22.70518 25.61094 24.15806
#
# Velocity S-wave (km/s) = 3.42479 3.63735 3.53267
# Velocity P-wave (km/s) = 6.95024 7.09636 7.02368
#
# Compressibility (1/GPa) = 0.01581380
#
# Stress axis : x y z
#
# Youngs Moduli (GPa) = 71.66687 72.31555 69.82713
#
# Poissons Ratio (x) = 0.33577 0.30110
# Poissons Ratio (y) = 0.33275 0.29253
# Poissons Ratio (z) = 0.30904 0.30295
#
# Static dielectric constant tensor:
#      x y z
#    x 3.426630 0.000000 0.000000 
#    y 0.000000 3.529070 0.000000 
#    z 0.000000 0.000000 3.504470 
# 
# 
# High freq. dielectric constant tensor:
#      x y z
#    x 1.742990 0.000000 0.000000 
#    y 0.000000 1.740610 0.000000 
#    z 0.000000 0.000000 1.759830 
# 
# From -- ./inp_files/4376.got.cif
#   From: 2010.03.12/outbox.cif.g09.slc.cpg/sg49_3_cif.got.tgz:4376.got - 2010.04.14 03:58:27.
