data_PCOD8203784
_publ_section_title
;
Structure prediction by ZEFSAII (Michael W. Deem and Ramdas Pophale) SiO2 
 PCOD8203784
Probable space group: P C C M
;
_chemical_formula_sum "Si O2"
_cell_formula_units_Z 64
_cell_length_a 14.733796
_cell_length_b 25.517476
_cell_length_c 8.957611
_cell_angle_alpha 90.000000
_cell_angle_beta 90.000000
_cell_angle_gamma 90.000000
_cell_volume 3367.786610
_symmetry_space_group_name_H-M "P C C M"
_symmetry_group_IT_number 49
_symmetry_cell_setting 'orthorhombic'
loop_
_space_group_symop_operation_xyz
x,y,z
-x,-y,z
x,-y,1/2-z
-x,y,1/2-z
-x,-y,-z
x,y,-z
-x,y,1/2+z
x,-y,1/2+z
loop_
_atom_site_type_symbol
_atom_site_label
_atom_site_fract_x
_atom_site_fract_y
_atom_site_fract_z
Si Si1 0.095664 0.140079 0.323966
Si Si2 0.404662 0.907305 0.671732
Si Si3 0.593905 0.319054 0.325695
Si Si4 0.095629 0.553460 0.676908
Si Si5 0.212878 0.653018 0.674434
Si Si6 0.784054 0.947152 0.176580
Si Si7 0.408374 0.204730 0.828199
Si Si8 0.905185 0.260488 0.825402
O O1 0.089470 0.129864 0.500000
O O2 0.170327 0.103122 0.251129
O O3 0.122014 0.200514 0.289283
O O4 0.000000 0.126195 0.250000
O O5 0.500000 0.920843 0.750000
O O6 0.430928 0.910757 0.500000
O O7 0.324004 0.946988 0.713464
O O8 0.355749 0.849746 0.703278
O O9 0.500000 0.337657 0.250000
O O10 0.573727 0.320829 0.500000
O O11 0.680372 0.355053 0.284721
O O12 0.626814 0.260848 0.268012
O O13 0.133093 0.500000 0.750000
O O14 0.084052 0.546261 0.500000
O O15 0.165192 0.599078 0.719046
O O16 0.000000 0.568587 0.750000
O O17 0.201230 0.666021 0.500000
O O18 0.172796 0.701892 0.763870
O O19 0.824365 0.000000 0.250000
O O20 0.802958 0.946604 0.000000
O O21 0.500000 0.189706 0.750000
O O22 0.427082 0.213895 0.000000
O O23 0.000000 0.275915 0.750000
O O24 0.916833 0.269951 0.000000
#
# Coordination Sequence:
#
# PCOD8203784 Si02
#       8
#     8   8   8   8   8   8   8   8
#     4  10  22  41  62  85 111 141 178 222 272 329
#     4   9  19  34  54  79 105 140 178 217 268 323
#     4   9  18  32  50  74 108 146 184 228 272 320
#     4  10  20  35  55  81 111 148 189 232 281 329
#     4  10  21  34  54  83 115 151 189 231 278 329
#     4  11  24  40  59  82 108 140 181 227 275 329
#     4   8  14  27  46  69  96 129 169 209 255 309
#     4  10  21  36  56  84 116 147 179 218 270 331
#
# _framework density 19.003581000000001
#
# number of rings (size 3 to 8) (size 9 to 14) (size 15 to 20)
#    0.000    2.375    0.000    2.250    1.750    5.500 
#    0.000    2.500    0.000    0.375    0.000    2.625 
#    0.000    0.000    0.000    0.000    0.000    0.000 
#
# Total GULP energy -792906.753842 kJ/mol
# GULP energy per Si atom -12389.168029 kJ/mol
# Density = 1.896033 g / cm^3
# Si number density = 19.003581 Si / 1000 Ang^3
#
#
#
# Elastic Constant Matrix: (Units=GPa)
#
#
# Indices 1 2 3 4 5 6 
#
# 1 108.1889 63.5988 48.7628 0.0000 0.0000 0.0000
# 2 63.5988 98.8740 50.1983 0.0000 0.0000 0.0000
# 3 48.7628 50.1983 77.8947 0.0000 0.0000 0.0000
# 4 0.0000 0.0000 0.0000 24.8724 0.0000 0.0000
# 5 0.0000 0.0000 0.0000 0.0000 29.1060 0.0000
# 6 0.0000 0.0000 0.0000 0.0000 0.0000 26.7431
#
#
#
# Elastic Compliance Matrix: (Units=1/GPa)
#
#
# Indices 1 2 3 4 5 6 
#
# 1 0.016103 -0.007788 -0.005061 0.000000 0.000000 0.000000
# 2 -0.007788 0.018799 -0.007239 0.000000 0.000000 0.000000
# 3 -0.005061 -0.007239 0.020672 0.000000 0.000000 0.000000
# 4 0.000000 0.000000 0.000000 0.040205 0.000000 0.000000
# 5 0.000000 0.000000 0.000000 0.000000 0.034357 0.000000
# 6 0.000000 0.000000 0.000000 0.000000 0.000000 0.037393
#
#
# Mechanical properties :
#
#
# Convention : Reuss Voigt Hill
#
# Bulk Modulus (GPa) = 64.95415 67.78637 66.37026
# Shear Modulus (GPa) = 23.49213 24.30415 23.89814
#
# Velocity S-wave (km/s) = 3.51977 3.58009 3.55006
# Velocity P-wave (km/s) = 7.12548 7.26891 7.19756
#
# Compressibility (1/GPa) = 0.01539548
#
# Stress axis : x y z
#
# Youngs Moduli (GPa) = 62.10210 53.19522 48.37542
#
# Poissons Ratio (x) = 0.41428 0.24485
# Poissons Ratio (y) = 0.48365 0.35020
# Poissons Ratio (z) = 0.31433 0.38510
#
# Static dielectric constant tensor:
#      x y z
#    x 3.349610 0.000000 0.000000 
#    y 0.000000 3.574130 0.000000 
#    z 0.000000 0.000000 3.479210 
# 
# 
# High freq. dielectric constant tensor:
#      x y z
#    x 1.727960 0.000000 0.000000 
#    y 0.000000 1.733280 0.000000 
#    z 0.000000 0.000000 1.741590 
# 
# From -- ./inp_files/4291.got.cif
#   From: 2010.03.12/outbox.cif.g09.slc.cpg/sg49_3_cif.got.tgz:4291.got - 2010.04.14 03:58:27.
