data_PCOD8203510
_publ_section_title
;
Structure prediction by ZEFSAII (Michael W. Deem and Ramdas Pophale) SiO2 
 PCOD8203510
Probable space group: P C C M
;
_chemical_formula_sum "Si O2"
_cell_formula_units_Z 34
_cell_length_a 10.541685
_cell_length_b 12.047339
_cell_length_c 14.754448
_cell_angle_alpha 90.000000
_cell_angle_beta 90.000000
_cell_angle_gamma 90.000000
_cell_volume 1873.803872
_symmetry_space_group_name_H-M "P C C M"
_symmetry_group_IT_number 49
_symmetry_cell_setting 'orthorhombic'
loop_
_space_group_symop_operation_xyz
x,y,z
-x,-y,z
x,-y,1/2-z
-x,y,1/2-z
-x,-y,-z
x,y,-z
-x,y,1/2+z
x,-y,1/2+z
loop_
_atom_site_type_symbol
_atom_site_label
_atom_site_fract_x
_atom_site_fract_y
_atom_site_fract_z
Si Si1 0.150809 0.376545 0.749596
Si Si2 0.691841 0.022410 0.103317
Si Si3 0.887701 0.789286 0.398303
Si Si4 0.822835 0.207612 0.395627
Si Si5 0.500000 0.000000 0.250000
O O1 0.210895 0.500000 0.750000
O O2 0.182298 0.305696 0.659930
O O3 0.214061 0.313949 0.835270
O O4 0.000000 0.386470 0.750000
O O5 0.816403 0.095201 0.112900
O O6 0.589723 0.066286 0.178099
O O7 0.732465 0.896361 0.127204
O O8 0.637794 0.030531 0.000000
O O9 0.882805 0.743422 0.500000
O O10 0.031305 0.818995 0.369839
O O11 0.808397 0.241366 0.500000
#
# Coordination Sequence:
#
# PCOD8203510 Si02
#       5
#     8   8   8   8   2
#     4   9  17  27  40  65 100 131 156 180 215 272
#     4  10  20  33  49  71  95 120 155 192 230 280
#     4   9  17  30  49  71  95 123 153 189 231 272
#     4   9  17  30  49  71  95 123 153 189 231 272
#     4  12  22  32  46  66  98 132 150 182 236 280
#
# _framework density 18.144908999999998
#
# number of rings (size 3 to 8) (size 9 to 14) (size 15 to 20)
#    0.000    2.588    0.000    2.471    0.000    3.765 
#    0.000    9.412    0.000    0.000    0.000   13.176 
#    0.000   30.118    0.000    0.000    0.000    0.000 
#
# Total GULP energy -421223.880722 kJ/mol
# GULP energy per Si atom -12388.937668 kJ/mol
# Density = 1.810361 g / cm^3
# Si number density = 18.144909 Si / 1000 Ang^3
#
#
#
# Elastic Constant Matrix: (Units=GPa)
#
#
# Indices 1 2 3 4 5 6 
#
# 1 46.6913 17.0109 32.3362 0.0000 0.0000 0.0000
# 2 17.0109 113.8938 52.6321 0.0000 0.0000 0.0000
# 3 32.3362 52.6321 120.8807 0.0000 0.0000 0.0000
# 4 0.0000 0.0000 0.0000 21.9135 0.0000 0.0000
# 5 0.0000 0.0000 0.0000 0.0000 28.2243 0.0000
# 6 0.0000 0.0000 0.0000 0.0000 0.0000 2.0636
#
#
#
# Elastic Compliance Matrix: (Units=1/GPa)
#
#
# Indices 1 2 3 4 5 6 
#
# 1 0.026353 -0.000849 -0.006680 0.000000 0.000000 0.000000
# 2 -0.000849 0.011019 -0.004571 0.000000 0.000000 0.000000
# 3 -0.006680 -0.004571 0.012050 0.000000 0.000000 0.000000
# 4 0.000000 0.000000 0.000000 0.045634 0.000000 0.000000
# 5 0.000000 0.000000 0.000000 0.000000 0.035430 0.000000
# 6 0.000000 0.000000 0.000000 0.000000 0.000000 0.484601
#
#
# Mechanical properties :
#
#
# Convention : Reuss Voigt Hill
#
# Bulk Modulus (GPa) = 39.64744 53.93602 46.79173
# Shear Modulus (GPa) = 7.71971 22.40606 15.06288
#
# Velocity S-wave (km/s) = 2.06488 3.51784 2.88435
# Velocity P-wave (km/s) = 5.25194 6.80367 6.07753
#
# Compressibility (1/GPa) = 0.02522231
#
# Stress axis : x y z
#
# Youngs Moduli (GPa) = 37.94673 90.75159 82.99053
#
# Poissons Ratio (x) = 0.07706 0.55436
# Poissons Ratio (y) = 0.03222 0.37932
# Poissons Ratio (z) = 0.25348 0.41479
#
# Static dielectric constant tensor:
#      x y z
#    x 3.044070 0.000000 0.000000 
#    y 0.000000 3.335490 0.000000 
#    z 0.000000 0.000000 3.727000 
# 
# 
# High freq. dielectric constant tensor:
#      x y z
#    x 1.659300 0.000000 0.000000 
#    y 0.000000 1.678860 0.000000 
#    z 0.000000 0.000000 1.726060 
# 
# From -- ./inp_files/12527.got.cif
#   From: 2010.03.12/outbox.cif.g09.slc.cpg/sg49_7_cif.got.tgz:12527.got - 2010.04.14 03:58:27.
