data_PCOD8203141
_publ_section_title
;
Structure prediction by ZEFSAII (Michael W. Deem and Ramdas Pophale) SiO2 
 PCOD8203141
Probable space group: P C C M
;
_chemical_formula_sum "Si O2"
_cell_formula_units_Z 56
_cell_length_a 13.786400
_cell_length_b 23.379061
_cell_length_c 8.917812
_cell_angle_alpha 90.000000
_cell_angle_beta 90.000000
_cell_angle_gamma 90.000000
_cell_volume 2874.327511
_symmetry_space_group_name_H-M "P C C M"
_symmetry_group_IT_number 49
_symmetry_cell_setting 'orthorhombic'
loop_
_space_group_symop_operation_xyz
x,y,z
-x,-y,z
x,-y,1/2-z
-x,y,1/2-z
-x,-y,-z
x,y,-z
-x,y,1/2+z
x,-y,1/2+z
loop_
_atom_site_type_symbol
_atom_site_label
_atom_site_fract_x
_atom_site_fract_y
_atom_site_fract_z
Si Si1 0.910188 0.938803 0.172988
Si Si2 0.304350 0.938342 0.674996
Si Si3 0.273510 0.271938 0.673063
Si Si4 0.395977 0.381965 0.324025
Si Si5 0.103043 0.669423 0.324737
Si Si6 0.221756 0.558071 0.322834
Si Si7 0.401552 0.834209 0.176457
O O1 0.803959 0.911552 0.197424
O O2 0.000000 0.903544 0.250000
O O3 0.906247 0.000000 0.250000
O O4 0.934810 0.945812 0.000000
O O5 0.329425 0.944306 0.500000
O O6 0.378457 0.895746 0.753741
O O7 0.315395 0.000000 0.750000
O O8 0.243460 0.275722 0.500000
O O9 0.355192 0.318919 0.710663
O O10 0.177044 0.281676 0.769893
O O11 0.316414 0.210280 0.715454
O O12 0.500000 0.388167 0.250000
O O13 0.403598 0.394274 0.500000
O O14 0.325854 0.428718 0.249724
O O15 0.089722 0.676185 0.500000
O O16 0.145084 0.607392 0.280542
O O17 0.000000 0.678848 0.250000
O O18 0.180751 0.500000 0.250000
O O19 0.233697 0.551496 0.500000
O O20 0.500000 0.810868 0.250000
O O21 0.416410 0.840253 0.000000
#
# Coordination Sequence:
#
# PCOD8203141 Si02
#       7
#     8   8   8   8   8   8   8
#     4   9  16  27  47  73 101 133 170 210 253 302
#     4  10  21  37  56  81 113 149 188 230 275 327
#     4   9  20  38  59  83 111 142 180 226 277 331
#     4  10  19  33  54  79 108 143 183 230 281 334
#     4  10  21  37  60  86 114 148 186 229 278 330
#     4  10  21  36  53  78 111 149 191 234 278 327
#     4  11  23  39  60  85 112 144 181 225 275 331
#
# _framework density 19.482818000000002
#
# number of rings (size 3 to 8) (size 9 to 14) (size 15 to 20)
#    0.000    2.143    0.000    3.429    0.000    6.000 
#    0.000    5.000    0.000    1.714    0.000    0.000 
#    0.000    0.000    0.000    0.000    0.000    0.000 
#
# Total GULP energy -694396.387412 kJ/mol
# GULP energy per Si atom -12399.935490 kJ/mol
# Density = 1.943847 g / cm^3
# Si number density = 19.482818 Si / 1000 Ang^3
#
#
#
# Elastic Constant Matrix: (Units=GPa)
#
#
# Indices 1 2 3 4 5 6 
#
# 1 130.8115 40.9806 66.5366 0.0000 0.0000 0.0000
# 2 40.9806 89.8329 47.4404 0.0000 0.0000 0.0000
# 3 66.5366 47.4404 121.2330 0.0000 0.0000 0.0000
# 4 0.0000 0.0000 0.0000 23.5701 0.0000 0.0000
# 5 0.0000 0.0000 0.0000 0.0000 40.6543 0.0000
# 6 0.0000 0.0000 0.0000 0.0000 0.0000 17.5109
#
#
#
# Elastic Compliance Matrix: (Units=1/GPa)
#
#
# Indices 1 2 3 4 5 6 
#
# 1 0.010970 -0.002300 -0.005120 0.000000 0.000000 0.000000
# 2 -0.002300 0.014514 -0.004417 0.000000 0.000000 0.000000
# 3 -0.005120 -0.004417 0.012787 0.000000 0.000000 0.000000
# 4 0.000000 0.000000 0.000000 0.042427 0.000000 0.000000
# 5 0.000000 0.000000 0.000000 0.000000 0.024598 0.000000
# 6 0.000000 0.000000 0.000000 0.000000 0.000000 0.057107
#
#
# Mechanical properties :
#
#
# Convention : Reuss Voigt Hill
#
# Bulk Modulus (GPa) = 68.51459 72.42138 70.46799
# Shear Modulus (GPa) = 26.18591 28.80840 27.49716
#
# Velocity S-wave (km/s) = 3.67011 3.84950 3.76087
# Velocity P-wave (km/s) = 7.29401 7.55055 7.42339
#
# Compressibility (1/GPa) = 0.01459543
#
# Stress axis : x y z
#
# Youngs Moduli (GPa) = 91.16069 68.90045 78.20272
#
# Poissons Ratio (x) = 0.15848 0.40043
# Poissons Ratio (y) = 0.20968 0.34542
# Poissons Ratio (z) = 0.46678 0.30434
#
# Static dielectric constant tensor:
#      x y z
#    x 3.957550 0.000000 0.000000 
#    y 0.000000 3.375590 0.000000 
#    z 0.000000 0.000000 3.652560 
# 
# 
# High freq. dielectric constant tensor:
#      x y z
#    x 1.765990 0.000000 0.000000 
#    y 0.000000 1.736410 0.000000 
#    z 0.000000 0.000000 1.773510 
# 
# From -- ./inp_files/4083.got.cif
#   From: 2010.03.12/outbox.cif.g09.slc.cpg/sg49_3_cif.got.tgz:4083.got - 2010.04.14 03:58:27.
