data_PCOD8203711
_publ_section_title
;
Structure prediction by ZEFSAII (Michael W. Deem and Ramdas Pophale) SiO2 
 PCOD8203711
Probable space group: P C C M
;
_chemical_formula_sum "Si O2"
_cell_formula_units_Z 48
_cell_length_a 18.902654
_cell_length_b 8.536574
_cell_length_c 15.296512
_cell_angle_alpha 90.000000
_cell_angle_beta 90.000000
_cell_angle_gamma 90.000000
_cell_volume 2468.304904
_symmetry_space_group_name_H-M "P C C M"
_symmetry_group_IT_number 49
_symmetry_cell_setting 'orthorhombic'
loop_
_space_group_symop_operation_xyz
x,y,z
-x,-y,z
x,-y,1/2-z
-x,y,1/2-z
-x,-y,-z
x,y,-z
-x,y,1/2+z
x,-y,1/2+z
loop_
_atom_site_type_symbol
_atom_site_label
_atom_site_fract_x
_atom_site_fract_y
_atom_site_fract_z
Si Si1 0.581170 0.683913 0.256673
Si Si2 0.823382 0.327681 0.101032
Si Si3 0.674632 0.800634 0.404366
Si Si4 0.824729 0.696544 0.100761
Si Si5 0.083087 0.818431 0.749918
Si Si6 0.308391 0.111692 0.166732
O O1 0.591448 0.500000 0.250000
O O2 0.500000 0.735029 0.250000
O O3 0.609164 0.734943 0.350719
O O4 0.625363 0.773437 0.182166
O O5 0.750139 0.252751 0.135370
O O6 0.813960 0.512367 0.109234
O O7 0.884958 0.265365 0.164230
O O8 0.839925 0.279258 0.000000
O O9 0.666557 0.727855 0.500000
O O10 0.672218 0.990106 0.409953
O O11 0.891616 0.743511 0.158917
O O12 0.757334 0.782982 0.140520
O O13 0.837533 0.746277 0.000000
O O14 0.000000 0.792106 0.750000
O O15 0.104304 0.000000 0.750000
O O16 0.291918 0.000000 0.250000
#
# Coordination Sequence:
#
# PCOD8203711 Si02
#       6
#     8   8   8   8   8   8
#     4  10  21  38  57  78 110 151 187 224 275 331
#     4  10  22  39  61  85 112 145 186 233 279 327
#     4  10  20  36  58  84 111 142 182 231 276 322
#     4  11  22  37  59  87 114 146 186 230 277 331
#     4  11  24  40  58  82 114 151 187 227 278 333
#     4  10  20  34  57  84 112 147 186 227 274 328
#
# _framework density 19.446543999999999
#
# number of rings (size 3 to 8) (size 9 to 14) (size 15 to 20)
#    0.000    1.667    0.000    5.500    0.000    7.000 
#    0.000    8.333    0.000    0.000    0.000    0.000 
#    0.000    0.000    0.000    0.000    0.000    0.000 
#
# Total GULP energy -595169.333403 kJ/mol
# GULP energy per Si atom -12399.361113 kJ/mol
# Density = 1.940228 g / cm^3
# Si number density = 19.446544 Si / 1000 Ang^3
#
#
#
# Elastic Constant Matrix: (Units=GPa)
#
#
# Indices 1 2 3 4 5 6 
#
# 1 132.8814 61.7034 65.2931 0.0000 0.0000 0.0000
# 2 61.7034 114.9346 43.5418 0.0000 0.0000 0.0000
# 3 65.2931 43.5418 110.5148 0.0000 0.0000 0.0000
# 4 0.0000 0.0000 0.0000 24.4460 0.0000 0.0000
# 5 0.0000 0.0000 0.0000 0.0000 26.7886 0.0000
# 6 0.0000 0.0000 0.0000 0.0000 0.0000 35.6945
#
#
#
# Elastic Compliance Matrix: (Units=1/GPa)
#
#
# Indices 1 2 3 4 5 6 
#
# 1 0.012335 -0.004539 -0.005500 0.000000 0.000000 0.000000
# 2 -0.004539 0.011897 -0.002006 0.000000 0.000000 0.000000
# 3 -0.005500 -0.002006 0.013088 0.000000 0.000000 0.000000
# 4 0.000000 0.000000 0.000000 0.040906 0.000000 0.000000
# 5 0.000000 0.000000 0.000000 0.000000 0.037329 0.000000
# 6 0.000000 0.000000 0.000000 0.000000 0.000000 0.028016
#
#
# Mechanical properties :
#
#
# Convention : Reuss Voigt Hill
#
# Bulk Modulus (GPa) = 75.57355 77.71193 76.64274
# Shear Modulus (GPa) = 29.05774 29.90533 29.48154
#
# Velocity S-wave (km/s) = 3.86973 3.92576 3.89785
# Velocity P-wave (km/s) = 7.67548 7.78443 7.73015
#
# Compressibility (1/GPa) = 0.01323214
#
# Stress axis : x y z
#
# Youngs Moduli (GPa) = 81.06711 84.05334 76.40567
#
# Poissons Ratio (x) = 0.38151 0.42020
# Poissons Ratio (y) = 0.36796 0.15325
# Poissons Ratio (z) = 0.44584 0.16859
#
# Static dielectric constant tensor:
#      x y z
#    x 3.442910 0.000000 0.000000 
#    y 0.000000 3.832190 0.000000 
#    z 0.000000 0.000000 3.703090 
# 
# 
# High freq. dielectric constant tensor:
#      x y z
#    x 1.750540 0.000000 0.000000 
#    y 0.000000 1.776920 0.000000 
#    z 0.000000 0.000000 1.762550 
# 
# From -- ./inp_files/14048.got.cif
#   From: 2010.03.12/outbox.cif.g09.slc.cpg/sg49_8_cif.got.tgz:14048.got - 2010.04.14 03:58:27.
