data_PCOD8203791
_publ_section_title
;
Structure prediction by ZEFSAII (Michael W. Deem and Ramdas Pophale) SiO2 
 PCOD8203791
Probable space group: P C C M
;
_chemical_formula_sum "Si O2"
_cell_formula_units_Z 40
_cell_length_a 25.647792
_cell_length_b 9.205213
_cell_length_c 8.532067
_cell_angle_alpha 90.000000
_cell_angle_beta 90.000000
_cell_angle_gamma 90.000000
_cell_volume 2014.364608
_symmetry_space_group_name_H-M "P C C M"
_symmetry_group_IT_number 49
_symmetry_cell_setting 'orthorhombic'
loop_
_space_group_symop_operation_xyz
x,y,z
-x,-y,z
x,-y,1/2-z
-x,y,1/2-z
-x,-y,-z
x,y,-z
-x,y,1/2+z
x,-y,1/2+z
loop_
_atom_site_type_symbol
_atom_site_label
_atom_site_fract_x
_atom_site_fract_y
_atom_site_fract_z
Si Si1 0.556765 0.154314 0.315004
Si Si2 0.352726 0.341647 0.684530
Si Si3 0.741455 0.160285 0.315617
Si Si4 0.949427 0.659374 0.319282
Si Si5 0.165507 0.338101 0.315456
O O1 0.500000 0.192268 0.250000
O O2 0.554089 0.143654 0.500000
O O3 0.595044 0.281869 0.263807
O O4 0.577192 0.000000 0.250000
O O5 0.340370 0.500000 0.750000
O O6 0.361036 0.348033 0.500000
O O7 0.304442 0.240307 0.724907
O O8 0.729665 0.160149 0.500000
O O9 0.795936 0.237483 0.281398
O O10 0.745055 0.000000 0.250000
O O11 0.948339 0.500000 0.250000
O O12 0.959554 0.646145 0.500000
O O13 0.892570 0.728865 0.285057
O O14 0.000000 0.746475 0.250000
O O15 0.170402 0.500000 0.250000
O O16 0.179192 0.338162 0.500000
#
# Coordination Sequence:
#
# PCOD8203791 Si02
#       5
#     8   8   8   8   8
#     4  11  22  40  64  93 125 162 202 242 287 340
#     4  12  25  43  64  90 121 155 194 241 291 343
#     4  12  25  42  62  85 113 150 191 237 288 346
#     4   9  16  26  45  73 108 144 183 227 277 331
#     4  10  20  35  55  83 115 150 189 235 285 339
#
# _framework density 19.857379000000002
#
# number of rings (size 3 to 8) (size 9 to 14) (size 15 to 20)
#    0.000    1.200    0.000    9.000    0.000    2.800 
#    0.000    2.000    0.000    0.600    0.000    4.200 
#    0.000    0.000    0.000    0.000    0.000    0.000 
#
# Total GULP energy -495971.683815 kJ/mol
# GULP energy per Si atom -12399.292095 kJ/mol
# Density = 1.981218 g / cm^3
# Si number density = 19.857379 Si / 1000 Ang^3
#
#
#
# Elastic Constant Matrix: (Units=GPa)
#
#
# Indices 1 2 3 4 5 6 
#
# 1 120.8193 44.1514 40.2736 0.0000 0.0000 0.0000
# 2 44.1514 90.9278 24.3527 0.0000 0.0000 0.0000
# 3 40.2736 24.3527 140.4530 0.0000 0.0000 0.0000
# 4 0.0000 0.0000 0.0000 29.5243 0.0000 0.0000
# 5 0.0000 0.0000 0.0000 0.0000 38.8965 0.0000
# 6 0.0000 0.0000 0.0000 0.0000 0.0000 -1.9063
#
#
#
# Elastic Compliance Matrix: (Units=1/GPa)
#
#
# Indices 1 2 3 4 5 6 
#
# 1 0.010714 -0.004593 -0.002276 0.000000 0.000000 0.000000
# 2 -0.004593 0.013502 -0.001024 0.000000 0.000000 0.000000
# 3 -0.002276 -0.001024 0.007950 0.000000 0.000000 0.000000
# 4 0.000000 0.000000 0.000000 0.033870 0.000000 0.000000
# 5 0.000000 0.000000 0.000000 0.000000 0.025709 0.000000
# 6 0.000000 0.000000 0.000000 0.000000 0.000000 -0.524572
#
#
# Mechanical properties :
#
#
# Convention : Reuss Voigt Hill
#
# Bulk Modulus (GPa) = 61.04811 63.30614 62.17713
# Shear Modulus (GPa) = -12.14828 29.53105 8.69138
#
# Velocity S-wave (km/s) = -2.47610 3.86055 2.09437
# Velocity P-wave (km/s) = 4.75766 7.19871 6.10151
#
# Compressibility (1/GPa) = 0.01638052
#
# Stress axis : x y z
#
# Youngs Moduli (GPa) = 93.33794 74.06249 125.78697
#
# Poissons Ratio (x) = 0.34015 0.28626
# Poissons Ratio (y) = 0.42868 0.12883
# Poissons Ratio (z) = 0.21241 0.07585
#
# Static dielectric constant tensor:
#      x y z
#    x 4.387690 0.000000 0.000000 
#    y 0.000000 3.380310 0.000000 
#    z 0.000000 0.000000 3.877450 
# 
# 
# High freq. dielectric constant tensor:
#      x y z
#    x 1.800900 0.000000 0.000000 
#    y 0.000000 1.744490 0.000000 
#    z 0.000000 0.000000 1.798720 
# 
# From -- ./inp_files/6189.got.cif
#   From: 2010.03.12/outbox.cif.g09.slc.cpg/sg49_4_cif.got.tgz:6189.got - 2010.04.14 03:58:27.
