data_PCOD8203514
_publ_section_title
;
Structure prediction by ZEFSAII (Michael W. Deem and Ramdas Pophale) SiO2 
 PCOD8203514
Probable space group: P C C M
;
_chemical_formula_sum "Si O2"
_cell_formula_units_Z 64
_cell_length_a 20.544744
_cell_length_b 17.573603
_cell_length_c 8.692926
_cell_angle_alpha 90.000000
_cell_angle_beta 90.000000
_cell_angle_gamma 90.000000
_cell_volume 3138.538987
_symmetry_space_group_name_H-M "P C C M"
_symmetry_group_IT_number 49
_symmetry_cell_setting 'orthorhombic'
loop_
_space_group_symop_operation_xyz
x,y,z
-x,-y,z
x,-y,1/2-z
-x,y,1/2-z
-x,-y,-z
x,y,-z
-x,y,1/2+z
x,-y,1/2+z
loop_
_atom_site_type_symbol
_atom_site_label
_atom_site_fract_x
_atom_site_fract_y
_atom_site_fract_z
Si Si1 0.202767 0.422320 0.182575
Si Si2 0.136632 0.076265 0.327276
Si Si3 0.708091 0.280917 0.318218
Si Si4 0.278082 0.123609 0.671804
Si Si5 0.069229 0.629091 0.817536
Si Si6 0.564895 0.757146 0.180699
Si Si7 0.934206 0.792708 0.180644
Si Si8 0.403556 0.076414 0.821209
O O1 0.233404 0.500000 0.250000
O O2 0.250995 0.354467 0.236195
O O3 0.129926 0.416953 0.250018
O O4 0.198472 0.425340 0.000000
O O5 0.107517 0.085400 0.500000
O O6 0.214051 0.072589 0.334176
O O7 0.120944 0.146619 0.216374
O O8 0.108541 0.000000 0.250000
O O9 0.714966 0.268550 0.500000
O O10 0.738394 0.207957 0.234502
O O11 0.631100 0.287745 0.272349
O O12 0.307871 0.130694 0.500000
O O13 0.327130 0.079103 0.782824
O O14 0.081388 0.715796 0.770447
O O15 0.000000 0.599368 0.750000
O O16 0.067340 0.620354 0.000000
O O17 0.500000 0.717493 0.250000
O O18 0.566889 0.844498 0.243965
O O19 0.557995 0.757202 0.000000
O O20 0.000000 0.828282 0.250000
O O21 0.939118 0.775159 0.000000
O O22 0.435714 0.000000 0.750000
O O23 0.414347 0.070637 0.000000
#
# Coordination Sequence:
#
# PCOD8203514 Si02
#       8
#     8   8   8   8   8   8   8   8
#     4  11  23  40  62  90 122 154 186 226 275 329
#     4  11  23  36  50  73 102 135 178 230 283 336
#     4   9  20  38  59  82 113 149 185 226 277 333
#     4  10  20  33  53  78 104 136 179 225 271 325
#     4  11  22  39  62  89 120 154 192 230 271 326
#     4   9  19  35  54  79 108 144 188 236 284 335
#     4  11  22  38  58  78 102 136 178 225 275 328
#     4  10  20  33  49  72 107 145 184 228 279 332
#
# _framework density 20.391653000000002
#
# number of rings (size 3 to 8) (size 9 to 14) (size 15 to 20)
#    0.000    1.750    0.000    6.375    0.000    9.250 
#    0.000    3.750    0.000    0.375    0.000    2.625 
#    0.000    0.000    0.000    0.000    0.000    0.000 
#
# Total GULP energy -793438.686978 kJ/mol
# GULP energy per Si atom -12397.479484 kJ/mol
# Density = 2.034524 g / cm^3
# Si number density = 20.391653 Si / 1000 Ang^3
#
#
#
# Elastic Constant Matrix: (Units=GPa)
#
#
# Indices 1 2 3 4 5 6 
#
# 1 88.5029 32.4928 25.6110 0.0000 0.0000 0.0000
# 2 32.4928 80.4328 25.3608 0.0000 0.0000 0.0000
# 3 25.6110 25.3608 81.6782 0.0000 0.0000 0.0000
# 4 0.0000 0.0000 0.0000 27.2691 0.0000 0.0000
# 5 0.0000 0.0000 0.0000 0.0000 30.7255 0.0000
# 6 0.0000 0.0000 0.0000 0.0000 0.0000 9.4234
#
#
#
# Elastic Compliance Matrix: (Units=1/GPa)
#
#
# Indices 1 2 3 4 5 6 
#
# 1 0.013856 -0.004686 -0.002890 0.000000 0.000000 0.000000
# 2 -0.004686 0.015367 -0.003302 0.000000 0.000000 0.000000
# 3 -0.002890 -0.003302 0.014174 0.000000 0.000000 0.000000
# 4 0.000000 0.000000 0.000000 0.036672 0.000000 0.000000
# 5 0.000000 0.000000 0.000000 0.000000 0.032546 0.000000
# 6 0.000000 0.000000 0.000000 0.000000 0.000000 0.106119
#
#
# Mechanical properties :
#
#
# Convention : Reuss Voigt Hill
#
# Bulk Modulus (GPa) = 46.20723 46.39368 46.30046
# Shear Modulus (GPa) = 20.18543 24.62688 22.40616
#
# Velocity S-wave (km/s) = 3.14966 3.47896 3.31840
# Velocity P-wave (km/s) = 5.99468 6.24005 6.11860
#
# Compressibility (1/GPa) = 0.02164163
#
# Stress axis : x y z
#
# Youngs Moduli (GPa) = 72.17216 65.07444 70.54938
#
# Poissons Ratio (x) = 0.30496 0.20386
# Poissons Ratio (y) = 0.33822 0.23295
# Poissons Ratio (z) = 0.20854 0.21487
#
# Static dielectric constant tensor:
#      x y z
#    x 3.940390 0.000000 0.000000 
#    y 0.000000 3.613080 0.000000 
#    z 0.000000 0.000000 3.730170 
# 
# 
# High freq. dielectric constant tensor:
#      x y z
#    x 1.795370 0.000000 0.000000 
#    y 0.000000 1.777510 0.000000 
#    z 0.000000 0.000000 1.803490 
# 
# From -- ./inp_files/5971.got.cif
#   From: 2010.03.12/outbox.cif.g09.slc.cpg/sg49_3_cif.got.tgz:5971.got - 2010.04.14 03:58:27.
