data_PCOD8203321
_publ_section_title
;
Structure prediction by ZEFSAII (Michael W. Deem and Ramdas Pophale) SiO2 
 PCOD8203321
Probable space group: P C C M
;
_chemical_formula_sum "Si O2"
_cell_formula_units_Z 64
_cell_length_a 19.559276
_cell_length_b 20.564993
_cell_length_c 8.693793
_cell_angle_alpha 90.000000
_cell_angle_beta 90.000000
_cell_angle_gamma 90.000000
_cell_volume 3496.959773
_symmetry_space_group_name_H-M "P C C M"
_symmetry_group_IT_number 49
_symmetry_cell_setting 'orthorhombic'
loop_
_space_group_symop_operation_xyz
x,y,z
-x,-y,z
x,-y,1/2-z
-x,y,1/2-z
-x,-y,-z
x,y,-z
-x,y,1/2+z
x,-y,1/2+z
loop_
_atom_site_type_symbol
_atom_site_label
_atom_site_fract_x
_atom_site_fract_y
_atom_site_fract_z
Si Si1 0.791081 0.694235 0.181075
Si Si2 0.928277 0.886804 0.321268
Si Si3 0.928355 0.265762 0.821542
Si Si4 0.290670 0.186680 0.318036
Si Si5 0.430191 0.624661 0.318919
Si Si6 0.710127 0.432425 0.681007
Si Si7 0.208399 0.932650 0.318107
Si Si8 0.429138 0.774214 0.682023
O O1 0.869725 0.695811 0.231294
O O2 0.747416 0.748031 0.268388
O O3 0.762737 0.623808 0.229161
O O4 0.783444 0.707003 0.000000
O O5 0.925862 0.905471 0.500000
O O6 0.916324 0.810444 0.296218
O O7 0.870280 0.925190 0.230743
O O8 0.000000 0.908972 0.250000
O O9 0.000000 0.288200 0.750000
O O10 0.926665 0.284536 0.000000
O O11 0.289230 0.181725 0.500000
O O12 0.252880 0.125071 0.249284
O O13 0.367957 0.185286 0.257121
O O14 0.500000 0.595247 0.250000
O O15 0.434876 0.619627 0.500000
O O16 0.365580 0.584519 0.254410
O O17 0.420441 0.699261 0.267930
O O18 0.736405 0.500000 0.750000
O O19 0.706877 0.439067 0.500000
O O20 0.214449 0.932839 0.500000
O O21 0.237090 0.000000 0.250000
O O22 0.500000 0.801828 0.750000
O O23 0.427692 0.783194 0.500000
#
# Coordination Sequence:
#
# PCOD8203321 Si02
#       8
#     8   8   8   8   8   8   8   8
#     4  11  21  37  59  83 114 150 190 239 289 336
#     4  10  20  35  55  83 117 153 194 233 277 337
#     4  10  20  34  56  86 117 147 186 232 283 340
#     4  12  23  37  59  88 116 150 194 237 285 341
#     4   9  18  33  51  76 110 148 189 230 276 333
#     4  10  22  38  54  78 112 151 192 236 286 342
#     4  12  25  41  60  83 116 155 193 239 288 338
#     4  10  19  35  57  85 117 149 188 236 289 338
#
# _framework density 18.301611999999999
#
# number of rings (size 3 to 8) (size 9 to 14) (size 15 to 20)
#    0.000    1.500    2.500    3.750    0.000    3.500 
#    0.000    2.500    0.000    0.750    0.000    5.250 
#    0.000    0.000    0.000    0.000    0.000    0.000 
#
# Total GULP energy -793883.084790 kJ/mol
# GULP energy per Si atom -12404.423200 kJ/mol
# Density = 1.825996 g / cm^3
# Si number density = 18.301612 Si / 1000 Ang^3
#
#
#
# Elastic Constant Matrix: (Units=GPa)
#
#
# Indices 1 2 3 4 5 6 
#
# 1 125.9854 53.9534 51.7257 0.0000 0.0000 0.0000
# 2 53.9534 97.1775 50.2467 0.0000 0.0000 0.0000
# 3 51.7257 50.2467 114.4698 0.0000 0.0000 0.0000
# 4 0.0000 0.0000 0.0000 26.7175 0.0000 0.0000
# 5 0.0000 0.0000 0.0000 0.0000 34.3995 0.0000
# 6 0.0000 0.0000 0.0000 0.0000 0.0000 26.0806
#
#
#
# Elastic Compliance Matrix: (Units=1/GPa)
#
#
# Indices 1 2 3 4 5 6 
#
# 1 0.011159 -0.004642 -0.003005 0.000000 0.000000 0.000000
# 2 -0.004642 0.015243 -0.004593 0.000000 0.000000 0.000000
# 3 -0.003005 -0.004593 0.012110 0.000000 0.000000 0.000000
# 4 0.000000 0.000000 0.000000 0.037429 0.000000 0.000000
# 5 0.000000 0.000000 0.000000 0.000000 0.029070 0.000000
# 6 0.000000 0.000000 0.000000 0.000000 0.000000 0.038343
#
#
# Mechanical properties :
#
#
# Convention : Reuss Voigt Hill
#
# Bulk Modulus (GPa) = 71.26759 72.16493 71.71626
# Shear Modulus (GPa) = 28.98378 29.55332 29.26855
#
# Velocity S-wave (km/s) = 3.98386 4.02281 4.00338
# Velocity P-wave (km/s) = 7.75800 7.81625 7.78718
#
# Compressibility (1/GPa) = 0.01403162
#
# Stress axis : x y z
#
# Youngs Moduli (GPa) = 89.61359 65.60562 82.57647
#
# Poissons Ratio (x) = 0.30453 0.24814
# Poissons Ratio (y) = 0.41597 0.37929
# Poissons Ratio (z) = 0.26928 0.30134
#
# Static dielectric constant tensor:
#      x y z
#    x 3.591560 0.000000 0.000000 
#    y 0.000000 3.308170 0.000000 
#    z 0.000000 0.000000 3.452840 
# 
# 
# High freq. dielectric constant tensor:
#      x y z
#    x 1.717050 0.000000 0.000000 
#    y 0.000000 1.685350 0.000000 
#    z 0.000000 0.000000 1.721420 
# 
# From -- ./inp_files/5256.got.cif
#   From: 2010.03.12/outbox.cif.g09.slc.cpg/sg49_3_cif.got.tgz:5256.got - 2010.04.14 03:58:27.
