data_PCOD8203022
_publ_section_title
;
Structure prediction by ZEFSAII (Michael W. Deem and Ramdas Pophale) SiO2 
 PCOD8203022
Probable space group: P C C M
;
_chemical_formula_sum "Si O2"
_cell_formula_units_Z 56
_cell_length_a 10.313299
_cell_length_b 18.210459
_cell_length_c 15.647598
_cell_angle_alpha 90.000000
_cell_angle_beta 90.000000
_cell_angle_gamma 90.000000
_cell_volume 2938.773950
_symmetry_space_group_name_H-M "P C C M"
_symmetry_group_IT_number 49
_symmetry_cell_setting 'orthorhombic'
loop_
_space_group_symop_operation_xyz
x,y,z
-x,-y,z
x,-y,1/2-z
-x,y,1/2-z
-x,-y,-z
x,y,-z
-x,y,1/2+z
x,-y,1/2+z
loop_
_atom_site_type_symbol
_atom_site_label
_atom_site_fract_x
_atom_site_fract_y
_atom_site_fract_z
Si Si1 0.499998 0.913319 0.097489
Si Si2 0.653913 0.418111 0.250000
Si Si3 0.649897 0.681963 0.095419
Si Si4 0.250457 0.168186 0.848062
Si Si5 0.250451 0.168186 0.651936
Si Si6 0.999997 0.082687 0.351846
Si Si7 0.350103 0.681963 0.904581
O O1 0.626298 0.884327 0.145094
O O2 0.373689 0.884331 0.145088
O O3 0.500000 0.000000 0.103429
O O4 0.500003 0.885127 0.000000
O O5 0.713879 0.500000 0.250000
O O6 0.500000 0.422972 0.250000
O O7 0.702314 0.376519 0.335433
O O8 0.702315 0.376519 0.164567
O O9 0.731283 0.756730 0.100059
O O10 0.500000 0.701351 0.115102
O O11 0.665661 0.648663 0.000000
O O12 0.228221 0.189646 0.749999
O O13 0.126580 0.125331 0.885927
O O14 0.126569 0.125335 0.614071
O O15 0.268716 0.243271 0.600057
O O16 0.000000 0.079250 0.250000
O O17 0.000000 0.000000 0.389368
O O18 0.334340 0.648662 0.000000
#
# Coordination Sequence:
#
# PCOD8203022 Si02
#       7
#     8   8   8   8   8   8   8
#     4  11  23  35  49  75 107 140 185 235 281 333
#     4   9  18  32  52  81 114 147 181 217 271 335
#     4  10  19  32  52  80 113 146 183 227 272 325
#     4  11  20  34  56  78 105 144 189 232 281 334
#     4  11  20  34  56  78 105 144 189 232 281 334
#     4   9  20  36  53  77 109 143 187 242 289 332
#     4  10  19  32  52  80 113 146 183 227 272 325
#
# _framework density 19.055565000000001
#
# number of rings (size 3 to 8) (size 9 to 14) (size 15 to 20)
#    0.000    1.857    2.857    2.143    0.000    2.857 
#    0.000    5.714    0.000    5.143    0.000    2.000 
#    0.000    2.286    0.000    0.000    0.000    0.000 
#
# Total GULP energy -694512.007939 kJ/mol
# GULP energy per Si atom -12402.000142 kJ/mol
# Density = 1.901219 g / cm^3
# Si number density = 19.055565 Si / 1000 Ang^3
#
#
#
# Elastic Constant Matrix: (Units=GPa)
#
#
# Indices 1 2 3 4 5 6 
#
# 1 105.6260 49.1832 17.5375 0.0000 0.0000 0.0000
# 2 49.1832 144.5500 51.6089 0.0000 0.0000 0.0000
# 3 17.5375 51.6089 103.8432 0.0000 0.0000 0.0000
# 4 0.0000 0.0000 0.0000 19.9637 0.0000 0.0000
# 5 0.0000 0.0000 0.0000 0.0000 23.9019 0.0000
# 6 0.0000 0.0000 0.0000 0.0000 0.0000 18.2663
#
#
#
# Elastic Compliance Matrix: (Units=1/GPa)
#
#
# Indices 1 2 3 4 5 6 
#
# 1 0.011250 -0.003829 0.000003 0.000000 0.000000 0.000000
# 2 -0.003829 0.009713 -0.004181 0.000000 0.000000 0.000000
# 3 0.000003 -0.004181 0.011707 0.000000 0.000000 0.000000
# 4 0.000000 0.000000 0.000000 0.050091 0.000000 0.000000
# 5 0.000000 0.000000 0.000000 0.000000 0.041838 0.000000
# 6 0.000000 0.000000 0.000000 0.000000 0.000000 0.054746
#
#
# Mechanical properties :
#
#
# Convention : Reuss Voigt Hill
#
# Bulk Modulus (GPa) = 60.03465 65.63094 62.83279
# Shear Modulus (GPa) = 24.88675 28.13903 26.51289
#
# Velocity S-wave (km/s) = 3.61780 3.84693 3.73412
# Velocity P-wave (km/s) = 7.00176 7.36536 7.18586
#
# Compressibility (1/GPa) = 0.01665705
#
# Stress axis : x y z
#
# Youngs Moduli (GPa) = 88.89134 102.94996 85.41717
#
# Poissons Ratio (x) = 0.39417 -0.00025
# Poissons Ratio (y) = 0.34034 0.35712
# Poissons Ratio (z) = -0.00026 0.43042
#
# Static dielectric constant tensor:
#      x y z
#    x 3.271970 0.000000 0.000000 
#    y 0.000000 3.521050 0.000000 
#    z 0.000000 0.000000 3.530750 
# 
# 
# High freq. dielectric constant tensor:
#      x y z
#    x 1.703610 0.000000 0.000000 
#    y 0.000000 1.736160 0.000000 
#    z 0.000000 0.000000 1.745460 
# 
# From -- ./inp_files/12036.got.cif
#   From: 2010.03.12/outbox.cif.g09.slc.cpg/sg49_7_cif.got.tgz:12036.got - 2010.04.14 03:58:27.
