data_PCOD8203632
_publ_section_title
;
Structure prediction by ZEFSAII (Michael W. Deem and Ramdas Pophale) SiO2 
 PCOD8203632
Probable space group: P C C M
;
_chemical_formula_sum "Si O2"
_cell_formula_units_Z 64
_cell_length_a 15.307567
_cell_length_b 24.365178
_cell_length_c 8.700075
_cell_angle_alpha 90.000000
_cell_angle_beta 90.000000
_cell_angle_gamma 90.000000
_cell_volume 3244.880847
_symmetry_space_group_name_H-M "P C C M"
_symmetry_group_IT_number 49
_symmetry_cell_setting 'orthorhombic'
loop_
_space_group_symop_operation_xyz
x,y,z
-x,-y,z
x,-y,1/2-z
-x,y,1/2-z
-x,-y,-z
x,y,-z
-x,y,1/2+z
x,-y,1/2+z
loop_
_atom_site_type_symbol
_atom_site_label
_atom_site_fract_x
_atom_site_fract_y
_atom_site_fract_z
Si Si1 0.086931 0.100678 0.178173
Si Si2 0.591185 0.559692 0.317586
Si Si3 0.729819 0.942238 0.182282
Si Si4 0.316595 0.247026 0.326922
Si Si5 0.089542 0.665565 0.819088
Si Si6 0.125401 0.789442 0.172634
Si Si7 0.726987 0.357508 0.679893
Si Si8 0.591839 0.860590 0.679981
O O1 0.173345 0.071906 0.247027
O O2 0.087378 0.165894 0.211240
O O3 0.000000 0.073639 0.250000
O O4 0.083010 0.090422 0.000000
O O5 0.610329 0.500000 0.250000
O O6 0.500000 0.583089 0.250000
O O7 0.583660 0.556411 0.500000
O O8 0.670855 0.598087 0.270240
O O9 0.665202 0.895134 0.235477
O O10 0.698523 0.000000 0.250000
O O11 0.729188 0.944839 0.000000
O O12 0.324790 0.271157 0.500000
O O13 0.229559 0.210928 0.313540
O O14 0.315279 0.297691 0.209853
O O15 0.394165 0.204569 0.288611
O O16 0.088724 0.730088 0.781065
O O17 0.173437 0.638120 0.739077
O O18 0.000000 0.640090 0.750000
O O19 0.095355 0.654191 0.000000
O O20 0.096866 0.805562 0.000000
O O21 0.724481 0.370000 0.500000
O O22 0.500000 0.878326 0.750000
O O23 0.594562 0.873770 0.500000
#
# Coordination Sequence:
#
# PCOD8203632 Si02
#       8
#     8   8   8   8   8   8   8   8
#     4  11  23  36  56  84 113 145 185 231 282 344
#     4  11  22  40  64  91 123 159 204 255 305 359
#     4  11  25  44  64  86 111 145 188 237 289 346
#     4   9  19  36  57  83 118 158 193 236 290 345
#     4  10  20  34  52  81 119 161 205 250 297 349
#     4   9  17  32  54  79 111 150 191 232 282 339
#     4  11  22  36  58  89 124 165 206 249 298 352
#     4  11  23  41  65  90 118 150 187 235 290 350
#
# _framework density 19.723375000000001
#
# number of rings (size 3 to 8) (size 9 to 14) (size 15 to 20)
#    0.000    1.625    1.250    5.250    0.000    7.000 
#    0.000    3.750    0.000    0.375    0.000    2.625 
#    0.000    0.000    0.000    0.000    0.000    0.000 
#
# Total GULP energy -793723.612018 kJ/mol
# GULP energy per Si atom -12401.931438 kJ/mol
# Density = 1.967848 g / cm^3
# Si number density = 19.723375 Si / 1000 Ang^3
#
#
#
# Elastic Constant Matrix: (Units=GPa)
#
#
# Indices 1 2 3 4 5 6 
#
# 1 126.2384 42.3047 51.7508 0.0000 0.0000 0.0000
# 2 42.3047 63.9396 35.1110 0.0000 0.0000 0.0000
# 3 51.7508 35.1110 112.4146 0.0000 0.0000 0.0000
# 4 0.0000 0.0000 0.0000 27.1707 0.0000 0.0000
# 5 0.0000 0.0000 0.0000 0.0000 32.8314 0.0000
# 6 0.0000 0.0000 0.0000 0.0000 0.0000 13.3205
#
#
#
# Elastic Compliance Matrix: (Units=1/GPa)
#
#
# Indices 1 2 3 4 5 6 
#
# 1 0.011171 -0.005513 -0.003421 0.000000 0.000000 0.000000
# 2 -0.005513 0.021598 -0.004208 0.000000 0.000000 0.000000
# 3 -0.003421 -0.004208 0.011785 0.000000 0.000000 0.000000
# 4 0.000000 0.000000 0.000000 0.036804 0.000000 0.000000
# 5 0.000000 0.000000 0.000000 0.000000 0.030459 0.000000
# 6 0.000000 0.000000 0.000000 0.000000 0.000000 0.075072
#
#
# Mechanical properties :
#
#
# Convention : Reuss Voigt Hill
#
# Bulk Modulus (GPa) = 54.73254 62.32505 58.52880
# Shear Modulus (GPa) = 22.80370 26.22628 24.51499
#
# Velocity S-wave (km/s) = 3.40395 3.65047 3.52936
# Velocity P-wave (km/s) = 6.57719 7.03108 6.80792
#
# Compressibility (1/GPa) = 0.01827067
#
# Stress axis : x y z
#
# Youngs Moduli (GPa) = 89.51451 46.30071 84.85517
#
# Poissons Ratio (x) = 0.25525 0.29029
# Poissons Ratio (y) = 0.49348 0.35706
# Poissons Ratio (z) = 0.30623 0.19483
#
# Static dielectric constant tensor:
#      x y z
#    x 3.705000 0.000000 0.000000 
#    y 0.000000 3.332480 0.000000 
#    z 0.000000 0.000000 3.582260 
# 
# 
# High freq. dielectric constant tensor:
#      x y z
#    x 1.779880 0.000000 0.000000 
#    y 0.000000 1.743320 0.000000 
#    z 0.000000 0.000000 1.776330 
# 
# From -- ./inp_files/4302.got.cif
#   From: 2010.03.12/outbox.cif.g09.slc.cpg/sg49_3_cif.got.tgz:4302.got - 2010.04.14 03:58:27.
