data_PCOD8203178
_publ_section_title
;
Structure prediction by ZEFSAII (Michael W. Deem and Ramdas Pophale) SiO2 
 PCOD8203178
Probable space group: P C C M
;
_chemical_formula_sum "Si O2"
_cell_formula_units_Z 56
_cell_length_a 12.506759
_cell_length_b 14.202934
_cell_length_c 16.010182
_cell_angle_alpha 90.000000
_cell_angle_beta 90.000000
_cell_angle_gamma 90.000000
_cell_volume 2843.931418
_symmetry_space_group_name_H-M "P C C M"
_symmetry_group_IT_number 49
_symmetry_cell_setting 'orthorhombic'
loop_
_space_group_symop_operation_xyz
x,y,z
-x,-y,z
x,-y,1/2-z
-x,y,1/2-z
-x,-y,-z
x,y,-z
-x,y,1/2+z
x,-y,1/2+z
loop_
_atom_site_type_symbol
_atom_site_label
_atom_site_fract_x
_atom_site_fract_y
_atom_site_fract_z
Si Si1 0.720860 0.215374 0.099140
Si Si2 0.380103 0.596806 0.900707
Si Si3 0.930078 0.120620 0.905857
Si Si4 0.137825 0.939644 0.334841
Si Si5 0.309986 0.195431 0.095257
Si Si6 0.380052 0.608396 0.400846
Si Si7 0.517910 0.891759 0.653733
O O1 0.694621 0.319725 0.133888
O O2 0.840569 0.191962 0.130170
O O3 0.638443 0.137671 0.132630
O O4 0.716565 0.211178 0.000000
O O5 0.499137 0.615449 0.865386
O O6 0.334887 0.494060 0.871817
O O7 0.383795 0.598580 0.000000
O O8 0.030691 0.124805 0.842160
O O9 0.875313 0.016596 0.908476
O O10 0.964927 0.147717 0.000000
O O11 0.240781 0.873093 0.345527
O O12 0.144908 0.000000 0.250000
O O13 0.306193 0.303910 0.129636
O O14 0.434239 0.166614 0.098150
O O15 0.268148 0.188427 0.000000
O O16 0.385129 0.615148 0.500000
O O17 0.500000 0.870036 0.750000
O O18 0.500000 0.000000 0.631513
#
# Coordination Sequence:
#
# PCOD8203178 Si02
#       7
#     8   8   8   8   8   8   8
#     4  10  19  33  56  80 107 144 187 232 281 333
#     4   8  13  26  48  78 109 139 181 229 276 329
#     4  10  20  36  56  78 104 139 187 236 271 320
#     4  11  23  37  55  77 106 142 184 231 278 330
#     4  11  21  35  57  80 107 147 190 230 274 332
#     4   8  14  26  49  78 108 141 183 229 271 327
#     4  11  24  35  47  74 116 151 181 225 279 340
#
# _framework density 19.691051999999999
#
# number of rings (size 3 to 8) (size 9 to 14) (size 15 to 20)
#    0.000    2.143    1.429    4.714    4.000    2.286 
#    2.571    0.000    0.000    2.571    0.000    5.000 
#    0.000    4.571    0.000    0.286    0.000    0.000 
#
# Total GULP energy -693935.274018 kJ/mol
# GULP energy per Si atom -12391.701322 kJ/mol
# Density = 1.964623 g / cm^3
# Si number density = 19.691052 Si / 1000 Ang^3
#
#
#
# Elastic Constant Matrix: (Units=GPa)
#
#
# Indices 1 2 3 4 5 6 
#
# 1 88.6082 52.2702 28.7995 0.0000 0.0000 0.0000
# 2 52.2702 130.3564 26.6881 0.0000 0.0000 0.0000
# 3 28.7995 26.6881 45.2281 0.0000 0.0000 0.0000
# 4 0.0000 0.0000 0.0000 10.0326 0.0000 0.0000
# 5 0.0000 0.0000 0.0000 0.0000 19.8154 0.0000
# 6 0.0000 0.0000 0.0000 0.0000 0.0000 33.6439
#
#
#
# Elastic Compliance Matrix: (Units=1/GPa)
#
#
# Indices 1 2 3 4 5 6 
#
# 1 0.016832 -0.005181 -0.007661 0.000000 0.000000 0.000000
# 2 -0.005181 0.010320 -0.002791 0.000000 0.000000 0.000000
# 3 -0.007661 -0.002791 0.028635 0.000000 0.000000 0.000000
# 4 0.000000 0.000000 0.000000 0.099675 0.000000 0.000000
# 5 0.000000 0.000000 0.000000 0.000000 0.050466 0.000000
# 6 0.000000 0.000000 0.000000 0.000000 0.000000 0.029723
#
#
# Mechanical properties :
#
#
# Convention : Reuss Voigt Hill
#
# Bulk Modulus (GPa) = 40.77929 53.30094 47.04011
# Shear Modulus (GPa) = 18.17595 23.12738 20.65166
#
# Velocity S-wave (km/s) = 3.04148 3.43083 3.24201
# Velocity P-wave (km/s) = 5.75227 6.54382 6.16077
#
# Compressibility (1/GPa) = 0.02452225
#
# Stress axis : x y z
#
# Youngs Moduli (GPa) = 59.41181 96.89929 34.92241
#
# Poissons Ratio (x) = 0.50201 0.26753
# Poissons Ratio (y) = 0.30780 0.09746
# Poissons Ratio (z) = 0.45514 0.27042
#
# Static dielectric constant tensor:
#      x y z
#    x 3.602220 0.000000 0.000000 
#    y 0.000000 4.085480 0.000000 
#    z 0.000000 0.000000 3.291240 
# 
# 
# High freq. dielectric constant tensor:
#      x y z
#    x 1.740810 0.000000 0.000000 
#    y 0.000000 1.767130 0.000000 
#    z 0.000000 0.000000 1.746570 
# 
# From -- ./inp_files/12868.got.cif
#   From: 2010.03.12/outbox.cif.g09.slc.cpg/sg49_7_cif.got.tgz:12868.got - 2010.04.14 03:58:27.
