data_PCOD8203663
_publ_section_title
;
Structure prediction by ZEFSAII (Michael W. Deem and Ramdas Pophale) SiO2 
 PCOD8203663
Probable space group: P C C M
;
_chemical_formula_sum "Si O2"
_cell_formula_units_Z 64
_cell_length_a 19.585007
_cell_length_b 20.317193
_cell_length_c 8.964985
_cell_angle_alpha 90.000000
_cell_angle_beta 90.000000
_cell_angle_gamma 90.000000
_cell_volume 3567.278403
_symmetry_space_group_name_H-M "P C C M"
_symmetry_group_IT_number 49
_symmetry_cell_setting 'orthorhombic'
loop_
_space_group_symop_operation_xyz
x,y,z
-x,-y,z
x,-y,1/2-z
-x,y,1/2-z
-x,-y,-z
x,y,-z
-x,y,1/2+z
x,-y,1/2+z
loop_
_atom_site_type_symbol
_atom_site_label
_atom_site_fract_x
_atom_site_fract_y
_atom_site_fract_z
Si Si1 0.433638 0.734044 0.331972
Si Si2 0.701076 0.886715 0.327347
Si Si3 0.849719 0.067336 0.176591
Si Si4 0.699281 0.263475 0.828337
Si Si5 0.073530 0.811179 0.322385
Si Si6 0.566870 0.890854 0.831490
Si Si7 0.152609 0.303876 0.328087
Si Si8 0.929085 0.566725 0.325447
O O1 0.500000 0.704879 0.250000
O O2 0.437349 0.709536 0.500000
O O3 0.364067 0.705641 0.261506
O O4 0.433008 0.812463 0.317547
O O5 0.682641 0.891084 0.500000
O O6 0.769383 0.926308 0.287920
O O7 0.714200 0.811428 0.278650
O O8 0.636868 0.918208 0.240278
O O9 0.890954 0.125186 0.254055
O O10 0.876208 0.000000 0.250000
O O11 0.863991 0.068381 0.000000
O O12 0.766715 0.305713 0.794588
O O13 0.678172 0.265843 0.000000
O O14 0.067730 0.818082 0.500000
O O15 0.116761 0.746784 0.282553
O O16 0.000000 0.802654 0.250000
O O17 0.500000 0.919952 0.750000
O O18 0.564130 0.915433 0.000000
O O19 0.139116 0.282130 0.500000
O O20 0.125909 0.376772 0.295956
O O21 0.901224 0.500000 0.250000
O O22 0.941485 0.554758 0.500000
O O23 0.000000 0.588297 0.250000
#
# Coordination Sequence:
#
# PCOD8203663 Si02
#       8
#     8   8   8   8   8   8   8   8
#     4   9  16  25  38  62  95 132 170 208 251 301
#     4   9  17  31  51  70  97 131 163 205 256 309
#     4  11  23  41  60  80 104 133 171 216 266 322
#     4   9  16  29  48  70  99 134 168 208 259 307
#     4  12  25  40  60  83 107 136 171 215 264 318
#     4   9  16  25  41  66  96 126 164 205 248 303
#     4  10  20  36  56  81 111 144 178 218 265 313
#     4  10  20  34  54  77 108 145 184 221 261 309
#
# _framework density 17.940847000000002
#
# number of rings (size 3 to 8) (size 9 to 14) (size 15 to 20)
#    0.000    2.125    1.250    3.375    0.000    6.750 
#    0.000    1.250    0.000    0.375    0.000    2.625 
#    0.000    0.500    0.000    5.750    0.000    2.000 
#
# Total GULP energy -793659.373494 kJ/mol
# GULP energy per Si atom -12400.927711 kJ/mol
# Density = 1.790001 g / cm^3
# Si number density = 17.940847 Si / 1000 Ang^3
#
#
#
# Elastic Constant Matrix: (Units=GPa)
#
#
# Indices 1 2 3 4 5 6 
#
# 1 114.0987 38.8806 57.9528 0.0000 0.0000 0.0000
# 2 38.8806 69.2337 35.1411 0.0000 0.0000 0.0000
# 3 57.9528 35.1411 96.7636 0.0000 0.0000 0.0000
# 4 0.0000 0.0000 0.0000 17.3379 0.0000 0.0000
# 5 0.0000 0.0000 0.0000 0.0000 32.5035 0.0000
# 6 0.0000 0.0000 0.0000 0.0000 0.0000 -13.5950
#
#
#
# Elastic Compliance Matrix: (Units=1/GPa)
#
#
# Indices 1 2 3 4 5 6 
#
# 1 0.013558 -0.004282 -0.006565 0.000000 0.000000 0.000000
# 2 -0.004282 0.019060 -0.004358 0.000000 0.000000 0.000000
# 3 -0.006565 -0.004358 0.015849 0.000000 0.000000 0.000000
# 4 0.000000 0.000000 0.000000 0.057677 0.000000 0.000000
# 5 0.000000 0.000000 0.000000 0.000000 0.030766 0.000000
# 6 0.000000 0.000000 0.000000 0.000000 0.000000 -0.073556
#
#
# Mechanical properties :
#
#
# Convention : Reuss Voigt Hill
#
# Bulk Modulus (GPa) = 55.37631 60.44945 57.91288
# Shear Modulus (GPa) = 50.10939 17.12404 33.61671
#
# Velocity S-wave (km/s) = 5.29065 3.09281 4.33338
# Velocity P-wave (km/s) = 8.26162 6.82062 7.57546
#
# Compressibility (1/GPa) = 0.01805826
#
# Stress axis : x y z
#
# Youngs Moduli (GPa) = 73.75789 52.46542 63.09606
#
# Poissons Ratio (x) = 0.22464 0.41423
# Poissons Ratio (y) = 0.31581 0.27495
# Poissons Ratio (z) = 0.48422 0.22862
#
# Static dielectric constant tensor:
#      x y z
#    x 3.501810 0.000000 0.000000 
#    y 0.000000 2.942960 0.000000 
#    z 0.000000 0.000000 3.454500 
# 
# 
# High freq. dielectric constant tensor:
#      x y z
#    x 1.705220 0.000000 0.000000 
#    y 0.000000 1.646820 0.000000 
#    z 0.000000 0.000000 1.704350 
# 
# From -- ./inp_files/5322.got.cif
#   From: 2010.03.12/outbox.cif.g09.slc.cpg/sg49_3_cif.got.tgz:5322.got - 2010.04.14 03:58:27.
