data_PCOD8203815
_publ_section_title
;
Structure prediction by ZEFSAII (Michael W. Deem and Ramdas Pophale) SiO2 
 PCOD8203815
Probable space group: P C C M
;
_chemical_formula_sum "Si O2"
_cell_formula_units_Z 48
_cell_length_a 8.932890
_cell_length_b 29.699087
_cell_length_c 9.681986
_cell_angle_alpha 90.000000
_cell_angle_beta 90.000000
_cell_angle_gamma 90.000000
_cell_volume 2568.618079
_symmetry_space_group_name_H-M "P C C M"
_symmetry_group_IT_number 49
_symmetry_cell_setting 'orthorhombic'
loop_
_space_group_symop_operation_xyz
x,y,z
-x,-y,z
x,-y,1/2-z
-x,y,1/2-z
-x,-y,-z
x,y,-z
-x,y,1/2+z
x,-y,1/2+z
loop_
_atom_site_type_symbol
_atom_site_label
_atom_site_fract_x
_atom_site_fract_y
_atom_site_fract_z
Si Si1 0.643097 0.693217 0.656459
Si Si2 0.648038 0.791828 0.659216
Si Si3 0.855987 0.872285 0.341667
Si Si4 0.158579 0.560321 0.500000
Si Si5 0.814327 0.454279 0.000000
Si Si6 0.651545 0.041382 0.835357
Si Si7 0.679423 0.400891 0.760060
O O1 0.500000 0.695114 0.750000
O O2 0.588990 0.686460 0.500000
O O3 0.723854 0.741843 0.674377
O O4 0.739770 0.649286 0.699170
O O5 0.500000 0.796855 0.750000
O O6 0.602949 0.801108 0.500000
O O7 0.768753 0.827961 0.710136
O O8 0.905646 0.866821 0.500000
O O9 0.753395 0.915393 0.320601
O O10 0.000000 0.878969 0.250000
O O11 0.191135 0.507727 0.500000
O O12 0.234218 0.585569 0.624949
O O13 0.980279 0.566769 0.500000
O O14 0.723613 0.438392 0.868691
O O15 0.500000 0.051254 0.750000
O O16 0.728576 0.000000 0.750000
O O17 0.624407 0.030534 0.000000
O O18 0.500000 0.400636 0.750000
#
# Coordination Sequence:
#
# PCOD8203815 Si02
#       7
#     8   8   8   4   4   8   8
#     4   9  18  33  57  84 113 141 176 228 279 325
#     4   9  18  35  58  83 108 141 183 225 272 329
#     4  10  22  37  54  78 114 150 187 230 278 330
#     4  11  25  39  59  81 113 155 187 225 276 347
#     4  11  23  43  57  79 117 151 187 225 282 337
#     4  10  20  35  56  83 110 144 187 236 282 334
#     4  11  22  37  61  88 112 143 186 238 281 328
#
# _framework density 18.687089
#
# number of rings (size 3 to 8) (size 9 to 14) (size 15 to 20)
#    0.000    2.000    0.833    3.000    3.500    5.667 
#    0.000    3.333    0.000    0.000    0.000    0.000 
#    0.000    0.000    0.000    0.000    0.000    0.000 
#
# Total GULP energy -594779.258255 kJ/mol
# GULP energy per Si atom -12391.234547 kJ/mol
# Density = 1.864456 g / cm^3
# Si number density = 18.687089 Si / 1000 Ang^3
#
#
#
# Elastic Constant Matrix: (Units=GPa)
#
#
# Indices 1 2 3 4 5 6 
#
# 1 68.7937 54.2797 45.7057 0.0000 0.0000 0.0000
# 2 54.2797 142.6910 59.2365 0.0000 0.0000 0.0000
# 3 45.7057 59.2365 133.8735 0.0000 0.0000 0.0000
# 4 0.0000 0.0000 0.0000 33.2313 0.0000 0.0000
# 5 0.0000 0.0000 0.0000 0.0000 26.8718 0.0000
# 6 0.0000 0.0000 0.0000 0.0000 0.0000 -8.3544
#
#
#
# Elastic Compliance Matrix: (Units=1/GPa)
#
#
# Indices 1 2 3 4 5 6 
#
# 1 0.023131 -0.006763 -0.004905 0.000000 0.000000 0.000000
# 2 -0.006763 0.010562 -0.002365 0.000000 0.000000 0.000000
# 3 -0.004905 -0.002365 0.010191 0.000000 0.000000 0.000000
# 4 0.000000 0.000000 0.000000 0.030092 0.000000 0.000000
# 5 0.000000 0.000000 0.000000 0.000000 0.037214 0.000000
# 6 0.000000 0.000000 0.000000 0.000000 0.000000 -0.119697
#
#
# Mechanical properties :
#
#
# Convention : Reuss Voigt Hill
#
# Bulk Modulus (GPa) = 63.21387 73.75578 68.48483
# Shear Modulus (GPa) = 201.36517 22.75881 112.06199
#
# Velocity S-wave (km/s) = 10.39184 3.49361 7.75228
# Velocity P-wave (km/s) = 13.33747 7.47183 10.81009
#
# Compressibility (1/GPa) = 0.01581931
#
# Stress axis : x y z
#
# Youngs Moduli (GPa) = 43.23224 94.67487 98.12961
#
# Poissons Ratio (x) = 0.64028 0.48129
# Poissons Ratio (y) = 0.29237 0.23205
# Poissons Ratio (z) = 0.21204 0.22388
#
# Static dielectric constant tensor:
#      x y z
#    x 3.165080 0.000000 0.000000 
#    y 0.000000 4.173330 0.000000 
#    z 0.000000 0.000000 3.740200 
# 
# 
# High freq. dielectric constant tensor:
#      x y z
#    x 1.693180 0.000000 0.000000 
#    y 0.000000 1.753020 0.000000 
#    z 0.000000 0.000000 1.742670 
# 
# From -- ./inp_files/2146.got.cif
#   From: 2010.03.12/outbox.cif.g09.slc.cpg/sg49_2_cif.got.tgz:2146.got - 2010.04.14 03:58:27.
