data_PCOD8203199
_publ_section_title
;
Structure prediction by ZEFSAII (Michael W. Deem and Ramdas Pophale) SiO2 
 PCOD8203199
Probable space group: P C C M
;
_chemical_formula_sum "Si O2"
_cell_formula_units_Z 64
_cell_length_a 30.948257
_cell_length_b 14.404840
_cell_length_c 8.960414
_cell_angle_alpha 90.000000
_cell_angle_beta 90.000000
_cell_angle_gamma 90.000000
_cell_volume 3994.594589
_symmetry_space_group_name_H-M "P C C M"
_symmetry_group_IT_number 49
_symmetry_cell_setting 'orthorhombic'
loop_
_space_group_symop_operation_xyz
x,y,z
-x,-y,z
x,-y,1/2-z
-x,y,1/2-z
-x,-y,-z
x,y,-z
-x,y,1/2+z
x,-y,1/2+z
loop_
_atom_site_type_symbol
_atom_site_label
_atom_site_fract_x
_atom_site_fract_y
_atom_site_fract_z
Si Si1 0.871531 0.291563 0.826787
Si Si2 0.795309 0.399829 0.322973
Si Si3 0.718185 0.709320 0.675349
Si Si4 0.364751 0.401953 0.673276
Si Si5 0.459443 0.600027 0.174720
Si Si6 0.156123 0.908472 0.174226
Si Si7 0.044051 0.403916 0.674551
Si Si8 0.745551 0.090741 0.173543
O O1 0.839148 0.350005 0.725935
O O2 0.870406 0.183393 0.779850
O O3 0.919827 0.326539 0.797286
O O4 0.857771 0.303476 0.000000
O O5 0.792831 0.500000 0.250000
O O6 0.794750 0.410275 0.500000
O O7 0.754327 0.341387 0.270854
O O8 0.728035 0.694097 0.500000
O O9 0.671450 0.671078 0.724047
O O10 0.718083 0.818296 0.715694
O O11 0.356645 0.500000 0.750000
O O12 0.360910 0.423748 0.500000
O O13 0.412036 0.356513 0.708367
O O14 0.458378 0.500000 0.250000
O O15 0.500000 0.656122 0.250000
O O16 0.468312 0.591844 0.000000
O O17 0.205346 0.893826 0.229448
O O18 0.135592 0.000000 0.250000
O O19 0.153994 0.925628 0.000000
O O20 0.059061 0.500000 0.750000
O O21 0.036321 0.421558 0.500000
O O22 0.000000 0.367691 0.750000
O O23 0.724739 0.000000 0.250000
O O24 0.744667 0.071461 0.000000
#
# Coordination Sequence:
#
# PCOD8203199 Si02
#       8
#     8   8   8   8   8   8   8   8
#     4  10  20  36  54  73  97 126 158 194 233 273
#     4  12  24  34  47  68  95 127 160 194 227 269
#     4  10  19  34  49  64  91 126 157 191 231 274
#     4   9  18  29  43  61  86 120 158 189 225 272
#     4   9  15  24  38  58  80 109 147 189 228 268
#     4   9  17  31  50  72  96 121 152 191 233 275
#     4  10  20  34  54  75  99 126 155 190 230 275
#     4   9  17  30  49  67  90 119 150 191 233 273
#
# _framework density 16.021650999999999
#
# number of rings (size 3 to 8) (size 9 to 14) (size 15 to 20)
#    0.000    2.250    1.250    3.375    0.000    5.000 
#    0.000    0.000    0.000    0.375    0.000    2.625 
#    0.000    0.500    0.000    6.250    0.000    0.000 
#
# Total GULP energy -793356.600196 kJ/mol
# GULP energy per Si atom -12396.196878 kJ/mol
# Density = 1.598518 g / cm^3
# Si number density = 16.021651 Si / 1000 Ang^3
#
#
#
# Elastic Constant Matrix: (Units=GPa)
#
#
# Indices 1 2 3 4 5 6 
#
# 1 108.0751 56.5265 43.4029 0.0000 0.0000 0.0000
# 2 56.5265 112.4346 42.4050 0.0000 0.0000 0.0000
# 3 43.4029 42.4050 74.0562 0.0000 0.0000 0.0000
# 4 0.0000 0.0000 0.0000 24.1279 0.0000 0.0000
# 5 0.0000 0.0000 0.0000 0.0000 21.0189 0.0000
# 6 0.0000 0.0000 0.0000 0.0000 0.0000 4.7135
#
#
#
# Elastic Compliance Matrix: (Units=1/GPa)
#
#
# Indices 1 2 3 4 5 6 
#
# 1 0.014034 -0.005042 -0.005338 0.000000 0.000000 0.000000
# 2 -0.005042 0.013156 -0.004578 0.000000 0.000000 0.000000
# 3 -0.005338 -0.004578 0.019253 0.000000 0.000000 0.000000
# 4 0.000000 0.000000 0.000000 0.041446 0.000000 0.000000
# 5 0.000000 0.000000 0.000000 0.000000 0.047576 0.000000
# 6 0.000000 0.000000 0.000000 0.000000 0.000000 0.212156
#
#
# Mechanical properties :
#
#
# Convention : Reuss Voigt Hill
#
# Bulk Modulus (GPa) = 60.50824 64.35939 62.43381
# Shear Modulus (GPa) = 13.05334 20.12085 16.58709
#
# Velocity S-wave (km/s) = 2.85745 3.54765 3.22109
# Velocity P-wave (km/s) = 6.98106 7.55239 7.27234
#
# Compressibility (1/GPa) = 0.01652668
#
# Stress axis : x y z
#
# Youngs Moduli (GPa) = 71.25706 76.01318 51.94061
#
# Poissons Ratio (x) = 0.38329 0.27724
# Poissons Ratio (y) = 0.35930 0.23777
# Poissons Ratio (z) = 0.38034 0.34797
#
# Static dielectric constant tensor:
#      x y z
#    x 3.523700 0.000000 0.000000 
#    y 0.000000 3.017200 0.000000 
#    z 0.000000 0.000000 3.129550 
# 
# 
# High freq. dielectric constant tensor:
#      x y z
#    x 1.607730 0.000000 0.000000 
#    y 0.000000 1.594720 0.000000 
#    z 0.000000 0.000000 1.621550 
# 
# From -- ./inp_files/7059.got.cif
#   From: 2010.03.12/outbox.cif.g09.slc.cpg/sg49_4_cif.got.tgz:7059.got - 2010.04.14 03:58:27.
