data_PCOD8203697
_publ_section_title
;
Structure prediction by ZEFSAII (Michael W. Deem and Ramdas Pophale) SiO2 
 PCOD8203697
Probable space group: P C C M
;
_chemical_formula_sum "Si O2"
_cell_formula_units_Z 48
_cell_length_a 12.121624
_cell_length_b 11.196346
_cell_length_c 18.720768
_cell_angle_alpha 90.000000
_cell_angle_beta 90.000000
_cell_angle_gamma 90.000000
_cell_volume 2540.743252
_symmetry_space_group_name_H-M "P C C M"
_symmetry_group_IT_number 49
_symmetry_cell_setting 'orthorhombic'
loop_
_space_group_symop_operation_xyz
x,y,z
-x,-y,z
x,-y,1/2-z
-x,y,1/2-z
-x,-y,-z
x,y,-z
-x,y,1/2+z
x,-y,1/2+z
loop_
_atom_site_type_symbol
_atom_site_label
_atom_site_fract_x
_atom_site_fract_y
_atom_site_fract_z
Si Si1 0.747857 0.269478 0.133119
Si Si2 0.123256 0.498926 0.418073
Si Si3 0.129706 0.867213 0.245691
Si Si4 0.378138 0.153491 0.500000
Si Si5 0.753653 0.265951 0.374801
Si Si6 0.374096 0.627374 0.742058
Si Si7 0.363401 0.869914 0.500000
O O1 0.800490 0.397899 0.116747
O O2 0.841159 0.184336 0.167050
O O3 0.660247 0.281420 0.196551
O O4 0.683070 0.210580 0.067706
O O5 0.112678 0.462272 0.500000
O O6 0.175867 0.630019 0.411933
O O7 0.000000 0.500000 0.383563
O O8 0.172824 0.793522 0.313397
O O9 0.000000 0.868674 0.250000
O O10 0.179537 0.000000 0.250000
O O11 0.510331 0.180835 0.500000
O O12 0.361780 0.012201 0.500000
O O13 0.647488 0.322293 0.336640
O O14 0.705839 0.172802 0.431540
O O15 0.310825 0.500000 0.750000
O O16 0.500000 0.602740 0.750000
#
# Coordination Sequence:
#
# PCOD8203697 Si02
#       7
#     8   8   8   4   8   8   4
#     4  11  21  39  60  86 117 155 191 239 291 346
#     4  11  22  37  58  87 119 151 189 237 293 350
#     4  10  22  39  60  86 117 155 199 242 284 339
#     4  11  24  41  61  86 116 153 198 242 287 345
#     4  11  21  39  60  86 117 155 191 239 291 346
#     4  10  20  34  55  85 118 149 184 229 281 342
#     4  11  24  41  61  86 116 153 198 242 287 345
#
# _framework density 18.892109999999999
#
# number of rings (size 3 to 8) (size 9 to 14) (size 15 to 20)
#    0.000    1.333    3.333    3.000    0.000    0.000 
#    0.000    3.333    0.000   12.000    0.000    0.000 
#    0.000    0.000    0.000    0.000    0.000    0.000 
#
# Total GULP energy -594945.409953 kJ/mol
# GULP energy per Si atom -12394.696041 kJ/mol
# Density = 1.884911 g / cm^3
# Si number density = 18.892110 Si / 1000 Ang^3
#
#
#
# Elastic Constant Matrix: (Units=GPa)
#
#
# Indices 1 2 3 4 5 6 
#
# 1 86.3111 29.1908 27.7581 0.0000 0.0000 0.0000
# 2 29.1908 94.3162 21.7804 0.0000 0.0000 0.0000
# 3 27.7581 21.7804 99.6071 0.0000 0.0000 0.0000
# 4 0.0000 0.0000 0.0000 27.6179 0.0000 0.0000
# 5 0.0000 0.0000 0.0000 0.0000 19.0715 0.0000
# 6 0.0000 0.0000 0.0000 0.0000 0.0000 26.3376
#
#
#
# Elastic Compliance Matrix: (Units=1/GPa)
#
#
# Indices 1 2 3 4 5 6 
#
# 1 0.013773 -0.003556 -0.003061 0.000000 0.000000 0.000000
# 2 -0.003556 0.012085 -0.001652 0.000000 0.000000 0.000000
# 3 -0.003061 -0.001652 0.011253 0.000000 0.000000 0.000000
# 4 0.000000 0.000000 0.000000 0.036208 0.000000 0.000000
# 5 0.000000 0.000000 0.000000 0.000000 0.052434 0.000000
# 6 0.000000 0.000000 0.000000 0.000000 0.000000 0.037969
#
#
# Mechanical properties :
#
#
# Convention : Reuss Voigt Hill
#
# Bulk Modulus (GPa) = 48.60295 48.63255 48.61775
# Shear Modulus (GPa) = 26.72128 28.03906 27.38017
#
# Velocity S-wave (km/s) = 3.76495 3.85667 3.81109
# Velocity P-wave (km/s) = 6.68448 6.75500 6.71983
#
# Compressibility (1/GPa) = 0.02057488
#
# Stress axis : x y z
#
# Youngs Moduli (GPa) = 72.60613 82.75011 88.86126
#
# Poissons Ratio (x) = 0.29425 0.27197
# Poissons Ratio (y) = 0.25818 0.14675
# Poissons Ratio (z) = 0.22222 0.13666
#
# Static dielectric constant tensor:
#      x y z
#    x 3.376700 0.000000 0.000000 
#    y 0.000000 3.733940 0.000000 
#    z 0.000000 0.000000 3.485980 
# 
# 
# High freq. dielectric constant tensor:
#      x y z
#    x 1.737740 0.000000 0.000000 
#    y 0.000000 1.744740 0.000000 
#    z 0.000000 0.000000 1.742420 
# 
# From -- ./inp_files/17134.got.cif
#   From: 2010.03.12/outbox.cif.g09.slc.cpg/sg49_9_cif.got.tgz:17134.got - 2010.04.14 03:58:27.
