data_PCOD8203480
_publ_section_title
;
Structure prediction by ZEFSAII (Michael W. Deem and Ramdas Pophale) SiO2 
 PCOD8203480
Probable space group: P C C M
;
_chemical_formula_sum "Si O2"
_cell_formula_units_Z 58
_cell_length_a 24.790004
_cell_length_b 14.686241
_cell_length_c 9.069271
_cell_angle_alpha 90.000000
_cell_angle_beta 90.000000
_cell_angle_gamma 90.000000
_cell_volume 3301.867388
_symmetry_space_group_name_H-M "P C C M"
_symmetry_group_IT_number 49
_symmetry_cell_setting 'orthorhombic'
loop_
_space_group_symop_operation_xyz
x,y,z
-x,-y,z
x,-y,1/2-z
-x,y,1/2-z
-x,-y,-z
x,y,-z
-x,y,1/2+z
x,-y,1/2+z
loop_
_atom_site_type_symbol
_atom_site_label
_atom_site_fract_x
_atom_site_fract_y
_atom_site_fract_z
Si Si1 0.500000 0.000000 0.250000
Si Si2 0.445114 0.666638 0.325647
Si Si3 0.169382 0.403107 0.829057
Si Si4 0.345900 0.414855 0.669099
Si Si5 0.748320 0.722938 0.332525
Si Si6 0.410821 0.133392 0.163797
Si Si7 0.302603 0.910153 0.174280
Si Si8 0.049390 0.596487 0.670949
O O1 0.539146 0.936380 0.153379
O O2 0.500000 0.635469 0.250000
O O3 0.449135 0.653971 0.500000
O O4 0.399968 0.601215 0.260105
O O5 0.432603 0.770144 0.279623
O O6 0.178679 0.500000 0.750000
O O7 0.207847 0.323916 0.770770
O O8 0.109004 0.361880 0.806297
O O9 0.181541 0.421083 0.000000
O O10 0.316469 0.500000 0.750000
O O11 0.358848 0.438373 0.500000
O O12 0.308427 0.327386 0.681185
O O13 0.769894 0.719709 0.500000
O O14 0.736204 0.826102 0.281101
O O15 0.364200 0.101528 0.273870
O O16 0.385852 0.142246 0.000000
O O17 0.277555 0.000000 0.250000
O O18 0.304323 0.922770 0.000000
O O19 0.051376 0.500000 0.750000
O O20 0.035359 0.585886 0.500000
O O21 0.000000 0.652798 0.750000
#
# Coordination Sequence:
#
# PCOD8203480 Si02
#       8
#     2   8   8   8   8   8   8   8
#     4  12  22  36  56  86 108 128 158 200 256 312
#     4  11  23  39  57  78 101 129 161 200 249 305
#     4  10  20  32  50  77 110 147 189 230 267 311
#     4  11  23  40  58  79 102 131 168 212 257 307
#     4  10  22  38  56  78 106 139 174 217 264 309
#     4  11  23  36  54  79 105 131 159 195 247 307
#     4  11  23  39  58  80 105 133 168 208 256 313
#     4   9  16  26  42  68 102 144 187 226 266 307
#
# _framework density 17.565818
#
# number of rings (size 3 to 8) (size 9 to 14) (size 15 to 20)
#    0.000    1.517    2.759    3.103    0.000    6.345 
#    0.000    1.379    0.000    0.000    0.000    0.000 
#    0.000    0.552    0.000    6.069    0.000    4.414 
#
# Total GULP energy -719064.642049 kJ/mol
# GULP energy per Si atom -12397.666242 kJ/mol
# Density = 1.752584 g / cm^3
# Si number density = 17.565818 Si / 1000 Ang^3
#
#
#
# Elastic Constant Matrix: (Units=GPa)
#
#
# Indices 1 2 3 4 5 6 
#
# 1 99.3957 37.7853 57.1299 0.0000 0.0000 0.0000
# 2 37.7853 88.8858 47.9823 0.0000 0.0000 0.0000
# 3 57.1299 47.9823 119.7622 0.0000 0.0000 0.0000
# 4 0.0000 0.0000 0.0000 25.7582 0.0000 0.0000
# 5 0.0000 0.0000 0.0000 0.0000 25.0902 0.0000
# 6 0.0000 0.0000 0.0000 0.0000 0.0000 11.3304
#
#
#
# Elastic Compliance Matrix: (Units=1/GPa)
#
#
# Indices 1 2 3 4 5 6 
#
# 1 0.014502 -0.003101 -0.005675 0.000000 0.000000 0.000000
# 2 -0.003101 0.015018 -0.004538 0.000000 0.000000 0.000000
# 3 -0.005675 -0.004538 0.012875 0.000000 0.000000 0.000000
# 4 0.000000 0.000000 0.000000 0.038823 0.000000 0.000000
# 5 0.000000 0.000000 0.000000 0.000000 0.039856 0.000000
# 6 0.000000 0.000000 0.000000 0.000000 0.000000 0.088258
#
#
# Mechanical properties :
#
#
# Convention : Reuss Voigt Hill
#
# Bulk Modulus (GPa) = 63.42369 65.98208 64.70288
# Shear Modulus (GPa) = 20.72835 23.44550 22.08693
#
# Velocity S-wave (km/s) = 3.43890 3.65735 3.54980
# Velocity P-wave (km/s) = 7.20782 7.44844 7.32912
#
# Compressibility (1/GPa) = 0.01576698
#
# Stress axis : x y z
#
# Youngs Moduli (GPa) = 68.95777 66.58601 77.66898
#
# Poissons Ratio (x) = 0.20648 0.44079
# Poissons Ratio (y) = 0.21384 0.35244
# Poissons Ratio (z) = 0.39135 0.30215
#
# Static dielectric constant tensor:
#      x y z
#    x 3.680220 0.000000 0.000000 
#    y 0.000000 3.244270 0.000000 
#    z 0.000000 0.000000 3.357130 
# 
# 
# High freq. dielectric constant tensor:
#      x y z
#    x 1.664100 0.000000 0.000000 
#    y 0.000000 1.659260 0.000000 
#    z 0.000000 0.000000 1.694270 
# 
# From -- ./inp_files/4258.got.cif
#   From: 2010.03.12/outbox.cif.g09.slc.cpg/sg49_3_cif.got.tgz:4258.got - 2010.04.14 03:58:27.
