data_PCOD8203805
_publ_section_title
;
Structure prediction by ZEFSAII (Michael W. Deem and Ramdas Pophale) SiO2 
 PCOD8203805
Probable space group: P C C M
;
_chemical_formula_sum "Si O2"
_cell_formula_units_Z 48
_cell_length_a 9.122226
_cell_length_b 30.660424
_cell_length_c 8.553049
_cell_angle_alpha 90.000000
_cell_angle_beta 90.000000
_cell_angle_gamma 90.000000
_cell_volume 2392.213539
_symmetry_space_group_name_H-M "P C C M"
_symmetry_group_IT_number 49
_symmetry_cell_setting 'orthorhombic'
loop_
_space_group_symop_operation_xyz
x,y,z
-x,-y,z
x,-y,1/2-z
-x,y,1/2-z
-x,-y,-z
x,y,-z
-x,y,1/2+z
x,-y,1/2+z
loop_
_atom_site_type_symbol
_atom_site_label
_atom_site_fract_x
_atom_site_fract_y
_atom_site_fract_z
Si Si1 0.340487 0.623823 0.315126
Si Si2 0.661280 0.211689 0.815739
Si Si3 0.161035 0.703277 0.814472
Si Si4 0.660328 0.954296 0.314923
Si Si5 0.155742 0.452295 0.314607
Si Si6 0.161198 0.871064 0.814855
O O1 0.500000 0.635576 0.250000
O O2 0.347239 0.619327 0.500000
O O3 0.228408 0.661271 0.267331
O O4 0.286372 0.578609 0.241373
O O5 0.500000 0.213478 0.750000
O O6 0.746048 0.254852 0.762309
O O7 0.744400 0.169293 0.748219
O O8 0.652367 0.208742 0.000000
O O9 0.000000 0.710822 0.750000
O O10 0.159530 0.696413 0.000000
O O11 0.500000 0.944321 0.250000
O O12 0.651473 0.956714 0.500000
O O13 0.767180 0.916122 0.256000
O O14 0.722275 0.000000 0.250000
O O15 0.190608 0.500000 0.250000
O O16 0.148111 0.453572 0.500000
O O17 0.000000 0.434943 0.250000
O O18 0.000000 0.867104 0.750000
O O19 0.155568 0.869471 0.000000
#
# Coordination Sequence:
#
# PCOD8203805 Si02
#       6
#     8   8   8   8   8   8
#     4  12  25  42  62  88 121 158 199 245 294 348
#     4  10  22  39  60  86 116 149 190 235 286 342
#     4  11  23  40  62  89 119 154 194 239 289 345
#     4  10  20  35  56  81 110 144 187 232 282 338
#     4  11  22  40  64  92 123 159 201 246 296 350
#     4  10  22  38  56  82 113 148 188 233 282 339
#
# _framework density 20.065099
#
# number of rings (size 3 to 8) (size 9 to 14) (size 15 to 20)
#    0.000    1.333    0.000    7.000    0.000    5.333 
#    0.000    3.333    0.000    0.000    0.000    0.000 
#    0.000    0.000    0.000    0.000    0.000    0.000 
#
# Total GULP energy -595464.371034 kJ/mol
# GULP energy per Si atom -12405.507730 kJ/mol
# Density = 2.001943 g / cm^3
# Si number density = 20.065099 Si / 1000 Ang^3
#
#
#
# Elastic Constant Matrix: (Units=GPa)
#
#
# Indices 1 2 3 4 5 6 
#
# 1 150.5202 77.3040 36.9522 0.0000 0.0000 0.0000
# 2 77.3040 141.5333 47.7043 0.0000 0.0000 0.0000
# 3 36.9522 47.7043 104.5167 0.0000 0.0000 0.0000
# 4 0.0000 0.0000 0.0000 33.5502 0.0000 0.0000
# 5 0.0000 0.0000 0.0000 0.0000 37.9224 0.0000
# 6 0.0000 0.0000 0.0000 0.0000 0.0000 57.1902
#
#
#
# Elastic Compliance Matrix: (Units=1/GPa)
#
#
# Indices 1 2 3 4 5 6 
#
# 1 0.009350 -0.004718 -0.001152 0.000000 0.000000 0.000000
# 2 -0.004718 0.010731 -0.003230 0.000000 0.000000 0.000000
# 3 -0.001152 -0.003230 0.011449 0.000000 0.000000 0.000000
# 4 0.000000 0.000000 0.000000 0.029806 0.000000 0.000000
# 5 0.000000 0.000000 0.000000 0.000000 0.026370 0.000000
# 6 0.000000 0.000000 0.000000 0.000000 0.000000 0.017486
#
#
# Mechanical properties :
#
#
# Convention : Reuss Voigt Hill
#
# Bulk Modulus (GPa) = 75.01995 80.05457 77.53726
# Shear Modulus (GPa) = 39.11282 41.37321 40.24301
#
# Velocity S-wave (km/s) = 4.41987 4.54580 4.48328
# Velocity P-wave (km/s) = 7.96972 8.21805 8.09484
#
# Compressibility (1/GPa) = 0.01332979
#
# Stress axis : x y z
#
# Youngs Moduli (GPa) = 106.95495 93.18567 87.34136
#
# Poissons Ratio (x) = 0.43969 0.10062
# Poissons Ratio (y) = 0.50466 0.28210
# Poissons Ratio (z) = 0.12321 0.30097
#
# Static dielectric constant tensor:
#      x y z
#    x 2.444030 0.000000 0.000000 
#    y 0.000000 4.044990 0.000000 
#    z 0.000000 0.000000 3.693200 
# 
# 
# High freq. dielectric constant tensor:
#      x y z
#    x 1.790860 0.000000 0.000000 
#    y 0.000000 1.802490 0.000000 
#    z 0.000000 0.000000 1.790210 
# 
# From -- ./inp_files/2023.got.cif
#   From: 2010.03.12/outbox.cif.g09.slc.cpg/sg49_2_cif.got.tgz:2023.got - 2010.04.14 03:58:27.
