data_PCOD8203904
_publ_section_title
;
Structure prediction by ZEFSAII (Michael W. Deem and Ramdas Pophale) SiO2 
 PCOD8203904
Probable space group: P C C M
;
_chemical_formula_sum "Si O2"
_cell_formula_units_Z 64
_cell_length_a 13.747330
_cell_length_b 27.457244
_cell_length_c 8.843413
_cell_angle_alpha 90.000000
_cell_angle_beta 90.000000
_cell_angle_gamma 90.000000
_cell_volume 3338.068224
_symmetry_space_group_name_H-M "P C C M"
_symmetry_group_IT_number 49
_symmetry_cell_setting 'orthorhombic'
loop_
_space_group_symop_operation_xyz
x,y,z
-x,-y,z
x,-y,1/2-z
-x,y,1/2-z
-x,-y,-z
x,y,-z
-x,y,1/2+z
x,-y,1/2+z
loop_
_atom_site_type_symbol
_atom_site_label
_atom_site_fract_x
_atom_site_fract_y
_atom_site_fract_z
Si Si1 0.785844 0.550715 0.175656
Si Si2 0.398988 0.893923 0.824929
Si Si3 0.716114 0.693598 0.675969
Si Si4 0.273620 0.195071 0.675356
Si Si5 0.897024 0.354197 0.321557
Si Si6 0.102228 0.141822 0.820460
Si Si7 0.206503 0.948212 0.178928
Si Si8 0.398860 0.610530 0.320612
O O1 0.813669 0.500000 0.250000
O O2 0.867667 0.590300 0.218414
O O3 0.681035 0.570684 0.229883
O O4 0.782793 0.541075 0.000000
O O5 0.500000 0.908255 0.750000
O O6 0.361911 0.840291 0.774750
O O7 0.317040 0.933303 0.779874
O O8 0.420048 0.894961 0.000000
O O9 0.720159 0.679862 0.500000
O O10 0.691446 0.750015 0.702248
O O11 0.819841 0.682694 0.750706
O O12 0.630689 0.663138 0.755586
O O13 0.246523 0.185158 0.500000
O O14 0.179200 0.183559 0.775434
O O15 0.899419 0.345796 0.500000
O O16 0.000000 0.341921 0.250000
O O17 0.132366 0.089972 0.751519
O O18 0.000000 0.157925 0.750000
O O19 0.094710 0.137979 0.000000
O O20 0.182658 0.000000 0.250000
O O21 0.189743 0.949160 0.000000
O O22 0.500000 0.593122 0.250000
O O23 0.406587 0.614775 0.500000
#
# Coordination Sequence:
#
# PCOD8203904 Si02
#       8
#     8   8   8   8   8   8   8   8
#     4   9  20  36  54  77 106 139 177 222 268 319
#     4   9  19  35  54  77 108 141 175 218 262 310
#     4  10  20  36  58  81 108 143 180 223 273 321
#     4   9  20  38  56  79 110 142 179 222 267 316
#     4  10  21  37  55  79 109 141 179 221 267 320
#     4  11  22  37  58  82 109 143 180 220 268 319
#     4  10  21  38  57  80 110 142 180 225 269 317
#     4  10  21  37  55  79 110 143 181 223 268 320
#
# _framework density 19.172767
#
# number of rings (size 3 to 8) (size 9 to 14) (size 15 to 20)
#    0.000    2.250    0.000    4.125    0.000    8.500 
#    0.000    6.250    0.000    0.000    0.000    0.000 
#    0.000    0.000    0.000    0.000    0.000    0.000 
#
# Total GULP energy -793730.042740 kJ/mol
# GULP energy per Si atom -12402.031918 kJ/mol
# Density = 1.912913 g / cm^3
# Si number density = 19.172767 Si / 1000 Ang^3
#
#
#
# Elastic Constant Matrix: (Units=GPa)
#
#
# Indices 1 2 3 4 5 6 
#
# 1 55.6278 -26.8184 10.2780 0.0000 0.0000 0.0000
# 2 -26.8184 52.6819 11.3770 0.0000 0.0000 0.0000
# 3 10.2780 11.3770 78.6109 0.0000 0.0000 0.0000
# 4 0.0000 0.0000 0.0000 29.4569 0.0000 0.0000
# 5 0.0000 0.0000 0.0000 0.0000 34.7682 0.0000
# 6 0.0000 0.0000 0.0000 0.0000 0.0000 12.3267
#
#
#
# Elastic Compliance Matrix: (Units=1/GPa)
#
#
# Indices 1 2 3 4 5 6 
#
# 1 0.025917 0.014374 -0.005469 0.000000 0.000000 0.000000
# 2 0.014374 0.027567 -0.005869 0.000000 0.000000 0.000000
# 3 -0.005469 -0.005869 0.014285 0.000000 0.000000 0.000000
# 4 0.000000 0.000000 0.000000 0.033948 0.000000 0.000000
# 5 0.000000 0.000000 0.000000 0.000000 0.028762 0.000000
# 6 0.000000 0.000000 0.000000 0.000000 0.000000 0.081124
#
#
# Mechanical properties :
#
#
# Convention : Reuss Voigt Hill
#
# Bulk Modulus (GPa) = 13.54237 19.62154 16.58196
# Shear Modulus (GPa) = 21.72549 28.11598 24.92074
#
# Velocity S-wave (km/s) = 3.36987 3.83359 3.60918
# Velocity P-wave (km/s) = 4.71381 5.46365 5.10252
#
# Compressibility (1/GPa) = 0.07384231
#
# Stress axis : x y z
#
# Youngs Moduli (GPa) = 38.58463 36.27550 70.00203
#
# Poissons Ratio (x) = -0.52144 0.38283
# Poissons Ratio (y) = -0.55463 0.41084
# Poissons Ratio (z) = 0.21102 0.21290
#
# Static dielectric constant tensor:
#      x y z
#    x 3.535650 0.000000 0.000000 
#    y 0.000000 3.525730 0.000000 
#    z 0.000000 0.000000 3.540790 
# 
# 
# High freq. dielectric constant tensor:
#      x y z
#    x 1.744400 0.000000 0.000000 
#    y 0.000000 1.743630 0.000000 
#    z 0.000000 0.000000 1.753270 
# 
# From -- ./inp_files/3096.got.cif
#   From: 2010.03.12/outbox.cif.g09.slc.cpg/sg49_2_cif.got.tgz:3096.got - 2010.04.14 03:58:27.
