data_PCOD8203520
_publ_section_title
;
Structure prediction by ZEFSAII (Michael W. Deem and Ramdas Pophale) SiO2 
 PCOD8203520
Probable space group: P C C M
;
_chemical_formula_sum "Si O2"
_cell_formula_units_Z 56
_cell_length_a 19.188450
_cell_length_b 18.544757
_cell_length_c 8.791752
_cell_angle_alpha 90.000000
_cell_angle_beta 90.000000
_cell_angle_gamma 90.000000
_cell_volume 3128.502243
_symmetry_space_group_name_H-M "P C C M"
_symmetry_group_IT_number 49
_symmetry_cell_setting 'orthorhombic'
loop_
_space_group_symop_operation_xyz
x,y,z
-x,-y,z
x,-y,1/2-z
-x,y,1/2-z
-x,-y,-z
x,y,-z
-x,y,1/2+z
x,-y,1/2+z
loop_
_atom_site_type_symbol
_atom_site_label
_atom_site_fract_x
_atom_site_fract_y
_atom_site_fract_z
Si Si1 0.352032 0.575961 0.819005
Si Si2 0.218017 0.654869 0.179225
Si Si3 0.573947 0.287595 0.680534
Si Si4 0.696178 0.208441 0.820771
Si Si5 0.788937 0.923827 0.679316
Si Si6 0.930122 0.314375 0.820912
Si Si7 0.070477 0.148425 0.679477
O O1 0.374935 0.500000 0.750000
O O2 0.271757 0.592475 0.768809
O O3 0.402167 0.636588 0.751724
O O4 0.360298 0.575319 0.000000
O O5 0.247229 0.732277 0.231125
O O6 0.139176 0.644312 0.242950
O O7 0.211999 0.655653 0.000000
O O8 0.500000 0.266680 0.750000
O O9 0.569893 0.294822 0.500000
O O10 0.625607 0.222764 0.727615
O O11 0.726831 0.130747 0.776391
O O12 0.680231 0.215248 0.000000
O O13 0.794237 0.931134 0.500000
O O14 0.862971 0.895199 0.743473
O O15 0.769421 0.000000 0.750000
O O16 0.922242 0.231422 0.769986
O O17 0.000000 0.349042 0.750000
O O18 0.936605 0.321730 0.000000
O O19 0.066292 0.141847 0.500000
O O20 0.000000 0.114769 0.750000
#
# Coordination Sequence:
#
# PCOD8203520 Si02
#       7
#     8   8   8   8   8   8   8
#     4  10  20  35  55  80 110 143 173 206 248 297
#     4   8  14  28  51  70  92 130 171 208 254 304
#     4  11  22  37  58  85 111 137 168 202 243 296
#     4   9  17  34  55  74  99 134 172 212 257 305
#     4  10  20  33  50  71 100 138 177 217 265 315
#     4   9  15  26  44  67  92 123 166 214 262 306
#     4   9  17  29  45  65  94 132 172 215 263 313
#
# _framework density 17.899939
#
# number of rings (size 3 to 8) (size 9 to 14) (size 15 to 20)
#    0.000    2.571    1.429    2.571    0.000    1.714 
#    0.000    6.429    0.000    0.857    0.000    6.000 
#    0.000    0.000    0.000    0.000    0.000    0.000 
#
# Total GULP energy -694145.544404 kJ/mol
# GULP energy per Si atom -12395.456150 kJ/mol
# Density = 1.785920 g / cm^3
# Si number density = 17.899939 Si / 1000 Ang^3
#
#
#
# Elastic Constant Matrix: (Units=GPa)
#
#
# Indices 1 2 3 4 5 6 
#
# 1 112.7606 33.7695 12.3523 0.0000 0.0000 0.0000
# 2 33.7695 65.9841 24.6562 0.0000 0.0000 0.0000
# 3 12.3523 24.6562 36.0445 0.0000 0.0000 0.0000
# 4 0.0000 0.0000 0.0000 9.8711 0.0000 0.0000
# 5 0.0000 0.0000 0.0000 0.0000 28.3867 0.0000
# 6 0.0000 0.0000 0.0000 0.0000 0.0000 27.7651
#
#
#
# Elastic Compliance Matrix: (Units=1/GPa)
#
#
# Indices 1 2 3 4 5 6 
#
# 1 0.010474 -0.005399 0.000104 0.000000 0.000000 0.000000
# 2 -0.005399 0.023142 -0.013980 0.000000 0.000000 0.000000
# 3 0.000104 -0.013980 0.037271 0.000000 0.000000 0.000000
# 4 0.000000 0.000000 0.000000 0.101306 0.000000 0.000000
# 5 0.000000 0.000000 0.000000 0.000000 0.035228 0.000000
# 6 0.000000 0.000000 0.000000 0.000000 0.000000 0.036016
#
#
# Mechanical properties :
#
#
# Convention : Reuss Voigt Hill
#
# Bulk Modulus (GPa) = 30.92494 39.59390 35.25942
# Shear Modulus (GPa) = 17.07843 22.80531 19.94187
#
# Velocity S-wave (km/s) = 3.09221 3.57325 3.34140
# Velocity P-wave (km/s) = 5.48298 6.26033 5.88451
#
# Compressibility (1/GPa) = 0.03233636
#
# Stress axis : x y z
#
# Youngs Moduli (GPa) = 95.47527 43.21078 26.83049
#
# Poissons Ratio (x) = 0.23330 -0.00279
# Poissons Ratio (y) = 0.51549 0.37510
# Poissons Ratio (z) = -0.00993 0.60410
#
# Static dielectric constant tensor:
#      x y z
#    x 3.843460 0.000000 0.000000 
#    y 0.000000 3.159070 0.000000 
#    z 0.000000 0.000000 3.111780 
# 
# 
# High freq. dielectric constant tensor:
#      x y z
#    x 1.701470 0.000000 0.000000 
#    y 0.000000 1.662280 0.000000 
#    z 0.000000 0.000000 1.676310 
# 
# From -- ./inp_files/5213.got.cif
#   From: 2010.03.12/outbox.cif.g09.slc.cpg/sg49_3_cif.got.tgz:5213.got - 2010.04.14 03:58:27.
