data_PCOD8203271
_publ_section_title
;
Structure prediction by ZEFSAII (Michael W. Deem and Ramdas Pophale) SiO2 
 PCOD8203271
Probable space group: P C C M
;
_chemical_formula_sum "Si O2"
_cell_formula_units_Z 48
_cell_length_a 9.050582
_cell_length_b 18.667523
_cell_length_c 15.409463
_cell_angle_alpha 90.000000
_cell_angle_beta 90.000000
_cell_angle_gamma 90.000000
_cell_volume 2603.458786
_symmetry_space_group_name_H-M "P C C M"
_symmetry_group_IT_number 49
_symmetry_cell_setting 'orthorhombic'
loop_
_space_group_symop_operation_xyz
x,y,z
-x,-y,z
x,-y,1/2-z
-x,y,1/2-z
-x,-y,-z
x,y,-z
-x,y,1/2+z
x,-y,1/2+z
loop_
_atom_site_type_symbol
_atom_site_label
_atom_site_fract_x
_atom_site_fract_y
_atom_site_fract_z
Si Si1 0.389285 0.924737 0.331559
Si Si2 0.827914 0.831258 0.736672
Si Si3 0.674903 0.578276 0.598804
Si Si4 0.172360 0.334803 0.252875
Si Si5 0.331350 0.586574 0.599107
Si Si6 0.319325 0.074733 0.403029
O O1 0.500000 0.933120 0.250000
O O2 0.264885 0.865145 0.316277
O O3 0.505367 0.903429 0.407630
O O4 0.304079 0.998381 0.353977
O O5 0.789158 0.748054 0.735364
O O6 0.778730 0.866474 0.646196
O O7 0.000000 0.846099 0.750000
O O8 0.716556 0.597924 0.500000
O O9 0.770540 0.625152 0.662772
O O10 0.504482 0.595458 0.616503
O O11 0.712226 0.495484 0.616929
O O12 0.243699 0.362257 0.163797
O O13 0.000000 0.348972 0.250000
O O14 0.292173 0.607816 0.500000
O O15 0.256476 0.069360 0.500000
#
# Coordination Sequence:
#
# PCOD8203271 Si02
#       6
#     8   8   8   8   8   8
#     4   9  17  33  57  79 103 136 170 209 261 313
#     4  10  22  38  51  71 109 148 176 207 254 313
#     4   9  19  36  59  82 106 135 175 224 269 313
#     4  11  23  36  52  77 111 148 179 213 262 315
#     4   9  19  37  58  82 106 134 176 225 268 312
#     4  10  19  34  57  83 104 127 169 224 266 306
#
# _framework density 18.437010999999998
#
# number of rings (size 3 to 8) (size 9 to 14) (size 15 to 20)
#    0.000    2.333    0.000    6.500    0.000    9.333 
#    0.000   10.000    0.000    0.000    0.000    0.000 
#    0.000    0.000    0.000    0.000    0.000    0.000 
#
# Total GULP energy -594954.445347 kJ/mol
# GULP energy per Si atom -12394.884278 kJ/mol
# Density = 1.839505 g / cm^3
# Si number density = 18.437011 Si / 1000 Ang^3
#
#
#
# Elastic Constant Matrix: (Units=GPa)
#
#
# Indices 1 2 3 4 5 6 
#
# 1 83.2764 82.2205 55.0432 0.0000 0.0000 0.0000
# 2 82.2205 135.4738 81.6244 0.0000 0.0000 0.0000
# 3 55.0432 81.6244 127.0546 0.0000 0.0000 0.0000
# 4 0.0000 0.0000 0.0000 4.0291 0.0000 0.0000
# 5 0.0000 0.0000 0.0000 0.0000 10.7389 0.0000
# 6 0.0000 0.0000 0.0000 0.0000 0.0000 32.0146
#
#
#
# Elastic Compliance Matrix: (Units=1/GPa)
#
#
# Indices 1 2 3 4 5 6 
#
# 1 0.030315 -0.017108 -0.002143 0.000000 0.000000 0.000000
# 2 -0.017108 0.021697 -0.006528 0.000000 0.000000 0.000000
# 3 -0.002143 -0.006528 0.012993 0.000000 0.000000 0.000000
# 4 0.000000 0.000000 0.000000 0.248197 0.000000 0.000000
# 5 0.000000 0.000000 0.000000 0.000000 0.093120 0.000000
# 6 0.000000 0.000000 0.000000 0.000000 0.000000 0.031236
#
#
# Mechanical properties :
#
#
# Convention : Reuss Voigt Hill
#
# Bulk Modulus (GPa) = 74.35526 87.06455 80.70990
# Shear Modulus (GPa) = 10.12973 17.81762 13.97367
#
# Velocity S-wave (km/s) = 2.34652 3.11208 2.75601
# Velocity P-wave (km/s) = 6.91075 7.76135 7.34837
#
# Compressibility (1/GPa) = 0.01344895
#
# Stress axis : x y z
#
# Youngs Moduli (GPa) = 32.98683 46.08888 76.96727
#
# Poissons Ratio (x) = 0.78847 0.16493
# Poissons Ratio (y) = 0.56432 0.50242
# Poissons Ratio (z) = 0.07068 0.30085
#
# Static dielectric constant tensor:
#      x y z
#    x 3.478190 0.000000 0.000000 
#    y 0.000000 3.339510 0.000000 
#    z 0.000000 0.000000 3.808130 
# 
# 
# High freq. dielectric constant tensor:
#      x y z
#    x 1.708380 0.000000 0.000000 
#    y 0.000000 1.710510 0.000000 
#    z 0.000000 0.000000 1.719750 
# 
# From -- ./inp_files/11749.got.cif
#   From: 2010.03.12/outbox.cif.g09.slc.cpg/sg49_6_cif.got.tgz:11749.got - 2010.04.14 03:58:27.
