data_PCOD8203575
_publ_section_title
;
Structure prediction by ZEFSAII (Michael W. Deem and Ramdas Pophale) SiO2 
 PCOD8203575
Probable space group: P C C M
;
_chemical_formula_sum "Si O2"
_cell_formula_units_Z 64
_cell_length_a 26.018167
_cell_length_b 14.500922
_cell_length_c 8.863907
_cell_angle_alpha 90.000000
_cell_angle_beta 90.000000
_cell_angle_gamma 90.000000
_cell_volume 3344.240517
_symmetry_space_group_name_H-M "P C C M"
_symmetry_group_IT_number 49
_symmetry_cell_setting 'orthorhombic'
loop_
_space_group_symop_operation_xyz
x,y,z
-x,-y,z
x,-y,1/2-z
-x,y,1/2-z
-x,-y,-z
x,y,-z
-x,y,1/2+z
x,-y,1/2+z
loop_
_atom_site_type_symbol
_atom_site_label
_atom_site_fract_x
_atom_site_fract_y
_atom_site_fract_z
Si Si1 0.707663 0.405799 0.672709
Si Si2 0.447968 0.783716 0.321852
Si Si3 0.597036 0.401738 0.325349
Si Si4 0.180423 0.599175 0.321749
Si Si5 0.851660 0.776770 0.323789
Si Si6 0.244912 0.100128 0.679959
Si Si7 0.349978 0.100093 0.180324
Si Si8 0.947193 0.902194 0.678474
O O1 0.693790 0.500000 0.750000
O O2 0.717769 0.427242 0.500000
O O3 0.653870 0.352387 0.699861
O O4 0.762027 0.366513 0.732495
O O5 0.500000 0.824258 0.250000
O O6 0.452411 0.791016 0.500000
O O7 0.442007 0.676920 0.268515
O O8 0.398964 0.841397 0.265667
O O9 0.586281 0.500000 0.250000
O O10 0.589619 0.421981 0.500000
O O11 0.167181 0.500000 0.250000
O O12 0.173729 0.590878 0.500000
O O13 0.143387 0.678599 0.259912
O O14 0.849047 0.757219 0.500000
O O15 0.801819 0.834087 0.271022
O O16 0.902442 0.831929 0.278154
O O17 0.249889 0.091345 0.500000
O O18 0.297305 0.142855 0.750659
O O19 0.234182 0.000000 0.750000
O O20 0.357793 0.000000 0.250000
O O21 0.344834 0.095993 0.000000
O O22 0.953479 0.913867 0.500000
O O23 0.000000 0.864225 0.750000
O O24 0.932590 0.000000 0.750000
#
# Coordination Sequence:
#
# PCOD8203575 Si02
#       8
#     8   8   8   8   8   8   8   8
#     4   8  15  28  47  70  97 129 169 211 255 308
#     4  10  23  39  56  76 102 134 172 219 265 320
#     4   9  18  34  53  75 102 133 169 209 259 314
#     4  10  20  33  53  78 110 151 190 232 277 326
#     4  10  22  36  53  82 118 152 189 231 276 326
#     4  10  20  35  55  82 114 146 178 218 268 329
#     4  10  21  38  59  80 105 137 172 218 271 325
#     4  10  20  36  58  84 117 154 192 238 281 329
#
# _framework density 19.13738
#
# number of rings (size 3 to 8) (size 9 to 14) (size 15 to 20)
#    0.000    2.375    0.000    3.000    1.750    4.500 
#    0.000    2.500    0.000    0.375    0.000    2.625 
#    0.000    0.000    0.000    0.000    0.000    0.000 
#
# Total GULP energy -793037.399179 kJ/mol
# GULP energy per Si atom -12391.209362 kJ/mol
# Density = 1.909382 g / cm^3
# Si number density = 19.137380 Si / 1000 Ang^3
#
#
#
# Elastic Constant Matrix: (Units=GPa)
#
#
# Indices 1 2 3 4 5 6 
#
# 1 138.4115 76.5081 51.3228 0.0000 0.0000 0.0000
# 2 76.5081 93.6122 42.1116 0.0000 0.0000 0.0000
# 3 51.3228 42.1116 66.5342 0.0000 0.0000 0.0000
# 4 0.0000 0.0000 0.0000 28.6357 0.0000 0.0000
# 5 0.0000 0.0000 0.0000 0.0000 30.1443 0.0000
# 6 0.0000 0.0000 0.0000 0.0000 0.0000 26.9479
#
#
#
# Elastic Compliance Matrix: (Units=1/GPa)
#
#
# Indices 1 2 3 4 5 6 
#
# 1 0.014311 -0.009409 -0.005084 0.000000 0.000000 0.000000
# 2 -0.009409 0.021121 -0.006110 0.000000 0.000000 0.000000
# 3 -0.005084 -0.006110 0.022819 0.000000 0.000000 0.000000
# 4 0.000000 0.000000 0.000000 0.034921 0.000000 0.000000
# 5 0.000000 0.000000 0.000000 0.000000 0.033174 0.000000
# 6 0.000000 0.000000 0.000000 0.000000 0.000000 0.037109
#
#
# Mechanical properties :
#
#
# Convention : Reuss Voigt Hill
#
# Bulk Modulus (GPa) = 58.67008 70.93809 64.80409
# Shear Modulus (GPa) = 23.77083 25.71995 24.74539
#
# Velocity S-wave (km/s) = 3.52819 3.66999 3.59979
# Velocity P-wave (km/s) = 6.87905 7.42339 7.15640
#
# Compressibility (1/GPa) = 0.01704446
#
# Stress axis : x y z
#
# Youngs Moduli (GPa) = 69.87709 47.34616 43.82391
#
# Poissons Ratio (x) = 0.44549 0.22279
# Poissons Ratio (y) = 0.65749 0.26777
# Poissons Ratio (z) = 0.35523 0.28929
#
# Static dielectric constant tensor:
#      x y z
#    x 3.694120 0.000000 0.000000 
#    y 0.000000 3.350010 0.000000 
#    z 0.000000 0.000000 3.359260 
# 
# 
# High freq. dielectric constant tensor:
#      x y z
#    x 1.742430 0.000000 0.000000 
#    y 0.000000 1.734250 0.000000 
#    z 0.000000 0.000000 1.745050 
# 
# From -- ./inp_files/6513.got.cif
#   From: 2010.03.12/outbox.cif.g09.slc.cpg/sg49_4_cif.got.tgz:6513.got - 2010.04.14 03:58:27.
