data_PCOD8203988
_publ_section_title
;
Structure prediction by ZEFSAII (Michael W. Deem and Ramdas Pophale) SiO2 
 PCOD8203988
Probable space group: P C C M
;
_chemical_formula_sum "Si O2"
_cell_formula_units_Z 64
_cell_length_a 17.604620
_cell_length_b 10.032985
_cell_length_c 18.873896
_cell_angle_alpha 90.000000
_cell_angle_beta 90.000000
_cell_angle_gamma 90.000000
_cell_volume 3333.637522
_symmetry_space_group_name_H-M "P C C M"
_symmetry_group_IT_number 49
_symmetry_cell_setting 'orthorhombic'
loop_
_space_group_symop_operation_xyz
x,y,z
-x,-y,z
x,-y,1/2-z
-x,y,1/2-z
-x,-y,-z
x,y,-z
-x,y,1/2+z
x,-y,1/2+z
loop_
_atom_site_type_symbol
_atom_site_label
_atom_site_fract_x
_atom_site_fract_y
_atom_site_fract_z
Si Si1 0.916584 0.988340 0.365113
Si Si2 0.916547 0.779495 0.760602
Si Si3 0.769731 0.120107 0.921490
Si Si4 0.436775 0.393960 0.582451
Si Si5 0.697994 0.846994 0.916960
Si Si6 0.530169 0.136145 0.417486
Si Si7 0.717901 0.371905 0.164026
Si Si8 0.228521 0.649561 0.310982
O O1 0.907198 0.874852 0.306250
O O2 0.852845 0.949604 0.421957
O O3 0.905308 0.132701 0.330955
O O4 0.000000 0.000000 0.400868
O O5 0.852029 0.667755 0.769845
O O6 0.000000 0.712787 0.750000
O O7 0.759413 0.244871 0.870138
O O8 0.710764 0.003577 0.901500
O O9 0.753320 0.174157 0.000000
O O10 0.500000 0.500000 0.606525
O O11 0.415862 0.415895 0.500000
O O12 0.468070 0.247482 0.597308
O O13 0.362393 0.408717 0.629530
O O14 0.612607 0.817155 0.889574
O O15 0.755625 0.759108 0.870818
O O16 0.710885 0.812960 0.000000
O O17 0.542436 0.108798 0.500000
O O18 0.500000 0.000000 0.381013
O O19 0.708202 0.342448 0.248094
O O20 0.770554 0.503166 0.153492
#
# Coordination Sequence:
#
# PCOD8203988 Si02
#       8
#     8   8   8   8   8   8   8   8
#     4   9  17  32  58  89 115 145 190 237 286 343
#     4   9  17  34  62  86 113 150 196 239 283 340
#     4  11  21  35  58  87 121 155 189 241 301 356
#     4  10  20  37  60  81 109 156 204 246 294 353
#     4  10  21  36  59  88 113 149 199 248 298 354
#     4   9  17  32  53  78 109 144 189 238 287 346
#     4  11  24  37  54  86 120 151 200 243 301 353
#     4  11  22  39  59  84 116 157 196 244 298 349
#
# _framework density 19.198248
#
# number of rings (size 3 to 8) (size 9 to 14) (size 15 to 20)
#    0.000    2.000    2.500    2.625    0.000    4.750 
#    0.000    5.625    0.000    0.750    0.000    3.500 
#    0.000    0.000    0.000    0.000    0.000    0.000 
#
# Total GULP energy -793133.314713 kJ/mol
# GULP energy per Si atom -12392.708042 kJ/mol
# Density = 1.915455 g / cm^3
# Si number density = 19.198248 Si / 1000 Ang^3
#
#
#
# Elastic Constant Matrix: (Units=GPa)
#
#
# Indices 1 2 3 4 5 6 
#
# 1 123.1519 37.5008 31.7689 0.0000 0.0000 0.0000
# 2 37.5008 96.2701 43.4371 0.0000 0.0000 0.0000
# 3 31.7689 43.4371 64.2901 0.0000 0.0000 0.0000
# 4 0.0000 0.0000 0.0000 24.3267 0.0000 0.0000
# 5 0.0000 0.0000 0.0000 0.0000 29.8787 0.0000
# 6 0.0000 0.0000 0.0000 0.0000 0.0000 27.1255
#
#
#
# Elastic Compliance Matrix: (Units=1/GPa)
#
#
# Indices 1 2 3 4 5 6 
#
# 1 0.009652 -0.002313 -0.003207 0.000000 0.000000 0.000000
# 2 -0.002313 0.015497 -0.009328 0.000000 0.000000 0.000000
# 3 -0.003207 -0.009328 0.023441 0.000000 0.000000 0.000000
# 4 0.000000 0.000000 0.000000 0.041107 0.000000 0.000000
# 5 0.000000 0.000000 0.000000 0.000000 0.033469 0.000000
# 6 0.000000 0.000000 0.000000 0.000000 0.000000 0.036866
#
#
# Mechanical properties :
#
#
# Convention : Reuss Voigt Hill
#
# Bulk Modulus (GPa) = 52.92229 56.56954 54.74592
# Shear Modulus (GPa) = 25.50714 27.66655 26.58684
#
# Velocity S-wave (km/s) = 3.64898 3.80030 3.72541
# Velocity P-wave (km/s) = 6.73642 6.98472 6.86170
#
# Compressibility (1/GPa) = 0.01889563
#
# Stress axis : x y z
#
# Youngs Moduli (GPa) = 103.61057 64.52880 42.65995
#
# Poissons Ratio (x) = 0.14924 0.13680
# Poissons Ratio (y) = 0.23963 0.39791
# Poissons Ratio (z) = 0.33225 0.60190
#
# Static dielectric constant tensor:
#      x y z
#    x 3.679300 0.000000 0.000000 
#    y 0.000000 3.485820 0.000000 
#    z 0.000000 0.000000 3.289890 
# 
# 
# High freq. dielectric constant tensor:
#      x y z
#    x 1.751690 0.000000 0.000000 
#    y 0.000000 1.747920 0.000000 
#    z 0.000000 0.000000 1.719770 
# 
# From -- ./inp_files/21090.got.cif
#   From: 2010.03.12/outbox.cif.g09.slc.cpg/sg49_11_cif.got.tgz:21090.got - 2010.04.14 03:58:27.
