data_PCOD8203264
_publ_section_title
;
Structure prediction by ZEFSAII (Michael W. Deem and Ramdas Pophale) SiO2 
 PCOD8203264
Probable space group: P C C M
;
_chemical_formula_sum "Si O2"
_cell_formula_units_Z 48
_cell_length_a 20.357781
_cell_length_b 14.410570
_cell_length_c 8.647433
_cell_angle_alpha 90.000000
_cell_angle_beta 90.000000
_cell_angle_gamma 90.000000
_cell_volume 2536.873450
_symmetry_space_group_name_H-M "P C C M"
_symmetry_group_IT_number 49
_symmetry_cell_setting 'orthorhombic'
loop_
_space_group_symop_operation_xyz
x,y,z
-x,-y,z
x,-y,1/2-z
-x,y,1/2-z
-x,-y,-z
x,y,-z
-x,y,1/2+z
x,-y,1/2+z
loop_
_atom_site_type_symbol
_atom_site_label
_atom_site_fract_x
_atom_site_fract_y
_atom_site_fract_z
Si Si1 0.683191 0.717044 0.181220
Si Si2 0.930513 0.289120 0.183566
Si Si3 0.122987 0.905156 0.818638
Si Si4 0.430341 0.401391 0.318009
Si Si5 0.810761 0.600289 0.817749
Si Si6 0.725848 0.903833 0.316754
O O1 0.623654 0.673732 0.275462
O O2 0.750774 0.666923 0.228346
O O3 0.685831 0.823458 0.232325
O O4 0.669239 0.708311 0.000000
O O5 0.915484 0.184825 0.244902
O O6 0.876771 0.360940 0.242781
O O7 0.000000 0.321773 0.250000
O O8 0.931182 0.292085 0.000000
O O9 0.198289 0.894118 0.767122
O O10 0.092460 0.000000 0.750000
O O11 0.116448 0.912192 0.000000
O O12 0.408115 0.500000 0.250000
O O13 0.500000 0.369246 0.250000
O O14 0.436981 0.411105 0.500000
O O15 0.794616 0.500000 0.750000
O O16 0.820398 0.593645 0.000000
O O17 0.716240 0.898187 0.500000
O O18 0.697560 0.000000 0.250000
#
# Coordination Sequence:
#
# PCOD8203264 Si02
#       6
#     8   8   8   8   8   8
#     4  11  22  37  60  90 120 154 194 237 287 341
#     4  11  23  40  58  80 110 146 188 235 288 346
#     4   9  19  34  55  80 110 145 182 230 283 340
#     4  11  22  38  60  88 124 162 199 240 286 340
#     4  11  24  40  60  84 111 145 187 237 287 340
#     4  10  19  34  56  85 117 152 191 236 289 340
#
# _framework density 18.920928
#
# number of rings (size 3 to 8) (size 9 to 14) (size 15 to 20)
#    0.000    1.500    1.667    4.500    0.000    6.000 
#    0.000    3.333    0.000    0.500    0.000    3.500 
#    0.000    0.000    0.000    0.000    0.000    0.000 
#
# Total GULP energy -595449.234128 kJ/mol
# GULP energy per Si atom -12405.192378 kJ/mol
# Density = 1.887786 g / cm^3
# Si number density = 18.920928 Si / 1000 Ang^3
#
#
#
# Elastic Constant Matrix: (Units=GPa)
#
#
# Indices 1 2 3 4 5 6 
#
# 1 92.8748 49.0307 39.6113 0.0000 0.0000 0.0000
# 2 49.0307 122.5722 41.3759 0.0000 0.0000 0.0000
# 3 39.6113 41.3759 95.2834 0.0000 0.0000 0.0000
# 4 0.0000 0.0000 0.0000 36.9506 0.0000 0.0000
# 5 0.0000 0.0000 0.0000 0.0000 28.4352 0.0000
# 6 0.0000 0.0000 0.0000 0.0000 0.0000 26.4489
#
#
#
# Elastic Compliance Matrix: (Units=1/GPa)
#
#
# Indices 1 2 3 4 5 6 
#
# 1 0.014988 -0.004560 -0.004250 0.000000 0.000000 0.000000
# 2 -0.004560 0.010947 -0.002858 0.000000 0.000000 0.000000
# 3 -0.004250 -0.002858 0.013503 0.000000 0.000000 0.000000
# 4 0.000000 0.000000 0.000000 0.027063 0.000000 0.000000
# 5 0.000000 0.000000 0.000000 0.000000 0.035168 0.000000
# 6 0.000000 0.000000 0.000000 0.000000 0.000000 0.037809
#
#
# Mechanical properties :
#
#
# Convention : Reuss Voigt Hill
#
# Bulk Modulus (GPa) = 62.10974 63.41848 62.76411
# Shear Modulus (GPa) = 29.72974 30.41445 30.07210
#
# Velocity S-wave (km/s) = 3.96822 4.01365 3.99100
# Velocity P-wave (km/s) = 7.34118 7.42089 7.38114
#
# Compressibility (1/GPa) = 0.01610054
#
# Stress axis : x y z
#
# Youngs Moduli (GPa) = 66.72220 91.34537 74.05778
#
# Poissons Ratio (x) = 0.41658 0.31477
# Poissons Ratio (y) = 0.30429 0.21165
# Poissons Ratio (z) = 0.28359 0.26106
#
# Static dielectric constant tensor:
#      x y z
#    x 3.366140 0.000000 0.000000 
#    y 0.000000 3.601590 0.000000 
#    z 0.000000 0.000000 3.502880 
# 
# 
# High freq. dielectric constant tensor:
#      x y z
#    x 1.719420 0.000000 0.000000 
#    y 0.000000 1.743280 0.000000 
#    z 0.000000 0.000000 1.747710 
# 
# From -- ./inp_files/3689.got.cif
#   From: 2010.03.12/outbox.cif.g09.slc.cpg/sg49_2_cif.got.tgz:3689.got - 2010.04.14 03:58:27.
