data_PCOD8203254
_publ_section_title
;
Structure prediction by ZEFSAII (Michael W. Deem and Ramdas Pophale) SiO2 
 PCOD8203254
Probable space group: P C C M
;
_chemical_formula_sum "Si O2"
_cell_formula_units_Z 56
_cell_length_a 20.769748
_cell_length_b 15.123545
_cell_length_c 9.349684
_cell_angle_alpha 90.000000
_cell_angle_beta 90.000000
_cell_angle_gamma 90.000000
_cell_volume 2936.849984
_symmetry_space_group_name_H-M "P C C M"
_symmetry_group_IT_number 49
_symmetry_cell_setting 'orthorhombic'
loop_
_space_group_symop_operation_xyz
x,y,z
-x,-y,z
x,-y,1/2-z
-x,y,1/2-z
-x,-y,-z
x,y,-z
-x,y,1/2+z
x,-y,1/2+z
loop_
_atom_site_type_symbol
_atom_site_label
_atom_site_fract_x
_atom_site_fract_y
_atom_site_fract_z
Si Si1 0.682272 0.081483 0.663273
Si Si2 0.435394 0.590525 0.327974
Si Si3 0.937992 0.674510 0.338047
Si Si4 0.829366 0.105168 0.653210
Si Si5 0.678591 0.277418 0.331429
Si Si6 0.817772 0.687019 0.840690
Si Si7 0.941330 0.885144 0.657144
O O1 0.658762 0.073766 0.500000
O O2 0.758417 0.069452 0.679200
O O3 0.664259 0.178319 0.728854
O O4 0.649528 0.000000 0.750000
O O5 0.414919 0.500000 0.250000
O O6 0.500000 0.624998 0.250000
O O7 0.444802 0.577936 0.500000
O O8 0.380868 0.661130 0.291681
O O9 0.939972 0.636586 0.500000
O O10 0.871612 0.642026 0.261436
O O11 0.939563 0.779706 0.342497
O O12 0.000000 0.638780 0.250000
O O13 0.855300 0.070571 0.500000
O O14 0.831748 0.210254 0.647279
O O15 0.875427 0.073245 0.780812
O O16 0.689132 0.265919 0.500000
O O17 0.745150 0.321861 0.273601
O O18 0.822145 0.643974 0.000000
O O19 0.950323 0.923021 0.500000
O O20 0.000000 0.921172 0.750000
#
# Coordination Sequence:
#
# PCOD8203254 Si02
#       7
#     8   8   8   8   8   8   8
#     4   9  17  30  47  68  92 123 162 204 247 291
#     4  10  19  34  56  83 113 143 172 202 239 291
#     4   9  15  21  30  49  78 113 151 196 245 293
#     4   8  14  24  37  52  74 103 140 186 237 288
#     4   8  16  31  51  72 100 137 171 204 250 303
#     4   8  13  24  40  57  79 114 157 198 240 290
#     4   9  15  21  31  47  68  96 136 184 238 293
#
# _framework density 19.068048999999998
#
# number of rings (size 3 to 8) (size 9 to 14) (size 15 to 20)
#    0.000    3.286    0.000    3.429    0.000    4.000 
#    0.000    5.000    0.000    0.857    0.000    6.000 
#    0.000    0.571    0.000    6.571    0.000    8.000 
#
# Total GULP energy -693806.750285 kJ/mol
# GULP energy per Si atom -12389.406255 kJ/mol
# Density = 1.902465 g / cm^3
# Si number density = 19.068049 Si / 1000 Ang^3
#
#
#
# Elastic Constant Matrix: (Units=GPa)
#
#
# Indices 1 2 3 4 5 6 
#
# 1 114.8370 53.5889 59.2402 0.0000 0.0000 0.0000
# 2 53.5889 41.7962 35.5182 0.0000 0.0000 0.0000
# 3 59.2402 35.5182 124.7007 0.0000 0.0000 0.0000
# 4 0.0000 0.0000 0.0000 12.2416 0.0000 0.0000
# 5 0.0000 0.0000 0.0000 0.0000 18.9331 0.0000
# 6 0.0000 0.0000 0.0000 0.0000 0.0000 -9.8181
#
#
#
# Elastic Compliance Matrix: (Units=1/GPa)
#
#
# Indices 1 2 3 4 5 6 
#
# 1 0.022654 -0.026255 -0.003284 0.000000 0.000000 0.000000
# 2 -0.026255 0.061995 -0.005185 0.000000 0.000000 0.000000
# 3 -0.003284 -0.005185 0.011056 0.000000 0.000000 0.000000
# 4 0.000000 0.000000 0.000000 0.081689 0.000000 0.000000
# 5 0.000000 0.000000 0.000000 0.000000 0.052818 0.000000
# 6 0.000000 0.000000 0.000000 0.000000 0.000000 -0.101853
#
#
# Mechanical properties :
#
#
# Convention : Reuss Voigt Hill
#
# Bulk Modulus (GPa) = 38.08542 64.22539 51.15540
# Shear Modulus (GPa) = 24.20615 13.13709 18.67162
#
# Velocity S-wave (km/s) = 3.56682 2.62765 3.13263
# Velocity P-wave (km/s) = 6.08109 6.55449 6.32222
#
# Compressibility (1/GPa) = 0.02625677
#
# Stress axis : x y z
#
# Youngs Moduli (GPa) = 44.14231 16.13037 90.44827
#
# Poissons Ratio (x) = 0.42351 0.29701
# Poissons Ratio (y) = 1.15897 0.46898
# Poissons Ratio (z) = 0.14495 0.08364
#
# Static dielectric constant tensor:
#      x y z
#    x 3.475430 0.000000 0.000000 
#    y 0.000000 3.068980 0.000000 
#    z 0.000000 0.000000 3.695630 
# 
# 
# High freq. dielectric constant tensor:
#      x y z
#    x 1.721540 0.000000 0.000000 
#    y 0.000000 1.708920 0.000000 
#    z 0.000000 0.000000 1.734270 
# 
# From -- ./inp_files/5891.got.cif
#   From: 2010.03.12/outbox.cif.g09.slc.cpg/sg49_3_cif.got.tgz:5891.got - 2010.04.14 03:58:27.
