data_PCOD8203230
_publ_section_title
;
Structure prediction by ZEFSAII (Michael W. Deem and Ramdas Pophale) SiO2 
 PCOD8203230
Probable space group: P C C M
;
_chemical_formula_sum "Si O2"
_cell_formula_units_Z 64
_cell_length_a 24.828457
_cell_length_b 15.198137
_cell_length_c 8.609064
_cell_angle_alpha 90.000000
_cell_angle_beta 90.000000
_cell_angle_gamma 90.000000
_cell_volume 3248.598369
_symmetry_space_group_name_H-M "P C C M"
_symmetry_group_IT_number 49
_symmetry_cell_setting 'orthorhombic'
loop_
_space_group_symop_operation_xyz
x,y,z
-x,-y,z
x,-y,1/2-z
-x,y,1/2-z
-x,-y,-z
x,y,-z
-x,y,1/2+z
x,-y,1/2+z
loop_
_atom_site_type_symbol
_atom_site_label
_atom_site_fract_x
_atom_site_fract_y
_atom_site_fract_z
Si Si1 0.710062 0.643901 0.178813
Si Si2 0.146357 0.218353 0.184250
Si Si3 0.643095 0.909736 0.816963
Si Si4 0.398954 0.411348 0.315946
Si Si5 0.444109 0.235158 0.183506
Si Si6 0.058544 0.092552 0.316524
Si Si7 0.257780 0.177575 0.681203
Si Si8 0.828282 0.411247 0.324176
O O1 0.660257 0.588409 0.239917
O O2 0.714008 0.729836 0.284565
O O3 0.763801 0.586096 0.193977
O O4 0.700886 0.673453 0.000000
O O5 0.097046 0.171820 0.268236
O O6 0.201588 0.168823 0.227258
O O7 0.148811 0.319681 0.246831
O O8 0.138986 0.214912 0.000000
O O9 0.603026 0.831527 0.768386
O O10 0.701605 0.897360 0.739294
O O11 0.618492 0.000000 0.750000
O O12 0.649685 0.915525 0.000000
O O13 0.427055 0.500000 0.250000
O O14 0.394679 0.414026 0.500000
O O15 0.433762 0.328623 0.263087
O O16 0.500000 0.197192 0.250000
O O17 0.447531 0.247306 0.000000
O O18 0.055207 0.085066 0.500000
O O19 0.000000 0.114008 0.250000
O O20 0.080547 0.000000 0.250000
O O21 0.246132 0.166525 0.500000
O O22 0.852780 0.500000 0.250000
O O23 0.846830 0.413805 0.500000
#
# Coordination Sequence:
#
# PCOD8203230 Si02
#       8
#     8   8   8   8   8   8   8   8
#     4  10  19  34  54  81 117 156 196 239 290 346
#     4  10  21  38  58  86 124 164 204 251 300 352
#     4  11  24  42  65  90 120 154 192 241 295 356
#     4  12  24  38  60  88 118 153 194 239 292 354
#     4  11  25  45  67  88 116 150 191 243 297 353
#     4  11  22  39  63  91 121 158 202 251 304 360
#     4  11  21  35  58  88 121 158 198 240 294 355
#     4   9  19  32  51  79 117 159 199 243 290 343
#
# _framework density 19.700806
#
# number of rings (size 3 to 8) (size 9 to 14) (size 15 to 20)
#    0.000    1.375    1.250    6.375    0.000    6.500 
#    0.000    5.000    0.000    0.375    0.000    2.625 
#    0.000    0.000    0.000    0.000    0.000    0.000 
#
# Total GULP energy -793743.928944 kJ/mol
# GULP energy per Si atom -12402.248890 kJ/mol
# Density = 1.965597 g / cm^3
# Si number density = 19.700806 Si / 1000 Ang^3
#
#
#
# Elastic Constant Matrix: (Units=GPa)
#
#
# Indices 1 2 3 4 5 6 
#
# 1 90.1177 51.4032 36.8633 0.0000 0.0000 0.0000
# 2 51.4032 111.0101 43.1105 0.0000 0.0000 0.0000
# 3 36.8633 43.1105 109.5457 0.0000 0.0000 0.0000
# 4 0.0000 0.0000 0.0000 35.2686 0.0000 0.0000
# 5 0.0000 0.0000 0.0000 0.0000 30.3928 0.0000
# 6 0.0000 0.0000 0.0000 0.0000 0.0000 4.2898
#
#
#
# Elastic Compliance Matrix: (Units=1/GPa)
#
#
# Indices 1 2 3 4 5 6 
#
# 1 0.015813 -0.006204 -0.002880 0.000000 0.000000 0.000000
# 2 -0.006204 0.013067 -0.003055 0.000000 0.000000 0.000000
# 3 -0.002880 -0.003055 0.011300 0.000000 0.000000 0.000000
# 4 0.000000 0.000000 0.000000 0.028354 0.000000 0.000000
# 5 0.000000 0.000000 0.000000 0.000000 0.032903 0.000000
# 6 0.000000 0.000000 0.000000 0.000000 0.000000 0.233112
#
#
# Mechanical properties :
#
#
# Convention : Reuss Voigt Hill
#
# Bulk Modulus (GPa) = 62.88008 63.71417 63.29712
# Shear Modulus (GPa) = 13.73147 25.94333 19.83740
#
# Velocity S-wave (km/s) = 2.64294 3.63280 3.17666
# Velocity P-wave (km/s) = 6.42653 7.07159 6.75677
#
# Compressibility (1/GPa) = 0.01590329
#
# Stress axis : x y z
#
# Youngs Moduli (GPa) = 63.23755 76.52716 88.49650
#
# Poissons Ratio (x) = 0.47477 0.25486
# Poissons Ratio (y) = 0.39233 0.27034
# Poissons Ratio (z) = 0.18212 0.23377
#
# Static dielectric constant tensor:
#      x y z
#    x 3.547150 0.000000 0.000000 
#    y 0.000000 3.700790 0.000000 
#    z 0.000000 0.000000 3.630600 
# 
# 
# High freq. dielectric constant tensor:
#      x y z
#    x 1.748110 0.000000 0.000000 
#    y 0.000000 1.772890 0.000000 
#    z 0.000000 0.000000 1.779510 
# 
# From -- ./inp_files/6551.got.cif
#   From: 2010.03.12/outbox.cif.g09.slc.cpg/sg49_4_cif.got.tgz:6551.got - 2010.04.14 03:58:27.
