data_PCOD8203557
_publ_section_title
;
Structure prediction by ZEFSAII (Michael W. Deem and Ramdas Pophale) SiO2 
 PCOD8203557
Probable space group: P C C M
;
_chemical_formula_sum "Si O2"
_cell_formula_units_Z 58
_cell_length_a 25.180405
_cell_length_b 14.527261
_cell_length_c 8.781956
_cell_angle_alpha 90.000000
_cell_angle_beta 90.000000
_cell_angle_gamma 90.000000
_cell_volume 3212.459840
_symmetry_space_group_name_H-M "P C C M"
_symmetry_group_IT_number 49
_symmetry_cell_setting 'orthorhombic'
loop_
_space_group_symop_operation_xyz
x,y,z
-x,-y,z
x,-y,1/2-z
-x,y,1/2-z
-x,-y,-z
x,y,-z
-x,y,1/2+z
x,-y,1/2+z
loop_
_atom_site_type_symbol
_atom_site_label
_atom_site_fract_x
_atom_site_fract_y
_atom_site_fract_z
Si Si1 0.759161 0.216747 0.823598
Si Si2 0.000000 0.500000 0.750000
Si Si3 0.843649 0.907729 0.820498
Si Si4 0.331920 0.898830 0.678369
Si Si5 0.915327 0.642368 0.830411
Si Si6 0.550131 0.900753 0.824323
Si Si7 0.805502 0.409488 0.823140
Si Si8 0.054879 0.828819 0.180036
O O1 0.808436 0.177972 0.729460
O O2 0.704660 0.177201 0.757311
O O3 0.763320 0.326643 0.801775
O O4 0.764345 0.188893 0.000000
O O5 0.960624 0.564332 0.847980
O O6 0.901790 0.895685 0.752191
O O7 0.817886 0.000000 0.750000
O O8 0.845517 0.915704 0.000000
O O9 0.318152 0.906993 0.500000
O O10 0.391481 0.858197 0.703902
O O11 0.323802 0.000000 0.750000
O O12 0.860827 0.603900 0.763818
O O13 0.935315 0.722658 0.720428
O O14 0.904961 0.682199 0.000000
O O15 0.500000 0.844603 0.750000
O O16 0.551662 0.000000 0.750000
O O17 0.537715 0.910495 0.000000
O O18 0.778194 0.500000 0.750000
O O19 0.818655 0.424456 0.000000
O O20 0.000000 0.863263 0.250000
O O21 0.054886 0.839846 0.000000
#
# Coordination Sequence:
#
# PCOD8203557 Si02
#       8
#     8   2   8   8   8   8   8   8
#     4  11  23  39  58  81 111 145 182 227 274 323
#     4  12  26  36  60  86 116 132 174 208 264 332
#     4  12  25  42  63  84 108 140 177 220 270 321
#     4  10  20  33  51  78 112 151 195 237 277 323
#     4  12  24  38  58  82 109 138 168 208 262 319
#     4   9  16  26  43  69 104 147 191 233 275 320
#     4  11  24  40  60  82 109 138 176 220 268 328
#     4  12  25  42  61  82 108 135 170 211 260 319
#
# _framework density 18.0547
#
# number of rings (size 3 to 8) (size 9 to 14) (size 15 to 20)
#    0.000    0.966    2.759    5.586    0.000    4.690 
#    0.000    1.379    0.000    0.000    0.000    0.000 
#    0.000    0.552    0.000    6.069    0.000    4.414 
#
# Total GULP energy -719094.727136 kJ/mol
# GULP energy per Si atom -12398.184951 kJ/mol
# Density = 1.801361 g / cm^3
# Si number density = 18.054700 Si / 1000 Ang^3
#
#
#
# Elastic Constant Matrix: (Units=GPa)
#
#
# Indices 1 2 3 4 5 6 
#
# 1 113.6126 36.9522 58.2151 0.0000 0.0000 0.0000
# 2 36.9522 75.0226 42.0709 0.0000 0.0000 0.0000
# 3 58.2151 42.0709 162.3584 0.0000 0.0000 0.0000
# 4 0.0000 0.0000 0.0000 25.2536 0.0000 0.0000
# 5 0.0000 0.0000 0.0000 0.0000 33.2203 0.0000
# 6 0.0000 0.0000 0.0000 0.0000 0.0000 10.4466
#
#
#
# Elastic Compliance Matrix: (Units=1/GPa)
#
#
# Indices 1 2 3 4 5 6 
#
# 1 0.011726 -0.003999 -0.003168 0.000000 0.000000 0.000000
# 2 -0.003999 0.016959 -0.002961 0.000000 0.000000 0.000000
# 3 -0.003168 -0.002961 0.008062 0.000000 0.000000 0.000000
# 4 0.000000 0.000000 0.000000 0.039598 0.000000 0.000000
# 5 0.000000 0.000000 0.000000 0.000000 0.030102 0.000000
# 6 0.000000 0.000000 0.000000 0.000000 0.000000 0.095725
#
#
# Mechanical properties :
#
#
# Convention : Reuss Voigt Hill
#
# Bulk Modulus (GPa) = 60.63581 69.49664 65.06622
# Shear Modulus (GPa) = 21.93701 28.03447 24.98574
#
# Velocity S-wave (km/s) = 3.48951 3.94477 3.72410
# Velocity P-wave (km/s) = 7.06350 7.70222 7.38976
#
# Compressibility (1/GPa) = 0.01649191
#
# Stress axis : x y z
#
# Youngs Moduli (GPa) = 85.28159 58.96487 124.03271
#
# Poissons Ratio (x) = 0.23579 0.39296
# Poissons Ratio (y) = 0.34103 0.36722
# Poissons Ratio (z) = 0.27019 0.17458
#
# Static dielectric constant tensor:
#      x y z
#    x 3.983960 0.000000 0.000000 
#    y 0.000000 3.367470 0.000000 
#    z 0.000000 0.000000 3.500270 
# 
# 
# High freq. dielectric constant tensor:
#      x y z
#    x 1.689220 0.000000 0.000000 
#    y 0.000000 1.673830 0.000000 
#    z 0.000000 0.000000 1.722410 
# 
# From -- ./inp_files/6445.got.cif
#   From: 2010.03.12/outbox.cif.g09.slc.cpg/sg49_4_cif.got.tgz:6445.got - 2010.04.14 03:58:27.
