data_PCOD8203354
_publ_section_title
;
Structure prediction by ZEFSAII (Michael W. Deem and Ramdas Pophale) SiO2 
 PCOD8203354
Probable space group: P C C M
;
_chemical_formula_sum "Si O2"
_cell_formula_units_Z 48
_cell_length_a 12.050283
_cell_length_b 12.209473
_cell_length_c 17.903293
_cell_angle_alpha 90.000000
_cell_angle_beta 90.000000
_cell_angle_gamma 90.000000
_cell_volume 2634.068619
_symmetry_space_group_name_H-M "P C C M"
_symmetry_group_IT_number 49
_symmetry_cell_setting 'orthorhombic'
loop_
_space_group_symop_operation_xyz
x,y,z
-x,-y,z
x,-y,1/2-z
-x,y,1/2-z
-x,-y,-z
x,y,-z
-x,y,1/2+z
x,-y,1/2+z
loop_
_atom_site_type_symbol
_atom_site_label
_atom_site_fract_x
_atom_site_fract_y
_atom_site_fract_z
Si Si1 0.850045 0.707712 0.414193
Si Si2 0.731849 0.114054 0.663898
Si Si3 0.695201 0.132194 0.167802
Si Si4 0.933918 0.726843 0.170833
Si Si5 0.482287 0.870504 0.417469
Si Si6 0.126612 0.466816 0.917972
O O1 0.827119 0.741681 0.500000
O O2 0.785646 0.780192 0.355057
O O3 0.812297 0.581867 0.399333
O O4 0.979143 0.731403 0.396894
O O5 0.677691 0.128946 0.744383
O O6 0.854123 0.167697 0.664298
O O7 0.640773 0.167065 0.608459
O O8 0.740776 0.986357 0.640868
O O9 0.579389 0.175639 0.134469
O O10 0.857787 0.619764 0.150505
O O11 0.000000 0.717703 0.250000
O O12 0.499127 0.822792 0.500000
O O13 0.500000 0.000000 0.415292
O O14 0.000000 0.500000 0.925661
O O15 0.166786 0.422102 0.000000
#
# Coordination Sequence:
#
# PCOD8203354 Si02
#       6
#     8   8   8   8   8   8
#     4  10  20  35  54  78 107 142 183 225 270 319
#     4  10  21  34  52  78 111 144 176 221 267 320
#     4  10  19  36  53  77 108 146 178 217 271 320
#     4  11  20  34  51  79 110 143 181 220 267 326
#     4   9  18  33  55  78 101 137 187 228 260 311
#     4   8  17  33  52  73 102 138 180 227 265 310
#
# _framework density 18.222757999999999
#
# number of rings (size 3 to 8) (size 9 to 14) (size 15 to 20)
#    0.000    2.333    1.667    2.500    0.000    7.667 
#    0.000    0.833    0.000    1.000    0.000    5.833 
#    0.000    0.000    0.000    0.000    0.000    0.000 
#
# Total GULP energy -594645.600132 kJ/mol
# GULP energy per Si atom -12388.450003 kJ/mol
# Density = 1.818128 g / cm^3
# Si number density = 18.222758 Si / 1000 Ang^3
#
#
#
# Elastic Constant Matrix: (Units=GPa)
#
#
# Indices 1 2 3 4 5 6 
#
# 1 65.3336 30.0673 23.8590 0.0000 0.0000 0.0000
# 2 30.0673 71.8858 30.4744 0.0000 0.0000 0.0000
# 3 23.8590 30.4744 70.1255 0.0000 0.0000 0.0000
# 4 0.0000 0.0000 0.0000 24.9346 0.0000 0.0000
# 5 0.0000 0.0000 0.0000 0.0000 21.2283 0.0000
# 6 0.0000 0.0000 0.0000 0.0000 0.0000 5.3724
#
#
#
# Elastic Compliance Matrix: (Units=1/GPa)
#
#
# Indices 1 2 3 4 5 6 
#
# 1 0.019763 -0.006639 -0.003839 0.000000 0.000000 0.000000
# 2 -0.006639 0.019283 -0.006121 0.000000 0.000000 0.000000
# 3 -0.003839 -0.006121 0.018226 0.000000 0.000000 0.000000
# 4 0.000000 0.000000 0.000000 0.040105 0.000000 0.000000
# 5 0.000000 0.000000 0.000000 0.000000 0.047107 0.000000
# 6 0.000000 0.000000 0.000000 0.000000 0.000000 0.186137
#
#
# Mechanical properties :
#
#
# Convention : Reuss Voigt Hill
#
# Bulk Modulus (GPa) = 41.53756 41.79402 41.66579
# Shear Modulus (GPa) = 13.44652 18.50334 15.97493
#
# Velocity S-wave (km/s) = 2.71937 3.18999 2.96404
# Velocity P-wave (km/s) = 5.71872 6.04590 5.88459
#
# Compressibility (1/GPa) = 0.02407460
#
# Stress axis : x y z
#
# Youngs Moduli (GPa) = 50.59882 51.86042 54.86588
#
# Poissons Ratio (x) = 0.34429 0.21064
# Poissons Ratio (y) = 0.33592 0.33583
# Poissons Ratio (z) = 0.19425 0.31743
#
# Static dielectric constant tensor:
#      x y z
#    x 3.191560 0.000000 0.000000 
#    y 0.000000 3.527840 0.000000 
#    z 0.000000 0.000000 3.500630 
# 
# 
# High freq. dielectric constant tensor:
#      x y z
#    x 1.681230 0.000000 0.000000 
#    y 0.000000 1.682260 0.000000 
#    z 0.000000 0.000000 1.717310 
# 
# From -- ./inp_files/17089.got.cif
#   From: 2010.03.12/outbox.cif.g09.slc.cpg/sg49_9_cif.got.tgz:17089.got - 2010.04.14 03:58:27.
