data_PCOD8203181
_publ_section_title
;
Structure prediction by ZEFSAII (Michael W. Deem and Ramdas Pophale) SiO2 
 PCOD8203181
Probable space group: P C C M
;
_chemical_formula_sum "Si O2"
_cell_formula_units_Z 64
_cell_length_a 19.635168
_cell_length_b 9.300622
_cell_length_c 17.174525
_cell_angle_alpha 90.000000
_cell_angle_beta 90.000000
_cell_angle_gamma 90.000000
_cell_volume 3136.399312
_symmetry_space_group_name_H-M "P C C M"
_symmetry_group_IT_number 49
_symmetry_cell_setting 'orthorhombic'
loop_
_space_group_symop_operation_xyz
x,y,z
-x,-y,z
x,-y,1/2-z
-x,y,1/2-z
-x,-y,-z
x,y,-z
-x,y,1/2+z
x,-y,1/2+z
loop_
_atom_site_type_symbol
_atom_site_label
_atom_site_fract_x
_atom_site_fract_y
_atom_site_fract_z
Si Si1 0.707431 0.524316 0.660887
Si Si2 0.400988 0.715220 0.091072
Si Si3 0.075278 0.539871 0.089730
Si Si4 0.792558 0.005764 0.587222
Si Si5 0.171267 0.265283 0.678995
Si Si6 0.536851 0.847423 0.914581
Si Si7 0.347218 0.003549 0.160955
Si Si8 0.819434 0.306696 0.361577
O O1 0.687315 0.500000 0.750000
O O2 0.637158 0.566915 0.615954
O O3 0.761373 0.652994 0.649005
O O4 0.744248 0.380159 0.627979
O O5 0.483005 0.719951 0.108154
O O6 0.371135 0.844578 0.140816
O O7 0.388347 0.742802 0.000000
O O8 0.102805 0.670312 0.141979
O O9 0.123168 0.403883 0.101038
O O10 0.000000 0.500000 0.118644
O O11 0.074842 0.588742 0.000000
O O12 0.800410 0.942561 0.500000
O O13 0.823677 0.898450 0.650922
O O14 0.714786 0.042076 0.605807
O O15 0.828972 0.159019 0.592453
O O16 0.165855 0.279765 0.771027
O O17 0.596899 0.868892 0.851520
O O18 0.500000 0.000000 0.919478
O O19 0.567697 0.812153 0.000000
O O20 0.323708 0.000000 0.250000
#
# Coordination Sequence:
#
# PCOD8203181 Si02
#       8
#     8   8   8   8   8   8   8   8
#     4   9  19  34  57  82 116 152 196 247 300 351
#     4  10  19  33  56  82 111 153 201 245 291 360
#     4  10  21  39  63  91 123 161 204 244 286 347
#     4  12  23  36  58  89 123 156 194 246 308 359
#     4  10  20  37  60  87 118 160 199 243 291 356
#     4   8  16  31  49  76 110 142 185 238 289 340
#     4  11  21  32  54  83 120 152 191 245 301 355
#     4  10  22  38  58  88 123 156 194 252 300 346
#
# _framework density 20.405563999999998
#
# number of rings (size 3 to 8) (size 9 to 14) (size 15 to 20)
#    0.000    2.000    1.250    4.875    1.750    5.750 
#    0.000    0.625    0.000    4.500    0.000    2.625 
#    0.000    0.000    0.000    0.000    0.000    0.000 
#
# Total GULP energy -793272.198534 kJ/mol
# GULP energy per Si atom -12394.878102 kJ/mol
# Density = 2.035912 g / cm^3
# Si number density = 20.405564 Si / 1000 Ang^3
#
#
#
# Elastic Constant Matrix: (Units=GPa)
#
#
# Indices 1 2 3 4 5 6 
#
# 1 95.6357 28.5111 23.3289 0.0000 0.0000 0.0000
# 2 28.5111 81.8087 14.1777 0.0000 0.0000 0.0000
# 3 23.3289 14.1777 78.0826 0.0000 0.0000 0.0000
# 4 0.0000 0.0000 0.0000 27.1333 0.0000 0.0000
# 5 0.0000 0.0000 0.0000 0.0000 29.6961 0.0000
# 6 0.0000 0.0000 0.0000 0.0000 0.0000 21.2615
#
#
#
# Elastic Compliance Matrix: (Units=1/GPa)
#
#
# Indices 1 2 3 4 5 6 
#
# 1 0.012311 -0.003772 -0.002993 0.000000 0.000000 0.000000
# 2 -0.003772 0.013776 -0.001375 0.000000 0.000000 0.000000
# 3 -0.002993 -0.001375 0.013951 0.000000 0.000000 0.000000
# 4 0.000000 0.000000 0.000000 0.036855 0.000000 0.000000
# 5 0.000000 0.000000 0.000000 0.000000 0.033675 0.000000
# 6 0.000000 0.000000 0.000000 0.000000 0.000000 0.047033
#
#
# Mechanical properties :
#
#
# Convention : Reuss Voigt Hill
#
# Bulk Modulus (GPa) = 42.08938 43.06251 42.57594
# Shear Modulus (GPa) = 27.50276 28.25212 27.87744
#
# Velocity S-wave (km/s) = 3.67523 3.72496 3.70018
# Velocity P-wave (km/s) = 6.21940 6.29679 6.25822
#
# Compressibility (1/GPa) = 0.02375896
#
# Stress axis : x y z
#
# Youngs Moduli (GPa) = 81.22840 72.58823 71.68025
#
# Poissons Ratio (x) = 0.27378 0.21456
# Poissons Ratio (y) = 0.30637 0.09853
# Poissons Ratio (z) = 0.24314 0.09977
#
# Static dielectric constant tensor:
#      x y z
#    x 3.746900 0.000000 0.000000 
#    y 0.000000 3.670470 0.000000 
#    z 0.000000 0.000000 3.671600 
# 
# 
# High freq. dielectric constant tensor:
#      x y z
#    x 1.779840 0.000000 0.000000 
#    y 0.000000 1.782480 0.000000 
#    z 0.000000 0.000000 1.800790 
# 
# From -- ./inp_files/18304.got.cif
#   From: 2010.03.12/outbox.cif.g09.slc.cpg/sg49_10_cif.got.tgz:18304.got - 2010.04.14 03:58:27.
