data_PCOD8203129
_publ_section_title
;
Structure prediction by ZEFSAII (Michael W. Deem and Ramdas Pophale) SiO2 
 PCOD8203129
Probable space group: P C C M
;
_chemical_formula_sum "Si O2"
_cell_formula_units_Z 52
_cell_length_a 27.500414
_cell_length_b 10.759513
_cell_length_c 9.072183
_cell_angle_alpha 90.000000
_cell_angle_beta 90.000000
_cell_angle_gamma 90.000000
_cell_volume 2684.377862
_symmetry_space_group_name_H-M "P C C M"
_symmetry_group_IT_number 49
_symmetry_cell_setting 'orthorhombic'
loop_
_space_group_symop_operation_xyz
x,y,z
-x,-y,z
x,-y,1/2-z
-x,y,1/2-z
-x,-y,-z
x,y,-z
-x,y,1/2+z
x,-y,1/2+z
loop_
_atom_site_type_symbol
_atom_site_label
_atom_site_fract_x
_atom_site_fract_y
_atom_site_fract_z
Si Si1 0.223574 0.371865 0.172967
Si Si2 0.455225 0.345624 0.158241
Si Si3 0.391861 0.874569 0.675932
Si Si4 0.111759 0.628652 0.329231
Si Si5 0.371271 0.500000 0.750000
Si Si6 0.052336 0.126128 0.177402
Si Si7 0.689881 0.267462 0.168437
O O1 0.237027 0.500000 0.250000
O O2 0.167684 0.338004 0.203742
O O3 0.258037 0.270180 0.249265
O O4 0.235170 0.381300 0.000000
O O5 0.500000 0.400846 0.250000
O O6 0.434209 0.219204 0.227288
O O7 0.408857 0.436663 0.136009
O O8 0.478183 0.319832 0.000000
O O9 0.386770 0.882586 0.500000
O O10 0.340348 0.835795 0.744710
O O11 0.409142 0.000000 0.750000
O O12 0.095571 0.500000 0.250000
O O13 0.102582 0.602956 0.500000
O O14 0.082284 0.750429 0.276748
O O15 0.337133 0.599566 0.830020
O O16 0.000000 0.144911 0.250000
O O17 0.075490 0.000000 0.250000
O O18 0.049393 0.111095 0.000000
O O19 0.697647 0.225849 0.000000
#
# Coordination Sequence:
#
# PCOD8203129 Si02
#       7
#     8   8   8   8   4   8   8
#     4  10  19  33  53  79 112 147 184 227 274 326
#     4  10  22  37  54  78 106 137 169 211 260 314
#     4  10  22  40  58  77 103 135 177 222 268 319
#     4   9  20  36  55  81 115 152 192 239 290 342
#     4  10  21  34  54  80 112 138 175 210 258 316
#     4  10  20  36  57  83 113 150 195 240 289 342
#     4  11  21  34  56  82 109 142 179 219 270 323
#
# _framework density 19.371341000000001
#
# number of rings (size 3 to 8) (size 9 to 14) (size 15 to 20)
#    0.000    2.000    0.769    3.000    0.000    8.000 
#    0.000    3.846    0.000    1.846    0.000    0.000 
#    0.000    0.000    0.000    0.000    0.000    0.000 
#
# Total GULP energy -644432.476256 kJ/mol
# GULP energy per Si atom -12392.932236 kJ/mol
# Density = 1.932725 g / cm^3
# Si number density = 19.371341 Si / 1000 Ang^3
#
#
#
# Elastic Constant Matrix: (Units=GPa)
#
#
# Indices 1 2 3 4 5 6 
#
# 1 87.5892 45.3509 39.1508 0.0000 0.0000 0.0000
# 2 45.3509 118.3861 38.2450 0.0000 0.0000 0.0000
# 3 39.1508 38.2450 106.0697 0.0000 0.0000 0.0000
# 4 0.0000 0.0000 0.0000 25.4856 0.0000 0.0000
# 5 0.0000 0.0000 0.0000 0.0000 22.5334 0.0000
# 6 0.0000 0.0000 0.0000 0.0000 0.0000 15.2540
#
#
#
# Elastic Compliance Matrix: (Units=1/GPa)
#
#
# Indices 1 2 3 4 5 6 
#
# 1 0.015671 -0.004680 -0.004097 0.000000 0.000000 0.000000
# 2 -0.004680 0.010958 -0.002224 0.000000 0.000000 0.000000
# 3 -0.004097 -0.002224 0.011742 0.000000 0.000000 0.000000
# 4 0.000000 0.000000 0.000000 0.039238 0.000000 0.000000
# 5 0.000000 0.000000 0.000000 0.000000 0.044379 0.000000
# 6 0.000000 0.000000 0.000000 0.000000 0.000000 0.065557
#
#
# Mechanical properties :
#
#
# Convention : Reuss Voigt Hill
#
# Bulk Modulus (GPa) = 61.08701 61.94870 61.51786
# Shear Modulus (GPa) = 23.25563 25.27448 24.26506
#
# Velocity S-wave (km/s) = 3.46861 3.61603 3.54309
# Velocity P-wave (km/s) = 6.90252 7.03443 6.96879
#
# Compressibility (1/GPa) = 0.01637009
#
# Stress axis : x y z
#
# Youngs Moduli (GPa) = 63.81128 91.25734 85.16594
#
# Poissons Ratio (x) = 0.42706 0.34892
# Poissons Ratio (y) = 0.29862 0.18939
# Poissons Ratio (z) = 0.26143 0.20294
#
# Static dielectric constant tensor:
#      x y z
#    x 3.543310 0.000000 0.000000 
#    y 0.000000 3.444500 0.000000 
#    z 0.000000 0.000000 3.589890 
# 
# 
# High freq. dielectric constant tensor:
#      x y z
#    x 1.749060 0.000000 0.000000 
#    y 0.000000 1.746560 0.000000 
#    z 0.000000 0.000000 1.760370 
# 
# From -- ./inp_files/6720.got.cif
#   From: 2010.03.12/outbox.cif.g09.slc.cpg/sg49_4_cif.got.tgz:6720.got - 2010.04.14 03:58:27.
