data_PCOD8203848
_publ_section_title
;
Structure prediction by ZEFSAII (Michael W. Deem and Ramdas Pophale) SiO2 
 PCOD8203848
Probable space group: P C C M
;
_chemical_formula_sum "Si O2"
_cell_formula_units_Z 58
_cell_length_a 21.464453
_cell_length_b 15.547061
_cell_length_c 8.935305
_cell_angle_alpha 90.000000
_cell_angle_beta 90.000000
_cell_angle_gamma 90.000000
_cell_volume 2981.793127
_symmetry_space_group_name_H-M "P C C M"
_symmetry_group_IT_number 49
_symmetry_cell_setting 'orthorhombic'
loop_
_space_group_symop_operation_xyz
x,y,z
-x,-y,z
x,-y,1/2-z
-x,y,1/2-z
-x,-y,-z
x,y,-z
-x,y,1/2+z
x,-y,1/2+z
loop_
_atom_site_type_symbol
_atom_site_label
_atom_site_fract_x
_atom_site_fract_y
_atom_site_fract_z
Si Si1 0.766558 0.087475 0.678159
Si Si2 0.309271 0.588074 0.175826
Si Si3 0.565330 0.088229 0.176124
Si Si4 0.674394 0.218710 0.824818
Si Si5 0.894358 0.116000 0.165507
Si Si6 0.831684 0.583415 0.675371
Si Si7 0.000000 0.000000 0.250000
Si Si8 0.938361 0.704064 0.324469
O O1 0.760246 0.082293 0.500000
O O2 0.731331 0.172847 0.737547
O O3 0.839507 0.088619 0.722085
O O4 0.737193 0.000000 0.750000
O O5 0.338108 0.500000 0.250000
O O6 0.338416 0.681163 0.224448
O O7 0.238418 0.598867 0.230991
O O8 0.316718 0.574362 0.000000
O O9 0.500000 0.114221 0.250000
O O10 0.611968 0.166080 0.210627
O O11 0.590745 0.000000 0.250000
O O12 0.556694 0.073143 0.000000
O O13 0.692028 0.217030 0.000000
O O14 0.927421 0.199883 0.231510
O O15 0.864885 0.131115 0.000000
O O16 0.952044 0.051595 0.145821
O O17 0.860791 0.500000 0.750000
O O18 0.832587 0.571946 0.500000
O O19 0.875612 0.658969 0.731471
O O20 0.947432 0.695345 0.500000
O O21 0.000000 0.664435 0.250000
#
# Coordination Sequence:
#
# PCOD8203848 Si02
#       8
#     8   8   8   8   8   8   2   8
#     4  12  25  38  56  82 113 147 187 234 286 342
#     4   9  18  35  58  82 110 142 182 230 281 338
#     4  10  20  35  58  87 121 162 201 237 278 328
#     4  10  21  38  60  86 119 156 192 235 288 336
#     4  11  23  39  57  77 105 137 179 227 278 337
#     4   9  18  33  53  73  98 130 166 209 264 323
#     4  12  22  36  64  78  96 136 184 224 278 332
#     4  10  21  36  52  72  97 129 164 210 268 326
#
# _framework density 19.451383
#
# number of rings (size 3 to 8) (size 9 to 14) (size 15 to 20)
#    0.000    1.793    1.379    3.517    0.000    6.897 
#    0.000    4.138    0.000    0.414    0.000    2.897 
#    0.000    0.000    0.000    0.000    0.000    0.000 
#
# Total GULP energy -718767.583082 kJ/mol
# GULP energy per Si atom -12392.544536 kJ/mol
# Density = 1.940711 g / cm^3
# Si number density = 19.451383 Si / 1000 Ang^3
#
#
#
# Elastic Constant Matrix: (Units=GPa)
#
#
# Indices 1 2 3 4 5 6 
#
# 1 83.9660 58.1204 35.4272 0.0000 0.0000 0.0000
# 2 58.1204 156.3449 45.9133 0.0000 0.0000 0.0000
# 3 35.4272 45.9133 75.6789 0.0000 0.0000 0.0000
# 4 0.0000 0.0000 0.0000 29.1948 0.0000 0.0000
# 5 0.0000 0.0000 0.0000 0.0000 20.9053 0.0000
# 6 0.0000 0.0000 0.0000 0.0000 0.0000 -335.6632
#
#
#
# Elastic Compliance Matrix: (Units=1/GPa)
#
#
# Indices 1 2 3 4 5 6 
#
# 1 0.017562 -0.005006 -0.005184 0.000000 0.000000 0.000000
# 2 -0.005006 0.009210 -0.003244 0.000000 0.000000 0.000000
# 3 -0.005184 -0.003244 0.017609 0.000000 0.000000 0.000000
# 4 0.000000 0.000000 0.000000 0.034253 0.000000 0.000000
# 5 0.000000 0.000000 0.000000 0.000000 0.047835 0.000000
# 6 0.000000 0.000000 0.000000 0.000000 0.000000 -0.002979
#
#
# Mechanical properties :
#
#
# Convention : Reuss Voigt Hill
#
# Bulk Modulus (GPa) = 57.10351 66.10128 61.60239
# Shear Modulus (GPa) = 32.01137 -45.34404 -6.66634
#
# Velocity S-wave (km/s) = 4.06114 -4.83343 -1.85327
# Velocity P-wave (km/s) = 7.17016 1.70504 5.21145
#
# Compressibility (1/GPa) = 0.01751206
#
# Stress axis : x y z
#
# Youngs Moduli (GPa) = 56.94073 108.58017 56.79062
#
# Poissons Ratio (x) = 0.54358 0.29441
# Poissons Ratio (y) = 0.28506 0.18422
# Poissons Ratio (z) = 0.29518 0.35222
#
# Static dielectric constant tensor:
#      x y z
#    x 3.415550 0.000000 0.000000 
#    y 0.000000 3.809470 0.000000 
#    z 0.000000 0.000000 3.397900 
# 
# 
# High freq. dielectric constant tensor:
#      x y z
#    x 1.738110 0.000000 0.000000 
#    y 0.000000 1.767270 0.000000 
#    z 0.000000 0.000000 1.748820 
# 
# From -- ./inp_files/6441.got.cif
#   From: 2010.03.12/outbox.cif.g09.slc.cpg/sg49_4_cif.got.tgz:6441.got - 2010.04.14 03:58:27.
