data_PCOD8203995
_publ_section_title
;
Structure prediction by ZEFSAII (Michael W. Deem and Ramdas Pophale) SiO2 
 PCOD8203995
Probable space group: P C C M
;
_chemical_formula_sum "Si O2"
_cell_formula_units_Z 48
_cell_length_a 10.897038
_cell_length_b 8.445189
_cell_length_c 23.456320
_cell_angle_alpha 90.000000
_cell_angle_beta 90.000000
_cell_angle_gamma 90.000000
_cell_volume 2158.627555
_symmetry_space_group_name_H-M "P C C M"
_symmetry_group_IT_number 49
_symmetry_cell_setting 'orthorhombic'
loop_
_space_group_symop_operation_xyz
x,y,z
-x,-y,z
x,-y,1/2-z
-x,y,1/2-z
-x,-y,-z
x,y,-z
-x,y,1/2+z
x,-y,1/2+z
loop_
_atom_site_type_symbol
_atom_site_label
_atom_site_fract_x
_atom_site_fract_y
_atom_site_fract_z
Si Si1 0.900995 0.702181 0.166740
Si Si2 0.676784 0.644048 0.565326
Si Si3 0.247312 0.707956 0.562701
Si Si4 0.691723 0.824574 0.232922
Si Si5 0.540500 0.822093 0.871981
Si Si6 0.826167 0.650920 0.328426
O O1 0.878867 0.704776 0.098643
O O2 0.820604 0.834060 0.198646
O O3 0.846760 0.532710 0.187348
O O4 0.042311 0.734014 0.182110
O O5 0.688834 0.710276 0.500000
O O6 0.673517 0.454134 0.563503
O O7 0.556993 0.709446 0.597223
O O8 0.792865 0.686615 0.605463
O O9 0.205506 0.756238 0.500000
O O10 0.339923 0.837299 0.587943
O O11 0.584229 0.755709 0.190780
O O12 0.715397 0.718930 0.289371
O O13 0.652310 0.000000 0.250000
O O14 0.500000 0.000000 0.863286
#
# Coordination Sequence:
#
# PCOD8203995 Si02
#       6
#     8   8   8   8   8   8
#     4   9  20  37  59  87 116 148 184 227 277 331
#     4  10  21  37  59  87 117 149 185 227 277 333
#     4   9  19  37  60  85 114 149 187 227 274 330
#     4  11  23  38  57  80 110 149 191 236 283 331
#     4  11  23  38  56  80 111 148 191 237 283 329
#     4  10  20  37  60  86 117 149 184 226 277 335
#
# _framework density 22.236352
#
# number of rings (size 3 to 8) (size 9 to 14) (size 15 to 20)
#    0.000    2.000    0.000    3.000    0.000    8.333 
#    0.000    5.000    0.000   12.000    0.000    7.000 
#    0.000    0.000    0.000    0.000    0.000    0.000 
#
# Total GULP energy -594697.265601 kJ/mol
# GULP energy per Si atom -12389.526367 kJ/mol
# Density = 2.218574 g / cm^3
# Si number density = 22.236352 Si / 1000 Ang^3
#
#
#
# Elastic Constant Matrix: (Units=GPa)
#
#
# Indices 1 2 3 4 5 6 
#
# 1 59.8035 20.2273 34.0924 0.0000 0.0000 0.0000
# 2 20.2273 29.3414 26.5133 0.0000 0.0000 0.0000
# 3 34.0924 26.5133 170.6720 0.0000 0.0000 0.0000
# 4 0.0000 0.0000 0.0000 26.3469 0.0000 0.0000
# 5 0.0000 0.0000 0.0000 0.0000 29.6267 0.0000
# 6 0.0000 0.0000 0.0000 0.0000 0.0000 26.0957
#
#
#
# Elastic Compliance Matrix: (Units=1/GPa)
#
#
# Indices 1 2 3 4 5 6 
#
# 1 0.022648 -0.013407 -0.002441 0.000000 0.000000 0.000000
# 2 -0.013407 0.047583 -0.004714 0.000000 0.000000 0.000000
# 3 -0.002441 -0.004714 0.007079 0.000000 0.000000 0.000000
# 4 0.000000 0.000000 0.000000 0.037955 0.000000 0.000000
# 5 0.000000 0.000000 0.000000 0.000000 0.033753 0.000000
# 6 0.000000 0.000000 0.000000 0.000000 0.000000 0.038320
#
#
# Mechanical properties :
#
#
# Convention : Reuss Voigt Hill
#
# Bulk Modulus (GPa) = 27.63477 46.83142 37.23310
# Shear Modulus (GPa) = 20.78786 28.34612 24.56699
#
# Velocity S-wave (km/s) = 3.06086 3.57426 3.32748
# Velocity P-wave (km/s) = 4.99465 6.17578 5.61635
#
# Compressibility (1/GPa) = 0.03618630
#
# Stress axis : x y z
#
# Youngs Moduli (GPa) = 44.15457 21.01578 141.26047
#
# Poissons Ratio (x) = 0.28175 0.34485
# Poissons Ratio (y) = 0.59197 0.66588
# Poissons Ratio (z) = 0.10779 0.09906
#
# Static dielectric constant tensor:
#      x y z
#    x 3.930650 0.000000 0.000000 
#    y 0.000000 3.642860 0.000000 
#    z 0.000000 0.000000 4.411760 
# 
# 
# High freq. dielectric constant tensor:
#      x y z
#    x 1.870580 0.000000 0.000000 
#    y 0.000000 1.837180 0.000000 
#    z 0.000000 0.000000 1.897670 
# 
# From -- ./inp_files/22857.got.cif
#   From: 2010.03.12/outbox.cif.g09.slc.cpg/sg49_12_cif.got.tgz:22857.got - 2010.04.14 03:58:27.
