data_PCOD8203731
_publ_section_title
;
Structure prediction by ZEFSAII (Michael W. Deem and Ramdas Pophale) SiO2 
 PCOD8203731
Probable space group: P C C M
;
_chemical_formula_sum "Si O2"
_cell_formula_units_Z 64
_cell_length_a 16.241004
_cell_length_b 22.754458
_cell_length_c 8.545474
_cell_angle_alpha 90.000000
_cell_angle_beta 90.000000
_cell_angle_gamma 90.000000
_cell_volume 3158.024724
_symmetry_space_group_name_H-M "P C C M"
_symmetry_group_IT_number 49
_symmetry_cell_setting 'orthorhombic'
loop_
_space_group_symop_operation_xyz
x,y,z
-x,-y,z
x,-y,1/2-z
-x,y,1/2-z
-x,-y,-z
x,y,-z
-x,y,1/2+z
x,-y,1/2+z
loop_
_atom_site_type_symbol
_atom_site_label
_atom_site_fract_x
_atom_site_fract_y
_atom_site_fract_z
Si Si1 0.887827 0.777306 0.674699
Si Si2 0.588633 0.593910 0.686238
Si Si3 0.082342 0.102367 0.181265
Si Si4 0.705221 0.182878 0.174806
Si Si5 0.766764 0.561605 0.813853
Si Si6 0.247407 0.060573 0.683922
Si Si7 0.583452 0.273815 0.185668
Si Si8 0.912075 0.356211 0.186094
O O1 0.924649 0.786670 0.500000
O O2 0.922165 0.827127 0.790402
O O3 0.791090 0.784592 0.668250
O O4 0.908111 0.712234 0.738210
O O5 0.500000 0.568185 0.750000
O O6 0.588249 0.587086 0.500000
O O7 0.671855 0.564989 0.753169
O O8 0.596504 0.660531 0.747901
O O9 0.152331 0.068039 0.274719
O O10 0.000000 0.073737 0.250000
O O11 0.093728 0.089155 0.000000
O O12 0.707059 0.118311 0.256499
O O13 0.648017 0.229091 0.264638
O O14 0.671138 0.173053 0.000000
O O15 0.802181 0.500000 0.750000
O O16 0.831088 0.611156 0.754244
O O17 0.765593 0.563031 0.000000
O O18 0.257194 0.060116 0.500000
O O19 0.284772 0.000000 0.750000
O O20 0.500000 0.247436 0.250000
O O21 0.588501 0.274834 0.000000
O O22 0.000000 0.381617 0.250000
O O23 0.909038 0.362852 0.000000
#
# Coordination Sequence:
#
# PCOD8203731 Si02
#       8
#     8   8   8   8   8   8   8   8
#     4   9  18  34  56  81 109 141 178 222 274 330
#     4  10  20  37  62  93 126 157 189 229 283 347
#     4  11  21  33  50  74 104 136 171 213 263 319
#     4   8  15  30  52  75 103 140 175 213 265 321
#     4  12  26  44  64  87 116 153 199 246 292 344
#     4  10  20  35  52  71  96 131 177 223 269 319
#     4   9  17  31  53  82 114 144 173 210 261 321
#     4  11  23  40  62  88 118 154 196 243 295 347
#
# _framework density 20.265832
#
# number of rings (size 3 to 8) (size 9 to 14) (size 15 to 20)
#    0.000    2.000    0.000    5.250    0.000    5.250 
#    0.000    6.875    0.000    0.375    0.000    2.625 
#    0.000    0.000    0.000    0.000    0.000    0.000 
#
# Total GULP energy -792937.539388 kJ/mol
# GULP energy per Si atom -12389.649053 kJ/mol
# Density = 2.021971 g / cm^3
# Si number density = 20.265832 Si / 1000 Ang^3
#
#
#
# Elastic Constant Matrix: (Units=GPa)
#
#
# Indices 1 2 3 4 5 6 
#
# 1 71.2988 26.2972 21.9453 0.0000 0.0000 0.0000
# 2 26.2972 86.7002 20.7054 0.0000 0.0000 0.0000
# 3 21.9453 20.7054 79.2557 0.0000 0.0000 0.0000
# 4 0.0000 0.0000 0.0000 25.1037 0.0000 0.0000
# 5 0.0000 0.0000 0.0000 0.0000 29.0754 0.0000
# 6 0.0000 0.0000 0.0000 0.0000 0.0000 10.4693
#
#
#
# Elastic Compliance Matrix: (Units=1/GPa)
#
#
# Indices 1 2 3 4 5 6 
#
# 1 0.016661 -0.004215 -0.003512 0.000000 0.000000 0.000000
# 2 -0.004215 0.013368 -0.002325 0.000000 0.000000 0.000000
# 3 -0.003512 -0.002325 0.014197 0.000000 0.000000 0.000000
# 4 0.000000 0.000000 0.000000 0.039835 0.000000 0.000000
# 5 0.000000 0.000000 0.000000 0.000000 0.034393 0.000000
# 6 0.000000 0.000000 0.000000 0.000000 0.000000 0.095517
#
#
# Mechanical properties :
#
#
# Convention : Reuss Voigt Hill
#
# Bulk Modulus (GPa) = 41.45648 41.68339 41.56993
# Shear Modulus (GPa) = 20.65122 24.15013 22.40067
#
# Velocity S-wave (km/s) = 3.19567 3.45580 3.32828
# Velocity P-wave (km/s) = 5.84099 6.04453 5.94363
#
# Compressibility (1/GPa) = 0.02412168
#
# Stress axis : x y z
#
# Youngs Moduli (GPa) = 60.02027 74.80727 70.43554
#
# Poissons Ratio (x) = 0.31529 0.24739
# Poissons Ratio (y) = 0.25297 0.16378
# Poissons Ratio (z) = 0.21081 0.17395
#
# Static dielectric constant tensor:
#      x y z
#    x 3.817750 0.000000 0.000000 
#    y 0.000000 4.021460 0.000000 
#    z 0.000000 0.000000 3.573300 
# 
# 
# High freq. dielectric constant tensor:
#      x y z
#    x 1.784770 0.000000 0.000000 
#    y 0.000000 1.796390 0.000000 
#    z 0.000000 0.000000 1.779440 
# 
# From -- ./inp_files/4346.got.cif
#   From: 2010.03.12/outbox.cif.g09.slc.cpg/sg49_3_cif.got.tgz:4346.got - 2010.04.14 03:58:27.
