data_PCOD8203030
_publ_section_title
;
Structure prediction by ZEFSAII (Michael W. Deem and Ramdas Pophale) SiO2 
 PCOD8203030
Probable space group: P C C M
;
_chemical_formula_sum "Si O2"
_cell_formula_units_Z 56
_cell_length_a 20.147189
_cell_length_b 15.363346
_cell_length_c 8.830654
_cell_angle_alpha 90.000000
_cell_angle_beta 90.000000
_cell_angle_gamma 90.000000
_cell_volume 2733.336751
_symmetry_space_group_name_H-M "P C C M"
_symmetry_group_IT_number 49
_symmetry_cell_setting 'orthorhombic'
loop_
_space_group_symop_operation_xyz
x,y,z
-x,-y,z
x,-y,1/2-z
-x,y,1/2-z
-x,-y,-z
x,y,-z
-x,y,1/2+z
x,-y,1/2+z
loop_
_atom_site_type_symbol
_atom_site_label
_atom_site_fract_x
_atom_site_fract_y
_atom_site_fract_z
Si Si1 0.322601 0.910318 0.679476
Si Si2 0.107660 0.416706 0.177488
Si Si3 0.932527 0.775560 0.822606
Si Si4 0.378978 0.412909 0.178460
Si Si5 0.202190 0.823432 0.824978
Si Si6 0.431500 0.770984 0.679024
Si Si7 0.757321 0.627966 0.674791
O O1 0.319554 0.917470 0.500000
O O2 0.248804 0.893022 0.742230
O O3 0.372774 0.834643 0.733128
O O4 0.349276 0.000000 0.750000
O O5 0.068636 0.500000 0.250000
O O6 0.069560 0.327503 0.213776
O O7 0.177603 0.417578 0.262627
O O8 0.117952 0.429041 0.000000
O O9 0.870486 0.825295 0.749525
O O10 0.000000 0.812885 0.750000
O O11 0.931963 0.794175 0.000000
O O12 0.411694 0.500000 0.250000
O O13 0.416745 0.326864 0.238158
O O14 0.302728 0.407737 0.226599
O O15 0.383666 0.419791 0.000000
O O16 0.236905 0.730906 0.802254
O O17 0.194588 0.848527 0.000000
O O18 0.500000 0.804315 0.750000
O O19 0.437781 0.772965 0.500000
O O20 0.746499 0.603116 0.500000
#
# Coordination Sequence:
#
# PCOD8203030 Si02
#       7
#     8   8   8   8   8   8   8
#     4  11  23  42  67  98 128 159 199 247 303 365
#     4  10  20  32  47  70 105 148 195 250 306 358
#     4  10  21  36  55  80 113 156 201 249 302 363
#     4  11  22  37  56  83 117 159 206 254 304 357
#     4  10  20  36  61  90 119 155 198 247 301 359
#     4  10  24  43  64  88 124 165 204 251 305 362
#     4  10  19  32  53  80 110 149 196 248 302 357
#
# _framework density 20.487780000000001
#
# number of rings (size 3 to 8) (size 9 to 14) (size 15 to 20)
#    0.000    1.714    1.429    3.000    0.000    6.000 
#    0.000    4.286    0.000    0.429    0.000    3.000 
#    0.000    0.000    0.000    0.000    0.000    0.000 
#
# Total GULP energy -694541.558588 kJ/mol
# GULP energy per Si atom -12402.527832 kJ/mol
# Density = 2.044115 g / cm^3
# Si number density = 20.487780 Si / 1000 Ang^3
#
#
#
# Elastic Constant Matrix: (Units=GPa)
#
#
# Indices 1 2 3 4 5 6 
#
# 1 117.4557 45.9799 44.6642 0.0000 0.0000 0.0000
# 2 45.9799 101.5721 45.8591 0.0000 0.0000 0.0000
# 3 44.6642 45.8591 87.1262 0.0000 0.0000 0.0000
# 4 0.0000 0.0000 0.0000 32.3693 0.0000 0.0000
# 5 0.0000 0.0000 0.0000 0.0000 32.9563 0.0000
# 6 0.0000 0.0000 0.0000 0.0000 0.0000 7.9577
#
#
#
# Elastic Compliance Matrix: (Units=1/GPa)
#
#
# Indices 1 2 3 4 5 6 
#
# 1 0.011359 -0.003296 -0.004088 0.000000 0.000000 0.000000
# 2 -0.003296 0.013871 -0.005611 0.000000 0.000000 0.000000
# 3 -0.004088 -0.005611 0.016527 0.000000 0.000000 0.000000
# 4 0.000000 0.000000 0.000000 0.030893 0.000000 0.000000
# 5 0.000000 0.000000 0.000000 0.000000 0.030343 0.000000
# 6 0.000000 0.000000 0.000000 0.000000 0.000000 0.125665
#
#
# Mechanical properties :
#
#
# Convention : Reuss Voigt Hill
#
# Bulk Modulus (GPa) = 63.42940 64.35114 63.89027
# Shear Modulus (GPa) = 19.23789 25.96672 22.60231
#
# Velocity S-wave (km/s) = 3.06762 3.56395 3.32506
# Velocity P-wave (km/s) = 6.60106 6.95797 6.78186
#
# Compressibility (1/GPa) = 0.01576556
#
# Stress axis : x y z
#
# Youngs Moduli (GPa) = 88.03834 72.09413 60.50824
#
# Poissons Ratio (x) = 0.23764 0.24735
# Poissons Ratio (y) = 0.29019 0.33952
# Poissons Ratio (z) = 0.35989 0.40453
#
# Static dielectric constant tensor:
#      x y z
#    x 3.584320 0.000000 0.000000 
#    y 0.000000 3.476810 0.000000 
#    z 0.000000 0.000000 3.684740 
# 
# 
# High freq. dielectric constant tensor:
#      x y z
#    x 1.794970 0.000000 0.000000 
#    y 0.000000 1.790880 0.000000 
#    z 0.000000 0.000000 1.808190 
# 
# From -- ./inp_files/5810.got.cif
#   From: 2010.03.12/outbox.cif.g09.slc.cpg/sg49_3_cif.got.tgz:5810.got - 2010.04.14 03:58:27.
