data_PCOD8203937
_publ_section_title
;
Structure prediction by ZEFSAII (Michael W. Deem and Ramdas Pophale) SiO2 
 PCOD8203937
Probable space group: P C C M
;
_chemical_formula_sum "Si O2"
_cell_formula_units_Z 48
_cell_length_a 9.058890
_cell_length_b 10.412816
_cell_length_c 26.001353
_cell_angle_alpha 90.000000
_cell_angle_beta 90.000000
_cell_angle_gamma 90.000000
_cell_volume 2452.670050
_symmetry_space_group_name_H-M "P C C M"
_symmetry_group_IT_number 49
_symmetry_cell_setting 'orthorhombic'
loop_
_space_group_symop_operation_xyz
x,y,z
-x,-y,z
x,-y,1/2-z
-x,y,1/2-z
-x,-y,-z
x,y,-z
-x,y,1/2+z
x,-y,1/2+z
loop_
_atom_site_type_symbol
_atom_site_label
_atom_site_fract_x
_atom_site_fract_y
_atom_site_fract_z
Si Si1 0.904175 0.125418 0.560346
Si Si2 0.164470 0.150982 0.245603
Si Si3 0.586475 0.285259 0.802515
Si Si4 0.695682 0.229381 0.359824
Si Si5 0.910483 0.626765 0.440522
Si Si6 0.659294 0.515070 0.619946
O O1 0.861673 0.127020 0.500000
O O2 0.751824 0.136005 0.593592
O O3 0.003155 0.246605 0.576907
O O4 0.000000 0.000000 0.574461
O O5 0.268587 0.200971 0.291741
O O6 0.214003 0.194547 0.190103
O O7 0.000000 0.206938 0.250000
O O8 0.166734 0.000000 0.250000
O O9 0.500000 0.307657 0.750000
O O10 0.479427 0.216527 0.845519
O O11 0.635205 0.424268 0.823416
O O12 0.734478 0.376048 0.375125
O O13 0.873301 0.634800 0.500000
O O14 0.754926 0.617015 0.411823
O O15 0.000000 0.500000 0.426338
O O16 0.500000 0.500000 0.592092
#
# Coordination Sequence:
#
# PCOD8203937 Si02
#       6
#     8   8   8   8   8   8
#     4  10  22  39  63  93 125 162 207 261 316 369
#     4  10  23  38  57  87 120 160 209 251 298 367
#     4   9  21  39  57  83 123 162 200 250 310 363
#     4  10  21  37  59  86 118 161 200 252 308 362
#     4  10  20  36  60  88 120 155 199 256 307 364
#     4  10  21  36  59  88 119 160 203 253 310 373
#
# _framework density 19.570509999999999
#
# number of rings (size 3 to 8) (size 9 to 14) (size 15 to 20)
#    0.000    2.167    1.667    0.000    4.667   11.000 
#    0.000    5.000    0.000    0.000    0.000   16.333 
#    0.000    0.000    0.000    0.000    0.000    0.000 
#
# Total GULP energy -594930.423098 kJ/mol
# GULP energy per Si atom -12394.383815 kJ/mol
# Density = 1.952597 g / cm^3
# Si number density = 19.570510 Si / 1000 Ang^3
#
#
#
# Elastic Constant Matrix: (Units=GPa)
#
#
# Indices 1 2 3 4 5 6 
#
# 1 96.7759 26.1852 82.0800 0.0000 0.0000 0.0000
# 2 26.1852 85.8244 51.1381 0.0000 0.0000 0.0000
# 3 82.0800 51.1381 56.6331 0.0000 0.0000 0.0000
# 4 0.0000 0.0000 0.0000 23.8934 0.0000 0.0000
# 5 0.0000 0.0000 0.0000 0.0000 37.1069 0.0000
# 6 0.0000 0.0000 0.0000 0.0000 0.0000 36.0005
#
#
#
# Elastic Compliance Matrix: (Units=1/GPa)
#
#
# Indices 1 2 3 4 5 6 
#
# 1 -0.012480 -0.015087 0.031711 0.000000 0.000000 0.000000
# 2 -0.015087 0.006983 0.015560 0.000000 0.000000 0.000000
# 3 0.031711 0.015560 -0.042352 0.000000 0.000000 0.000000
# 4 0.000000 0.000000 0.000000 0.041853 0.000000 0.000000
# 5 0.000000 0.000000 0.000000 0.000000 0.026949 0.000000
# 6 0.000000 0.000000 0.000000 0.000000 0.000000 0.027777
#
#
# Mechanical properties :
#
#
# Convention : Reuss Voigt Hill
#
# Bulk Modulus (GPa) = 60.53591 62.00444 61.27018
# Shear Modulus (GPa) = -493.50432 24.72215 -234.39108
#
# Velocity S-wave (km/s) = -15.89700 3.55806 -10.95571
# Velocity P-wave (km/s) = 17.49153 6.97360 11.34290
#
# Compressibility (1/GPa) = 0.01651912
#
# Stress axis : x y z
#
# Youngs Moduli (GPa) = -80.12898 143.20220 -23.61148
#
# Poissons Ratio (x) = 2.16049 0.74873
# Poissons Ratio (y) = -1.20891 0.36741
# Poissons Ratio (z) = 2.54094 -2.22829
#
# Static dielectric constant tensor:
#      x y z
#    x 3.894630 0.000000 0.000000 
#    y 0.000000 3.509500 0.000000 
#    z 0.000000 0.000000 3.084230 
# 
# 
# High freq. dielectric constant tensor:
#      x y z
#    x 1.765200 0.000000 0.000000 
#    y 0.000000 1.759840 0.000000 
#    z 0.000000 0.000000 1.755780 
# 
# From -- ./inp_files/22397.got.cif
#   From: 2010.03.12/outbox.cif.g09.slc.cpg/sg49_12_cif.got.tgz:22397.got - 2010.04.14 03:58:27.
