data_PCOD8203993
_publ_section_title
;
Structure prediction by ZEFSAII (Michael W. Deem and Ramdas Pophale) SiO2 
 PCOD8203993
Probable space group: P C C M
;
_chemical_formula_sum "Si O2"
_cell_formula_units_Z 64
_cell_length_a 11.845371
_cell_length_b 14.985895
_cell_length_c 18.475250
_cell_angle_alpha 90.000000
_cell_angle_beta 90.000000
_cell_angle_gamma 90.000000
_cell_volume 3279.606033
_symmetry_space_group_name_H-M "P C C M"
_symmetry_group_IT_number 49
_symmetry_cell_setting 'orthorhombic'
loop_
_space_group_symop_operation_xyz
x,y,z
-x,-y,z
x,-y,1/2-z
-x,y,1/2-z
-x,-y,-z
x,y,-z
-x,y,1/2+z
x,-y,1/2+z
loop_
_atom_site_type_symbol
_atom_site_label
_atom_site_fract_x
_atom_site_fract_y
_atom_site_fract_z
Si Si1 0.984855 0.396156 0.585464
Si Si2 0.583983 0.760735 0.085402
Si Si3 0.828902 0.754286 0.153007
Si Si4 0.769907 0.183523 0.813252
Si Si5 0.995289 0.900406 0.336194
Si Si6 0.231431 0.669796 0.081304
Si Si7 0.458481 0.899511 0.824081
Si Si8 0.457484 0.410462 0.583070
O O1 0.953936 0.388246 0.500000
O O2 0.892919 0.340004 0.633235
O O3 0.000000 0.500000 0.607976
O O4 0.106455 0.356584 0.604315
O O5 0.713475 0.760587 0.109708
O O6 0.514401 0.847188 0.109960
O O7 0.519890 0.674537 0.118574
O O8 0.580824 0.762026 0.000000
O O9 0.802312 0.767587 0.238005
O O10 0.906979 0.838328 0.129714
O O11 0.876671 0.143704 0.855481
O O12 0.717618 0.257494 0.865224
O O13 0.677277 0.104784 0.813704
O O14 0.000000 0.906097 0.250000
O O15 0.000000 0.000000 0.369736
O O16 0.321062 0.589228 0.088521
O O17 0.232816 0.707674 0.000000
O O18 0.500000 0.854331 0.750000
O O19 0.500000 0.000000 0.831581
O O20 0.500000 0.500000 0.623014
O O21 0.497093 0.412191 0.500000
#
# Coordination Sequence:
#
# PCOD8203993 Si02
#       8
#     8   8   8   8   8   8   8   8
#     4  10  22  39  62  90 124 167 211 253 308 378
#     4  11  23  39  61  90 123 159 201 257 313 368
#     4  11  22  38  61  89 125 159 199 255 309 367
#     4  11  21  39  64  87 120 157 203 253 308 367
#     4   9  20  35  60  87 114 156 204 246 296 363
#     4  10  20  37  60  85 118 158 205 255 303 364
#     4  11  24  40  63  90 119 160 207 252 310 378
#     4   9  19  35  59  86 113 151 200 248 300 361
#
# _framework density 19.514538000000002
#
# number of rings (size 3 to 8) (size 9 to 14) (size 15 to 20)
#    0.000    1.750    3.750    0.375    3.500    1.250 
#    0.000    1.250    0.000    4.500    0.000    0.000 
#    0.000    0.000    0.000    0.000    0.000    0.000 
#
# Total GULP energy -792996.879206 kJ/mol
# GULP energy per Si atom -12390.576238 kJ/mol
# Density = 1.947012 g / cm^3
# Si number density = 19.514538 Si / 1000 Ang^3
#
#
#
# Elastic Constant Matrix: (Units=GPa)
#
#
# Indices 1 2 3 4 5 6 
#
# 1 143.1742 52.5667 39.3621 0.0000 0.0000 0.0000
# 2 52.5667 130.6025 44.5850 0.0000 0.0000 0.0000
# 3 39.3621 44.5850 58.4282 0.0000 0.0000 0.0000
# 4 0.0000 0.0000 0.0000 19.3829 0.0000 0.0000
# 5 0.0000 0.0000 0.0000 0.0000 26.5787 0.0000
# 6 0.0000 0.0000 0.0000 0.0000 0.0000 28.6352
#
#
#
# Elastic Compliance Matrix: (Units=1/GPa)
#
#
# Indices 1 2 3 4 5 6 
#
# 1 0.008977 -0.002094 -0.004449 0.000000 0.000000 0.000000
# 2 -0.002094 0.010843 -0.006863 0.000000 0.000000 0.000000
# 3 -0.004449 -0.006863 0.025349 0.000000 0.000000 0.000000
# 4 0.000000 0.000000 0.000000 0.051592 0.000000 0.000000
# 5 0.000000 0.000000 0.000000 0.000000 0.037624 0.000000
# 6 0.000000 0.000000 0.000000 0.000000 0.000000 0.034922
#
#
# Mechanical properties :
#
#
# Convention : Reuss Voigt Hill
#
# Bulk Modulus (GPa) = 54.47893 67.24804 60.86349
# Shear Modulus (GPa) = 24.72333 27.96543 26.34438
#
# Velocity S-wave (km/s) = 3.56324 3.78968 3.67820
# Velocity P-wave (km/s) = 6.70124 7.32695 7.02107
#
# Compressibility (1/GPa) = 0.01835572
#
# Stress axis : x y z
#
# Youngs Moduli (GPa) = 111.40069 92.22944 39.44860
#
# Poissons Ratio (x) = 0.19314 0.17552
# Poissons Ratio (y) = 0.23328 0.27073
# Poissons Ratio (z) = 0.49567 0.63296
#
# Static dielectric constant tensor:
#      x y z
#    x 3.783530 0.000000 0.000000 
#    y 0.000000 3.793520 0.000000 
#    z 0.000000 0.000000 3.359630 
# 
# 
# High freq. dielectric constant tensor:
#      x y z
#    x 1.782190 0.000000 0.000000 
#    y 0.000000 1.760590 0.000000 
#    z 0.000000 0.000000 1.730140 
# 
# From -- ./inp_files/17353.got.cif
#   From: 2010.03.12/outbox.cif.g09.slc.cpg/sg49_9_cif.got.tgz:17353.got - 2010.04.14 03:58:27.
