data_PCOD8203408
_publ_section_title
;
Structure prediction by ZEFSAII (Michael W. Deem and Ramdas Pophale) SiO2 
 PCOD8203408
Probable space group: P C C M
;
_chemical_formula_sum "Si O2"
_cell_formula_units_Z 56
_cell_length_a 30.430113
_cell_length_b 5.128614
_cell_length_c 16.169369
_cell_angle_alpha 90.000000
_cell_angle_beta 90.000000
_cell_angle_gamma 90.000000
_cell_volume 2523.461312
_symmetry_space_group_name_H-M "P C C M"
_symmetry_group_IT_number 49
_symmetry_cell_setting 'orthorhombic'
loop_
_space_group_symop_operation_xyz
x,y,z
-x,-y,z
x,-y,1/2-z
-x,y,1/2-z
-x,-y,-z
x,y,-z
-x,y,1/2+z
x,-y,1/2+z
loop_
_atom_site_type_symbol
_atom_site_label
_atom_site_fract_x
_atom_site_fract_y
_atom_site_fract_z
Si Si1 0.252155 0.448153 0.096502
Si Si2 0.402913 0.973475 0.596959
Si Si3 0.157054 0.571129 0.656620
Si Si4 0.451200 0.468770 0.346790
Si Si5 0.693717 0.063912 0.096033
Si Si6 0.019733 0.753512 0.157133
Si Si7 0.888898 0.904108 0.405098
O O1 0.208569 0.375827 0.147234
O O2 0.276335 0.704323 0.134142
O O3 0.284514 0.211589 0.112289
O O4 0.240049 0.481039 0.000000
O O5 0.400671 0.010819 0.500000
O O6 0.437320 0.174220 0.634657
O O7 0.354964 0.041500 0.635505
O O8 0.417394 0.677637 0.615409
O O9 0.144814 0.500000 0.750000
O O10 0.147833 0.320493 0.598681
O O11 0.128761 0.823969 0.630915
O O12 0.500000 0.500000 0.384937
O O13 0.452672 0.500000 0.250000
O O14 0.689312 0.130553 0.000000
O O15 0.072128 0.782559 0.151806
O O16 0.000000 0.500000 0.111303
O O17 0.000000 0.751302 0.250000
O O18 0.000000 0.000000 0.108480
O O19 0.903488 0.946342 0.500000
#
# Coordination Sequence:
#
# PCOD8203408 Si02
#       7
#     8   8   8   8   8   8   8
#     4  10  19  38  63  89 124 167 212 255 315 385
#     4  11  22  39  64  95 122 157 218 271 323 385
#     4  12  27  43  68  99 136 175 216 269 327 383
#     4  11  24  41  59  84 126 172 213 260 328 398
#     4   9  19  35  61  90 122 162 204 263 324 384
#     4  10  23  40  67  96 132 170 213 258 320 376
#     4  12  26  45  70 101 134 174 224 269 317 384
#
# _framework density 22.191742000000001
#
# number of rings (size 3 to 8) (size 9 to 14) (size 15 to 20)
#    0.000    1.286    0.000    5.571    6.000    6.857 
#    0.000    4.286    0.000    0.000    0.000    0.000 
#    0.000    0.000    0.000    0.000    0.000    0.000 
#
# Total GULP energy -694290.411879 kJ/mol
# GULP energy per Si atom -12398.043069 kJ/mol
# Density = 2.214123 g / cm^3
# Si number density = 22.191742 Si / 1000 Ang^3
#
#
#
# Elastic Constant Matrix: (Units=GPa)
#
#
# Indices 1 2 3 4 5 6 
#
# 1 132.7299 35.6991 37.4471 0.0000 0.0000 0.0000
# 2 35.6991 149.5425 23.8653 0.0000 0.0000 0.0000
# 3 37.4471 23.8653 69.9258 0.0000 0.0000 0.0000
# 4 0.0000 0.0000 0.0000 22.8262 0.0000 0.0000
# 5 0.0000 0.0000 0.0000 0.0000 43.9813 0.0000
# 6 0.0000 0.0000 0.0000 0.0000 0.0000 42.8839
#
#
#
# Elastic Compliance Matrix: (Units=1/GPa)
#
#
# Indices 1 2 3 4 5 6 
#
# 1 0.009178 -0.001488 -0.004407 0.000000 0.000000 0.000000
# 2 -0.001488 0.007313 -0.001699 0.000000 0.000000 0.000000
# 3 -0.004407 -0.001699 0.017241 0.000000 0.000000 0.000000
# 4 0.000000 0.000000 0.000000 0.043809 0.000000 0.000000
# 5 0.000000 0.000000 0.000000 0.000000 0.022737 0.000000
# 6 0.000000 0.000000 0.000000 0.000000 0.000000 0.023319
#
#
# Mechanical properties :
#
#
# Convention : Reuss Voigt Hill
#
# Bulk Modulus (GPa) = 53.92642 60.69126 57.30884
# Shear Modulus (GPa) = 34.49073 38.95071 36.72072
#
# Velocity S-wave (km/s) = 3.94663 4.19404 4.07222
# Velocity P-wave (km/s) = 6.71720 7.13171 6.92756
#
# Compressibility (1/GPa) = 0.01854379
#
# Stress axis : x y z
#
# Youngs Moduli (GPa) = 108.96119 136.73569 58.00121
#
# Poissons Ratio (x) = 0.20340 0.25562
# Poissons Ratio (y) = 0.16209 0.09857
# Poissons Ratio (z) = 0.48021 0.23237
#
# Static dielectric constant tensor:
#      x y z
#    x 4.332490 0.000000 0.000000 
#    y 0.000000 -0.883690 0.000000 
#    z 0.000000 0.000000 3.698680 
# 
# 
# High freq. dielectric constant tensor:
#      x y z
#    x 1.887300 0.000000 0.000000 
#    y 0.000000 1.897500 0.000000 
#    z 0.000000 0.000000 1.845580 
# 
# From -- ./inp_files/14629.got.cif
#   From: 2010.03.12/outbox.cif.g09.slc.cpg/sg49_8_cif.got.tgz:14629.got - 2010.04.14 03:58:27.
