data_PCOD8203876
_publ_section_title
;
Structure prediction by ZEFSAII (Michael W. Deem and Ramdas Pophale) SiO2 
 PCOD8203876
Probable space group: P C C M
;
_chemical_formula_sum "Si O2"
_cell_formula_units_Z 48
_cell_length_a 10.123700
_cell_length_b 29.674353
_cell_length_c 8.522489
_cell_angle_alpha 90.000000
_cell_angle_beta 90.000000
_cell_angle_gamma 90.000000
_cell_volume 2560.277119
_symmetry_space_group_name_H-M "P C C M"
_symmetry_group_IT_number 49
_symmetry_cell_setting 'orthorhombic'
loop_
_space_group_symop_operation_xyz
x,y,z
-x,-y,z
x,-y,1/2-z
-x,y,1/2-z
-x,-y,-z
x,y,-z
-x,y,1/2+z
x,-y,1/2+z
loop_
_atom_site_type_symbol
_atom_site_label
_atom_site_fract_x
_atom_site_fract_y
_atom_site_fract_z
Si Si1 0.857367 0.951807 0.184937
Si Si2 0.359656 0.114283 0.685949
Si Si3 0.856437 0.383232 0.313997
Si Si4 0.641657 0.548868 0.685619
Si Si5 0.141050 0.285639 0.313187
Si Si6 0.637892 0.216767 0.184558
O O1 0.754474 0.914327 0.235589
O O2 0.000000 0.937913 0.250000
O O3 0.810911 0.000000 0.250000
O O4 0.865946 0.954951 0.000000
O O5 0.500000 0.096777 0.750000
O O6 0.354912 0.108790 0.500000
O O7 0.336648 0.165731 0.741380
O O8 0.855601 0.387241 0.500000
O O9 0.750792 0.416300 0.240097
O O10 0.818213 0.332941 0.262671
O O11 0.000000 0.396759 0.250000
O O12 0.680610 0.500000 0.750000
O O13 0.500000 0.564717 0.750000
O O14 0.634940 0.546849 0.500000
O O15 0.136817 0.290832 0.500000
O O16 0.245116 0.248528 0.254090
O O17 0.000000 0.269333 0.250000
O O18 0.500000 0.235477 0.250000
O O19 0.629954 0.218538 0.000000
#
# Coordination Sequence:
#
# PCOD8203876 Si02
#       6
#     8   8   8   8   8   8
#     4  11  22  38  58  82 110 144 181 225 273 325
#     4  10  20  37  57  82 112 145 183 227 273 325
#     4  11  22  38  58  83 112 147 186 230 277 327
#     4  11  22  39  60  85 114 147 184 227 274 327
#     4  10  20  36  55  80 110 144 183 227 273 325
#     4   9  20  36  56  80 110 143 181 224 271 323
#
# _framework density 18.747972000000001
#
# number of rings (size 3 to 8) (size 9 to 14) (size 15 to 20)
#    0.000    1.667    0.000    7.500    0.000    4.000 
#    0.000    6.667    0.000    0.000    0.000    0.000 
#    0.000    0.000    0.000    0.000    0.000    0.000 
#
# Total GULP energy -595380.087339 kJ/mol
# GULP energy per Si atom -12403.751820 kJ/mol
# Density = 1.870530 g / cm^3
# Si number density = 18.747972 Si / 1000 Ang^3
#
#
#
# Elastic Constant Matrix: (Units=GPa)
#
#
# Indices 1 2 3 4 5 6 
#
# 1 156.2239 106.5306 57.0478 0.0000 0.0000 0.0000
# 2 106.5306 112.3900 47.1703 0.0000 0.0000 0.0000
# 3 57.0478 47.1703 138.8451 0.0000 0.0000 0.0000
# 4 0.0000 0.0000 0.0000 36.6521 0.0000 0.0000
# 5 0.0000 0.0000 0.0000 0.0000 36.0717 0.0000
# 6 0.0000 0.0000 0.0000 0.0000 0.0000 57.2071
#
#
#
# Elastic Compliance Matrix: (Units=1/GPa)
#
#
# Indices 1 2 3 4 5 6 
#
# 1 0.018529 -0.016757 -0.001920 0.000000 0.000000 0.000000
# 2 -0.016757 0.025532 -0.001789 0.000000 0.000000 0.000000
# 3 -0.001920 -0.001789 0.008599 0.000000 0.000000 0.000000
# 4 0.000000 0.000000 0.000000 0.027284 0.000000 0.000000
# 5 0.000000 0.000000 0.000000 0.000000 0.027723 0.000000
# 6 0.000000 0.000000 0.000000 0.000000 0.000000 0.017480
#
#
# Mechanical properties :
#
#
# Convention : Reuss Voigt Hill
#
# Bulk Modulus (GPa) = 85.27007 92.10625 88.68816
# Shear Modulus (GPa) = 29.41371 39.10021 34.25696
#
# Velocity S-wave (km/s) = 3.96523 4.57176 4.27926
# Velocity P-wave (km/s) = 8.15752 8.78085 8.47492
#
# Compressibility (1/GPa) = 0.01172744
#
# Stress axis : x y z
#
# Youngs Moduli (GPa) = 53.96880 39.16638 116.29280
#
# Poissons Ratio (x) = 0.65632 0.22330
# Poissons Ratio (y) = 0.90437 0.20804
# Poissons Ratio (z) = 0.10363 0.07007
#
# Static dielectric constant tensor:
#      x y z
#    x 3.575140 0.000000 0.000000 
#    y 0.000000 3.563560 0.000000 
#    z 0.000000 0.000000 3.594870 
# 
# 
# High freq. dielectric constant tensor:
#      x y z
#    x 1.736840 0.000000 0.000000 
#    y 0.000000 1.729560 0.000000 
#    z 0.000000 0.000000 1.747130 
# 
# From -- ./inp_files/2045.got.cif
#   From: 2010.03.12/outbox.cif.g09.slc.cpg/sg49_2_cif.got.tgz:2045.got - 2010.04.14 03:58:27.
