data_PCOD8203447
_publ_section_title
;
Structure prediction by ZEFSAII (Michael W. Deem and Ramdas Pophale) SiO2 
 PCOD8203447
Probable space group: P C C M
;
_chemical_formula_sum "Si O2"
_cell_formula_units_Z 56
_cell_length_a 22.697202
_cell_length_b 14.558022
_cell_length_c 8.769512
_cell_angle_alpha 90.000000
_cell_angle_beta 90.000000
_cell_angle_gamma 90.000000
_cell_volume 2897.677982
_symmetry_space_group_name_H-M "P C C M"
_symmetry_group_IT_number 49
_symmetry_cell_setting 'orthorhombic'
loop_
_space_group_symop_operation_xyz
x,y,z
-x,-y,z
x,-y,1/2-z
-x,y,1/2-z
-x,-y,-z
x,y,-z
-x,y,1/2+z
x,-y,1/2+z
loop_
_atom_site_type_symbol
_atom_site_label
_atom_site_fract_x
_atom_site_fract_y
_atom_site_fract_z
Si Si1 0.892292 0.089994 0.179603
Si Si2 0.289550 0.409236 0.320891
Si Si3 0.663940 0.788469 0.319764
Si Si4 0.938390 0.286969 0.819731
Si Si5 0.174402 0.647757 0.330163
Si Si6 0.563599 0.903632 0.181734
Si Si7 0.777968 0.851667 0.170471
O O1 0.926275 0.181756 0.231983
O O2 0.825648 0.087104 0.242577
O O3 0.924697 0.000000 0.250000
O O4 0.890597 0.082309 0.000000
O O5 0.320854 0.500000 0.250000
O O6 0.288965 0.418151 0.500000
O O7 0.324478 0.317435 0.271127
O O8 0.222208 0.409924 0.263032
O O9 0.655664 0.798451 0.500000
O O10 0.605895 0.820973 0.232049
O O11 0.717801 0.852871 0.266828
O O12 0.888202 0.354891 0.756003
O O13 0.000000 0.319306 0.750000
O O14 0.939781 0.295890 0.000000
O O15 0.167114 0.606472 0.500000
O O16 0.196846 0.750490 0.339498
O O17 0.500000 0.880745 0.250000
O O18 0.587094 0.000000 0.250000
O O19 0.560160 0.910512 0.000000
O O20 0.766330 0.890279 0.000000
#
# Coordination Sequence:
#
# PCOD8203447 Si02
#       7
#     8   8   8   8   8   8   8
#     4  10  20  32  45  63  90 124 162 209 263 320
#     4  10  20  34  56  85 117 148 180 220 268 324
#     4  10  20  35  55  82 114 147 184 227 273 321
#     4  10  20  33  49  68  91 123 166 212 261 316
#     4   9  17  31  51  73  99 129 164 206 255 309
#     4  11  22  38  59  83 113 150 192 235 276 320
#     4   9  17  30  48  70  95 126 164 207 257 313
#
# _framework density 19.32582
#
# number of rings (size 3 to 8) (size 9 to 14) (size 15 to 20)
#    0.000    2.143    0.000    4.286    0.000    7.714 
#    0.000    4.286    0.000    0.857    0.000    6.000 
#    0.000    0.000    0.000    0.000    0.000    0.000 
#
# Total GULP energy -694356.916734 kJ/mol
# GULP energy per Si atom -12399.230656 kJ/mol
# Density = 1.928183 g / cm^3
# Si number density = 19.325820 Si / 1000 Ang^3
#
#
#
# Elastic Constant Matrix: (Units=GPa)
#
#
# Indices 1 2 3 4 5 6 
#
# 1 103.7466 37.1912 45.6232 0.0000 0.0000 0.0000
# 2 37.1912 67.9516 34.1587 0.0000 0.0000 0.0000
# 3 45.6232 34.1587 116.4871 0.0000 0.0000 0.0000
# 4 0.0000 0.0000 0.0000 28.5451 0.0000 0.0000
# 5 0.0000 0.0000 0.0000 0.0000 33.4333 0.0000
# 6 0.0000 0.0000 0.0000 0.0000 0.0000 29.0183
#
#
#
# Elastic Compliance Matrix: (Units=1/GPa)
#
#
# Indices 1 2 3 4 5 6 
#
# 1 0.013142 -0.005402 -0.003563 0.000000 0.000000 0.000000
# 2 -0.005402 0.019481 -0.003597 0.000000 0.000000 0.000000
# 3 -0.003563 -0.003597 0.011035 0.000000 0.000000 0.000000
# 4 0.000000 0.000000 0.000000 0.035032 0.000000 0.000000
# 5 0.000000 0.000000 0.000000 0.000000 0.029910 0.000000
# 6 0.000000 0.000000 0.000000 0.000000 0.000000 0.034461
#
#
# Mechanical properties :
#
#
# Convention : Reuss Voigt Hill
#
# Bulk Modulus (GPa) = 53.95412 58.01459 55.98436
# Shear Modulus (GPa) = 28.67565 29.61349 29.14457
#
# Velocity S-wave (km/s) = 3.85619 3.91874 3.88759
# Velocity P-wave (km/s) = 6.91417 7.11054 7.01304
#
# Compressibility (1/GPa) = 0.01853427
#
# Stress axis : x y z
#
# Youngs Moduli (GPa) = 76.09028 51.33201 90.62079
#
# Poissons Ratio (x) = 0.27729 0.32291
# Poissons Ratio (y) = 0.41102 0.32596
# Poissons Ratio (z) = 0.27113 0.18464
#
# Static dielectric constant tensor:
#      x y z
#    x 3.432320 0.000000 0.000000 
#    y 0.000000 3.527750 0.000000 
#    z 0.000000 0.000000 3.671150 
# 
# 
# High freq. dielectric constant tensor:
#      x y z
#    x 1.730880 0.000000 0.000000 
#    y 0.000000 1.738710 0.000000 
#    z 0.000000 0.000000 1.769300 
# 
# From -- ./inp_files/5822.got.cif
#   From: 2010.03.12/outbox.cif.g09.slc.cpg/sg49_3_cif.got.tgz:5822.got - 2010.04.14 03:58:27.
