data_PCOD8203113
_publ_section_title
;
Structure prediction by ZEFSAII (Michael W. Deem and Ramdas Pophale) SiO2 
 PCOD8203113
Probable space group: P C C M
;
_chemical_formula_sum "Si O2"
_cell_formula_units_Z 64
_cell_length_a 12.294022
_cell_length_b 14.736347
_cell_length_c 18.833676
_cell_angle_alpha 90.000000
_cell_angle_beta 90.000000
_cell_angle_gamma 90.000000
_cell_volume 3412.077762
_symmetry_space_group_name_H-M "P C C M"
_symmetry_group_IT_number 49
_symmetry_cell_setting 'orthorhombic'
loop_
_space_group_symop_operation_xyz
x,y,z
-x,-y,z
x,-y,1/2-z
-x,y,1/2-z
-x,-y,-z
x,y,-z
-x,y,1/2+z
x,-y,1/2+z
loop_
_atom_site_type_symbol
_atom_site_label
_atom_site_fract_x
_atom_site_fract_y
_atom_site_fract_z
Si Si1 0.819683 0.495929 0.333995
Si Si2 0.609255 0.552360 0.916913
Si Si3 0.370766 0.761432 0.419393
Si Si4 0.221953 0.115495 0.172579
Si Si5 0.010944 0.838527 0.834462
Si Si6 0.444466 0.092506 0.419224
Si Si7 0.761651 0.089881 0.834566
Si Si8 0.996484 0.637177 0.665899
O O1 0.797516 0.500000 0.250000
O O2 0.706207 0.495449 0.374557
O O3 0.889702 0.582815 0.359103
O O4 0.890108 0.408334 0.358313
O O5 0.500000 0.500000 0.894155
O O6 0.600701 0.658775 0.896341
O O7 0.631664 0.540133 0.000000
O O8 0.326371 0.763924 0.500000
O O9 0.281005 0.803140 0.367591
O O10 0.476863 0.822491 0.412367
O O11 0.099016 0.111189 0.142138
O O12 0.235558 0.134241 0.256447
O O13 0.268803 0.016027 0.159872
O O14 0.000000 0.836857 0.750000
O O15 0.117281 0.890245 0.864853
O O16 0.012337 0.737276 0.866374
O O17 0.410955 0.071461 0.500000
O O18 0.337500 0.130659 0.379110
O O19 0.500000 0.000000 0.387604
O O20 0.000000 0.637703 0.750000
#
# Coordination Sequence:
#
# PCOD8203113 Si02
#       8
#     8   8   8   8   8   8   8   8
#     4   9  17  32  55  80 105 135 178 226 270 324
#     4  10  22  39  56  77 109 146 185 230 280 331
#     4  10  21  38  59  78 103 148 191 225 275 336
#     4  10  19  33  52  79 109 140 178 224 273 329
#     4   9  17  30  49  74 110 145 175 213 271 332
#     4  10  20  37  57  75 103 143 188 230 270 326
#     4  10  20  32  51  81 109 140 176 227 275 317
#     4   8  15  29  51  78 105 139 176 217 269 325
#
# _framework density 18.756900000000002
#
# number of rings (size 3 to 8) (size 9 to 14) (size 15 to 20)
#    0.000    2.500    1.250    1.875    0.000    4.250 
#    0.000    3.125    0.000    3.000    0.000    0.000 
#    0.000    0.000    0.000    0.000    0.000    0.000 
#
# Total GULP energy -793128.759054 kJ/mol
# GULP energy per Si atom -12392.636860 kJ/mol
# Density = 1.871421 g / cm^3
# Si number density = 18.756900 Si / 1000 Ang^3
#
#
#
# Elastic Constant Matrix: (Units=GPa)
#
#
# Indices 1 2 3 4 5 6 
#
# 1 149.3572 42.6436 53.4232 0.0000 0.0000 0.0000
# 2 42.6436 93.3672 29.0691 0.0000 0.0000 0.0000
# 3 53.4232 29.0691 44.6714 0.0000 0.0000 0.0000
# 4 0.0000 0.0000 0.0000 19.1919 0.0000 0.0000
# 5 0.0000 0.0000 0.0000 0.0000 5.1208 0.0000
# 6 0.0000 0.0000 0.0000 0.0000 0.0000 27.6315
#
#
#
# Elastic Compliance Matrix: (Units=1/GPa)
#
#
# Indices 1 2 3 4 5 6 
#
# 1 0.011816 -0.001250 -0.013317 0.000000 0.000000 0.000000
# 2 -0.001250 0.013564 -0.007331 0.000000 0.000000 0.000000
# 3 -0.013317 -0.007331 0.043082 0.000000 0.000000 0.000000
# 4 0.000000 0.000000 0.000000 0.052105 0.000000 0.000000
# 5 0.000000 0.000000 0.000000 0.000000 0.195283 0.000000
# 6 0.000000 0.000000 0.000000 0.000000 0.000000 0.036191
#
#
# Mechanical properties :
#
#
# Convention : Reuss Voigt Hill
#
# Bulk Modulus (GPa) = 40.54329 59.74085 50.14207
# Shear Modulus (GPa) = 12.37445 21.20616 16.79030
#
# Velocity S-wave (km/s) = 2.57130 3.36606 2.99516
# Velocity P-wave (km/s) = 5.52064 6.85757 6.22510
#
# Compressibility (1/GPa) = 0.02466500
#
# Stress axis : x y z
#
# Youngs Moduli (GPa) = 84.63372 73.72462 23.21159
#
# Poissons Ratio (x) = 0.09219 0.30910
# Poissons Ratio (y) = 0.10583 0.17016
# Poissons Ratio (z) = 1.12705 0.54048
#
# Static dielectric constant tensor:
#      x y z
#    x 3.527690 0.000000 0.000000 
#    y 0.000000 3.647230 0.000000 
#    z 0.000000 0.000000 3.116990 
# 
# 
# High freq. dielectric constant tensor:
#      x y z
#    x 1.737580 0.000000 0.000000 
#    y 0.000000 1.733060 0.000000 
#    z 0.000000 0.000000 1.687420 
# 
# From -- ./inp_files/17336.got.cif
#   From: 2010.03.12/outbox.cif.g09.slc.cpg/sg49_9_cif.got.tgz:17336.got - 2010.04.14 03:58:27.
