data_PCOD8203024
_publ_section_title
;
Structure prediction by ZEFSAII (Michael W. Deem and Ramdas Pophale) SiO2 
 PCOD8203024
Probable space group: P C C M
;
_chemical_formula_sum "Si O2"
_cell_formula_units_Z 38
_cell_length_a 16.969550
_cell_length_b 12.984477
_cell_length_c 9.241003
_cell_angle_alpha 90.000000
_cell_angle_beta 90.000000
_cell_angle_gamma 90.000000
_cell_volume 2036.169362
_symmetry_space_group_name_H-M "P C C M"
_symmetry_group_IT_number 49
_symmetry_cell_setting 'orthorhombic'
loop_
_space_group_symop_operation_xyz
x,y,z
-x,-y,z
x,-y,1/2-z
-x,y,1/2-z
-x,-y,-z
x,y,-z
-x,y,1/2+z
x,-y,1/2+z
loop_
_atom_site_type_symbol
_atom_site_label
_atom_site_fract_x
_atom_site_fract_y
_atom_site_fract_z
Si Si1 0.248334 0.238811 0.172983
Si Si2 0.650857 0.096066 0.836634
Si Si3 0.109468 0.095278 0.156364
Si Si4 0.000000 0.261444 0.250000
Si Si5 0.855963 0.395533 0.166456
Si Si6 0.500000 0.000000 0.250000
O O1 0.330041 0.201673 0.247850
O O2 0.188917 0.146882 0.216348
O O3 0.216612 0.342425 0.248209
O O4 0.257113 0.255279 0.000000
O O5 0.556269 0.075711 0.844308
O O6 0.690691 0.000000 0.750000
O O7 0.684111 0.103141 0.000000
O O8 0.044696 0.185608 0.139523
O O9 0.079668 0.000000 0.250000
O O10 0.125397 0.047850 0.000000
O O11 0.063610 0.329990 0.334521
O O12 0.874819 0.500000 0.250000
O O13 0.831390 0.415762 0.000000
#
# Coordination Sequence:
#
# PCOD8203024 Si02
#       6
#     8   8   8   4   8   2
#     4  10  21  36  54  76 106 142 183 226 273 326
#     4  10  19  32  52  80 116 152 184 217 258 309
#     4  10  21  34  48  71 101 137 178 220 266 319
#     4  10  22  36  54  74 100 136 180 230 280 332
#     4  11  23  39  58  78 102 134 179 234 290 339
#     4   8  22  32  54  84 124 154 186 216 254 308
#
# _framework density 18.662493999999999
#
# number of rings (size 3 to 8) (size 9 to 14) (size 15 to 20)
#    0.632    1.263    0.000    4.105    0.000   10.947 
#    0.000    0.000    0.000    0.000    0.000    0.737 
#    0.000    5.053    0.000    0.000    0.000    0.000 
#
# Total GULP energy -470811.438773 kJ/mol
# GULP energy per Si atom -12389.774705 kJ/mol
# Density = 1.862002 g / cm^3
# Si number density = 18.662494 Si / 1000 Ang^3
#
#
#
# Elastic Constant Matrix: (Units=GPa)
#
#
# Indices 1 2 3 4 5 6 
#
# 1 68.9486 31.1606 19.9928 0.0000 0.0000 0.0000
# 2 31.1606 98.9145 45.2107 0.0000 0.0000 0.0000
# 3 19.9928 45.2107 138.2156 0.0000 0.0000 0.0000
# 4 0.0000 0.0000 0.0000 29.5714 0.0000 0.0000
# 5 0.0000 0.0000 0.0000 0.0000 18.3569 0.0000
# 6 0.0000 0.0000 0.0000 0.0000 0.0000 22.8669
#
#
#
# Elastic Compliance Matrix: (Units=1/GPa)
#
#
# Indices 1 2 3 4 5 6 
#
# 1 0.016992 -0.004973 -0.000831 0.000000 0.000000 0.000000
# 2 -0.004973 0.013342 -0.003645 0.000000 0.000000 0.000000
# 3 -0.000831 -0.003645 0.008548 0.000000 0.000000 0.000000
# 4 0.000000 0.000000 0.000000 0.033816 0.000000 0.000000
# 5 0.000000 0.000000 0.000000 0.000000 0.054476 0.000000
# 6 0.000000 0.000000 0.000000 0.000000 0.000000 0.043731
#
#
# Mechanical properties :
#
#
# Convention : Reuss Voigt Hill
#
# Bulk Modulus (GPa) = 50.04095 55.42299 52.73197
# Shear Modulus (GPa) = 25.44982 28.14001 26.79491
#
# Velocity S-wave (km/s) = 3.69682 3.88730 3.79326
# Velocity P-wave (km/s) = 6.71519 7.06471 6.89217
#
# Compressibility (1/GPa) = 0.01998363
#
# Stress axis : x y z
#
# Youngs Moduli (GPa) = 58.85091 74.94921 116.99207
#
# Poissons Ratio (x) = 0.37272 0.09725
# Poissons Ratio (y) = 0.29267 0.42643
# Poissons Ratio (z) = 0.04892 0.27319
#
# Static dielectric constant tensor:
#      x y z
#    x 3.251950 0.000000 0.000000 
#    y 0.000000 3.309180 0.000000 
#    z 0.000000 0.000000 3.304550 
# 
# 
# High freq. dielectric constant tensor:
#      x y z
#    x 1.699250 0.000000 0.000000 
#    y 0.000000 1.705770 0.000000 
#    z 0.000000 0.000000 1.732810 
# 
# From -- ./inp_files/4667.got.cif
#   From: 2010.03.12/outbox.cif.g09.slc.cpg/sg49_3_cif.got.tgz:4667.got - 2010.04.14 03:58:27.
