data_PCOD8203642
_publ_section_title
;
Structure prediction by ZEFSAII (Michael W. Deem and Ramdas Pophale) SiO2 
 PCOD8203642
Probable space group: P C C M
;
_chemical_formula_sum "Si O2"
_cell_formula_units_Z 52
_cell_length_a 18.435283
_cell_length_b 15.775069
_cell_length_c 9.462819
_cell_angle_alpha 90.000000
_cell_angle_beta 90.000000
_cell_angle_gamma 90.000000
_cell_volume 2751.956784
_symmetry_space_group_name_H-M "P C C M"
_symmetry_group_IT_number 49
_symmetry_cell_setting 'orthorhombic'
loop_
_space_group_symop_operation_xyz
x,y,z
-x,-y,z
x,-y,1/2-z
-x,y,1/2-z
-x,-y,-z
x,y,-z
-x,y,1/2+z
x,-y,1/2+z
loop_
_atom_site_type_symbol
_atom_site_label
_atom_site_fract_x
_atom_site_fract_y
_atom_site_fract_z
Si Si1 0.927082 0.841191 0.664798
Si Si2 0.432154 0.331763 0.838561
Si Si3 0.280379 0.883078 0.344754
Si Si4 0.566186 0.868770 0.839350
Si Si5 0.181808 0.262106 0.167095
Si Si6 0.282000 0.415397 0.164943
Si Si7 0.834539 0.000000 0.750000
O O1 0.941860 0.820642 0.500000
O O2 0.889280 0.759835 0.739787
O O3 0.000000 0.859100 0.750000
O O4 0.881701 0.928476 0.673446
O O5 0.500000 0.368698 0.750000
O O6 0.426904 0.231669 0.819277
O O7 0.356895 0.372502 0.783391
O O8 0.446011 0.357162 0.000000
O O9 0.303874 0.851700 0.500000
O O10 0.358010 0.907321 0.275067
O O11 0.242668 0.802355 0.272206
O O12 0.221763 0.958255 0.360621
O O13 0.500000 0.906804 0.750000
O O14 0.550893 0.895295 0.000000
O O15 0.212062 0.355765 0.194992
O O16 0.165200 0.246594 0.000000
O O17 0.266807 0.500000 0.250000
O O18 0.286678 0.436357 0.000000
#
# Coordination Sequence:
#
# PCOD8203642 Si02
#       7
#     8   8   8   8   8   8   4
#     4  11  23  38  59  88 116 143 175 211 257 317
#     4   9  17  30  48  71 101 138 182 227 275 325
#     4   9  16  31  53  72  98 139 180 218 264 316
#     4   9  16  29  49  70  94 132 181 227 269 313
#     4   9  18  36  58  78 105 144 182 218 266 321
#     4  10  20  34  53  78 109 145 184 226 276 327
#     4  10  21  34  55  82 114 142 172 214 261 310
#
# _framework density 18.895644999999998
#
# number of rings (size 3 to 8) (size 9 to 14) (size 15 to 20)
#    0.000    2.462    1.538    1.154    0.000    4.000 
#    0.000    5.769    0.000    2.308    0.000    3.231 
#    0.000    0.000    0.000    0.000    0.000    0.000 
#
# Total GULP energy -644297.532764 kJ/mol
# GULP energy per Si atom -12390.337169 kJ/mol
# Density = 1.885264 g / cm^3
# Si number density = 18.895645 Si / 1000 Ang^3
#
#
#
# Elastic Constant Matrix: (Units=GPa)
#
#
# Indices 1 2 3 4 5 6 
#
# 1 139.1222 44.5989 55.6778 0.0000 0.0000 0.0000
# 2 44.5989 73.3886 34.3665 0.0000 0.0000 0.0000
# 3 55.6778 34.3665 85.3376 0.0000 0.0000 0.0000
# 4 0.0000 0.0000 0.0000 8.2330 0.0000 0.0000
# 5 0.0000 0.0000 0.0000 0.0000 29.4467 0.0000
# 6 0.0000 0.0000 0.0000 0.0000 0.0000 23.5535
#
#
#
# Elastic Compliance Matrix: (Units=1/GPa)
#
#
# Indices 1 2 3 4 5 6 
#
# 1 0.010578 -0.003939 -0.005315 0.000000 0.000000 0.000000
# 2 -0.003939 0.018260 -0.004783 0.000000 0.000000 0.000000
# 3 -0.005315 -0.004783 0.017112 0.000000 0.000000 0.000000
# 4 0.000000 0.000000 0.000000 0.121463 0.000000 0.000000
# 5 0.000000 0.000000 0.000000 0.000000 0.033960 0.000000
# 6 0.000000 0.000000 0.000000 0.000000 0.000000 0.042457
#
#
# Mechanical properties :
#
#
# Convention : Reuss Voigt Hill
#
# Bulk Modulus (GPa) = 55.94500 63.01497 59.47998
# Shear Modulus (GPa) = 17.99450 23.12698 20.56074
#
# Velocity S-wave (km/s) = 3.08930 3.50227 3.30225
# Velocity P-wave (km/s) = 6.51127 7.05520 6.78869
#
# Compressibility (1/GPa) = 0.01787470
#
# Stress axis : x y z
#
# Youngs Moduli (GPa) = 94.53672 54.76440 58.43776
#
# Poissons Ratio (x) = 0.21574 0.31060
# Poissons Ratio (y) = 0.37241 0.27953
# Poissons Ratio (z) = 0.50247 0.26196
#
# Static dielectric constant tensor:
#      x y z
#    x 3.720090 0.000000 0.000000 
#    y 0.000000 3.238390 0.000000 
#    z 0.000000 0.000000 3.339880 
# 
# 
# High freq. dielectric constant tensor:
#      x y z
#    x 1.743090 0.000000 0.000000 
#    y 0.000000 1.712600 0.000000 
#    z 0.000000 0.000000 1.714490 
# 
# From -- ./inp_files/5745.got.cif
#   From: 2010.03.12/outbox.cif.g09.slc.cpg/sg49_3_cif.got.tgz:5745.got - 2010.04.14 03:58:27.
