data_PCOD8203331
_publ_section_title
;
Structure prediction by ZEFSAII (Michael W. Deem and Ramdas Pophale) SiO2 
 PCOD8203331
Probable space group: P C C M
;
_chemical_formula_sum "Si O2"
_cell_formula_units_Z 34
_cell_length_a 9.811573
_cell_length_b 9.410912
_cell_length_c 19.664376
_cell_angle_alpha 90.000000
_cell_angle_beta 90.000000
_cell_angle_gamma 90.000000
_cell_volume 1815.726874
_symmetry_space_group_name_H-M "P C C M"
_symmetry_group_IT_number 49
_symmetry_cell_setting 'orthorhombic'
loop_
_space_group_symop_operation_xyz
x,y,z
-x,-y,z
x,-y,1/2-z
-x,y,1/2-z
-x,-y,-z
x,y,-z
-x,y,1/2+z
x,-y,1/2+z
loop_
_atom_site_type_symbol
_atom_site_label
_atom_site_fract_x
_atom_site_fract_y
_atom_site_fract_z
Si Si1 0.000000 0.500000 0.250000
Si Si2 0.480233 0.333256 0.676030
Si Si3 0.274896 0.670609 0.419988
Si Si4 0.813772 0.629072 0.363077
Si Si5 0.979515 0.155258 0.579309
O O1 0.901372 0.597680 0.295469
O O2 0.500000 0.500000 0.683726
O O3 0.500000 0.260890 0.750000
O O4 0.589085 0.282189 0.619961
O O5 0.327754 0.293932 0.654229
O O6 0.305646 0.682625 0.500000
O O7 0.218887 0.513251 0.404850
O O8 0.159604 0.777189 0.392413
O O9 0.894419 0.740221 0.408868
O O10 0.961002 0.135417 0.500000
O O11 0.000000 0.000000 0.613687
#
# Coordination Sequence:
#
# PCOD8203331 Si02
#       5
#     2   8   8   8   8
#     4  12  20  32  58  84 112 148 188 238 288 352
#     4   9  19  33  53  81 112 146 179 228 285 338
#     4  10  19  35  58  85 112 143 188 239 284 334
#     4  11  20  33  58  81 111 145 187 231 282 338
#     4  10  21  37  56  81 112 145 184 233 284 334
#
# _framework density 18.725283000000001
#
# number of rings (size 3 to 8) (size 9 to 14) (size 15 to 20)
#    0.000    1.882    2.353    3.529    0.000    7.059 
#    0.000    1.765    0.000    5.647    0.000    0.000 
#    0.000    0.000    0.000    0.000    0.000    0.000 
#
# Total GULP energy -421475.219386 kJ/mol
# GULP energy per Si atom -12396.329982 kJ/mol
# Density = 1.868266 g / cm^3
# Si number density = 18.725283 Si / 1000 Ang^3
#
#
#
# Elastic Constant Matrix: (Units=GPa)
#
#
# Indices 1 2 3 4 5 6 
#
# 1 182.7926 48.5744 54.0792 0.0000 0.0000 0.0000
# 2 48.5744 70.8408 16.4128 0.0000 0.0000 0.0000
# 3 54.0792 16.4128 76.9691 0.0000 0.0000 0.0000
# 4 0.0000 0.0000 0.0000 6.4755 0.0000 0.0000
# 5 0.0000 0.0000 0.0000 0.0000 36.1125 0.0000
# 6 0.0000 0.0000 0.0000 0.0000 0.0000 5.9483
#
#
#
# Elastic Compliance Matrix: (Units=1/GPa)
#
#
# Indices 1 2 3 4 5 6 
#
# 1 0.008037 -0.004421 -0.004704 0.000000 0.000000 0.000000
# 2 -0.004421 0.017282 -0.000579 0.000000 0.000000 0.000000
# 3 -0.004704 -0.000579 0.016421 0.000000 0.000000 0.000000
# 4 0.000000 0.000000 0.000000 0.154429 0.000000 0.000000
# 5 0.000000 0.000000 0.000000 0.000000 0.027691 0.000000
# 6 0.000000 0.000000 0.000000 0.000000 0.000000 0.168115
#
#
# Mechanical properties :
#
#
# Convention : Reuss Voigt Hill
#
# Bulk Modulus (GPa) = 44.77983 63.19279 53.98631
# Shear Modulus (GPa) = 11.93807 23.80967 17.87387
#
# Velocity S-wave (km/s) = 2.52769 3.56971 3.09290
# Velocity P-wave (km/s) = 5.69956 7.12819 6.45353
#
# Compressibility (1/GPa) = 0.02233148
#
# Stress axis : x y z
#
# Youngs Moduli (GPa) = 124.41986 57.86455 60.89777
#
# Poissons Ratio (x) = 0.25583 0.28648
# Poissons Ratio (y) = 0.55007 0.03525
# Poissons Ratio (z) = 0.58531 0.03349
#
# Static dielectric constant tensor:
#      x y z
#    x 3.787950 0.000000 0.000000 
#    y 0.000000 3.339960 0.000000 
#    z 0.000000 0.000000 3.471530 
# 
# 
# High freq. dielectric constant tensor:
#      x y z
#    x 1.747310 0.000000 0.000000 
#    y 0.000000 1.684480 0.000000 
#    z 0.000000 0.000000 1.728480 
# 
# From -- ./inp_files/19430.got.cif
#   From: 2010.03.12/outbox.cif.g09.slc.cpg/sg49_10_cif.got.tgz:19430.got - 2010.04.14 03:58:27.
