data_PCOD8203390
_publ_section_title
;
Structure prediction by ZEFSAII (Michael W. Deem and Ramdas Pophale) SiO2 
 PCOD8203390
Probable space group: P C C M
;
_chemical_formula_sum "Si O2"
_cell_formula_units_Z 56
_cell_length_a 15.515100
_cell_length_b 20.361548
_cell_length_c 8.516832
_cell_angle_alpha 90.000000
_cell_angle_beta 90.000000
_cell_angle_gamma 90.000000
_cell_volume 2690.564775
_symmetry_space_group_name_H-M "P C C M"
_symmetry_group_IT_number 49
_symmetry_cell_setting 'orthorhombic'
loop_
_space_group_symop_operation_xyz
x,y,z
-x,-y,z
x,-y,1/2-z
-x,y,1/2-z
-x,-y,-z
x,y,-z
-x,y,1/2+z
x,-y,1/2+z
loop_
_atom_site_type_symbol
_atom_site_label
_atom_site_fract_x
_atom_site_fract_y
_atom_site_fract_z
Si Si1 0.587474 0.625372 0.313845
Si Si2 0.765236 0.933762 0.815835
Si Si3 0.585789 0.892994 0.685617
Si Si4 0.360524 0.239422 0.183781
Si Si5 0.908038 0.326155 0.185583
Si Si6 0.184087 0.198836 0.682624
Si Si7 0.231003 0.570027 0.185590
O O1 0.500000 0.590177 0.250000
O O2 0.585123 0.632785 0.500000
O O3 0.588228 0.696104 0.232020
O O4 0.671504 0.585106 0.257629
O O5 0.672099 0.930992 0.733422
O O6 0.823254 0.869876 0.776199
O O7 0.810850 0.000000 0.750000
O O8 0.752619 0.938108 0.000000
O O9 0.500000 0.930434 0.750000
O O10 0.583682 0.884816 0.500000
O O11 0.582051 0.822980 0.772829
O O12 0.273462 0.235656 0.285003
O O13 0.338117 0.239020 0.000000
O O14 0.889338 0.250544 0.236419
O O15 0.834618 0.375034 0.253308
O O16 0.000000 0.348582 0.250000
O O17 0.908086 0.331338 0.000000
O O18 0.177447 0.181780 0.500000
O O19 0.201285 0.500000 0.250000
O O20 0.226758 0.569035 0.000000
#
# Coordination Sequence:
#
# PCOD8203390 Si02
#       7
#     8   8   8   8   8   8   8
#     4  11  22  38  57  82 118 158 206 255 305 358
#     4  11  22  37  56  83 114 153 201 243 297 361
#     4  11  21  34  50  73 108 150 196 251 306 356
#     4  11  20  32  53  82 112 150 199 248 302 358
#     4  10  22  41  66  96 127 159 198 245 304 364
#     4  10  19  37  61  86 120 157 194 245 302 353
#     4  10  23  43  63  87 124 165 203 251 305 362
#
# _framework density 20.813475
#
# number of rings (size 3 to 8) (size 9 to 14) (size 15 to 20)
#    0.000    1.429    1.429    6.857    0.000    3.714 
#    0.000    4.286    0.000    0.429    0.000    3.000 
#    0.000    0.000    0.000    0.000    0.000    0.000 
#
# Total GULP energy -694382.314776 kJ/mol
# GULP energy per Si atom -12399.684192 kJ/mol
# Density = 2.076610 g / cm^3
# Si number density = 20.813475 Si / 1000 Ang^3
#
#
#
# Elastic Constant Matrix: (Units=GPa)
#
#
# Indices 1 2 3 4 5 6 
#
# 1 106.9152 49.8604 14.8707 0.0000 0.0000 0.0000
# 2 49.8604 125.8494 34.8550 0.0000 0.0000 0.0000
# 3 14.8707 34.8550 71.5472 0.0000 0.0000 0.0000
# 4 0.0000 0.0000 0.0000 29.4935 0.0000 0.0000
# 5 0.0000 0.0000 0.0000 0.0000 25.4485 0.0000
# 6 0.0000 0.0000 0.0000 0.0000 0.0000 4.1794
#
#
#
# Elastic Compliance Matrix: (Units=1/GPa)
#
#
# Indices 1 2 3 4 5 6 
#
# 1 0.011475 -0.004492 -0.000197 0.000000 0.000000 0.000000
# 2 -0.004492 0.010944 -0.004398 0.000000 0.000000 0.000000
# 3 -0.000197 -0.004398 0.016160 0.000000 0.000000 0.000000
# 4 0.000000 0.000000 0.000000 0.033906 0.000000 0.000000
# 5 0.000000 0.000000 0.000000 0.000000 0.039295 0.000000
# 6 0.000000 0.000000 0.000000 0.000000 0.000000 0.239269
#
#
# Mechanical properties :
#
#
# Convention : Reuss Voigt Hill
#
# Bulk Modulus (GPa) = 49.00456 55.94267 52.47362
# Shear Modulus (GPa) = 13.29703 25.47266 19.38484
#
# Velocity S-wave (km/s) = 2.53032 3.50216 3.05513
# Velocity P-wave (km/s) = 5.66855 6.57951 6.14094
#
# Compressibility (1/GPa) = 0.02040626
#
# Stress axis : x y z
#
# Youngs Moduli (GPa) = 87.14273 91.37707 61.88084
#
# Poissons Ratio (x) = 0.41046 0.01218
# Poissons Ratio (y) = 0.39144 0.27213
# Poissons Ratio (z) = 0.01715 0.40185
#
# Static dielectric constant tensor:
#      x y z
#    x 3.815630 0.000000 0.000000 
#    y 0.000000 3.945200 0.000000 
#    z 0.000000 0.000000 3.650440 
# 
# 
# High freq. dielectric constant tensor:
#      x y z
#    x 1.793630 0.000000 0.000000 
#    y 0.000000 1.815580 0.000000 
#    z 0.000000 0.000000 1.817180 
# 
# From -- ./inp_files/4033.got.cif
#   From: 2010.03.12/outbox.cif.g09.slc.cpg/sg49_3_cif.got.tgz:4033.got - 2010.04.14 03:58:27.
