data_PCOD8203336
_publ_section_title
;
Structure prediction by ZEFSAII (Michael W. Deem and Ramdas Pophale) SiO2 
 PCOD8203336
Probable space group: P C C M
;
_chemical_formula_sum "Si O2"
_cell_formula_units_Z 48
_cell_length_a 18.859418
_cell_length_b 14.781494
_cell_length_c 8.814186
_cell_angle_alpha 90.000000
_cell_angle_beta 90.000000
_cell_angle_gamma 90.000000
_cell_volume 2457.133928
_symmetry_space_group_name_H-M "P C C M"
_symmetry_group_IT_number 49
_symmetry_cell_setting 'orthorhombic'
loop_
_space_group_symop_operation_xyz
x,y,z
-x,-y,z
x,-y,1/2-z
-x,y,1/2-z
-x,-y,-z
x,y,-z
-x,y,1/2+z
x,-y,1/2+z
loop_
_atom_site_type_symbol
_atom_site_label
_atom_site_fract_x
_atom_site_fract_y
_atom_site_fract_z
Si Si1 0.430398 0.145979 0.675941
Si Si2 0.277178 0.592861 0.317375
Si Si3 0.809489 0.761763 0.167582
Si Si4 0.296785 0.079854 0.832613
Si Si5 0.573884 0.646454 0.680283
Si Si6 0.923382 0.097044 0.683771
O O1 0.500000 0.103896 0.750000
O O2 0.439777 0.139059 0.500000
O O3 0.365452 0.087015 0.729566
O O4 0.420093 0.249333 0.727665
O O5 0.245499 0.500000 0.250000
O O6 0.279522 0.594032 0.500000
O O7 0.221814 0.670463 0.254648
O O8 0.357114 0.600592 0.254181
O O9 0.742615 0.826458 0.160838
O O10 0.873314 0.819946 0.244331
O O11 0.835958 0.735332 0.000000
O O12 0.251166 0.000000 0.750000
O O13 0.317814 0.048510 0.000000
O O14 0.500000 0.606731 0.750000
O O15 0.574438 0.630130 0.500000
O O16 0.922609 0.091141 0.500000
O O17 0.000000 0.120479 0.750000
O O18 0.897976 0.000000 0.750000
#
# Coordination Sequence:
#
# PCOD8203336 Si02
#       6
#     8   8   8   8   8   8
#     4  10  20  34  52  74 101 137 180 227 275 329
#     4  11  22  39  59  83 111 145 187 236 287 341
#     4   9  20  37  58  80 113 150 182 222 277 329
#     4  11  21  35  53  77 105 141 181 224 273 327
#     4  10  20  35  56  81 107 141 184 236 292 346
#     4  10  19  35  58  90 123 156 188 223 266 319
#
# _framework density 19.534953999999999
#
# number of rings (size 3 to 8) (size 9 to 14) (size 15 to 20)
#    0.000    1.833    1.667    3.500    0.000    2.000 
#    0.000    9.167    0.000    0.500    0.000    3.500 
#    0.000    0.000    0.000    0.000    0.000    0.000 
#
# Total GULP energy -594686.538107 kJ/mol
# GULP energy per Si atom -12389.302877 kJ/mol
# Density = 1.949049 g / cm^3
# Si number density = 19.534954 Si / 1000 Ang^3
#
#
#
# Elastic Constant Matrix: (Units=GPa)
#
#
# Indices 1 2 3 4 5 6 
#
# 1 110.3382 54.2319 24.6814 0.0000 0.0000 0.0000
# 2 54.2319 123.9146 37.0722 0.0000 0.0000 0.0000
# 3 24.6814 37.0722 59.6952 0.0000 0.0000 0.0000
# 4 0.0000 0.0000 0.0000 28.3876 0.0000 0.0000
# 5 0.0000 0.0000 0.0000 0.0000 19.5699 0.0000
# 6 0.0000 0.0000 0.0000 0.0000 0.0000 -11.2411
#
#
#
# Elastic Compliance Matrix: (Units=1/GPa)
#
#
# Indices 1 2 3 4 5 6 
#
# 1 0.011746 -0.004529 -0.002044 0.000000 0.000000 0.000000
# 2 -0.004529 0.011658 -0.005367 0.000000 0.000000 0.000000
# 3 -0.002044 -0.005367 0.020930 0.000000 0.000000 0.000000
# 4 0.000000 0.000000 0.000000 0.035227 0.000000 0.000000
# 5 0.000000 0.000000 0.000000 0.000000 0.051099 0.000000
# 6 0.000000 0.000000 0.000000 0.000000 0.000000 -0.088959
#
#
# Mechanical properties :
#
#
# Convention : Reuss Voigt Hill
#
# Bulk Modulus (GPa) = 48.89108 58.43545 53.66327
# Shear Modulus (GPa) = 69.06113 19.20746 44.13430
#
# Velocity S-wave (km/s) = 5.95226 3.13906 4.75831
# Velocity P-wave (km/s) = 8.50417 6.56631 7.59728
#
# Compressibility (1/GPa) = 0.02045363
#
# Stress axis : x y z
#
# Youngs Moduli (GPa) = 85.13197 85.77676 47.77842
#
# Poissons Ratio (x) = 0.38852 0.09765
# Poissons Ratio (y) = 0.38560 0.25644
# Poissons Ratio (z) = 0.17399 0.46039
#
# Static dielectric constant tensor:
#      x y z
#    x 3.474170 0.000000 0.000000 
#    y 0.000000 2.725360 0.000000 
#    z 0.000000 0.000000 3.598560 
# 
# 
# High freq. dielectric constant tensor:
#      x y z
#    x 1.744220 0.000000 0.000000 
#    y 0.000000 1.764740 0.000000 
#    z 0.000000 0.000000 1.756290 
# 
# From -- ./inp_files/3719.got.cif
#   From: 2010.03.12/outbox.cif.g09.slc.cpg/sg49_2_cif.got.tgz:3719.got - 2010.04.14 03:58:27.
