data_PCOD8203924
_publ_section_title
;
Structure prediction by ZEFSAII (Michael W. Deem and Ramdas Pophale) SiO2 
 PCOD8203924
Probable space group: P C C M
;
_chemical_formula_sum "Si O2"
_cell_formula_units_Z 40
_cell_length_a 12.811997
_cell_length_b 8.611245
_cell_length_c 15.117584
_cell_angle_alpha 90.000000
_cell_angle_beta 90.000000
_cell_angle_gamma 90.000000
_cell_volume 1667.881395
_symmetry_space_group_name_H-M "P C C M"
_symmetry_group_IT_number 49
_symmetry_cell_setting 'orthorhombic'
loop_
_space_group_symop_operation_xyz
x,y,z
-x,-y,z
x,-y,1/2-z
-x,y,1/2-z
-x,-y,-z
x,y,-z
-x,y,1/2+z
x,-y,1/2+z
loop_
_atom_site_type_symbol
_atom_site_label
_atom_site_fract_x
_atom_site_fract_y
_atom_site_fract_z
Si Si1 0.328056 0.318100 0.403213
Si Si2 0.534939 0.826480 0.895243
Si Si3 0.098323 0.203826 0.895405
Si Si4 0.130736 0.851447 0.104576
Si Si5 0.713083 0.618941 0.832506
O O1 0.330919 0.240369 0.500000
O O2 0.439516 0.280130 0.360298
O O3 0.229616 0.238414 0.350909
O O4 0.312392 0.502881 0.413474
O O5 0.635496 0.767102 0.839452
O O6 0.500000 0.000000 0.869781
O O7 0.559784 0.812515 0.000000
O O8 0.167984 0.323502 0.839740
O O9 0.978815 0.221624 0.862291
O O10 0.138134 0.031754 0.871442
O O11 0.109614 0.234867 0.000000
O O12 0.132163 0.827734 0.000000
O O13 0.695644 0.500000 0.750000
#
# Coordination Sequence:
#
# PCOD8203924 Si02
#       5
#     8   8   8   8   8
#     4  10  20  36  59  87 118 151 198 261 325 382
#     4  10  21  40  67  91 113 154 214 271 318 372
#     4   9  17  35  62  88 118 158 207 258 305 361
#     4   8  16  33  62  94 116 147 203 264 312 361
#     4  12  25  38  54  85 130 168 200 246 317 396
#
# _framework density 23.982523
#
# number of rings (size 3 to 8) (size 9 to 14) (size 15 to 20)
#    0.000    2.200    0.000    4.800    0.000    7.200 
#    0.000   10.000    0.000    2.400    0.000    0.000 
#    0.000    0.000    0.000    0.000    0.000    0.000 
#
# Total GULP energy -495599.038918 kJ/mol
# GULP energy per Si atom -12389.975973 kJ/mol
# Density = 2.392794 g / cm^3
# Si number density = 23.982523 Si / 1000 Ang^3
#
#
#
# Elastic Constant Matrix: (Units=GPa)
#
#
# Indices 1 2 3 4 5 6 
#
# 1 144.4372 45.4244 16.2522 0.0000 0.0000 0.0000
# 2 45.4244 101.7164 10.3486 0.0000 0.0000 0.0000
# 3 16.2522 10.3486 54.3021 0.0000 0.0000 0.0000
# 4 0.0000 0.0000 0.0000 24.6580 0.0000 0.0000
# 5 0.0000 0.0000 0.0000 0.0000 9.7708 0.0000
# 6 0.0000 0.0000 0.0000 0.0000 0.0000 57.0535
#
#
#
# Elastic Compliance Matrix: (Units=1/GPa)
#
#
# Indices 1 2 3 4 5 6 
#
# 1 0.008223 -0.003489 -0.001796 0.000000 0.000000 0.000000
# 2 -0.003489 0.011506 -0.001148 0.000000 0.000000 0.000000
# 3 -0.001796 -0.001148 0.019172 0.000000 0.000000 0.000000
# 4 0.000000 0.000000 0.000000 0.040555 0.000000 0.000000
# 5 0.000000 0.000000 0.000000 0.000000 0.102346 0.000000
# 6 0.000000 0.000000 0.000000 0.000000 0.000000 0.017527
#
#
# Mechanical properties :
#
#
# Convention : Reuss Voigt Hill
#
# Bulk Modulus (GPa) = 38.41235 49.38956 43.90096
# Shear Modulus (GPa) = 22.63724 33.52516 28.08120
#
# Velocity S-wave (km/s) = 3.07564 3.74291 3.42556
# Velocity P-wave (km/s) = 5.35391 6.27039 5.83019
#
# Compressibility (1/GPa) = 0.02603330
#
# Stress axis : x y z
#
# Youngs Moduli (GPa) = 121.61119 86.90802 52.15968
#
# Poissons Ratio (x) = 0.30326 0.09368
# Poissons Ratio (y) = 0.42436 0.05990
# Poissons Ratio (z) = 0.21842 0.09981
#
# Static dielectric constant tensor:
#      x y z
#    x 4.822050 0.000000 0.000000 
#    y 0.000000 4.497470 0.000000 
#    z 0.000000 0.000000 4.021250 
# 
# 
# High freq. dielectric constant tensor:
#      x y z
#    x 1.967490 0.000000 0.000000 
#    y 0.000000 1.946730 0.000000 
#    z 0.000000 0.000000 1.923820 
# 
# From -- ./inp_files/16843.got.cif
#   From: 2010.03.12/outbox.cif.g09.slc.cpg/sg49_9_cif.got.tgz:16843.got - 2010.04.14 03:58:27.
