data_PCOD8203895
_publ_section_title
;
Structure prediction by ZEFSAII (Michael W. Deem and Ramdas Pophale) SiO2 
 PCOD8203895
Probable space group: P C C M
;
_chemical_formula_sum "Si O2"
_cell_formula_units_Z 40
_cell_length_a 8.732744
_cell_length_b 14.317462
_cell_length_c 16.631551
_cell_angle_alpha 90.000000
_cell_angle_beta 90.000000
_cell_angle_gamma 90.000000
_cell_volume 2079.454969
_symmetry_space_group_name_H-M "P C C M"
_symmetry_group_IT_number 49
_symmetry_cell_setting 'orthorhombic'
loop_
_space_group_symop_operation_xyz
x,y,z
-x,-y,z
x,-y,1/2-z
-x,y,1/2-z
-x,-y,-z
x,y,-z
-x,y,1/2+z
x,-y,1/2+z
loop_
_atom_site_type_symbol
_atom_site_label
_atom_site_fract_x
_atom_site_fract_y
_atom_site_fract_z
Si Si1 0.605962 0.752800 0.175480
Si Si2 0.822253 0.107081 0.763220
Si Si3 0.849658 0.608531 0.594684
Si Si4 0.314432 0.794384 0.907208
Si Si5 0.193178 0.402096 0.904569
O O1 0.500000 0.723620 0.250000
O O2 0.729130 0.830517 0.199999
O O3 0.496945 0.798266 0.107070
O O4 0.686156 0.660812 0.142076
O O5 0.775673 0.129285 0.855024
O O6 0.000000 0.126970 0.750000
O O7 0.779017 0.000000 0.750000
O O8 0.860492 0.603617 0.500000
O O9 0.742009 0.692432 0.623407
O O10 0.779305 0.509511 0.622945
O O11 0.022767 0.625577 0.625288
O O12 0.275422 0.813401 0.000000
O O13 0.215217 0.388066 0.000000
#
# Coordination Sequence:
#
# PCOD8203895 Si02
#       5
#     8   8   8   8   8
#     4  10  21  34  52  78 110 143 178 220 273 326
#     4  10  22  42  62  79 105 141 179 227 282 325
#     4   8  16  30  53  80 107 140 181 223 263 304
#     4  10  20  36  57  84 113 145 181 220 265 325
#     4   9  16  31  53  78 107 144 184 222 260 309
#
# _framework density 19.235810000000001
#
# number of rings (size 3 to 8) (size 9 to 14) (size 15 to 20)
#    0.000    2.600    0.000    3.000    0.000    4.400 
#    0.000   16.000    0.000   10.800    0.000    0.000 
#    0.000    0.000    0.000    0.000    0.000    0.000 
#
# Total GULP energy -495914.938092 kJ/mol
# GULP energy per Si atom -12397.873452 kJ/mol
# Density = 1.919203 g / cm^3
# Si number density = 19.235810 Si / 1000 Ang^3
#
#
#
# Elastic Constant Matrix: (Units=GPa)
#
#
# Indices 1 2 3 4 5 6 
#
# 1 120.6908 78.0002 49.3796 0.0000 0.0000 0.0000
# 2 78.0002 137.6965 65.8471 0.0000 0.0000 0.0000
# 3 49.3796 65.8471 78.7491 0.0000 0.0000 0.0000
# 4 0.0000 0.0000 0.0000 32.1294 0.0000 0.0000
# 5 0.0000 0.0000 0.0000 0.0000 26.6641 0.0000
# 6 0.0000 0.0000 0.0000 0.0000 0.0000 18.9287
#
#
#
# Elastic Compliance Matrix: (Units=1/GPa)
#
#
# Indices 1 2 3 4 5 6 
#
# 1 0.013620 -0.006051 -0.003481 0.000000 0.000000 0.000000
# 2 -0.006051 0.014789 -0.008572 0.000000 0.000000 0.000000
# 3 -0.003481 -0.008572 0.022049 0.000000 0.000000 0.000000
# 4 0.000000 0.000000 0.000000 0.031124 0.000000 0.000000
# 5 0.000000 0.000000 0.000000 0.000000 0.037504 0.000000
# 6 0.000000 0.000000 0.000000 0.000000 0.000000 0.052830
#
#
# Mechanical properties :
#
#
# Convention : Reuss Voigt Hill
#
# Bulk Modulus (GPa) = 70.17253 80.39890 75.28571
# Shear Modulus (GPa) = 23.48807 25.13842 24.31325
#
# Velocity S-wave (km/s) = 3.49816 3.61897 3.55907
# Velocity P-wave (km/s) = 7.27155 7.70388 7.49084
#
# Compressibility (1/GPa) = 0.01425059
#
# Stress axis : x y z
#
# Youngs Moduli (GPa) = 73.41897 67.61784 45.35345
#
# Poissons Ratio (x) = 0.40914 0.15789
# Poissons Ratio (y) = 0.44424 0.38877
# Poissons Ratio (z) = 0.25560 0.57961
#
# Static dielectric constant tensor:
#      x y z
#    x 3.869890 0.000000 0.000000 
#    y 0.000000 3.686330 0.000000 
#    z 0.000000 0.000000 3.363380 
# 
# 
# High freq. dielectric constant tensor:
#      x y z
#    x 1.757920 0.000000 0.000000 
#    y 0.000000 1.742610 0.000000 
#    z 0.000000 0.000000 1.736840 
# 
# From -- ./inp_files/11580.got.cif
#   From: 2010.03.12/outbox.cif.g09.slc.cpg/sg49_6_cif.got.tgz:11580.got - 2010.04.14 03:58:27.
