data_PCOD8203595
_publ_section_title
;
Structure prediction by ZEFSAII (Michael W. Deem and Ramdas Pophale) SiO2 
 PCOD8203595
Probable space group: P C C M
;
_chemical_formula_sum "Si O2"
_cell_formula_units_Z 40
_cell_length_a 9.668653
_cell_length_b 25.317438
_cell_length_c 8.835983
_cell_angle_alpha 90.000000
_cell_angle_beta 90.000000
_cell_angle_gamma 90.000000
_cell_volume 2162.920719
_symmetry_space_group_name_H-M "P C C M"
_symmetry_group_IT_number 49
_symmetry_cell_setting 'orthorhombic'
loop_
_space_group_symop_operation_xyz
x,y,z
-x,-y,z
x,-y,1/2-z
-x,y,1/2-z
-x,-y,-z
x,y,-z
-x,y,1/2+z
x,-y,1/2+z
loop_
_atom_site_type_symbol
_atom_site_label
_atom_site_fract_x
_atom_site_fract_y
_atom_site_fract_z
Si Si1 0.142217 0.143077 0.177649
Si Si2 0.350174 0.351353 0.822178
Si Si3 0.648787 0.946340 0.820048
Si Si4 0.144448 0.737830 0.678732
Si Si5 0.145335 0.444312 0.179526
O O1 0.260002 0.103177 0.232248
O O2 0.180885 0.202450 0.230212
O O3 0.000000 0.123911 0.250000
O O4 0.122813 0.140839 0.000000
O O5 0.500000 0.353701 0.750000
O O6 0.267555 0.299799 0.762844
O O7 0.263545 0.402913 0.775340
O O8 0.370251 0.348285 0.000000
O O9 0.500000 0.935931 0.750000
O O10 0.712912 0.000000 0.750000
O O11 0.638840 0.951864 0.000000
O O12 0.127558 0.732900 0.500000
O O13 0.000000 0.719109 0.750000
O O14 0.190956 0.500000 0.250000
O O15 0.000000 0.425345 0.250000
O O16 0.127645 0.449535 0.000000
#
# Coordination Sequence:
#
# PCOD8203595 Si02
#       5
#     8   8   8   8   8
#     4   9  19  34  53  76 102 130 165 207 252 298
#     4  10  22  36  52  76 106 136 169 207 251 299
#     4  10  20  34  51  73 100 133 169 206 247 297
#     4   9  18  35  55  76 101 131 167 208 250 298
#     4  10  20  35  55  79 103 133 171 210 250 298
#
# _framework density 18.493510000000001
#
# number of rings (size 3 to 8) (size 9 to 14) (size 15 to 20)
#    0.000    2.400    0.000    3.000    0.000    5.600 
#    0.000    4.000    0.000    0.000    0.000    0.000 
#    0.000    0.000    0.000    0.000    0.000    0.000 
#
# Total GULP energy -496011.490244 kJ/mol
# GULP energy per Si atom -12400.287256 kJ/mol
# Density = 1.845142 g / cm^3
# Si number density = 18.493510 Si / 1000 Ang^3
#
#
#
# Elastic Constant Matrix: (Units=GPa)
#
#
# Indices 1 2 3 4 5 6 
#
# 1 154.8386 108.9113 47.4190 0.0000 0.0000 0.0000
# 2 108.9113 147.6890 47.1202 0.0000 0.0000 0.0000
# 3 47.4190 47.1202 51.7012 0.0000 0.0000 0.0000
# 4 0.0000 0.0000 0.0000 30.1546 0.0000 0.0000
# 5 0.0000 0.0000 0.0000 0.0000 34.1741 0.0000
# 6 0.0000 0.0000 0.0000 0.0000 0.0000 32.7030
#
#
#
# Elastic Compliance Matrix: (Units=1/GPa)
#
#
# Indices 1 2 3 4 5 6 
#
# 1 0.014256 -0.008941 -0.004926 0.000000 0.000000 0.000000
# 2 -0.008941 0.015155 -0.005611 0.000000 0.000000 0.000000
# 3 -0.004926 -0.005611 0.028974 0.000000 0.000000 0.000000
# 4 0.000000 0.000000 0.000000 0.033162 0.000000 0.000000
# 5 0.000000 0.000000 0.000000 0.000000 0.029262 0.000000
# 6 0.000000 0.000000 0.000000 0.000000 0.000000 0.030578
#
#
# Mechanical properties :
#
#
# Convention : Reuss Voigt Hill
#
# Bulk Modulus (GPa) = 51.47353 84.56999 68.02176
# Shear Modulus (GPa) = 25.40362 29.45822 27.43092
#
# Velocity S-wave (km/s) = 3.71030 3.99544 3.85551
# Velocity P-wave (km/s) = 6.80065 8.19228 7.52869
#
# Compressibility (1/GPa) = 0.01942746
#
# Stress axis : x y z
#
# Youngs Moduli (GPa) = 70.14478 65.98505 34.51311
#
# Poissons Ratio (x) = 0.58999 0.17003
# Poissons Ratio (y) = 0.62719 0.19367
# Poissons Ratio (z) = 0.34556 0.37027
#
# Static dielectric constant tensor:
#      x y z
#    x 2.349470 0.000000 0.000000 
#    y 0.000000 3.793070 0.000000 
#    z 0.000000 0.000000 3.382510 
# 
# 
# High freq. dielectric constant tensor:
#      x y z
#    x 1.712980 0.000000 0.000000 
#    y 0.000000 1.731440 0.000000 
#    z 0.000000 0.000000 1.716680 
# 
# From -- ./inp_files/1695.got.cif
#   From: 2010.03.12/outbox.cif.g09.slc.cpg/sg49_1_cif.got.tgz:1695.got - 2010.04.14 03:58:27.
