data_PCOD8203745
_publ_section_title
;
Structure prediction by ZEFSAII (Michael W. Deem and Ramdas Pophale) SiO2 
 PCOD8203745
Probable space group: P C C M
;
_chemical_formula_sum "Si O2"
_cell_formula_units_Z 48
_cell_length_a 8.884685
_cell_length_b 29.481906
_cell_length_c 9.287238
_cell_angle_alpha 90.000000
_cell_angle_beta 90.000000
_cell_angle_gamma 90.000000
_cell_volume 2432.675421
_symmetry_space_group_name_H-M "P C C M"
_symmetry_group_IT_number 49
_symmetry_cell_setting 'orthorhombic'
loop_
_space_group_symop_operation_xyz
x,y,z
-x,-y,z
x,-y,1/2-z
-x,y,1/2-z
-x,-y,-z
x,y,-z
-x,y,1/2+z
x,-y,1/2+z
loop_
_atom_site_type_symbol
_atom_site_label
_atom_site_fract_x
_atom_site_fract_y
_atom_site_fract_z
Si Si1 0.649340 0.935227 0.500000
Si Si2 0.345775 0.188423 0.164863
Si Si3 0.822056 0.099932 0.267770
Si Si4 0.158610 0.542675 0.172266
Si Si5 0.652462 0.370637 0.165697
Si Si6 0.307715 0.958203 0.500000
Si Si7 0.659240 0.271289 0.169664
O O1 0.723391 0.907872 0.371980
O O2 0.468263 0.931764 0.500000
O O3 0.684690 0.988127 0.500000
O O4 0.500000 0.176630 0.250000
O O5 0.233252 0.146187 0.159916
O O6 0.256782 0.229839 0.248098
O O7 0.383248 0.202109 0.000000
O O8 0.787984 0.056077 0.362988
O O9 0.000000 0.103094 0.250000
O O10 0.243784 0.500000 0.250000
O O11 0.237842 0.589475 0.213221
O O12 0.000000 0.546029 0.250000
O O13 0.145380 0.535307 0.000000
O O14 0.500000 0.376437 0.250000
O O15 0.731234 0.321366 0.194645
O O16 0.608410 0.374944 0.000000
O O17 0.500000 0.271598 0.250000
O O18 0.645374 0.260759 0.000000
#
# Coordination Sequence:
#
# PCOD8203745 Si02
#       7
#     4   8   8   8   8   4   8
#     4  11  25  41  73  87 121 155 199 243 284 337
#     4  11  22  38  61  87 116 152 198 238 281 344
#     4  12  26  41  61  91 127 157 190 240 298 348
#     4  10  20  35  53  76 107 146 193 238 286 346
#     4   9  19  34  54  81 114 145 184 237 287 341
#     4  11  23  47  63  97 115 155 203 241 280 351
#     4   9  17  32  55  84 113 147 191 237 285 335
#
# _framework density 19.731362000000001
#
# number of rings (size 3 to 8) (size 9 to 14) (size 15 to 20)
#    0.000    1.667    0.833    5.500    2.333    5.667 
#    0.000    2.500    0.000    2.000    0.000    0.000 
#    0.000    0.000    0.000    0.000    0.000    0.000 
#
# Total GULP energy -594706.177639 kJ/mol
# GULP energy per Si atom -12389.712034 kJ/mol
# Density = 1.968645 g / cm^3
# Si number density = 19.731362 Si / 1000 Ang^3
#
#
#
# Elastic Constant Matrix: (Units=GPa)
#
#
# Indices 1 2 3 4 5 6 
#
# 1 74.9374 42.4176 26.3082 0.0000 0.0000 0.0000
# 2 42.4176 127.8417 42.3636 0.0000 0.0000 0.0000
# 3 26.3082 42.3636 125.3724 0.0000 0.0000 0.0000
# 4 0.0000 0.0000 0.0000 37.1910 0.0000 0.0000
# 5 0.0000 0.0000 0.0000 0.0000 24.4449 0.0000
# 6 0.0000 0.0000 0.0000 0.0000 0.0000 10.0976
#
#
#
# Elastic Compliance Matrix: (Units=1/GPa)
#
#
# Indices 1 2 3 4 5 6 
#
# 1 0.016802 -0.004962 -0.001849 0.000000 0.000000 0.000000
# 2 -0.004962 0.010274 -0.002430 0.000000 0.000000 0.000000
# 3 -0.001849 -0.002430 0.009185 0.000000 0.000000 0.000000
# 4 0.000000 0.000000 0.000000 0.026888 0.000000 0.000000
# 5 0.000000 0.000000 0.000000 0.000000 0.040908 0.000000
# 6 0.000000 0.000000 0.000000 0.000000 0.000000 0.099033
#
#
# Mechanical properties :
#
#
# Convention : Reuss Voigt Hill
#
# Bulk Modulus (GPa) = 56.24746 61.14780 58.69763
# Shear Modulus (GPa) = 21.97788 28.81750 25.39769
#
# Velocity S-wave (km/s) = 3.34107 3.82578 3.59161
# Velocity P-wave (km/s) = 6.59183 7.11147 6.85657
#
# Compressibility (1/GPa) = 0.01777858
#
# Stress axis : x y z
#
# Youngs Moduli (GPa) = 59.51497 97.33306 108.86775
#
# Poissons Ratio (x) = 0.48300 0.20130
# Poissons Ratio (y) = 0.29533 0.26458
# Poissons Ratio (z) = 0.11005 0.23655
#
# Static dielectric constant tensor:
#      x y z
#    x 3.258080 0.000000 0.000000 
#    y 0.000000 4.554530 0.000000 
#    z 0.000000 0.000000 3.771670 
# 
# 
# High freq. dielectric constant tensor:
#      x y z
#    x 1.726450 0.000000 0.000000 
#    y 0.000000 1.796990 0.000000 
#    z 0.000000 0.000000 1.788130 
# 
# From -- ./inp_files/2166.got.cif
#   From: 2010.03.12/outbox.cif.g09.slc.cpg/sg49_2_cif.got.tgz:2166.got - 2010.04.14 03:58:27.
