data_PCOD8203669
_publ_section_title
;
Structure prediction by ZEFSAII (Michael W. Deem and Ramdas Pophale) SiO2 
 PCOD8203669
Probable space group: P C C M
;
_chemical_formula_sum "Si O2"
_cell_formula_units_Z 56
_cell_length_a 18.338888
_cell_length_b 18.924657
_cell_length_c 9.020652
_cell_angle_alpha 90.000000
_cell_angle_beta 90.000000
_cell_angle_gamma 90.000000
_cell_volume 3130.681911
_symmetry_space_group_name_H-M "P C C M"
_symmetry_group_IT_number 49
_symmetry_cell_setting 'orthorhombic'
loop_
_space_group_symop_operation_xyz
x,y,z
-x,-y,z
x,-y,1/2-z
-x,y,1/2-z
-x,-y,-z
x,y,-z
-x,y,1/2+z
x,-y,1/2+z
loop_
_atom_site_type_symbol
_atom_site_label
_atom_site_fract_x
_atom_site_fract_y
_atom_site_fract_z
Si Si1 0.834929 0.778932 0.670093
Si Si2 0.423378 0.215779 0.324182
Si Si3 0.185176 0.067594 0.670313
Si Si4 0.352180 0.930109 0.826038
Si Si5 0.296394 0.290567 0.171070
Si Si6 0.790290 0.571200 0.827244
Si Si7 0.923923 0.644790 0.327445
O O1 0.806364 0.773662 0.500000
O O2 0.858769 0.859846 0.704959
O O3 0.769367 0.759289 0.777877
O O4 0.903332 0.727303 0.695603
O O5 0.500000 0.232304 0.250000
O O6 0.429828 0.220908 0.500000
O O7 0.396208 0.138543 0.271858
O O8 0.367648 0.275504 0.268042
O O9 0.182803 0.048189 0.500000
O O10 0.268337 0.079457 0.723693
O O11 0.148910 0.000000 0.750000
O O12 0.385906 0.000000 0.750000
O O13 0.359581 0.939693 0.000000
O O14 0.273646 0.371830 0.195758
O O15 0.312912 0.274296 0.000000
O O16 0.762137 0.500000 0.750000
O O17 0.864240 0.595247 0.747685
O O18 0.807002 0.559057 0.000000
O O19 0.929288 0.625339 0.500000
O O20 0.000000 0.629469 0.250000
#
# Coordination Sequence:
#
# PCOD8203669 Si02
#       7
#     8   8   8   8   8   8   8
#     4   9  17  32  52  72  99 136 174 213 259 307
#     4  11  22  36  52  73 102 138 177 217 263 312
#     4   9  16  28  45  69  96 126 168 215 264 309
#     4   9  18  31  47  67  97 133 170 214 261 312
#     4  10  20  34  54  79 104 131 169 214 253 301
#     4  10  21  37  58  85 112 138 171 205 246 300
#     4  10  20  34  54  79 110 144 174 209 252 300
#
# _framework density 17.887478000000002
#
# number of rings (size 3 to 8) (size 9 to 14) (size 15 to 20)
#    0.000    2.286    1.429    1.714    0.000    4.571 
#    0.000    2.857    0.000    0.857    0.000    6.000 
#    0.000    0.000    0.000    0.000    0.000    0.000 
#
# Total GULP energy -694402.081864 kJ/mol
# GULP energy per Si atom -12400.037176 kJ/mol
# Density = 1.784677 g / cm^3
# Si number density = 17.887478 Si / 1000 Ang^3
#
#
#
# Elastic Constant Matrix: (Units=GPa)
#
#
# Indices 1 2 3 4 5 6 
#
# 1 60.5636 28.8895 35.1494 0.0000 0.0000 0.0000
# 2 28.8895 117.9893 52.3974 0.0000 0.0000 0.0000
# 3 35.1494 52.3974 89.7972 0.0000 0.0000 0.0000
# 4 0.0000 0.0000 0.0000 31.9975 0.0000 0.0000
# 5 0.0000 0.0000 0.0000 0.0000 25.0532 0.0000
# 6 0.0000 0.0000 0.0000 0.0000 0.0000 19.8980
#
#
#
# Elastic Compliance Matrix: (Units=1/GPa)
#
#
# Indices 1 2 3 4 5 6 
#
# 1 0.021738 -0.002084 -0.007293 0.000000 0.000000 0.000000
# 2 -0.002084 0.011639 -0.005976 0.000000 0.000000 0.000000
# 3 -0.007293 -0.005976 0.017478 0.000000 0.000000 0.000000
# 4 0.000000 0.000000 0.000000 0.031252 0.000000 0.000000
# 5 0.000000 0.000000 0.000000 0.000000 0.039915 0.000000
# 6 0.000000 0.000000 0.000000 0.000000 0.000000 0.050256
#
#
# Mechanical properties :
#
#
# Convention : Reuss Voigt Hill
#
# Bulk Modulus (GPa) = 49.62825 55.69141 52.65983
# Shear Modulus (GPa) = 23.84336 25.51734 24.68035
#
# Velocity S-wave (km/s) = 3.65494 3.78106 3.71854
# Velocity P-wave (km/s) = 6.75399 7.08970 6.92388
#
# Compressibility (1/GPa) = 0.02014981
#
# Stress axis : x y z
#
# Youngs Moduli (GPa) = 46.00176 85.91479 57.21475
#
# Poissons Ratio (x) = 0.17903 0.41727
# Poissons Ratio (y) = 0.09586 0.34192
# Poissons Ratio (z) = 0.33550 0.51343
#
# Static dielectric constant tensor:
#      x y z
#    x 3.031410 0.000000 0.000000 
#    y 0.000000 3.488770 0.000000 
#    z 0.000000 0.000000 3.374680 
# 
# 
# High freq. dielectric constant tensor:
#      x y z
#    x 1.656730 0.000000 0.000000 
#    y 0.000000 1.696730 0.000000 
#    z 0.000000 0.000000 1.701670 
# 
# From -- ./inp_files/5889.got.cif
#   From: 2010.03.12/outbox.cif.g09.slc.cpg/sg49_3_cif.got.tgz:5889.got - 2010.04.14 03:58:27.
