data_PCOD8203886
_publ_section_title
;
Structure prediction by ZEFSAII (Michael W. Deem and Ramdas Pophale) SiO2 
 PCOD8203886
Probable space group: P C C M
;
_chemical_formula_sum "Si O2"
_cell_formula_units_Z 58
_cell_length_a 19.121739
_cell_length_b 18.941056
_cell_length_c 8.808603
_cell_angle_alpha 90.000000
_cell_angle_beta 90.000000
_cell_angle_gamma 90.000000
_cell_volume 3190.352063
_symmetry_space_group_name_H-M "P C C M"
_symmetry_group_IT_number 49
_symmetry_cell_setting 'orthorhombic'
loop_
_space_group_symop_operation_xyz
x,y,z
-x,-y,z
x,-y,1/2-z
-x,y,1/2-z
-x,-y,-z
x,y,-z
-x,y,1/2+z
x,-y,1/2+z
loop_
_atom_site_type_symbol
_atom_site_label
_atom_site_fract_x
_atom_site_fract_y
_atom_site_fract_z
Si Si1 0.109961 0.888310 0.168471
Si Si2 0.259218 0.929023 0.822155
Si Si3 0.575472 0.681740 0.177880
Si Si4 0.314196 0.202745 0.172409
Si Si5 0.000000 0.000000 0.750000
Si Si6 0.316254 0.423331 0.319039
Si Si7 0.071915 0.735813 0.819139
Si Si8 0.793838 0.675468 0.178450
O O1 0.181082 0.915631 0.248767
O O2 0.083043 0.815983 0.245861
O O3 0.050422 0.948547 0.155132
O O4 0.132326 0.866563 0.000000
O O5 0.310440 0.864609 0.781752
O O6 0.290172 0.000000 0.750000
O O7 0.256554 0.939975 0.000000
O O8 0.500000 0.688544 0.250000
O O9 0.613362 0.756816 0.202185
O O10 0.617063 0.621087 0.264969
O O11 0.572170 0.662399 0.000000
O O12 0.249877 0.253964 0.210882
O O13 0.309315 0.176183 0.000000
O O14 0.325354 0.500000 0.250000
O O15 0.313972 0.425966 0.500000
O O16 0.244497 0.390561 0.255579
O O17 0.131373 0.684038 0.756817
O O18 0.000000 0.707095 0.750000
O O19 0.068951 0.732826 0.000000
O O20 0.801361 0.660631 0.000000
#
# Coordination Sequence:
#
# PCOD8203886 Si02
#       8
#     8   8   8   8   2   8   8   8
#     4  10  21  31  44  66  96 135 180 227 280 341
#     4  11  21  34  50  73 101 136 184 235 286 339
#     4  10  21  38  60  90 123 155 190 226 270 328
#     4   9  19  35  55  79 108 143 184 230 278 332
#     4  12  18  36  44  62 100 148 182 228 290 352
#     4  11  22  38  61  90 123 158 190 227 269 323
#     4  11  21  35  51  75 104 140 188 238 291 342
#     4  10  20  36  57  82 110 146 189 237 284 336
#
# _framework density 18.179811999999998
#
# number of rings (size 3 to 8) (size 9 to 14) (size 15 to 20)
#    0.000    1.655    2.759    3.931    0.000    3.034 
#    0.000    1.379    0.000    0.828    0.000    5.793 
#    0.000    0.000    0.000    0.000    0.000    0.000 
#
# Total GULP energy -719179.790790 kJ/mol
# GULP energy per Si atom -12399.651565 kJ/mol
# Density = 1.813843 g / cm^3
# Si number density = 18.179812 Si / 1000 Ang^3
#
#
#
# Elastic Constant Matrix: (Units=GPa)
#
#
# Indices 1 2 3 4 5 6 
#
# 1 116.1439 44.6971 43.3942 0.0000 0.0000 0.0000
# 2 44.6971 85.8358 41.4362 0.0000 0.0000 0.0000
# 3 43.3942 41.4362 112.3525 0.0000 0.0000 0.0000
# 4 0.0000 0.0000 0.0000 30.0340 0.0000 0.0000
# 5 0.0000 0.0000 0.0000 0.0000 29.4888 0.0000
# 6 0.0000 0.0000 0.0000 0.0000 0.0000 18.6685
#
#
#
# Elastic Compliance Matrix: (Units=1/GPa)
#
#
# Indices 1 2 3 4 5 6 
#
# 1 0.011401 -0.004636 -0.002693 0.000000 0.000000 0.000000
# 2 -0.004636 0.016059 -0.004132 0.000000 0.000000 0.000000
# 3 -0.002693 -0.004132 0.011465 0.000000 0.000000 0.000000
# 4 0.000000 0.000000 0.000000 0.033296 0.000000 0.000000
# 5 0.000000 0.000000 0.000000 0.000000 0.033911 0.000000
# 6 0.000000 0.000000 0.000000 0.000000 0.000000 0.053566
#
#
# Mechanical properties :
#
#
# Convention : Reuss Voigt Hill
#
# Bulk Modulus (GPa) = 62.49621 63.70971 63.10296
# Shear Modulus (GPa) = 26.60221 27.95860 27.28040
#
# Velocity S-wave (km/s) = 3.82944 3.92585 3.87794
# Velocity P-wave (km/s) = 7.34875 7.46124 7.40521
#
# Compressibility (1/GPa) = 0.01600097
#
# Stress axis : x y z
#
# Youngs Moduli (GPa) = 87.71466 62.26996 87.22433
#
# Poissons Ratio (x) = 0.28871 0.23493
# Poissons Ratio (y) = 0.40668 0.36041
# Poissons Ratio (z) = 0.23625 0.25730
#
# Static dielectric constant tensor:
#      x y z
#    x 3.352190 0.000000 0.000000 
#    y 0.000000 3.266720 0.000000 
#    z 0.000000 0.000000 3.289340 
# 
# 
# High freq. dielectric constant tensor:
#      x y z
#    x 1.693920 0.000000 0.000000 
#    y 0.000000 1.692650 0.000000 
#    z 0.000000 0.000000 1.708100 
# 
# From -- ./inp_files/5097.got.cif
#   From: 2010.03.12/outbox.cif.g09.slc.cpg/sg49_3_cif.got.tgz:5097.got - 2010.04.14 03:58:27.
