data_PCOD8203231
_publ_section_title
;
Structure prediction by ZEFSAII (Michael W. Deem and Ramdas Pophale) SiO2 
 PCOD8203231
Probable space group: P C C M
;
_chemical_formula_sum "Si O2"
_cell_formula_units_Z 60
_cell_length_a 15.814612
_cell_length_b 21.785317
_cell_length_c 8.876544
_cell_angle_alpha 90.000000
_cell_angle_beta 90.000000
_cell_angle_gamma 90.000000
_cell_volume 3058.203178
_symmetry_space_group_name_H-M "P C C M"
_symmetry_group_IT_number 49
_symmetry_cell_setting 'orthorhombic'
loop_
_space_group_symop_operation_xyz
x,y,z
-x,-y,z
x,-y,1/2-z
-x,y,1/2-z
-x,-y,-z
x,y,-z
-x,y,1/2+z
x,-y,1/2+z
loop_
_atom_site_type_symbol
_atom_site_label
_atom_site_fract_x
_atom_site_fract_y
_atom_site_fract_z
Si Si1 0.587857 0.149620 0.323700
Si Si2 0.000000 0.651136 0.750000
Si Si3 0.858585 0.561715 0.168193
Si Si4 0.586878 0.289889 0.322335
Si Si5 0.912179 0.119939 0.819107
Si Si6 0.744278 0.935566 0.180052
Si Si7 0.125262 0.747038 0.836004
Si Si8 0.742614 0.654100 0.679988
O O1 0.500000 0.126139 0.250000
O O2 0.573724 0.143197 0.500000
O O3 0.607097 0.219696 0.276301
O O4 0.669444 0.110913 0.271272
O O5 0.062904 0.608347 0.655818
O O6 0.050685 0.697217 0.858947
O O7 0.888777 0.500000 0.250000
O O8 0.781064 0.590367 0.261459
O O9 0.827922 0.546478 0.000000
O O10 0.500000 0.310744 0.250000
O O11 0.585329 0.298602 0.500000
O O12 0.651011 0.337633 0.248561
O O13 0.833408 0.082223 0.754850
O O14 0.902178 0.189978 0.754750
O O15 0.000000 0.093966 0.750000
O O16 0.916138 0.114727 0.000000
O O17 0.716297 0.000000 0.250000
O O18 0.754534 0.938826 0.000000
O O19 0.202588 0.711855 0.754612
O O20 0.156260 0.768070 0.000000
O O21 0.742172 0.653071 0.500000
#
# Coordination Sequence:
#
# PCOD8203231 Si02
#       8
#     8   4   8   8   8   8   8   8
#     4   9  20  37  60  89 121 152 186 229 285 348
#     4  10  19  34  54  82 113 146 186 228 278 332
#     4  11  23  37  55  78 111 153 195 237 279 327
#     4  10  19  34  57  87 118 148 182 224 278 335
#     4  11  22  38  59  84 113 149 190 239 292 343
#     4  11  24  42  60  83 112 149 195 241 287 342
#     4   9  18  32  52  80 113 145 180 224 280 337
#     4  10  20  35  55  81 113 149 189 232 278 333
#
# _framework density 19.619364000000001
#
# number of rings (size 3 to 8) (size 9 to 14) (size 15 to 20)
#    0.000    1.867    0.667    3.400    0.000    4.267 
#    0.000    4.000    0.000    0.400    0.000    2.800 
#    0.000    0.000    0.000    0.000    0.000    0.000 
#
# Total GULP energy -743748.778572 kJ/mol
# GULP energy per Si atom -12395.812976 kJ/mol
# Density = 1.957471 g / cm^3
# Si number density = 19.619364 Si / 1000 Ang^3
#
#
#
# Elastic Constant Matrix: (Units=GPa)
#
#
# Indices 1 2 3 4 5 6 
#
# 1 122.5596 29.2355 35.6104 0.0000 0.0000 0.0000
# 2 29.2355 61.8961 21.0093 0.0000 0.0000 0.0000
# 3 35.6104 21.0093 94.8281 0.0000 0.0000 0.0000
# 4 0.0000 0.0000 0.0000 26.3786 0.0000 0.0000
# 5 0.0000 0.0000 0.0000 0.0000 30.0681 0.0000
# 6 0.0000 0.0000 0.0000 0.0000 0.0000 24.8214
#
#
#
# Elastic Compliance Matrix: (Units=1/GPa)
#
#
# Indices 1 2 3 4 5 6 
#
# 1 0.009879 -0.003684 -0.002894 0.000000 0.000000 0.000000
# 2 -0.003684 0.018844 -0.002791 0.000000 0.000000 0.000000
# 3 -0.002894 -0.002791 0.012250 0.000000 0.000000 0.000000
# 4 0.000000 0.000000 0.000000 0.037910 0.000000 0.000000
# 5 0.000000 0.000000 0.000000 0.000000 0.033258 0.000000
# 6 0.000000 0.000000 0.000000 0.000000 0.000000 0.040288
#
#
# Mechanical properties :
#
#
# Convention : Reuss Voigt Hill
#
# Bulk Modulus (GPa) = 44.97404 50.11049 47.54226
# Shear Modulus (GPa) = 27.99904 29.14887 28.57395
#
# Velocity S-wave (km/s) = 3.78181 3.85868 3.82044
# Velocity P-wave (km/s) = 6.48402 6.74162 6.61407
#
# Compressibility (1/GPa) = 0.02223505
#
# Stress axis : x y z
#
# Youngs Moduli (GPa) = 101.22686 53.06836 81.62964
#
# Poissons Ratio (x) = 0.19550 0.23620
# Poissons Ratio (y) = 0.37291 0.22786
# Poissons Ratio (z) = 0.29291 0.14814
#
# Static dielectric constant tensor:
#      x y z
#    x 3.620170 0.000000 0.000000 
#    y 0.000000 3.560280 0.000000 
#    z 0.000000 0.000000 3.421020 
# 
# 
# High freq. dielectric constant tensor:
#      x y z
#    x 1.765440 0.000000 0.000000 
#    y 0.000000 1.754830 0.000000 
#    z 0.000000 0.000000 1.761420 
# 
# From -- ./inp_files/4248.got.cif
#   From: 2010.03.12/outbox.cif.g09.slc.cpg/sg49_3_cif.got.tgz:4248.got - 2010.04.14 03:58:27.
