data_PCOD8203612
_publ_section_title
;
Structure prediction by ZEFSAII (Michael W. Deem and Ramdas Pophale) SiO2 
 PCOD8203612
Probable space group: P C C M
;
_chemical_formula_sum "Si O2"
_cell_formula_units_Z 64
_cell_length_a 27.496510
_cell_length_b 14.659942
_cell_length_c 8.674198
_cell_angle_alpha 90.000000
_cell_angle_beta 90.000000
_cell_angle_gamma 90.000000
_cell_volume 3496.545289
_symmetry_space_group_name_H-M "P C C M"
_symmetry_group_IT_number 49
_symmetry_cell_setting 'orthorhombic'
loop_
_space_group_symop_operation_xyz
x,y,z
-x,-y,z
x,-y,1/2-z
-x,y,1/2-z
-x,-y,-z
x,y,-z
-x,y,1/2+z
x,-y,1/2+z
loop_
_atom_site_type_symbol
_atom_site_label
_atom_site_fract_x
_atom_site_fract_y
_atom_site_fract_z
Si Si1 0.138125 0.729376 0.318397
Si Si2 0.720923 0.095295 0.682314
Si Si3 0.051500 0.402959 0.181981
Si Si4 0.331768 0.403747 0.817345
Si Si5 0.220687 0.594321 0.680840
Si Si6 0.448809 0.903446 0.819180
Si Si7 0.173768 0.905072 0.181794
Si Si8 0.359065 0.778425 0.180916
O O1 0.139848 0.747702 0.500000
O O2 0.090632 0.672849 0.270396
O O3 0.186117 0.675445 0.261316
O O4 0.136485 0.825457 0.229530
O O5 0.724822 0.087540 0.500000
O O6 0.773649 0.118386 0.748773
O O7 0.684877 0.175872 0.726790
O O8 0.700919 0.000000 0.750000
O O9 0.067940 0.500000 0.250000
O O10 0.000000 0.371365 0.250000
O O11 0.047238 0.413513 0.000000
O O12 0.349878 0.500000 0.750000
O O13 0.275877 0.385934 0.767622
O O14 0.364055 0.325438 0.738211
O O15 0.338800 0.402588 0.000000
O O16 0.201345 0.500000 0.750000
O O17 0.216655 0.583959 0.500000
O O18 0.500000 0.870790 0.750000
O O19 0.409166 0.827942 0.775849
O O20 0.432034 0.000000 0.750000
O O21 0.454740 0.915971 0.000000
O O22 0.153822 0.000000 0.250000
O O23 0.177973 0.913893 0.000000
O O24 0.348194 0.783426 0.000000
#
# Coordination Sequence:
#
# PCOD8203612 Si02
#       8
#     8   8   8   8   8   8   8   8
#     4  10  20  34  52  76 104 136 174 215 258 309
#     4  11  21  34  52  76 108 143 177 215 258 308
#     4  10  20  34  54  78 108 140 172 213 260 311
#     4  10  20  34  52  74 103 141 177 216 260 306
#     4   9  18  31  48  72 103 135 169 207 250 299
#     4  10  21  36  56  80 108 137 168 209 258 313
#     4  11  22  36  54  75 103 139 175 216 259 305
#     4  11  22  35  53  79 106 137 178 219 260 311
#
# _framework density 18.303781000000001
#
# number of rings (size 3 to 8) (size 9 to 14) (size 15 to 20)
#    0.000    1.750    0.000    6.750    0.000    6.000 
#    0.000    0.000    0.000    0.750    0.000    5.250 
#    0.000    0.000    0.000    0.000    0.000    0.000 
#
# Total GULP energy -793856.197426 kJ/mol
# GULP energy per Si atom -12404.003085 kJ/mol
# Density = 1.826212 g / cm^3
# Si number density = 18.303781 Si / 1000 Ang^3
#
#
#
# Elastic Constant Matrix: (Units=GPa)
#
#
# Indices 1 2 3 4 5 6 
#
# 1 83.6018 73.7765 46.9023 0.0000 0.0000 0.0000
# 2 73.7765 155.2382 58.0373 0.0000 0.0000 0.0000
# 3 46.9023 58.0373 107.5720 0.0000 0.0000 0.0000
# 4 0.0000 0.0000 0.0000 35.4194 0.0000 0.0000
# 5 0.0000 0.0000 0.0000 0.0000 22.2790 0.0000
# 6 0.0000 0.0000 0.0000 0.0000 0.0000 28.3944
#
#
#
# Elastic Compliance Matrix: (Units=1/GPa)
#
#
# Indices 1 2 3 4 5 6 
#
# 1 0.022628 -0.008851 -0.005091 0.000000 0.000000 0.000000
# 2 -0.008851 0.011531 -0.002362 0.000000 0.000000 0.000000
# 3 -0.005091 -0.002362 0.012790 0.000000 0.000000 0.000000
# 4 0.000000 0.000000 0.000000 0.028233 0.000000 0.000000
# 5 0.000000 0.000000 0.000000 0.000000 0.044885 0.000000
# 6 0.000000 0.000000 0.000000 0.000000 0.000000 0.035218
#
#
# Mechanical properties :
#
#
# Convention : Reuss Voigt Hill
#
# Bulk Modulus (GPa) = 69.72668 78.20491 73.96580
# Shear Modulus (GPa) = 25.95052 28.39828 27.17440
#
# Velocity S-wave (km/s) = 3.76941 3.94318 3.85727
# Velocity P-wave (km/s) = 7.55787 7.97185 7.76762
#
# Compressibility (1/GPa) = 0.01434171
#
# Stress axis : x y z
#
# Youngs Moduli (GPa) = 44.19306 86.72191 78.18419
#
# Poissons Ratio (x) = 0.76754 0.39803
# Poissons Ratio (y) = 0.39113 0.18470
# Poissons Ratio (z) = 0.22498 0.20487
#
# Static dielectric constant tensor:
#      x y z
#    x 3.314430 0.000000 0.000000 
#    y 0.000000 3.591290 0.000000 
#    z 0.000000 0.000000 3.416510 
# 
# 
# High freq. dielectric constant tensor:
#      x y z
#    x 1.685260 0.000000 0.000000 
#    y 0.000000 1.714650 0.000000 
#    z 0.000000 0.000000 1.722220 
# 
# From -- ./inp_files/6523.got.cif
#   From: 2010.03.12/outbox.cif.g09.slc.cpg/sg49_4_cif.got.tgz:6523.got - 2010.04.14 03:58:27.
