data_PCOD8203653
_publ_section_title
;
Structure prediction by ZEFSAII (Michael W. Deem and Ramdas Pophale) SiO2 
 PCOD8203653
Probable space group: P C C M
;
_chemical_formula_sum "Si O2"
_cell_formula_units_Z 56
_cell_length_a 22.772911
_cell_length_b 14.724824
_cell_length_c 8.593189
_cell_angle_alpha 90.000000
_cell_angle_beta 90.000000
_cell_angle_gamma 90.000000
_cell_volume 2881.529202
_symmetry_space_group_name_H-M "P C C M"
_symmetry_group_IT_number 49
_symmetry_cell_setting 'orthorhombic'
loop_
_space_group_symop_operation_xyz
x,y,z
-x,-y,z
x,-y,1/2-z
-x,y,1/2-z
-x,-y,-z
x,y,-z
-x,y,1/2+z
x,-y,1/2+z
loop_
_atom_site_type_symbol
_atom_site_label
_atom_site_fract_x
_atom_site_fract_y
_atom_site_fract_z
Si Si1 0.287061 0.095758 0.183218
Si Si2 0.666259 0.729899 0.316246
Si Si3 0.159764 0.903680 0.184179
Si Si4 0.235244 0.405695 0.682535
Si Si5 0.898866 0.403615 0.184740
Si Si6 0.437123 0.597057 0.183798
Si Si7 0.939314 0.777680 0.183524
O O1 0.333789 0.173050 0.230427
O O2 0.223915 0.121663 0.253604
O O3 0.309755 0.000000 0.250000
O O4 0.281145 0.087368 0.000000
O O5 0.667802 0.746101 0.500000
O O6 0.723585 0.675258 0.257188
O O7 0.608683 0.674420 0.265282
O O8 0.114941 0.826829 0.235680
O O9 0.138073 0.000000 0.250000
O O10 0.162535 0.908111 0.000000
O O11 0.258961 0.500000 0.750000
O O12 0.240407 0.414243 0.500000
O O13 0.168658 0.386902 0.734678
O O14 0.920699 0.500000 0.250000
O O15 0.937351 0.327980 0.270233
O O16 0.907785 0.398479 0.000000
O O17 0.416613 0.500000 0.250000
O O18 0.500000 0.626322 0.250000
O O19 0.440924 0.587797 0.000000
O O20 0.000000 0.819003 0.250000
O O21 0.936623 0.791576 0.000000
#
# Coordination Sequence:
#
# PCOD8203653 Si02
#       7
#     8   8   8   8   8   8   8
#     4  11  22  37  59  86 114 146 181 224 274 330
#     4  10  20  34  53  80 112 148 186 230 279 329
#     4  11  22  40  63  87 115 146 179 221 273 332
#     4   9  18  31  50  76 108 139 172 215 267 323
#     4  10  20  36  56  79 107 143 180 223 275 330
#     4  10  20  34  54  79 114 156 198 239 280 325
#     4  12  25  41  59  82 108 140 183 229 277 331
#
# _framework density 19.434125999999999
#
# number of rings (size 3 to 8) (size 9 to 14) (size 15 to 20)
#    0.000    1.571    0.000    7.286    0.000    4.000 
#    0.000    2.857    0.000    0.429    0.000    3.000 
#    0.000    0.000    0.000    0.000    0.000    0.000 
#
# Total GULP energy -694635.229893 kJ/mol
# GULP energy per Si atom -12404.200534 kJ/mol
# Density = 1.938989 g / cm^3
# Si number density = 19.434126 Si / 1000 Ang^3
#
#
#
# Elastic Constant Matrix: (Units=GPa)
#
#
# Indices 1 2 3 4 5 6 
#
# 1 75.4727 54.4950 39.1916 0.0000 0.0000 0.0000
# 2 54.4950 128.1213 45.9971 0.0000 0.0000 0.0000
# 3 39.1916 45.9971 121.1344 0.0000 0.0000 0.0000
# 4 0.0000 0.0000 0.0000 36.2595 0.0000 0.0000
# 5 0.0000 0.0000 0.0000 0.0000 26.2646 0.0000
# 6 0.0000 0.0000 0.0000 0.0000 0.0000 25.7336
#
#
#
# Elastic Compliance Matrix: (Units=1/GPa)
#
#
# Indices 1 2 3 4 5 6 
#
# 1 0.020571 -0.007364 -0.003859 0.000000 0.000000 0.000000
# 2 -0.007364 0.011673 -0.002050 0.000000 0.000000 0.000000
# 3 -0.003859 -0.002050 0.010282 0.000000 0.000000 0.000000
# 4 0.000000 0.000000 0.000000 0.027579 0.000000 0.000000
# 5 0.000000 0.000000 0.000000 0.000000 0.038074 0.000000
# 6 0.000000 0.000000 0.000000 0.000000 0.000000 0.038860
#
#
# Mechanical properties :
#
#
# Convention : Reuss Voigt Hill
#
# Bulk Modulus (GPa) = 62.57829 67.12176 64.85002
# Shear Modulus (GPa) = 27.94651 29.98784 28.96717
#
# Velocity S-wave (km/s) = 3.79623 3.93243 3.86493
# Velocity P-wave (km/s) = 7.17532 7.43181 7.30469
#
# Compressibility (1/GPa) = 0.01597998
#
# Stress axis : x y z
#
# Youngs Moduli (GPa) = 48.61174 85.66509 97.25425
#
# Poissons Ratio (x) = 0.63086 0.37533
# Poissons Ratio (y) = 0.35799 0.19937
# Poissons Ratio (z) = 0.18760 0.17561
#
# Static dielectric constant tensor:
#      x y z
#    x 3.658340 0.000000 0.000000 
#    y 0.000000 3.559030 0.000000 
#    z 0.000000 0.000000 3.554560 
# 
# 
# High freq. dielectric constant tensor:
#      x y z
#    x 1.742130 0.000000 0.000000 
#    y 0.000000 1.761140 0.000000 
#    z 0.000000 0.000000 1.766210 
# 
# From -- ./inp_files/4080.got.cif
#   From: 2010.03.12/outbox.cif.g09.slc.cpg/sg49_3_cif.got.tgz:4080.got - 2010.04.14 03:58:27.
