data_PCOD8203962
_publ_section_title
;
Structure prediction by ZEFSAII (Michael W. Deem and Ramdas Pophale) SiO2 
 PCOD8203962
Probable space group: P C C M
;
_chemical_formula_sum "Si O2"
_cell_formula_units_Z 64
_cell_length_a 18.393489
_cell_length_b 10.165651
_cell_length_c 17.665846
_cell_angle_alpha 90.000000
_cell_angle_beta 90.000000
_cell_angle_gamma 90.000000
_cell_volume 3303.191504
_symmetry_space_group_name_H-M "P C C M"
_symmetry_group_IT_number 49
_symmetry_cell_setting 'orthorhombic'
loop_
_space_group_symop_operation_xyz
x,y,z
-x,-y,z
x,-y,1/2-z
-x,y,1/2-z
-x,-y,-z
x,y,-z
-x,y,1/2+z
x,-y,1/2+z
loop_
_atom_site_type_symbol
_atom_site_label
_atom_site_fract_x
_atom_site_fract_y
_atom_site_fract_z
Si Si1 0.714524 0.994346 0.910671
Si Si2 0.088810 0.355949 0.586811
Si Si3 0.294549 0.525843 0.668014
Si Si4 0.541171 0.619339 0.829745
Si Si5 0.792788 0.766189 0.166253
Si Si6 0.768832 0.259176 0.157190
Si Si7 0.442199 0.893279 0.410683
Si Si8 0.075405 0.660623 0.587962
O O1 0.728116 0.142240 0.885095
O O2 0.774085 0.903693 0.871647
O O3 0.635746 0.944685 0.883066
O O4 0.721999 0.983729 0.000000
O O5 0.108742 0.333955 0.500000
O O6 0.147034 0.274646 0.634785
O O7 0.090973 0.509169 0.607293
O O8 0.008197 0.301704 0.604068
O O9 0.258458 0.500000 0.750000
O O10 0.377170 0.568599 0.679351
O O11 0.251785 0.645184 0.626951
O O12 0.278980 0.385464 0.628163
O O13 0.500000 0.500000 0.873652
O O14 0.500000 0.641258 0.750000
O O15 0.537806 0.753280 0.875616
O O16 0.770087 0.770703 0.253699
O O17 0.877520 0.745735 0.147005
O O18 0.445308 0.875560 0.500000
O O19 0.500000 0.000000 0.381962
O O20 0.094760 0.689988 0.500000
#
# Coordination Sequence:
#
# PCOD8203962 Si02
#       8
#     8   8   8   8   8   8   8   8
#     4  11  24  43  62  84 121 164 206 251 306 370
#     4   9  18  35  58  90 124 159 205 250 300 366
#     4  10  20  37  56  90 123 151 195 244 298 355
#     4  11  22  39  64  91 119 155 197 248 297 360
#     4  11  21  38  60  88 123 161 201 249 304 365
#     4  11  23  37  61  90 127 159 198 258 302 359
#     4  10  24  44  61  84 119 156 201 251 302 363
#     4   9  18  34  59  88 122 162 204 249 302 365
#
# _framework density 19.375202000000002
#
# number of rings (size 3 to 8) (size 9 to 14) (size 15 to 20)
#    0.000    1.750    3.750    1.875    1.750    1.000 
#    2.250    3.125    0.000    3.750    0.000    0.000 
#    0.000    0.000    0.000    0.000    0.000    0.000 
#
# Total GULP energy -793311.016129 kJ/mol
# GULP energy per Si atom -12395.484627 kJ/mol
# Density = 1.933110 g / cm^3
# Si number density = 19.375202 Si / 1000 Ang^3
#
#
#
# Elastic Constant Matrix: (Units=GPa)
#
#
# Indices 1 2 3 4 5 6 
#
# 1 113.1353 49.4200 29.1651 0.0000 0.0000 0.0000
# 2 49.4200 130.8602 27.8132 0.0000 0.0000 0.0000
# 3 29.1651 27.8132 46.1027 0.0000 0.0000 0.0000
# 4 0.0000 0.0000 0.0000 30.2173 0.0000 0.0000
# 5 0.0000 0.0000 0.0000 0.0000 26.1860 0.0000
# 6 0.0000 0.0000 0.0000 0.0000 0.0000 30.7231
#
#
#
# Elastic Compliance Matrix: (Units=1/GPa)
#
#
# Indices 1 2 3 4 5 6 
#
# 1 0.011654 -0.003251 -0.005411 0.000000 0.000000 0.000000
# 2 -0.003251 0.009673 -0.003779 0.000000 0.000000 0.000000
# 3 -0.005411 -0.003779 0.027393 0.000000 0.000000 0.000000
# 4 0.000000 0.000000 0.000000 0.033094 0.000000 0.000000
# 5 0.000000 0.000000 0.000000 0.000000 0.038188 0.000000
# 6 0.000000 0.000000 0.000000 0.000000 0.000000 0.032549
#
#
# Mechanical properties :
#
#
# Convention : Reuss Voigt Hill
#
# Bulk Modulus (GPa) = 41.94932 55.87721 48.91326
# Shear Modulus (GPa) = 26.97177 29.67194 28.32185
#
# Velocity S-wave (km/s) = 3.73510 3.91761 3.82744
# Velocity P-wave (km/s) = 6.34818 7.02607 6.69571
#
# Compressibility (1/GPa) = 0.02383829
#
# Stress axis : x y z
#
# Youngs Moduli (GPa) = 85.80692 103.38396 36.50505
#
# Poissons Ratio (x) = 0.33611 0.19753
# Poissons Ratio (y) = 0.27897 0.13794
# Poissons Ratio (z) = 0.46431 0.39066
#
# Static dielectric constant tensor:
#      x y z
#    x 3.631220 0.000000 0.000000 
#    y 0.000000 3.663050 0.000000 
#    z 0.000000 0.000000 3.348120 
# 
# 
# High freq. dielectric constant tensor:
#      x y z
#    x 1.764640 0.000000 0.000000 
#    y 0.000000 1.755630 0.000000 
#    z 0.000000 0.000000 1.735110 
# 
# From -- ./inp_files/21102.got.cif
#   From: 2010.03.12/outbox.cif.g09.slc.cpg/sg49_11_cif.got.tgz:21102.got - 2010.04.14 03:58:27.
