data_PCOD8203492
_publ_section_title
;
Structure prediction by ZEFSAII (Michael W. Deem and Ramdas Pophale) SiO2 
 PCOD8203492
Probable space group: P C C M
;
_chemical_formula_sum "Si O2"
_cell_formula_units_Z 64
_cell_length_a 19.975127
_cell_length_b 19.955245
_cell_length_c 8.542712
_cell_angle_alpha 90.000000
_cell_angle_beta 90.000000
_cell_angle_gamma 90.000000
_cell_volume 3405.198071
_symmetry_space_group_name_H-M "P C C M"
_symmetry_group_IT_number 49
_symmetry_cell_setting 'orthorhombic'
loop_
_space_group_symop_operation_xyz
x,y,z
-x,-y,z
x,-y,1/2-z
-x,y,1/2-z
-x,-y,-z
x,y,-z
-x,y,1/2+z
x,-y,1/2+z
loop_
_atom_site_type_symbol
_atom_site_label
_atom_site_fract_x
_atom_site_fract_y
_atom_site_fract_z
Si Si1 0.569529 0.113093 0.816803
Si Si2 0.603101 0.251231 0.317793
Si Si3 0.706304 0.069820 0.684150
Si Si4 0.928097 0.929050 0.817359
Si Si5 0.711874 0.567764 0.682117
Si Si6 0.741108 0.286884 0.182172
Si Si7 0.433216 0.389879 0.314691
Si Si8 0.183339 0.160278 0.320095
O O1 0.500000 0.083935 0.750000
O O2 0.572351 0.192276 0.786268
O O3 0.628234 0.076194 0.722410
O O4 0.576514 0.097462 0.000000
O O5 0.591400 0.235159 0.500000
O O6 0.682181 0.257034 0.287136
O O7 0.565069 0.317840 0.267441
O O8 0.719470 0.074554 0.500000
O O9 0.746298 0.127952 0.772270
O O10 0.734365 0.000000 0.750000
O O11 0.877050 0.868889 0.781896
O O12 0.000000 0.909092 0.750000
O O13 0.901990 0.000000 0.750000
O O14 0.935273 0.938179 0.000000
O O15 0.744844 0.500000 0.750000
O O16 0.714447 0.558965 0.500000
O O17 0.753078 0.635051 0.731603
O O18 0.634528 0.572799 0.739833
O O19 0.807342 0.240836 0.207329
O O20 0.718278 0.284687 0.000000
O O21 0.500000 0.427842 0.250000
O O22 0.435109 0.382325 0.500000
O O23 0.167325 0.144651 0.500000
#
# Coordination Sequence:
#
# PCOD8203492 Si02
#       8
#     8   8   8   8   8   8   8   8
#     4  12  24  39  55  73  97 129 169 221 280 336
#     4  11  20  32  51  74  98 126 165 214 271 329
#     4  12  25  41  58  80 105 136 178 224 275 330
#     4  11  22  38  59  87 124 162 200 234 271 323
#     4   9  19  34  50  71  99 135 171 216 270 330
#     4   9  19  35  55  77 106 139 177 220 270 321
#     4  10  20  33  47  66  93 124 165 211 267 330
#     4  11  21  37  61  86 114 150 187 230 275 318
#
# _framework density 18.794795000000001
#
# number of rings (size 3 to 8) (size 9 to 14) (size 15 to 20)
#    0.000    1.375    1.250    7.125    0.000    3.500 
#    0.000    2.500    0.000    0.000    0.000    0.000 
#    0.000    0.500    0.000    5.750    0.000    1.750 
#
# Total GULP energy -793537.693913 kJ/mol
# GULP energy per Si atom -12399.026467 kJ/mol
# Density = 1.875202 g / cm^3
# Si number density = 18.794795 Si / 1000 Ang^3
#
#
#
# Elastic Constant Matrix: (Units=GPa)
#
#
# Indices 1 2 3 4 5 6 
#
# 1 76.0258 37.2723 18.4611 0.0000 0.0000 0.0000
# 2 37.2723 109.5578 23.2082 0.0000 0.0000 0.0000
# 3 18.4611 23.2082 85.5625 0.0000 0.0000 0.0000
# 4 0.0000 0.0000 0.0000 25.8386 0.0000 0.0000
# 5 0.0000 0.0000 0.0000 0.0000 23.5955 0.0000
# 6 0.0000 0.0000 0.0000 0.0000 0.0000 14.1480
#
#
#
# Elastic Compliance Matrix: (Units=1/GPa)
#
#
# Indices 1 2 3 4 5 6 
#
# 1 0.016139 -0.005043 -0.002114 0.000000 0.000000 0.000000
# 2 -0.005043 0.011260 -0.001966 0.000000 0.000000 0.000000
# 3 -0.002114 -0.001966 0.012677 0.000000 0.000000 0.000000
# 4 0.000000 0.000000 0.000000 0.038702 0.000000 0.000000
# 5 0.000000 0.000000 0.000000 0.000000 0.042381 0.000000
# 6 0.000000 0.000000 0.000000 0.000000 0.000000 0.070681
#
#
# Mechanical properties :
#
#
# Convention : Reuss Voigt Hill
#
# Bulk Modulus (GPa) = 45.81015 47.66992 46.74003
# Shear Modulus (GPa) = 23.00307 25.53007 24.26657
#
# Velocity S-wave (km/s) = 3.50223 3.68959 3.59713
# Velocity P-wave (km/s) = 6.38600 6.60070 6.49423
#
# Compressibility (1/GPa) = 0.02182922
#
# Stress axis : x y z
#
# Youngs Moduli (GPa) = 61.96135 88.81268 78.88396
#
# Poissons Ratio (x) = 0.44786 0.16679
# Poissons Ratio (y) = 0.31245 0.15509
# Poissons Ratio (z) = 0.13101 0.17461
#
# Static dielectric constant tensor:
#      x y z
#    x 3.193510 0.000000 0.000000 
#    y 0.000000 3.756490 0.000000 
#    z 0.000000 0.000000 3.451590 
# 
# 
# High freq. dielectric constant tensor:
#      x y z
#    x 1.686810 0.000000 0.000000 
#    y 0.000000 1.729340 0.000000 
#    z 0.000000 0.000000 1.740440 
# 
# From -- ./inp_files/5341.got.cif
#   From: 2010.03.12/outbox.cif.g09.slc.cpg/sg49_3_cif.got.tgz:5341.got - 2010.04.14 03:58:27.
