data_PCOD8203204
_publ_section_title
;
Structure prediction by ZEFSAII (Michael W. Deem and Ramdas Pophale) SiO2 
 PCOD8203204
Probable space group: P C C M
;
_chemical_formula_sum "Si O2"
_cell_formula_units_Z 48
_cell_length_a 14.433626
_cell_length_b 18.810231
_cell_length_c 9.057316
_cell_angle_alpha 90.000000
_cell_angle_beta 90.000000
_cell_angle_gamma 90.000000
_cell_volume 2459.059838
_symmetry_space_group_name_H-M "P C C M"
_symmetry_group_IT_number 49
_symmetry_cell_setting 'orthorhombic'
loop_
_space_group_symop_operation_xyz
x,y,z
-x,-y,z
x,-y,1/2-z
-x,y,1/2-z
-x,-y,-z
x,y,-z
-x,y,1/2+z
x,-y,1/2+z
loop_
_atom_site_type_symbol
_atom_site_label
_atom_site_fract_x
_atom_site_fract_y
_atom_site_fract_z
Si Si1 0.867327 0.431655 0.332379
Si Si2 0.648442 0.570419 0.167567
Si Si3 0.903281 0.924766 0.321964
Si Si4 0.405147 0.272452 0.176269
Si Si5 0.245199 0.192341 0.665153
Si Si6 0.920371 0.295035 0.164093
O O1 0.906124 0.500000 0.250000
O O2 0.899093 0.435046 0.500000
O O3 0.757611 0.426629 0.316826
O O4 0.914900 0.366305 0.255748
O O5 0.608516 0.500000 0.250000
O O6 0.612705 0.646260 0.232069
O O7 0.615505 0.562517 0.000000
O O8 0.915082 0.928678 0.500000
O O9 0.816507 0.874279 0.278992
O O10 0.000000 0.897455 0.250000
O O11 0.877992 0.000000 0.250000
O O12 0.500000 0.246316 0.250000
O O13 0.328345 0.214568 0.226787
O O14 0.409898 0.269649 0.000000
O O15 0.284076 0.177383 0.500000
O O16 0.178191 0.259106 0.661080
O O17 0.000000 0.249123 0.250000
O O18 0.955458 0.310320 0.000000
#
# Coordination Sequence:
#
# PCOD8203204 Si02
#       6
#     8   8   8   8   8   8
#     4  10  19  34  52  73 101 137 183 230 282 337
#     4   9  19  34  54  78 105 141 184 236 294 348
#     4  10  20  36  60  93 128 161 195 230 273 327
#     4  11  23  39  59  85 114 149 193 240 293 348
#     4  10  22  39  59  84 116 152 189 231 281 335
#     4  11  22  35  53  78 107 143 184 229 278 332
#
# _framework density 19.519653999999999
#
# number of rings (size 3 to 8) (size 9 to 14) (size 15 to 20)
#    0.000    1.833    1.667    3.000    0.000    4.667 
#    0.000    3.333    0.000    0.500    0.000    3.500 
#    0.000    0.000    0.000    0.000    0.000    0.000 
#
# Total GULP energy -594857.387060 kJ/mol
# GULP energy per Si atom -12392.862230 kJ/mol
# Density = 1.947523 g / cm^3
# Si number density = 19.519654 Si / 1000 Ang^3
#
#
#
# Elastic Constant Matrix: (Units=GPa)
#
#
# Indices 1 2 3 4 5 6 
#
# 1 87.5683 52.6690 59.6301 0.0000 0.0000 0.0000
# 2 52.6690 110.6529 49.6156 0.0000 0.0000 0.0000
# 3 59.6301 49.6156 130.6799 0.0000 0.0000 0.0000
# 4 0.0000 0.0000 0.0000 26.4806 0.0000 0.0000
# 5 0.0000 0.0000 0.0000 0.0000 30.4614 0.0000
# 6 0.0000 0.0000 0.0000 0.0000 0.0000 17.9735
#
#
#
# Elastic Compliance Matrix: (Units=1/GPa)
#
#
# Indices 1 2 3 4 5 6 
#
# 1 0.019787 -0.006472 -0.006572 0.000000 0.000000 0.000000
# 2 -0.006472 0.013008 -0.001986 0.000000 0.000000 0.000000
# 3 -0.006572 -0.001986 0.011405 0.000000 0.000000 0.000000
# 4 0.000000 0.000000 0.000000 0.037763 0.000000 0.000000
# 5 0.000000 0.000000 0.000000 0.000000 0.032828 0.000000
# 6 0.000000 0.000000 0.000000 0.000000 0.000000 0.055637
#
#
# Mechanical properties :
#
#
# Convention : Reuss Voigt Hill
#
# Bulk Modulus (GPa) = 70.71290 72.52562 71.61926
# Shear Modulus (GPa) = 24.36619 26.11554 25.24086
#
# Velocity S-wave (km/s) = 3.53695 3.66171 3.59987
# Velocity P-wave (km/s) = 7.27909 7.42384 7.35182
#
# Compressibility (1/GPa) = 0.01414169
#
# Stress axis : x y z
#
# Youngs Moduli (GPa) = 50.53733 76.87543 87.68041
#
# Poissons Ratio (x) = 0.49751 0.57623
# Poissons Ratio (y) = 0.32706 0.17411
# Poissons Ratio (z) = 0.33213 0.15265
#
# Static dielectric constant tensor:
#      x y z
#    x 9.673950 0.000000 0.000000 
#    y 0.000000 3.491350 0.000000 
#    z 0.000000 0.000000 3.792140 
# 
# 
# High freq. dielectric constant tensor:
#      x y z
#    x 1.758020 0.000000 0.000000 
#    y 0.000000 1.745670 0.000000 
#    z 0.000000 0.000000 1.768060 
# 
# From -- ./inp_files/3717.got.cif
#   From: 2010.03.12/outbox.cif.g09.slc.cpg/sg49_2_cif.got.tgz:3717.got - 2010.04.14 03:58:27.
