data_PCOD8203760
_publ_section_title
;
Structure prediction by ZEFSAII (Michael W. Deem and Ramdas Pophale) SiO2 
 PCOD8203760
Probable space group: P C C M
;
_chemical_formula_sum "Si O2"
_cell_formula_units_Z 32
_cell_length_a 18.046166
_cell_length_b 9.453197
_cell_length_c 10.329696
_cell_angle_alpha 90.000000
_cell_angle_beta 90.000000
_cell_angle_gamma 90.000000
_cell_volume 1762.183770
_symmetry_space_group_name_H-M "P C C M"
_symmetry_group_IT_number 49
_symmetry_cell_setting 'orthorhombic'
loop_
_space_group_symop_operation_xyz
x,y,z
-x,-y,z
x,-y,1/2-z
-x,y,1/2-z
-x,-y,-z
x,y,-z
-x,y,1/2+z
x,-y,1/2+z
loop_
_atom_site_type_symbol
_atom_site_label
_atom_site_fract_x
_atom_site_fract_y
_atom_site_fract_z
Si Si1 0.829392 0.833128 0.260310
Si Si2 0.542166 0.350227 0.862147
Si Si3 0.073172 0.163798 0.500000
Si Si4 0.907887 0.828971 0.000000
Si Si5 0.714424 0.619245 0.651798
O O1 0.887115 0.783998 0.369920
O O2 0.861842 0.776979 0.124466
O O3 0.751081 0.764846 0.299390
O O4 0.816361 0.000000 0.250000
O O5 0.500000 0.500000 0.871495
O O6 0.500000 0.260441 0.750000
O O7 0.627225 0.368848 0.825965
O O8 0.534977 0.270766 0.000000
O O9 0.991256 0.232796 0.500000
O O10 0.077659 0.995347 0.500000
O O11 0.745557 0.500000 0.750000
O O12 0.732525 0.586662 0.500000
#
# Coordination Sequence:
#
# PCOD8203760 Si02
#       5
#     8   8   4   4   8
#     4  10  20  35  54  82 113 141 178 228 277 325
#     4   9  16  30  50  76 102 132 176 227 263 305
#     4   9  16  34  55  79 107 138 186 230 269 311
#     4   9  18  30  57  83 101 140 188 230 263 317
#     4  11  22  35  55  81 114 147 180 226 276 327
#
# _framework density 18.159286000000002
#
# number of rings (size 3 to 8) (size 9 to 14) (size 15 to 20)
#    0.000    2.250    3.750    0.750    1.750    3.000 
#    0.000    0.000    0.000    5.250    0.000    3.500 
#    0.000    0.000    0.000    0.000    0.000    0.000 
#
# Total GULP energy -396432.885456 kJ/mol
# GULP energy per Si atom -12388.527671 kJ/mol
# Density = 1.811795 g / cm^3
# Si number density = 18.159286 Si / 1000 Ang^3
#
#
#
# Elastic Constant Matrix: (Units=GPa)
#
#
# Indices 1 2 3 4 5 6 
#
# 1 130.8940 37.4250 66.2226 0.0000 0.0000 0.0000
# 2 37.4250 34.7089 34.4939 0.0000 0.0000 0.0000
# 3 66.2226 34.4939 188.8020 0.0000 0.0000 0.0000
# 4 0.0000 0.0000 0.0000 14.2587 0.0000 0.0000
# 5 0.0000 0.0000 0.0000 0.0000 16.9944 0.0000
# 6 0.0000 0.0000 0.0000 0.0000 0.0000 22.3397
#
#
#
# Elastic Compliance Matrix: (Units=1/GPa)
#
#
# Indices 1 2 3 4 5 6 
#
# 1 0.011753 -0.010478 -0.002208 0.000000 0.000000 0.000000
# 2 -0.010478 0.044545 -0.004463 0.000000 0.000000 0.000000
# 3 -0.002208 -0.004463 0.006886 0.000000 0.000000 0.000000
# 4 0.000000 0.000000 0.000000 0.070132 0.000000 0.000000
# 5 0.000000 0.000000 0.000000 0.000000 0.058843 0.000000
# 6 0.000000 0.000000 0.000000 0.000000 0.000000 0.044763
#
#
# Mechanical properties :
#
#
# Convention : Reuss Voigt Hill
#
# Bulk Modulus (GPa) = 34.61953 70.07644 52.34799
# Shear Modulus (GPa) = 17.80316 25.13612 21.46964
#
# Velocity S-wave (km/s) = 3.13451 3.72452 3.44218
# Velocity P-wave (km/s) = 5.67503 7.56107 6.68490
#
# Compressibility (1/GPa) = 0.02888543
#
# Stress axis : x y z
#
# Youngs Moduli (GPa) = 85.08667 22.44945 145.21425
#
# Poissons Ratio (x) = 0.23523 0.32062
# Poissons Ratio (y) = 0.89155 0.64809
# Poissons Ratio (z) = 0.18787 0.10019
#
# Static dielectric constant tensor:
#      x y z
#    x 3.414910 0.000000 0.000000 
#    y 0.000000 2.787760 0.000000 
#    z 0.000000 0.000000 4.822590 
# 
# 
# High freq. dielectric constant tensor:
#      x y z
#    x 1.711120 0.000000 0.000000 
#    y 0.000000 1.629900 0.000000 
#    z 0.000000 0.000000 1.738970 
# 
# From -- ./inp_files/9155.got.cif
#   From: 2010.03.12/outbox.cif.g09.slc.cpg/sg49_5_cif.got.tgz:9155.got - 2010.04.14 03:58:27.
