data_PCOD8203495
_publ_section_title
;
Structure prediction by ZEFSAII (Michael W. Deem and Ramdas Pophale) SiO2 
 PCOD8203495
Probable space group: P C C M
;
_chemical_formula_sum "Si O2"
_cell_formula_units_Z 56
_cell_length_a 20.181033
_cell_length_b 15.323582
_cell_length_c 8.649967
_cell_angle_alpha 90.000000
_cell_angle_beta 90.000000
_cell_angle_gamma 90.000000
_cell_volume 2674.965221
_symmetry_space_group_name_H-M "P C C M"
_symmetry_group_IT_number 49
_symmetry_cell_setting 'orthorhombic'
loop_
_space_group_symop_operation_xyz
x,y,z
-x,-y,z
x,-y,1/2-z
-x,y,1/2-z
-x,-y,-z
x,y,-z
-x,y,1/2+z
x,-y,1/2+z
loop_
_atom_site_type_symbol
_atom_site_label
_atom_site_fract_x
_atom_site_fract_y
_atom_site_fract_z
Si Si1 0.067171 0.275212 0.680878
Si Si2 0.889519 0.914057 0.682895
Si Si3 0.670432 0.590419 0.181470
Si Si4 0.569579 0.273980 0.819426
Si Si5 0.790140 0.325099 0.181883
Si Si6 0.376623 0.086884 0.681568
Si Si7 0.757346 0.856142 0.181432
O O1 0.063485 0.285519 0.500000
O O2 0.070805 0.173308 0.729009
O O3 0.133028 0.325960 0.740257
O O4 0.000000 0.316504 0.750000
O O5 0.879012 0.919203 0.500000
O O6 0.819528 0.914686 0.771002
O O7 0.927354 0.000000 0.750000
O O8 0.642818 0.500000 0.250000
O O9 0.628320 0.671308 0.243365
O O10 0.747529 0.601495 0.230672
O O11 0.664234 0.586830 0.000000
O O12 0.500000 0.305168 0.750000
O O13 0.579179 0.171736 0.782005
O O14 0.570295 0.293352 0.000000
O O15 0.758096 0.231918 0.218431
O O16 0.785658 0.342128 0.000000
O O17 0.363257 0.077798 0.500000
O O18 0.308169 0.091785 0.774789
O O19 0.412745 0.000000 0.750000
O O20 0.758802 0.833803 0.000000
#
# Coordination Sequence:
#
# PCOD8203495 Si02
#       7
#     8   8   8   8   8   8   8
#     4   9  20  35  54  79 113 156 201 250 305 370
#     4  10  20  33  47  70 106 149 198 256 314 368
#     4  12  25  43  71 103 132 165 206 254 312 378
#     4  11  25  45  68  94 131 172 212 263 315 372
#     4  10  20  38  61  89 124 160 201 252 309 365
#     4  11  23  38  59  86 123 167 213 265 315 366
#     4  11  20  32  54  82 113 154 203 255 312 370
#
# _framework density 20.934850999999998
#
# number of rings (size 3 to 8) (size 9 to 14) (size 15 to 20)
#    0.000    1.429    1.429    5.571    0.000    6.000 
#    0.000    4.286    0.000    0.429    0.000    3.000 
#    0.000    0.000    0.000    0.000    0.000    0.000 
#
# Total GULP energy -694432.167337 kJ/mol
# GULP energy per Si atom -12400.574417 kJ/mol
# Density = 2.088720 g / cm^3
# Si number density = 20.934851 Si / 1000 Ang^3
#
#
#
# Elastic Constant Matrix: (Units=GPa)
#
#
# Indices 1 2 3 4 5 6 
#
# 1 113.1903 28.4560 45.2056 0.0000 0.0000 0.0000
# 2 28.4560 79.6178 35.8553 0.0000 0.0000 0.0000
# 3 45.2056 35.8553 112.1476 0.0000 0.0000 0.0000
# 4 0.0000 0.0000 0.0000 33.3681 0.0000 0.0000
# 5 0.0000 0.0000 0.0000 0.0000 26.4708 0.0000
# 6 0.0000 0.0000 0.0000 0.0000 0.0000 6.6607
#
#
#
# Elastic Compliance Matrix: (Units=1/GPa)
#
#
# Indices 1 2 3 4 5 6 
#
# 1 0.010859 -0.002231 -0.003664 0.000000 0.000000 0.000000
# 2 -0.002231 0.015131 -0.003938 0.000000 0.000000 0.000000
# 3 -0.003664 -0.003938 0.011653 0.000000 0.000000 0.000000
# 4 0.000000 0.000000 0.000000 0.029969 0.000000 0.000000
# 5 0.000000 0.000000 0.000000 0.000000 0.037778 0.000000
# 6 0.000000 0.000000 0.000000 0.000000 0.000000 0.150134
#
#
# Mechanical properties :
#
#
# Convention : Reuss Voigt Hill
#
# Bulk Modulus (GPa) = 55.62872 58.22106 56.92489
# Shear Modulus (GPa) = 17.78216 26.32918 22.05567
#
# Velocity S-wave (km/s) = 2.91762 3.55021 3.24935
# Velocity P-wave (km/s) = 6.16279 6.68404 6.42870
#
# Compressibility (1/GPa) = 0.01797632
#
# Stress axis : x y z
#
# Youngs Moduli (GPa) = 92.09130 66.08952 85.81641
#
# Poissons Ratio (x) = 0.14745 0.31441
# Poissons Ratio (y) = 0.20546 0.33797
# Poissons Ratio (z) = 0.33740 0.26028
#
# Static dielectric constant tensor:
#      x y z
#    x 3.911980 0.000000 0.000000 
#    y 0.000000 3.749510 0.000000 
#    z 0.000000 0.000000 3.725990 
# 
# 
# High freq. dielectric constant tensor:
#      x y z
#    x 1.814970 0.000000 0.000000 
#    y 0.000000 1.804740 0.000000 
#    z 0.000000 0.000000 1.826350 
# 
# From -- ./inp_files/4012.got.cif
#   From: 2010.03.12/outbox.cif.g09.slc.cpg/sg49_3_cif.got.tgz:4012.got - 2010.04.14 03:58:27.
