data_PCOD8203107
_publ_section_title
;
Structure prediction by ZEFSAII (Michael W. Deem and Ramdas Pophale) SiO2 
 PCOD8203107
Probable space group: P C C M
;
_chemical_formula_sum "Si O2"
_cell_formula_units_Z 64
_cell_length_a 24.813332
_cell_length_b 14.865046
_cell_length_c 8.638756
_cell_angle_alpha 90.000000
_cell_angle_beta 90.000000
_cell_angle_gamma 90.000000
_cell_volume 3186.416568
_symmetry_space_group_name_H-M "P C C M"
_symmetry_group_IT_number 49
_symmetry_cell_setting 'orthorhombic'
loop_
_space_group_symop_operation_xyz
x,y,z
-x,-y,z
x,-y,1/2-z
-x,y,1/2-z
-x,-y,-z
x,y,-z
-x,y,1/2+z
x,-y,1/2+z
loop_
_atom_site_type_symbol
_atom_site_label
_atom_site_fract_x
_atom_site_fract_y
_atom_site_fract_z
Si Si1 0.851867 0.783068 0.319580
Si Si2 0.664794 0.166923 0.819036
Si Si3 0.556014 0.216347 0.315437
Si Si4 0.765463 0.091775 0.317751
Si Si5 0.058099 0.904756 0.682872
Si Si6 0.585999 0.410812 0.326986
Si Si7 0.189410 0.590493 0.180808
Si Si8 0.298349 0.652480 0.323814
O O1 0.858548 0.804711 0.500000
O O2 0.796084 0.824052 0.258073
O O3 0.901685 0.824765 0.227045
O O4 0.849497 0.675834 0.288387
O O5 0.604537 0.156358 0.751928
O O6 0.702808 0.095860 0.730583
O O7 0.689420 0.265027 0.789236
O O8 0.664888 0.145383 0.000000
O O9 0.500000 0.177475 0.250000
O O10 0.558234 0.211990 0.500000
O O11 0.563623 0.318527 0.251251
O O12 0.773653 0.093680 0.500000
O O13 0.790746 0.000000 0.250000
O O14 0.054280 0.913530 0.500000
O O15 0.000000 0.879684 0.750000
O O16 0.078828 0.000000 0.750000
O O17 0.561604 0.500000 0.250000
O O18 0.564675 0.412377 0.500000
O O19 0.650864 0.414470 0.317852
O O20 0.161686 0.500000 0.250000
O O21 0.246064 0.600081 0.268048
O O22 0.200714 0.579078 0.000000
O O23 0.290381 0.688504 0.500000
#
# Coordination Sequence:
#
# PCOD8203107 Si02
#       8
#     8   8   8   8   8   8   8   8
#     4  11  23  40  60  89 127 166 207 252 301 357
#     4  11  21  36  57  82 112 147 186 232 289 352
#     4  10  21  37  54  75 100 136 183 233 288 349
#     4  12  24  39  61  90 124 160 195 239 293 359
#     4  11  22  39  64  94 128 167 208 254 303 360
#     4   9  19  31  45  68  98 133 175 226 282 342
#     4  11  23  36  55  81 117 160 207 254 301 355
#     4  10  19  33  52  75 107 146 192 239 289 347
#
# _framework density 20.085259000000001
#
# number of rings (size 3 to 8) (size 9 to 14) (size 15 to 20)
#    0.000    1.375    1.250    6.750    0.000    5.750 
#    0.000    1.250    0.000    0.750    0.000    5.250 
#    0.000    0.000    0.000    0.000    0.000    0.000 
#
# Total GULP energy -793699.252966 kJ/mol
# GULP energy per Si atom -12401.550828 kJ/mol
# Density = 2.003954 g / cm^3
# Si number density = 20.085259 Si / 1000 Ang^3
#
#
#
# Elastic Constant Matrix: (Units=GPa)
#
#
# Indices 1 2 3 4 5 6 
#
# 1 102.6698 33.2397 33.2199 0.0000 0.0000 0.0000
# 2 33.2397 82.7128 32.8452 0.0000 0.0000 0.0000
# 3 33.2199 32.8452 116.5161 0.0000 0.0000 0.0000
# 4 0.0000 0.0000 0.0000 29.7309 0.0000 0.0000
# 5 0.0000 0.0000 0.0000 0.0000 27.8607 0.0000
# 6 0.0000 0.0000 0.0000 0.0000 0.0000 18.3109
#
#
#
# Elastic Compliance Matrix: (Units=1/GPa)
#
#
# Indices 1 2 3 4 5 6 
#
# 1 0.011704 -0.003804 -0.002265 0.000000 0.000000 0.000000
# 2 -0.003804 0.014851 -0.003102 0.000000 0.000000 0.000000
# 3 -0.002265 -0.003102 0.010102 0.000000 0.000000 0.000000
# 4 0.000000 0.000000 0.000000 0.033635 0.000000 0.000000
# 5 0.000000 0.000000 0.000000 0.000000 0.035893 0.000000
# 6 0.000000 0.000000 0.000000 0.000000 0.000000 0.054612
#
#
# Mechanical properties :
#
#
# Convention : Reuss Voigt Hill
#
# Bulk Modulus (GPa) = 54.59634 55.61203 55.10418
# Shear Modulus (GPa) = 26.99138 28.68674 27.83906
#
# Velocity S-wave (km/s) = 3.66982 3.78332 3.72700
# Velocity P-wave (km/s) = 6.72295 6.84345 6.78347
#
# Compressibility (1/GPa) = 0.01831625
#
# Stress axis : x y z
#
# Youngs Moduli (GPa) = 85.43811 67.33765 98.98543
#
# Poissons Ratio (x) = 0.25618 0.22416
# Poissons Ratio (y) = 0.32504 0.30701
# Poissons Ratio (z) = 0.19348 0.20886
#
# Static dielectric constant tensor:
#      x y z
#    x 3.548880 0.000000 0.000000 
#    y 0.000000 3.598650 0.000000 
#    z 0.000000 0.000000 3.668970 
# 
# 
# High freq. dielectric constant tensor:
#      x y z
#    x 1.767610 0.000000 0.000000 
#    y 0.000000 1.770050 0.000000 
#    z 0.000000 0.000000 1.796450 
# 
# From -- ./inp_files/6490.got.cif
#   From: 2010.03.12/outbox.cif.g09.slc.cpg/sg49_4_cif.got.tgz:6490.got - 2010.04.14 03:58:27.
