data_PCOD8203173
_publ_section_title
;
Structure prediction by ZEFSAII (Michael W. Deem and Ramdas Pophale) SiO2 
 PCOD8203173
Probable space group: P C C M
;
_chemical_formula_sum "Si O2"
_cell_formula_units_Z 56
_cell_length_a 22.779188
_cell_length_b 14.553019
_cell_length_c 8.830134
_cell_angle_alpha 90.000000
_cell_angle_beta 90.000000
_cell_angle_gamma 90.000000
_cell_volume 2927.242011
_symmetry_space_group_name_H-M "P C C M"
_symmetry_group_IT_number 49
_symmetry_cell_setting 'orthorhombic'
loop_
_space_group_symop_operation_xyz
x,y,z
-x,-y,z
x,-y,1/2-z
-x,y,1/2-z
-x,-y,-z
x,y,-z
-x,y,1/2+z
x,-y,1/2+z
loop_
_atom_site_type_symbol
_atom_site_label
_atom_site_fract_x
_atom_site_fract_y
_atom_site_fract_z
Si Si1 0.159917 0.718197 0.678099
Si Si2 0.936786 0.404123 0.180888
Si Si3 0.606770 0.409919 0.823562
Si Si4 0.198611 0.092498 0.326808
Si Si5 0.283922 0.653277 0.672202
Si Si6 0.682053 0.170194 0.170676
Si Si7 0.558379 0.215271 0.826849
O O1 0.145884 0.725639 0.500000
O O2 0.105395 0.678402 0.770191
O O3 0.172996 0.819707 0.740572
O O4 0.214296 0.647769 0.706749
O O5 0.913249 0.500000 0.250000
O O6 0.000000 0.381335 0.250000
O O7 0.940398 0.411484 0.000000
O O8 0.576697 0.500000 0.750000
O O9 0.676258 0.410109 0.780023
O O10 0.576264 0.316495 0.762299
O O11 0.599833 0.418871 0.000000
O O12 0.177167 0.095875 0.500000
O O13 0.270450 0.088563 0.319299
O O14 0.174319 0.000000 0.250000
O O15 0.298034 0.626367 0.500000
O O16 0.300653 0.758809 0.699907
O O17 0.613235 0.144161 0.198295
O O18 0.685342 0.214960 0.000000
O O19 0.500000 0.175824 0.750000
O O20 0.541977 0.225730 0.000000
#
# Coordination Sequence:
#
# PCOD8203173 Si02
#       7
#     8   8   8   8   8   8   8
#     4  10  20  35  55  82 113 145 183 225 269 321
#     4  11  22  38  59  83 113 151 193 235 275 315
#     4  10  20  32  44  60  87 120 157 202 255 312
#     4  10  19  33  55  83 113 144 177 218 268 324
#     4   9  17  29  47  69  93 122 159 202 250 303
#     4   8  16  31  48  67  95 127 159 197 247 303
#     4   9  18  31  46  64  85 116 158 205 254 309
#
# _framework density 19.130635999999999
#
# number of rings (size 3 to 8) (size 9 to 14) (size 15 to 20)
#    0.000    2.429    0.000    4.286    0.000    6.000 
#    0.000    1.429    0.000    0.857    0.000    6.000 
#    0.000    0.000    0.000    0.000    0.000    0.000 
#
# Total GULP energy -693843.182258 kJ/mol
# GULP energy per Si atom -12390.056826 kJ/mol
# Density = 1.908709 g / cm^3
# Si number density = 19.130636 Si / 1000 Ang^3
#
#
#
# Elastic Constant Matrix: (Units=GPa)
#
#
# Indices 1 2 3 4 5 6 
#
# 1 93.5836 30.3333 40.8812 0.0000 0.0000 0.0000
# 2 30.3333 56.4972 25.2900 0.0000 0.0000 0.0000
# 3 40.8812 25.2900 98.8780 0.0000 0.0000 0.0000
# 4 0.0000 0.0000 0.0000 22.1856 0.0000 0.0000
# 5 0.0000 0.0000 0.0000 0.0000 28.1643 0.0000
# 6 0.0000 0.0000 0.0000 0.0000 0.0000 16.4453
#
#
#
# Elastic Compliance Matrix: (Units=1/GPa)
#
#
# Indices 1 2 3 4 5 6 
#
# 1 0.014538 -0.005776 -0.004533 0.000000 0.000000 0.000000
# 2 -0.005776 0.022284 -0.003311 0.000000 0.000000 0.000000
# 3 -0.004533 -0.003311 0.012835 0.000000 0.000000 0.000000
# 4 0.000000 0.000000 0.000000 0.045074 0.000000 0.000000
# 5 0.000000 0.000000 0.000000 0.000000 0.035506 0.000000
# 6 0.000000 0.000000 0.000000 0.000000 0.000000 0.060808
#
#
# Mechanical properties :
#
#
# Convention : Reuss Voigt Hill
#
# Bulk Modulus (GPa) = 44.61381 49.10752 46.86067
# Shear Modulus (GPa) = 22.14759 23.52264 22.83511
#
# Velocity S-wave (km/s) = 3.40619 3.51034 3.45866
# Velocity P-wave (km/s) = 6.23224 6.49271 6.36381
#
# Compressibility (1/GPa) = 0.02241458
#
# Stress axis : x y z
#
# Youngs Moduli (GPa) = 68.78371 44.87624 77.91341
#
# Poissons Ratio (x) = 0.25922 0.35322
# Poissons Ratio (y) = 0.39731 0.25799
# Poissons Ratio (z) = 0.31183 0.14860
#
# Static dielectric constant tensor:
#      x y z
#    x 3.547260 0.000000 0.000000 
#    y 0.000000 3.191650 0.000000 
#    z 0.000000 0.000000 3.528840 
# 
# 
# High freq. dielectric constant tensor:
#      x y z
#    x 1.732610 0.000000 0.000000 
#    y 0.000000 1.709100 0.000000 
#    z 0.000000 0.000000 1.754110 
# 
# From -- ./inp_files/4035.got.cif
#   From: 2010.03.12/outbox.cif.g09.slc.cpg/sg49_3_cif.got.tgz:4035.got - 2010.04.14 03:58:27.
