data_PCOD8203042
_publ_section_title
;
Structure prediction by ZEFSAII (Michael W. Deem and Ramdas Pophale) SiO2 
 PCOD8203042
Probable space group: P C C M
;
_chemical_formula_sum "Si O2"
_cell_formula_units_Z 40
_cell_length_a 9.691650
_cell_length_b 23.773072
_cell_length_c 9.698468
_cell_angle_alpha 90.000000
_cell_angle_beta 90.000000
_cell_angle_gamma 90.000000
_cell_volume 2234.529871
_symmetry_space_group_name_H-M "P C C M"
_symmetry_group_IT_number 49
_symmetry_cell_setting 'orthorhombic'
loop_
_space_group_symop_operation_xyz
x,y,z
-x,-y,z
x,-y,1/2-z
-x,y,1/2-z
-x,-y,-z
x,y,-z
-x,y,1/2+z
x,-y,1/2+z
loop_
_atom_site_type_symbol
_atom_site_label
_atom_site_fract_x
_atom_site_fract_y
_atom_site_fract_z
Si Si1 0.369223 0.728856 0.338990
Si Si2 0.832203 0.567802 0.500000
Si Si3 0.625525 0.141752 0.656889
Si Si4 0.138846 0.053477 0.833762
Si Si5 0.162728 0.363558 0.241567
Si Si6 0.158690 0.557053 0.500000
O O1 0.500000 0.708712 0.250000
O O2 0.398610 0.717717 0.500000
O O3 0.336449 0.793963 0.309201
O O4 0.235270 0.695624 0.286874
O O5 0.781070 0.606049 0.376059
O O6 0.769891 0.504662 0.500000
O O7 0.994134 0.555936 0.500000
O O8 0.500000 0.120005 0.750000
O O9 0.576539 0.134865 0.500000
O O10 0.759942 0.105384 0.687729
O O11 0.000000 0.068953 0.750000
O O12 0.201625 0.000000 0.750000
O O13 0.115262 0.041954 0.000000
O O14 0.209649 0.408815 0.130352
O O15 0.000000 0.351317 0.250000
#
# Coordination Sequence:
#
# PCOD8203042 Si02
#       6
#     8   4   8   8   8   4
#     4  10  21  38  56  75 105 142 179 218 266 315
#     4   9  18  28  51  79 107 129 176 209 266 319
#     4   9  20  37  56  78 104 140 183 224 262 310
#     4  10  20  35  56  82 114 146 178 216 264 314
#     4  10  19  32  54  79 105 134 172 220 265 313
#     4   9  16  32  49  77 105 139 164 219 262 311
#
# _framework density 17.900856999999998
#
# number of rings (size 3 to 8) (size 9 to 14) (size 15 to 20)
#    0.000    2.400    1.000    1.800    1.400    5.200 
#    0.000    2.000    0.000    3.600    0.000    0.000 
#    0.000    0.000    0.000    0.000    0.000    0.000 
#
# Total GULP energy -495692.432130 kJ/mol
# GULP energy per Si atom -12392.310803 kJ/mol
# Density = 1.786011 g / cm^3
# Si number density = 17.900857 Si / 1000 Ang^3
#
#
#
# Elastic Constant Matrix: (Units=GPa)
#
#
# Indices 1 2 3 4 5 6 
#
# 1 67.9285 59.6650 50.7945 0.0000 0.0000 0.0000
# 2 59.6650 106.9030 61.3681 0.0000 0.0000 0.0000
# 3 50.7945 61.3681 148.3275 0.0000 0.0000 0.0000
# 4 0.0000 0.0000 0.0000 32.0723 0.0000 0.0000
# 5 0.0000 0.0000 0.0000 0.0000 30.3894 0.0000
# 6 0.0000 0.0000 0.0000 0.0000 0.0000 17.5778
#
#
#
# Elastic Compliance Matrix: (Units=1/GPa)
#
#
# Indices 1 2 3 4 5 6 
#
# 1 0.031048 -0.014721 -0.004542 0.000000 0.000000 0.000000
# 2 -0.014721 0.019248 -0.002922 0.000000 0.000000 0.000000
# 3 -0.004542 -0.002922 0.009506 0.000000 0.000000 0.000000
# 4 0.000000 0.000000 0.000000 0.031180 0.000000 0.000000
# 5 0.000000 0.000000 0.000000 0.000000 0.032906 0.000000
# 6 0.000000 0.000000 0.000000 0.000000 0.000000 0.056890
#
#
# Mechanical properties :
#
#
# Convention : Reuss Voigt Hill
#
# Bulk Modulus (GPa) = 64.80175 74.09046 69.44611
# Shear Modulus (GPa) = 21.71151 26.09665 23.90408
#
# Velocity S-wave (km/s) = 3.48641 3.82231 3.65822
# Velocity P-wave (km/s) = 7.24470 7.80764 7.53144
#
# Compressibility (1/GPa) = 0.01543168
#
# Stress axis : x y z
#
# Youngs Moduli (GPa) = 32.20825 51.95289 105.19521
#
# Poissons Ratio (x) = 0.76482 0.47775
# Poissons Ratio (y) = 0.47415 0.30741
# Poissons Ratio (z) = 0.14628 0.15182
#
# Static dielectric constant tensor:
#      x y z
#    x 3.048990 0.000000 0.000000 
#    y 0.000000 3.427940 0.000000 
#    z 0.000000 0.000000 3.654840 
# 
# 
# High freq. dielectric constant tensor:
#      x y z
#    x 1.661850 0.000000 0.000000 
#    y 0.000000 1.700560 0.000000 
#    z 0.000000 0.000000 1.712970 
# 
# From -- ./inp_files/1944.got.cif
#   From: 2010.03.12/outbox.cif.g09.slc.cpg/sg49_1_cif.got.tgz:1944.got - 2010.04.14 03:58:27.
