data_PCOD8203540
_publ_section_title
;
Structure prediction by ZEFSAII (Michael W. Deem and Ramdas Pophale) SiO2 
 PCOD8203540
Probable space group: P C C M
;
_chemical_formula_sum "Si O2"
_cell_formula_units_Z 48
_cell_length_a 9.134724
_cell_length_b 16.881718
_cell_length_c 17.407038
_cell_angle_alpha 90.000000
_cell_angle_beta 90.000000
_cell_angle_gamma 90.000000
_cell_volume 2684.336450
_symmetry_space_group_name_H-M "P C C M"
_symmetry_group_IT_number 49
_symmetry_cell_setting 'orthorhombic'
loop_
_space_group_symop_operation_xyz
x,y,z
-x,-y,z
x,-y,1/2-z
-x,y,1/2-z
-x,-y,-z
x,y,-z
-x,y,1/2+z
x,-y,1/2+z
loop_
_atom_site_type_symbol
_atom_site_label
_atom_site_fract_x
_atom_site_fract_y
_atom_site_fract_z
Si Si1 0.363278 0.674456 0.412782
Si Si2 0.382500 0.726028 0.817186
Si Si3 0.831153 0.009983 0.338782
Si Si4 0.316035 0.148020 0.086052
Si Si5 0.672534 0.415256 0.731132
Si Si6 0.342885 0.131318 0.588907
O O1 0.352639 0.644116 0.500000
O O2 0.532206 0.688382 0.389953
O O3 0.282928 0.758942 0.401268
O O4 0.295125 0.606449 0.357830
O O5 0.500000 0.751351 0.750000
O O6 0.271106 0.658697 0.783610
O O7 0.289602 0.799809 0.851367
O O8 0.735268 0.950179 0.389581
O O9 0.797347 0.000000 0.250000
O O10 0.787802 0.099889 0.357386
O O11 0.000000 0.000000 0.359535
O O12 0.483805 0.124589 0.102155
O O13 0.274762 0.123495 0.000000
O O14 0.747926 0.500000 0.750000
O O15 0.500000 0.420190 0.750000
O O16 0.307634 0.152489 0.500000
#
# Coordination Sequence:
#
# PCOD8203540 Si02
#       6
#     8   8   8   8   8   8
#     4   8  14  25  42  63  88 116 155 197 229 269
#     4   8  15  25  43  66  90 122 154 196 233 275
#     4  11  25  36  46  68  99 129 161 198 244 292
#     4   9  18  33  52  72  91 121 166 207 237 279
#     4   8  14  24  37  60  92 125 155 182 227 284
#     4  10  20  33  51  73  94 124 167 203 236 283
#
# _framework density 17.881513999999999
#
# number of rings (size 3 to 8) (size 9 to 14) (size 15 to 20)
#    0.000    3.333    0.000    2.500    7.000    3.333 
#    0.000    7.500    0.000    0.000    0.000    0.000 
#    0.000    2.667    0.000    5.167    0.000    4.500 
#
# Total GULP energy -594657.384265 kJ/mol
# GULP energy per Si atom -12388.695506 kJ/mol
# Density = 1.784082 g / cm^3
# Si number density = 17.881514 Si / 1000 Ang^3
#
#
#
# Elastic Constant Matrix: (Units=GPa)
#
#
# Indices 1 2 3 4 5 6 
#
# 1 28.3185 17.1770 27.9583 0.0000 0.0000 0.0000
# 2 17.1770 105.6933 75.4613 0.0000 0.0000 0.0000
# 3 27.9583 75.4613 131.5048 0.0000 0.0000 0.0000
# 4 0.0000 0.0000 0.0000 33.9190 0.0000 0.0000
# 5 0.0000 0.0000 0.0000 0.0000 7.1451 0.0000
# 6 0.0000 0.0000 0.0000 0.0000 0.0000 2.6604
#
#
#
# Elastic Compliance Matrix: (Units=1/GPa)
#
#
# Indices 1 2 3 4 5 6 
#
# 1 0.044735 -0.000813 -0.009044 0.000000 0.000000 0.000000
# 2 -0.000813 0.016043 -0.009033 0.000000 0.000000 0.000000
# 3 -0.009044 -0.009033 0.014710 0.000000 0.000000 0.000000
# 4 0.000000 0.000000 0.000000 0.029482 0.000000 0.000000
# 5 0.000000 0.000000 0.000000 0.000000 0.139955 0.000000
# 6 0.000000 0.000000 0.000000 0.000000 0.000000 0.375878
#
#
# Mechanical properties :
#
#
# Convention : Reuss Voigt Hill
#
# Bulk Modulus (GPa) = 26.51966 56.30109 41.41038
# Shear Modulus (GPa) = 7.44986 18.40624 12.92805
#
# Velocity S-wave (km/s) = 2.04335 3.21182 2.69175
# Velocity P-wave (km/s) = 4.51996 6.73115 5.73317
#
# Compressibility (1/GPa) = 0.03770788
#
# Stress axis : x y z
#
# Youngs Moduli (GPa) = 22.35386 62.33396 67.97874
#
# Poissons Ratio (x) = 0.05067 0.61482
# Poissons Ratio (y) = 0.01817 0.61405
# Poissons Ratio (z) = 0.20218 0.56306
#
# Static dielectric constant tensor:
#      x y z
#    x 2.660690 0.000000 0.000000 
#    y 0.000000 3.737480 0.000000 
#    z 0.000000 0.000000 3.538440 
# 
# 
# High freq. dielectric constant tensor:
#      x y z
#    x 1.609100 0.000000 0.000000 
#    y 0.000000 1.697170 0.000000 
#    z 0.000000 0.000000 1.709660 
# 
# From -- ./inp_files/16431.got.cif
#   From: 2010.03.12/outbox.cif.g09.slc.cpg/sg49_9_cif.got.tgz:16431.got - 2010.04.14 03:58:27.
