data_PCOD8203789
_publ_section_title
;
Structure prediction by ZEFSAII (Michael W. Deem and Ramdas Pophale) SiO2 
 PCOD8203789
Probable space group: P C C M
;
_chemical_formula_sum "Si O2"
_cell_formula_units_Z 56
_cell_length_a 15.291578
_cell_length_b 20.178410
_cell_length_c 8.897587
_cell_angle_alpha 90.000000
_cell_angle_beta 90.000000
_cell_angle_gamma 90.000000
_cell_volume 2745.437046
_symmetry_space_group_name_H-M "P C C M"
_symmetry_group_IT_number 49
_symmetry_cell_setting 'orthorhombic'
loop_
_space_group_symop_operation_xyz
x,y,z
-x,-y,z
x,-y,1/2-z
-x,y,1/2-z
-x,-y,-z
x,y,-z
-x,y,1/2+z
x,-y,1/2+z
loop_
_atom_site_type_symbol
_atom_site_label
_atom_site_fract_x
_atom_site_fract_y
_atom_site_fract_z
Si Si1 0.222704 0.567410 0.679955
Si Si2 0.819497 0.701413 0.677780
Si Si3 0.089346 0.179263 0.178367
Si Si4 0.415359 0.598696 0.667956
Si Si5 0.354019 0.259232 0.829916
Si Si6 0.587118 0.116256 0.325220
Si Si7 0.772993 0.932629 0.177173
O O1 0.183464 0.500000 0.750000
O O2 0.215615 0.568376 0.500000
O O3 0.168879 0.629029 0.747047
O O4 0.323628 0.573306 0.736338
O O5 0.832343 0.695704 0.500000
O O6 0.892314 0.749202 0.748448
O O7 0.724866 0.731665 0.714401
O O8 0.165574 0.128225 0.225111
O O9 0.000000 0.151683 0.250000
O O10 0.080661 0.186069 0.000000
O O11 0.500000 0.568720 0.750000
O O12 0.422148 0.572591 0.500000
O O13 0.418844 0.678474 0.677336
O O14 0.407856 0.194204 0.786358
O O15 0.314659 0.252215 0.000000
O O16 0.500000 0.086202 0.250000
O O17 0.578384 0.103199 0.500000
O O18 0.674653 0.081218 0.262690
O O19 0.808874 0.000000 0.250000
O O20 0.773871 0.941056 0.000000
#
# Coordination Sequence:
#
# PCOD8203789 Si02
#       7
#     8   8   8   8   8   8   8
#     4  10  21  37  55  79 113 156 201 249 302 360
#     4  11  21  35  60  91 119 154 198 244 298 360
#     4  11  23  43  68  96 127 158 196 247 303 365
#     4   9  18  29  45  69 103 146 191 246 303 356
#     4   9  17  33  52  74 111 152 195 248 307 357
#     4  10  20  35  55  82 116 160 206 254 307 357
#     4  10  23  42  63  86 124 166 203 251 307 361
#
# _framework density 20.397480000000002
#
# number of rings (size 3 to 8) (size 9 to 14) (size 15 to 20)
#    0.000    2.000    1.429    3.429    0.000    6.000 
#    0.000    4.286    0.000    0.429    0.000    3.000 
#    0.000    0.000    0.000    0.000    0.000    0.000 
#
# Total GULP energy -694393.405722 kJ/mol
# GULP energy per Si atom -12399.882245 kJ/mol
# Density = 2.035105 g / cm^3
# Si number density = 20.397480 Si / 1000 Ang^3
#
#
#
# Elastic Constant Matrix: (Units=GPa)
#
#
# Indices 1 2 3 4 5 6 
#
# 1 96.8834 37.3518 39.7358 0.0000 0.0000 0.0000
# 2 37.3518 121.4186 47.1933 0.0000 0.0000 0.0000
# 3 39.7358 47.1933 89.6073 0.0000 0.0000 0.0000
# 4 0.0000 0.0000 0.0000 31.0150 0.0000 0.0000
# 5 0.0000 0.0000 0.0000 0.0000 32.1272 0.0000
# 6 0.0000 0.0000 0.0000 0.0000 0.0000 6.5450
#
#
#
# Elastic Compliance Matrix: (Units=1/GPa)
#
#
# Indices 1 2 3 4 5 6 
#
# 1 0.013077 -0.002224 -0.004628 0.000000 0.000000 0.000000
# 2 -0.002224 0.010734 -0.004667 0.000000 0.000000 0.000000
# 3 -0.004628 -0.004667 0.015670 0.000000 0.000000 0.000000
# 4 0.000000 0.000000 0.000000 0.032243 0.000000 0.000000
# 5 0.000000 0.000000 0.000000 0.000000 0.031126 0.000000
# 6 0.000000 0.000000 0.000000 0.000000 0.000000 0.152788
#
#
# Mechanical properties :
#
#
# Convention : Reuss Voigt Hill
#
# Bulk Modulus (GPa) = 60.81414 61.83011 61.32213
# Shear Modulus (GPa) = 17.59593 26.17933 21.88763
#
# Velocity S-wave (km/s) = 2.94028 3.58643 3.27931
# Velocity P-wave (km/s) = 6.43477 6.89408 6.66838
#
# Compressibility (1/GPa) = 0.01644354
#
# Stress axis : x y z
#
# Youngs Moduli (GPa) = 76.46932 93.16005 63.81688
#
# Poissons Ratio (x) = 0.20721 0.29531
# Poissons Ratio (y) = 0.17009 0.29784
# Poissons Ratio (z) = 0.35386 0.43478
#
# Static dielectric constant tensor:
#      x y z
#    x 3.519330 0.000000 0.000000 
#    y 0.000000 3.771160 0.000000 
#    z 0.000000 0.000000 3.536790 
# 
# 
# High freq. dielectric constant tensor:
#      x y z
#    x 1.773770 0.000000 0.000000 
#    y 0.000000 1.802450 0.000000 
#    z 0.000000 0.000000 1.789700 
# 
# From -- ./inp_files/4064.got.cif
#   From: 2010.03.12/outbox.cif.g09.slc.cpg/sg49_3_cif.got.tgz:4064.got - 2010.04.14 03:58:27.
