data_PCOD8203869
_publ_section_title
;
Structure prediction by ZEFSAII (Michael W. Deem and Ramdas Pophale) SiO2 
 PCOD8203869
Probable space group: P C C M
;
_chemical_formula_sum "Si O2"
_cell_formula_units_Z 64
_cell_length_a 16.952488
_cell_length_b 20.753266
_cell_length_c 9.136081
_cell_angle_alpha 90.000000
_cell_angle_beta 90.000000
_cell_angle_gamma 90.000000
_cell_volume 3214.251384
_symmetry_space_group_name_H-M "P C C M"
_symmetry_group_IT_number 49
_symmetry_cell_setting 'orthorhombic'
loop_
_space_group_symop_operation_xyz
x,y,z
-x,-y,z
x,-y,1/2-z
-x,y,1/2-z
-x,-y,-z
x,y,-z
-x,y,1/2+z
x,-y,1/2+z
loop_
_atom_site_type_symbol
_atom_site_label
_atom_site_fract_x
_atom_site_fract_y
_atom_site_fract_z
Si Si1 0.747258 0.936333 0.825027
Si Si2 0.716405 0.805088 0.673138
Si Si3 0.377983 0.436739 0.334391
Si Si4 0.074718 0.086679 0.834818
Si Si5 0.808437 0.561934 0.333769
Si Si6 0.924572 0.360311 0.334850
Si Si7 0.421159 0.294686 0.673553
Si Si8 0.130899 0.777031 0.662662
O O1 0.704769 0.872911 0.758470
O O2 0.839717 0.937061 0.779368
O O3 0.709234 0.000000 0.750000
O O4 0.735334 0.937125 0.000000
O O5 0.715923 0.818222 0.500000
O O6 0.648721 0.754039 0.718391
O O7 0.799342 0.773235 0.718575
O O8 0.410952 0.500000 0.250000
O O9 0.406936 0.444686 0.500000
O O10 0.284548 0.434078 0.324190
O O11 0.407032 0.368288 0.268827
O O12 0.073324 0.163211 0.810524
O O13 0.000000 0.056215 0.750000
O O14 0.062358 0.065245 0.000000
O O15 0.841889 0.500000 0.250000
O O16 0.838249 0.560807 0.500000
O O17 0.844375 0.622290 0.249077
O O18 0.924359 0.387340 0.500000
O O19 0.926879 0.283466 0.330933
O O20 0.000000 0.388780 0.250000
O O21 0.500000 0.268303 0.750000
O O22 0.431199 0.295536 0.500000
O O23 0.170010 0.783594 0.500000
#
# Coordination Sequence:
#
# PCOD8203869 Si02
#       8
#     8   8   8   8   8   8   8   8
#     4  10  21  37  56  81 111 145 188 233 279 331
#     4  10  20  36  59  84 110 143 183 227 274 324
#     4   9  19  36  57  82 112 146 184 223 264 317
#     4   9  18  31  47  71 105 142 179 220 266 316
#     4  10  20  36  55  73  96 128 170 219 269 321
#     4  11  22  34  49  71  99 132 173 222 276 328
#     4  10  22  38  57  85 118 149 181 217 263 320
#     4   9  19  34  51  74 103 136 177 221 266 321
#
# _framework density 19.911321999999998
#
# number of rings (size 3 to 8) (size 9 to 14) (size 15 to 20)
#    0.000    2.250    0.000    3.375    0.000    7.250 
#    0.000    3.750    0.000    0.375    0.000    2.625 
#    0.000    0.000    0.000    0.000    0.000    0.000 
#
# Total GULP energy -793341.196460 kJ/mol
# GULP energy per Si atom -12395.956195 kJ/mol
# Density = 1.986600 g / cm^3
# Si number density = 19.911322 Si / 1000 Ang^3
#
#
#
# Elastic Constant Matrix: (Units=GPa)
#
#
# Indices 1 2 3 4 5 6 
#
# 1 49.6688 31.7356 36.0565 0.0000 0.0000 0.0000
# 2 31.7356 103.6752 44.8915 0.0000 0.0000 0.0000
# 3 36.0565 44.8915 102.9168 0.0000 0.0000 0.0000
# 4 0.0000 0.0000 0.0000 29.5318 0.0000 0.0000
# 5 0.0000 0.0000 0.0000 0.0000 30.3015 0.0000
# 6 0.0000 0.0000 0.0000 0.0000 0.0000 0.0227
#
#
#
# Elastic Compliance Matrix: (Units=1/GPa)
#
#
# Indices 1 2 3 4 5 6 
#
# 1 0.029421 -0.005601 -0.007865 0.000000 0.000000 0.000000
# 2 -0.005601 0.012958 -0.003690 0.000000 0.000000 0.000000
# 3 -0.007865 -0.003690 0.014081 0.000000 0.000000 0.000000
# 4 0.000000 0.000000 0.000000 0.033862 0.000000 0.000000
# 5 0.000000 0.000000 0.000000 0.000000 0.033002 0.000000
# 6 0.000000 0.000000 0.000000 0.000000 0.000000 44.013211
#
#
# Mechanical properties :
#
#
# Convention : Reuss Voigt Hill
#
# Bulk Modulus (GPa) = 45.14682 53.51421 49.33051
# Shear Modulus (GPa) = 0.11318 21.54302 10.82810
#
# Velocity S-wave (km/s) = 0.23867 3.29287 2.33452
# Velocity P-wave (km/s) = 4.77484 6.43365 5.66529
#
# Compressibility (1/GPa) = 0.02214996
#
# Stress axis : x y z
#
# Youngs Moduli (GPa) = 33.98924 77.17484 71.01562
#
# Poissons Ratio (x) = 0.43222 0.55851
# Poissons Ratio (y) = 0.19036 0.26204
# Poissons Ratio (z) = 0.26731 0.28476
#
# Static dielectric constant tensor:
#      x y z
#    x 3.267760 0.000000 0.000000 
#    y 0.000000 3.817210 0.000000 
#    z 0.000000 0.000000 3.677890 
# 
# 
# High freq. dielectric constant tensor:
#      x y z
#    x 1.747600 0.000000 0.000000 
#    y 0.000000 1.786820 0.000000 
#    z 0.000000 0.000000 1.779660 
# 
# From -- ./inp_files/5281.got.cif
#   From: 2010.03.12/outbox.cif.g09.slc.cpg/sg49_3_cif.got.tgz:5281.got - 2010.04.14 03:58:27.
