data_PCOD8203825
_publ_section_title
;
Structure prediction by ZEFSAII (Michael W. Deem and Ramdas Pophale) SiO2 
 PCOD8203825
Probable space group: P C C M
;
_chemical_formula_sum "Si O2"
_cell_formula_units_Z 64
_cell_length_a 12.035967
_cell_length_b 14.457461
_cell_length_c 17.995246
_cell_angle_alpha 90.000000
_cell_angle_beta 90.000000
_cell_angle_gamma 90.000000
_cell_volume 3131.344182
_symmetry_space_group_name_H-M "P C C M"
_symmetry_group_IT_number 49
_symmetry_cell_setting 'orthorhombic'
loop_
_space_group_symop_operation_xyz
x,y,z
-x,-y,z
x,-y,1/2-z
-x,y,1/2-z
-x,-y,-z
x,y,-z
-x,y,1/2+z
x,-y,1/2+z
loop_
_atom_site_type_symbol
_atom_site_label
_atom_site_fract_x
_atom_site_fract_y
_atom_site_fract_z
Si Si1 0.326087 0.036876 0.088623
Si Si2 0.754230 0.335263 0.315082
Si Si3 0.870684 0.510511 0.914620
Si Si4 0.027588 0.769331 0.326194
Si Si5 0.081481 0.071929 0.914455
Si Si6 0.188184 0.330833 0.345902
Si Si7 0.550692 0.798978 0.167876
Si Si8 0.338144 0.179333 0.413256
O O1 0.204632 0.065172 0.117523
O O2 0.405539 0.102330 0.137059
O O3 0.342507 0.928973 0.108944
O O4 0.346311 0.053715 0.000000
O O5 0.795120 0.418054 0.368027
O O6 0.844848 0.256626 0.320448
O O7 0.749753 0.367017 0.228698
O O8 0.637782 0.286351 0.337475
O O9 0.806923 0.412553 0.906301
O O10 0.000000 0.500000 0.888009
O O11 0.868180 0.542926 0.000000
O O12 0.022054 0.830434 0.400190
O O13 0.000000 0.825368 0.250000
O O14 0.943562 0.683556 0.331311
O O15 0.090356 0.048940 0.000000
O O16 0.000000 0.000000 0.874416
O O17 0.237069 0.233388 0.373975
O O18 0.500000 0.812922 0.250000
O O19 0.450551 0.770498 0.113249
O O20 0.321541 0.191230 0.500000
#
# Coordination Sequence:
#
# PCOD8203825 Si02
#       8
#     8   8   8   8   8   8   8   8
#     4  10  22  40  64  94 129 173 226 278 331 390
#     4  11  23  43  66  95 130 167 217 269 332 388
#     4  11  24  41  69 106 134 165 214 269 332 408
#     4  10  21  36  60  89 125 165 207 258 325 392
#     4  10  20  35  56  87 127 170 212 260 326 398
#     4  11  22  42  66  96 132 171 211 269 333 402
#     4  12  24  44  66  95 129 177 229 277 326 389
#     4  11  24  42  65  94 130 174 223 277 332 393
#
# _framework density 20.438507000000001
#
# number of rings (size 3 to 8) (size 9 to 14) (size 15 to 20)
#    0.000    1.250    3.750    2.250    0.000    6.250 
#    0.000    1.875    0.000    1.500    0.000    0.000 
#    0.000    0.000    0.000    0.000    0.000    0.000 
#
# Total GULP energy -792933.044422 kJ/mol
# GULP energy per Si atom -12389.578819 kJ/mol
# Density = 2.039199 g / cm^3
# Si number density = 20.438507 Si / 1000 Ang^3
#
#
#
# Elastic Constant Matrix: (Units=GPa)
#
#
# Indices 1 2 3 4 5 6 
#
# 1 101.7071 47.1747 37.9097 0.0000 0.0000 0.0000
# 2 47.1747 98.3363 47.1141 0.0000 0.0000 0.0000
# 3 37.9097 47.1141 84.1246 0.0000 0.0000 0.0000
# 4 0.0000 0.0000 0.0000 37.1189 0.0000 0.0000
# 5 0.0000 0.0000 0.0000 0.0000 31.5395 0.0000
# 6 0.0000 0.0000 0.0000 0.0000 0.0000 22.9438
#
#
#
# Elastic Compliance Matrix: (Units=1/GPa)
#
#
# Indices 1 2 3 4 5 6 
#
# 1 0.013286 -0.004790 -0.003304 0.000000 0.000000 0.000000
# 2 -0.004790 0.015626 -0.006593 0.000000 0.000000 0.000000
# 3 -0.003304 -0.006593 0.017068 0.000000 0.000000 0.000000
# 4 0.000000 0.000000 0.000000 0.026940 0.000000 0.000000
# 5 0.000000 0.000000 0.000000 0.000000 0.031706 0.000000
# 6 0.000000 0.000000 0.000000 0.000000 0.000000 0.043585
#
#
# Mechanical properties :
#
#
# Convention : Reuss Voigt Hill
#
# Bulk Modulus (GPa) = 60.22077 60.95166 60.58621
# Shear Modulus (GPa) = 27.30438 28.45173 27.87806
#
# Velocity S-wave (km/s) = 3.65900 3.73509 3.69724
# Velocity P-wave (km/s) = 6.88327 6.96332 6.92341
#
# Compressibility (1/GPa) = 0.01660557
#
# Stress axis : x y z
#
# Youngs Moduli (GPa) = 75.26903 63.99644 58.58833
#
# Poissons Ratio (x) = 0.30657 0.19358
# Poissons Ratio (y) = 0.36057 0.38624
# Poissons Ratio (z) = 0.24870 0.42190
#
# Static dielectric constant tensor:
#      x y z
#    x 4.072740 0.000000 0.000000 
#    y 0.000000 3.510240 0.000000 
#    z 0.000000 0.000000 3.770180 
# 
# 
# High freq. dielectric constant tensor:
#      x y z
#    x 1.806340 0.000000 0.000000 
#    y 0.000000 1.786420 0.000000 
#    z 0.000000 0.000000 1.798930 
# 
# From -- ./inp_files/17345.got.cif
#   From: 2010.03.12/outbox.cif.g09.slc.cpg/sg49_9_cif.got.tgz:17345.got - 2010.04.14 03:58:27.
