data_PCOD8203406
_publ_section_title
;
Structure prediction by ZEFSAII (Michael W. Deem and Ramdas Pophale) SiO2 
 PCOD8203406
Probable space group: P C C M
;
_chemical_formula_sum "Si O2"
_cell_formula_units_Z 48
_cell_length_a 8.548607
_cell_length_b 14.935308
_cell_length_c 17.480316
_cell_angle_alpha 90.000000
_cell_angle_beta 90.000000
_cell_angle_gamma 90.000000
_cell_volume 2231.818198
_symmetry_space_group_name_H-M "P C C M"
_symmetry_group_IT_number 49
_symmetry_cell_setting 'orthorhombic'
loop_
_space_group_symop_operation_xyz
x,y,z
-x,-y,z
x,-y,1/2-z
-x,y,1/2-z
-x,-y,-z
x,y,-z
-x,y,1/2+z
x,-y,1/2+z
loop_
_atom_site_type_symbol
_atom_site_label
_atom_site_fract_x
_atom_site_fract_y
_atom_site_fract_z
Si Si1 0.816090 0.001830 0.414448
Si Si2 0.685723 0.337690 0.414803
Si Si3 0.138802 0.178843 0.150776
Si Si4 0.393141 0.662843 0.824906
Si Si5 0.201210 0.160828 0.320464
Si Si6 0.175183 0.528690 0.088551
O O1 0.773183 0.973576 0.500000
O O2 0.729775 0.929566 0.359717
O O3 0.769689 0.105911 0.401511
O O4 0.000000 0.000000 0.396395
O O5 0.724049 0.304126 0.500000
O O6 0.783800 0.276353 0.356590
O O7 0.502511 0.331475 0.398873
O O8 0.722582 0.440774 0.403932
O O9 0.153742 0.138181 0.234747
O O10 0.953894 0.190997 0.131625
O O11 0.500000 0.634202 0.750000
O O12 0.329311 0.762235 0.815181
O O13 0.249172 0.596940 0.848435
O O14 0.000000 0.500000 0.112505
O O15 0.177240 0.565381 0.000000
#
# Coordination Sequence:
#
# PCOD8203406 Si02
#       6
#     8   8   8   8   8   8
#     4   9  18  33  59  93 124 159 208 267 322 374
#     4  11  23  40  63  90 126 169 208 258 322 391
#     4  10  19  38  62  92 122 163 211 268 318 380
#     4  12  24  42  61  92 130 173 210 262 325 398
#     4  10  21  37  61  89 125 164 213 262 322 373
#     4  10  23  44  69  96 124 165 220 276 327 379
#
# _framework density 21.507128999999999
#
# number of rings (size 3 to 8) (size 9 to 14) (size 15 to 20)
#    0.000    1.667    1.667    3.000    0.000    6.667 
#    0.000    1.667    0.000    2.000    0.000    0.000 
#    0.000    0.000    0.000    0.000    0.000    0.000 
#
# Total GULP energy -594850.074117 kJ/mol
# GULP energy per Si atom -12392.709877 kJ/mol
# Density = 2.145818 g / cm^3
# Si number density = 21.507129 Si / 1000 Ang^3
#
#
#
# Elastic Constant Matrix: (Units=GPa)
#
#
# Indices 1 2 3 4 5 6 
#
# 1 83.8689 21.6263 17.6957 0.0000 0.0000 0.0000
# 2 21.6263 80.6873 33.6951 0.0000 0.0000 0.0000
# 3 17.6957 33.6951 90.0322 0.0000 0.0000 0.0000
# 4 0.0000 0.0000 0.0000 38.0330 0.0000 0.0000
# 5 0.0000 0.0000 0.0000 0.0000 28.1519 0.0000
# 6 0.0000 0.0000 0.0000 0.0000 0.0000 26.0359
#
#
#
# Elastic Compliance Matrix: (Units=1/GPa)
#
#
# Indices 1 2 3 4 5 6 
#
# 1 0.012973 -0.002859 -0.001480 0.000000 0.000000 0.000000
# 2 -0.002859 0.015319 -0.005171 0.000000 0.000000 0.000000
# 3 -0.001480 -0.005171 0.013333 0.000000 0.000000 0.000000
# 4 0.000000 0.000000 0.000000 0.026293 0.000000 0.000000
# 5 0.000000 0.000000 0.000000 0.000000 0.035522 0.000000
# 6 0.000000 0.000000 0.000000 0.000000 0.000000 0.038409
#
#
# Mechanical properties :
#
#
# Convention : Reuss Voigt Hill
#
# Bulk Modulus (GPa) = 44.23782 44.51362 44.37572
# Shear Modulus (GPa) = 29.69043 30.54891 30.11967
#
# Velocity S-wave (km/s) = 3.71953 3.77292 3.74632
# Velocity P-wave (km/s) = 6.24981 6.30254 6.27623
#
# Compressibility (1/GPa) = 0.02260509
#
# Stress axis : x y z
#
# Youngs Moduli (GPa) = 77.08414 65.27648 74.99951
#
# Poissons Ratio (x) = 0.18663 0.11098
# Poissons Ratio (y) = 0.22039 0.38786
# Poissons Ratio (z) = 0.11406 0.33757
#
# Static dielectric constant tensor:
#      x y z
#    x 3.782520 0.000000 0.000000 
#    y 0.000000 3.878780 0.000000 
#    z 0.000000 0.000000 3.905090 
# 
# 
# High freq. dielectric constant tensor:
#      x y z
#    x 1.824210 0.000000 0.000000 
#    y 0.000000 1.848010 0.000000 
#    z 0.000000 0.000000 1.844400 
# 
# From -- ./inp_files/16298.got.cif
#   From: 2010.03.12/outbox.cif.g09.slc.cpg/sg49_9_cif.got.tgz:16298.got - 2010.04.14 03:58:27.
