data_PCOD8203072
_publ_section_title
;
Structure prediction by ZEFSAII (Michael W. Deem and Ramdas Pophale) SiO2 
 PCOD8203072
Probable space group: P C C M
;
_chemical_formula_sum "Si O2"
_cell_formula_units_Z 48
_cell_length_a 9.237998
_cell_length_b 9.075196
_cell_length_c 28.408728
_cell_angle_alpha 90.000000
_cell_angle_beta 90.000000
_cell_angle_gamma 90.000000
_cell_volume 2381.692373
_symmetry_space_group_name_H-M "P C C M"
_symmetry_group_IT_number 49
_symmetry_cell_setting 'orthorhombic'
loop_
_space_group_symop_operation_xyz
x,y,z
-x,-y,z
x,-y,1/2-z
-x,y,1/2-z
-x,-y,-z
x,y,-z
-x,y,1/2+z
x,-y,1/2+z
loop_
_atom_site_type_symbol
_atom_site_label
_atom_site_fract_x
_atom_site_fract_y
_atom_site_fract_z
Si Si1 0.469821 0.171068 0.389362
Si Si2 0.253038 0.686025 0.052503
Si Si3 0.016370 0.330333 0.893145
Si Si4 0.426067 0.343944 0.702686
Si Si5 0.702092 0.654068 0.054816
Si Si6 0.924707 0.341441 0.204884
O O1 0.310386 0.198576 0.409199
O O2 0.479186 0.230892 0.336786
O O3 0.561234 0.262264 0.427758
O O4 0.500000 0.000000 0.389570
O O5 0.313930 0.521348 0.061622
O O6 0.082359 0.697504 0.061169
O O7 0.289344 0.737539 0.000000
O O8 0.174413 0.283163 0.910360
O O9 0.000000 0.500000 0.880379
O O10 0.968789 0.253642 0.843488
O O11 0.500000 0.500000 0.690240
O O12 0.500000 0.283006 0.750000
O O13 0.251204 0.354736 0.708121
O O14 0.732325 0.690296 0.000000
O O15 0.000000 0.500000 0.204754
O O16 0.000000 0.258193 0.250000
#
# Coordination Sequence:
#
# PCOD8203072 Si02
#       6
#     8   8   8   8   8   8
#     4  12  26  40  57  85 125 165 202 242 295 359
#     4  10  19  37  62  89 118 152 201 254 299 353
#     4   9  18  32  58  90 121 148 190 252 308 357
#     4  11  23  39  67  96 119 155 199 246 299 355
#     4  10  21  37  62  91 118 155 202 253 305 353
#     4  10  19  32  58  97 124 144 182 248 311 354
#
# _framework density 20.153735000000001
#
# number of rings (size 3 to 8) (size 9 to 14) (size 15 to 20)
#    0.000    1.667    1.667    4.500    7.000    5.000 
#    0.000    0.833    0.000    2.000    0.000    0.000 
#    0.000    0.000    0.000    0.000    0.000    0.000 
#
# Total GULP energy -594636.906387 kJ/mol
# GULP energy per Si atom -12388.268883 kJ/mol
# Density = 2.010786 g / cm^3
# Si number density = 20.153735 Si / 1000 Ang^3
#
#
#
# Elastic Constant Matrix: (Units=GPa)
#
#
# Indices 1 2 3 4 5 6 
#
# 1 95.8562 19.4224 44.8194 0.0000 0.0000 0.0000
# 2 19.4224 60.7616 47.0220 0.0000 0.0000 0.0000
# 3 44.8194 47.0220 165.6533 0.0000 0.0000 0.0000
# 4 0.0000 0.0000 0.0000 -11.7007 0.0000 0.0000
# 5 0.0000 0.0000 0.0000 0.0000 -14.6547 0.0000
# 6 0.0000 0.0000 0.0000 0.0000 0.0000 4.1934
#
#
#
# Elastic Compliance Matrix: (Units=1/GPa)
#
#
# Indices 1 2 3 4 5 6 
#
# 1 0.012080 -0.001707 -0.002784 0.000000 0.000000 0.000000
# 2 -0.001707 0.021332 -0.005593 0.000000 0.000000 0.000000
# 3 -0.002784 -0.005593 0.008378 0.000000 0.000000 0.000000
# 4 0.000000 0.000000 0.000000 -0.085465 0.000000 0.000000
# 5 0.000000 0.000000 0.000000 0.000000 -0.068238 0.000000
# 6 0.000000 0.000000 0.000000 0.000000 0.000000 0.238470
#
#
# Mechanical properties :
#
#
# Convention : Reuss Voigt Hill
#
# Bulk Modulus (GPa) = 46.25123 60.53319 53.39221
# Shear Modulus (GPa) = 32.48195 9.63477 21.05836
#
# Velocity S-wave (km/s) = 4.01896 2.18884 3.23598
# Velocity P-wave (km/s) = 6.67346 6.04061 6.36491
#
# Compressibility (1/GPa) = 0.02162105
#
# Stress axis : x y z
#
# Youngs Moduli (GPa) = 82.78302 46.87795 119.36563
#
# Poissons Ratio (x) = 0.08002 0.33229
# Poissons Ratio (y) = 0.14131 0.66766
# Poissons Ratio (z) = 0.23045 0.26221
#
# Static dielectric constant tensor:
#      x y z
#    x 3.830500 0.000000 0.000000 
#    y 0.000000 3.066890 0.000000 
#    z 0.000000 0.000000 4.265040 
# 
# 
# High freq. dielectric constant tensor:
#      x y z
#    x 1.802480 0.000000 0.000000 
#    y 0.000000 1.713220 0.000000 
#    z 0.000000 0.000000 1.818990 
# 
# From -- ./inp_files/26260.got.cif
#   From: 2010.03.12/outbox.cif.g09.slc.cpg/sg49_14_cif.got.tgz:26260.got - 2010.04.14 03:58:27.
