data_PCOD8203299
_publ_section_title
;
Structure prediction by ZEFSAII (Michael W. Deem and Ramdas Pophale) SiO2 
 PCOD8203299
Probable space group: P C C M
;
_chemical_formula_sum "Si O2"
_cell_formula_units_Z 58
_cell_length_a 12.925905
_cell_length_b 25.581512
_cell_length_c 8.959688
_cell_angle_alpha 90.000000
_cell_angle_beta 90.000000
_cell_angle_gamma 90.000000
_cell_volume 2962.648010
_symmetry_space_group_name_H-M "P C C M"
_symmetry_group_IT_number 49
_symmetry_cell_setting 'orthorhombic'
loop_
_space_group_symop_operation_xyz
x,y,z
-x,-y,z
x,-y,1/2-z
-x,y,1/2-z
-x,-y,-z
x,y,-z
-x,y,1/2+z
x,-y,1/2+z
loop_
_atom_site_type_symbol
_atom_site_label
_atom_site_fract_x
_atom_site_fract_y
_atom_site_fract_z
Si Si1 0.895463 0.804521 0.323038
Si Si2 0.105204 0.393593 0.826899
Si Si3 0.830406 0.915786 0.668261
Si Si4 0.000000 0.000000 0.750000
Si Si5 0.398430 0.943911 0.179539
Si Si6 0.790843 0.712619 0.827368
Si Si7 0.604244 0.658516 0.671411
Si Si8 0.705983 0.551762 0.329612
O O1 0.905890 0.803982 0.500000
O O2 0.873606 0.862769 0.257176
O O3 0.808371 0.764376 0.270388
O O4 0.000000 0.783667 0.250000
O O5 0.121843 0.331531 0.802397
O O6 0.192047 0.428650 0.752132
O O7 0.000000 0.410405 0.750000
O O8 0.102011 0.407705 0.000000
O O9 0.805351 0.902045 0.500000
O O10 0.917982 0.961941 0.666557
O O11 0.716465 0.926605 0.738410
O O12 0.500000 0.912731 0.250000
O O13 0.409442 0.000000 0.250000
O O14 0.405570 0.943832 0.000000
O O15 0.685730 0.688664 0.770280
O O16 0.781857 0.728503 0.000000
O O17 0.500000 0.674798 0.750000
O O18 0.608303 0.677479 0.500000
O O19 0.618627 0.596140 0.680923
O O20 0.662331 0.500000 0.250000
O O21 0.733775 0.538986 0.500000
#
# Coordination Sequence:
#
# PCOD8203299 Si02
#       8
#     8   8   8   2   8   8   8   8
#     4  11  22  38  57  84 118 153 189 235 288 345
#     4  10  20  34  54  78 107 142 185 231 280 337
#     4  10  22  36  56  84 118 155 195 241 292 350
#     4  12  18  40  58  82 120 160 202 238 300 352
#     4  10  19  35  55  80 107 141 185 230 277 328
#     4  10  21  38  59  84 111 145 187 235 286 344
#     4  10  21  38  61  87 114 149 190 238 289 346
#     4  10  21  36  54  79 113 149 189 233 283 335
#
# _framework density 19.577082000000001
#
# number of rings (size 3 to 8) (size 9 to 14) (size 15 to 20)
#    0.000    1.793    1.379    3.517    0.000    4.966 
#    0.000    6.207    0.000    1.655    0.000    0.000 
#    0.000    0.000    0.000    0.000    0.000    0.000 
#
# Total GULP energy -718619.211013 kJ/mol
# GULP energy per Si atom -12389.986397 kJ/mol
# Density = 1.953252 g / cm^3
# Si number density = 19.577082 Si / 1000 Ang^3
#
#
#
# Elastic Constant Matrix: (Units=GPa)
#
#
# Indices 1 2 3 4 5 6 
#
# 1 103.4707 13.7886 31.0542 0.0000 0.0000 0.0000
# 2 13.7886 87.5140 26.2787 0.0000 0.0000 0.0000
# 3 31.0542 26.2787 92.8318 0.0000 0.0000 0.0000
# 4 0.0000 0.0000 0.0000 23.7880 0.0000 0.0000
# 5 0.0000 0.0000 0.0000 0.0000 22.2066 0.0000
# 6 0.0000 0.0000 0.0000 0.0000 0.0000 10.2359
#
#
#
# Elastic Compliance Matrix: (Units=1/GPa)
#
#
# Indices 1 2 3 4 5 6 
#
# 1 0.010779 -0.000673 -0.003415 0.000000 0.000000 0.000000
# 2 -0.000673 0.012530 -0.003322 0.000000 0.000000 0.000000
# 3 -0.003415 -0.003322 0.012855 0.000000 0.000000 0.000000
# 4 0.000000 0.000000 0.000000 0.042038 0.000000 0.000000
# 5 0.000000 0.000000 0.000000 0.000000 0.045032 0.000000
# 6 0.000000 0.000000 0.000000 0.000000 0.000000 0.097695
#
#
# Mechanical properties :
#
#
# Convention : Reuss Voigt Hill
#
# Bulk Modulus (GPa) = 46.85113 47.33996 47.09555
# Shear Modulus (GPa) = 20.58759 25.42577 23.00668
#
# Velocity S-wave (km/s) = 3.24638 3.60773 3.43182
# Velocity P-wave (km/s) = 6.16730 6.44888 6.30966
#
# Compressibility (1/GPa) = 0.02134420
#
# Stress axis : x y z
#
# Youngs Moduli (GPa) = 92.77048 79.80677 77.79022
#
# Poissons Ratio (x) = 0.05369 0.26569
# Poissons Ratio (y) = 0.06241 0.25842
# Poissons Ratio (z) = 0.31685 0.26512
#
# Static dielectric constant tensor:
#      x y z
#    x 4.146830 0.000000 0.000000 
#    y 0.000000 3.597210 0.000000 
#    z 0.000000 0.000000 3.567120 
# 
# 
# High freq. dielectric constant tensor:
#      x y z
#    x 1.771060 0.000000 0.000000 
#    y 0.000000 1.749940 0.000000 
#    z 0.000000 0.000000 1.765080 
# 
# From -- ./inp_files/3027.got.cif
#   From: 2010.03.12/outbox.cif.g09.slc.cpg/sg49_2_cif.got.tgz:3027.got - 2010.04.14 03:58:27.
