data_PCOD8203812
_publ_section_title
;
Structure prediction by ZEFSAII (Michael W. Deem and Ramdas Pophale) SiO2 
 PCOD8203812
Probable space group: P C C M
;
_chemical_formula_sum "Si O2"
_cell_formula_units_Z 56
_cell_length_a 15.474389
_cell_length_b 20.174363
_cell_length_c 8.588728
_cell_angle_alpha 90.000000
_cell_angle_beta 90.000000
_cell_angle_gamma 90.000000
_cell_volume 2681.280132
_symmetry_space_group_name_H-M "P C C M"
_symmetry_group_IT_number 49
_symmetry_cell_setting 'orthorhombic'
loop_
_space_group_symop_operation_xyz
x,y,z
-x,-y,z
x,-y,1/2-z
-x,y,1/2-z
-x,-y,-z
x,y,-z
-x,y,1/2+z
x,-y,1/2+z
loop_
_atom_site_type_symbol
_atom_site_label
_atom_site_fract_x
_atom_site_fract_y
_atom_site_fract_z
Si Si1 0.905143 0.702742 0.814006
Si Si2 0.097061 0.160463 0.685082
Si Si3 0.349760 0.436555 0.168474
Si Si4 0.405138 0.702758 0.314006
Si Si5 0.250003 0.073412 0.185611
Si Si6 0.849701 0.563444 0.831528
Si Si7 0.402938 0.160462 0.685082
O O1 0.863588 0.768336 0.738282
O O2 0.860070 0.635308 0.750227
O O3 0.000000 0.698104 0.750000
O O4 0.899611 0.709741 0.000000
O O5 0.093763 0.156094 0.500000
O O6 0.162255 0.106334 0.751704
O O7 0.000000 0.149098 0.750000
O O8 0.394913 0.500000 0.250000
O O9 0.360134 0.364697 0.249803
O O10 0.250030 0.453183 0.150851
O O11 0.394619 0.430988 0.000000
O O12 0.500000 0.698205 0.250000
O O13 0.399588 0.709730 0.500000
O O14 0.363551 0.768350 0.238319
O O15 0.337754 0.106314 0.248340
O O16 0.249979 0.000000 0.250000
O O17 0.250018 0.074877 0.000000
O O18 0.894853 0.500000 0.750000
O O19 0.894562 0.569007 0.000000
O O20 0.500000 0.149098 0.750000
O O21 0.406245 0.156116 0.500000
#
# Coordination Sequence:
#
# PCOD8203812 Si02
#       7
#     8   8   8   8   8   8   8
#     4  10  20  35  56  82 113 152 197 248 304 362
#     4  11  23  42  66  97 131 169 213 259 313 372
#     4   9  19  34  51  74 105 146 193 243 301 360
#     4  10  20  35  56  82 113 152 197 248 304 362
#     4  12  26  46  70 100 133 168 209 256 306 370
#     4   9  19  34  51  74 105 146 193 243 301 360
#     4  11  23  42  66  97 131 169 213 259 313 372
#
# _framework density 20.885546000000001
#
# number of rings (size 3 to 8) (size 9 to 14) (size 15 to 20)
#    0.000    1.714    0.000    6.429    2.000    3.429 
#    0.000    5.714    0.000    0.000    0.000    0.000 
#    0.000    0.000    0.000    0.000    0.000    0.000 
#
# Total GULP energy -693850.947871 kJ/mol
# GULP energy per Si atom -12390.195498 kJ/mol
# Density = 2.083801 g / cm^3
# Si number density = 20.885546 Si / 1000 Ang^3
#
#
#
# Elastic Constant Matrix: (Units=GPa)
#
#
# Indices 1 2 3 4 5 6 
#
# 1 66.9858 67.5058 39.1223 0.0000 0.0000 0.0000
# 2 67.5058 220.1884 81.6847 0.0000 0.0000 0.0000
# 3 39.1223 81.6847 151.8657 0.0000 0.0000 0.0000
# 4 0.0000 0.0000 0.0000 39.0528 0.0000 0.0000
# 5 0.0000 0.0000 0.0000 0.0000 28.4249 0.0000
# 6 0.0000 0.0000 0.0000 0.0000 0.0000 -19.3734
#
#
#
# Elastic Compliance Matrix: (Units=1/GPa)
#
#
# Indices 1 2 3 4 5 6 
#
# 1 0.022392 -0.005903 -0.002593 0.000000 0.000000 0.000000
# 2 -0.005903 0.007230 -0.002368 0.000000 0.000000 0.000000
# 3 -0.002593 -0.002368 0.008527 0.000000 0.000000 0.000000
# 4 0.000000 0.000000 0.000000 0.025606 0.000000 0.000000
# 5 0.000000 0.000000 0.000000 0.000000 0.035180 0.000000
# 6 0.000000 0.000000 0.000000 0.000000 0.000000 -0.051617
#
#
# Mechanical properties :
#
#
# Convention : Reuss Voigt Hill
#
# Bulk Modulus (GPa) = 60.90298 90.62950 75.76624
# Shear Modulus (GPa) = 67.09637 26.33600 46.71618
#
# Velocity S-wave (km/s) = 5.67411 3.55486 4.73458
# Velocity P-wave (km/s) = 8.49417 7.76769 8.13904
#
# Compressibility (1/GPa) = 0.01641956
#
# Stress axis : x y z
#
# Youngs Moduli (GPa) = 44.65915 138.31702 117.28041
#
# Poissons Ratio (x) = 0.81646 0.30415
# Poissons Ratio (y) = 0.26362 0.27773
# Poissons Ratio (z) = 0.11582 0.32754
#
# Static dielectric constant tensor:
#      x y z
#    x 3.672050 0.000000 0.000000 
#    y 0.000000 4.485940 0.000000 
#    z 0.000000 0.000000 4.286290 
# 
# 
# High freq. dielectric constant tensor:
#      x y z
#    x 1.803290 0.000000 0.000000 
#    y 0.000000 1.838160 0.000000 
#    z 0.000000 0.000000 1.822880 
# 
# From -- ./inp_files/4025.got.cif
#   From: 2010.03.12/outbox.cif.g09.slc.cpg/sg49_3_cif.got.tgz:4025.got - 2010.04.14 03:58:27.
