data_PCOD8203073
_publ_section_title
;
Structure prediction by ZEFSAII (Michael W. Deem and Ramdas Pophale) SiO2 
 PCOD8203073
Probable space group: P C C M
;
_chemical_formula_sum "Si O2"
_cell_formula_units_Z 64
_cell_length_a 7.904100
_cell_length_b 21.779590
_cell_length_c 18.179715
_cell_angle_alpha 90.000000
_cell_angle_beta 90.000000
_cell_angle_gamma 90.000000
_cell_volume 3129.602620
_symmetry_space_group_name_H-M "P C C M"
_symmetry_group_IT_number 49
_symmetry_cell_setting 'orthorhombic'
loop_
_space_group_symop_operation_xyz
x,y,z
-x,-y,z
x,-y,1/2-z
-x,y,1/2-z
-x,-y,-z
x,y,-z
-x,y,1/2+z
x,-y,1/2+z
loop_
_atom_site_type_symbol
_atom_site_label
_atom_site_fract_x
_atom_site_fract_y
_atom_site_fract_z
Si Si1 0.187629 0.498916 0.336815
Si Si2 0.662483 0.382872 0.917015
Si Si3 0.683293 0.854969 0.342949
Si Si4 0.847784 0.257913 0.083214
Si Si5 0.624147 0.619323 0.818797
Si Si6 0.313380 0.854538 0.326603
Si Si7 0.136927 0.731285 0.686124
Si Si8 0.002761 0.069783 0.662074
O O1 0.170661 0.500000 0.250000
O O2 0.282220 0.438689 0.364959
O O3 0.295064 0.558870 0.355553
O O4 0.000000 0.500000 0.372708
O O5 0.793039 0.328025 0.911992
O O6 0.487326 0.354883 0.886062
O O7 0.641453 0.406929 0.000000
O O8 0.737336 0.785327 0.362638
O O9 0.490103 0.866339 0.371095
O O10 0.673564 0.873385 0.257965
O O11 0.829530 0.899870 0.374800
O O12 0.041404 0.262981 0.108528
O O13 0.835849 0.232272 0.000000
O O14 0.500000 0.605702 0.750000
O O15 0.773428 0.666396 0.797548
O O16 0.281426 0.781965 0.320759
O O17 0.163091 0.892936 0.366250
O O18 0.000000 0.745138 0.750000
O O19 0.000000 0.074145 0.750000
O O20 0.000000 0.000000 0.634285
#
# Coordination Sequence:
#
# PCOD8203073 Si02
#       8
#     8   8   8   8   8   8   8   8
#     4  11  24  41  63  88 117 154 206 252 306 373
#     4  11  25  44  63  88 122 160 200 254 320 378
#     4  10  19  34  57  89 123 164 208 254 311 370
#     4  11  23  41  62  89 128 165 203 259 319 370
#     4  12  25  38  62  93 120 156 201 257 313 373
#     4  10  19  32  59  91 121 160 210 258 308 367
#     4  12  22  37  62  89 123 159 211 261 309 372
#     4   9  17  32  53  89 132 163 202 258 313 367
#
# _framework density 20.449881000000001
#
# number of rings (size 3 to 8) (size 9 to 14) (size 15 to 20)
#    0.000    1.250    3.750    3.000    3.500    2.250 
#    0.000    3.125    0.000    0.375    0.000    0.875 
#    0.000    0.000    0.000    0.000    0.000    0.000 
#
# Total GULP energy -793115.624063 kJ/mol
# GULP energy per Si atom -12392.431626 kJ/mol
# Density = 2.040334 g / cm^3
# Si number density = 20.449881 Si / 1000 Ang^3
#
#
#
# Elastic Constant Matrix: (Units=GPa)
#
#
# Indices 1 2 3 4 5 6 
#
# 1 164.3533 56.7810 32.3254 0.0000 0.0000 0.0000
# 2 56.7810 119.6866 19.7742 0.0000 0.0000 0.0000
# 3 32.3254 19.7742 50.9820 0.0000 0.0000 0.0000
# 4 0.0000 0.0000 0.0000 11.0180 0.0000 0.0000
# 5 0.0000 0.0000 0.0000 0.0000 5.3199 0.0000
# 6 0.0000 0.0000 0.0000 0.0000 0.0000 25.3179
#
#
#
# Elastic Compliance Matrix: (Units=1/GPa)
#
#
# Indices 1 2 3 4 5 6 
#
# 1 0.007912 -0.003125 -0.003805 0.000000 0.000000 0.000000
# 2 -0.003125 0.010162 -0.001960 0.000000 0.000000 0.000000
# 3 -0.003805 -0.001960 0.022787 0.000000 0.000000 0.000000
# 4 0.000000 0.000000 0.000000 0.090761 0.000000 0.000000
# 5 0.000000 0.000000 0.000000 0.000000 0.187972 0.000000
# 6 0.000000 0.000000 0.000000 0.000000 0.000000 0.039498
#
#
# Mechanical properties :
#
#
# Convention : Reuss Voigt Hill
#
# Bulk Modulus (GPa) = 43.32408 61.42035 52.37222
# Shear Modulus (GPa) = 13.00169 23.40725 18.20447
#
# Velocity S-wave (km/s) = 2.52421 3.38689 2.98686
# Velocity P-wave (km/s) = 5.45225 6.73754 6.12868
#
# Compressibility (1/GPa) = 0.02308185
#
# Stress axis : x y z
#
# Youngs Moduli (GPa) = 126.38261 98.40990 43.88403
#
# Poissons Ratio (x) = 0.30755 0.16697
# Poissons Ratio (y) = 0.39497 0.08600
# Poissons Ratio (z) = 0.48086 0.19286
#
# Static dielectric constant tensor:
#      x y z
#    x 4.302970 0.000000 0.000000 
#    y 0.000000 3.649950 0.000000 
#    z 0.000000 0.000000 3.372500 
# 
# 
# High freq. dielectric constant tensor:
#      x y z
#    x 1.819480 0.000000 0.000000 
#    y 0.000000 1.795700 0.000000 
#    z 0.000000 0.000000 1.753110 
# 
# From -- ./inp_files/16525.got.cif
#   From: 2010.03.12/outbox.cif.g09.slc.cpg/sg49_9_cif.got.tgz:16525.got - 2010.04.14 03:58:27.
