data_PCOD8203296
_publ_section_title
;
Structure prediction by ZEFSAII (Michael W. Deem and Ramdas Pophale) SiO2 
 PCOD8203296
Probable space group: P C C M
;
_chemical_formula_sum "Si O2"
_cell_formula_units_Z 48
_cell_length_a 18.893185
_cell_length_b 14.682527
_cell_length_c 8.556988
_cell_angle_alpha 90.000000
_cell_angle_beta 90.000000
_cell_angle_gamma 90.000000
_cell_volume 2373.705895
_symmetry_space_group_name_H-M "P C C M"
_symmetry_group_IT_number 49
_symmetry_cell_setting 'orthorhombic'
loop_
_space_group_symop_operation_xyz
x,y,z
-x,-y,z
x,-y,1/2-z
-x,y,1/2-z
-x,-y,-z
x,y,-z
-x,y,1/2+z
x,-y,1/2+z
loop_
_atom_site_type_symbol
_atom_site_label
_atom_site_fract_x
_atom_site_fract_y
_atom_site_fract_z
Si Si1 0.923532 0.402552 0.183610
Si Si2 0.712898 0.409209 0.819067
Si Si3 0.572967 0.845260 0.822589
Si Si4 0.274455 0.903480 0.685972
Si Si5 0.809303 0.270005 0.319169
Si Si6 0.427985 0.370097 0.179549
O O1 0.896488 0.500000 0.250000
O O2 0.872233 0.317747 0.222750
O O3 0.000000 0.377372 0.250000
O O4 0.928637 0.413347 0.000000
O O5 0.749333 0.500000 0.750000
O O6 0.738437 0.326996 0.710700
O O7 0.629277 0.414872 0.794123
O O8 0.733993 0.396517 0.000000
O O9 0.500000 0.885325 0.750000
O O10 0.646328 0.882825 0.745201
O O11 0.574358 0.737779 0.803075
O O12 0.571285 0.876770 0.000000
O O13 0.278541 0.901399 0.500000
O O14 0.213469 0.831157 0.738835
O O15 0.248105 0.000000 0.750000
O O16 0.830836 0.270178 0.500000
O O17 0.500000 0.409216 0.250000
O O18 0.416659 0.400131 0.000000
#
# Coordination Sequence:
#
# PCOD8203296 Si02
#       6
#     8   8   8   8   8   8
#     4  11  22  39  64  98 132 166 201 236 281 338
#     4  12  24  37  55  81 110 148 193 238 289 349
#     4   9  18  34  54  78 107 145 188 243 304 358
#     4  10  22  39  59  84 116 153 197 247 302 357
#     4  11  22  41  62  85 121 159 193 241 294 345
#     4  10  19  35  54  75 105 142 188 238 294 350
#
# _framework density 20.221544000000002
#
# number of rings (size 3 to 8) (size 9 to 14) (size 15 to 20)
#    0.000    1.500    1.667    5.000    0.000    3.333 
#    0.000    3.333    0.000    0.500    0.000    3.500 
#    0.000    0.000    0.000    0.000    0.000    0.000 
#
# Total GULP energy -594977.415259 kJ/mol
# GULP energy per Si atom -12395.362818 kJ/mol
# Density = 2.017552 g / cm^3
# Si number density = 20.221544 Si / 1000 Ang^3
#
#
#
# Elastic Constant Matrix: (Units=GPa)
#
#
# Indices 1 2 3 4 5 6 
#
# 1 121.5287 50.5042 30.3671 0.0000 0.0000 0.0000
# 2 50.5042 115.0064 36.2074 0.0000 0.0000 0.0000
# 3 30.3671 36.2074 87.2594 0.0000 0.0000 0.0000
# 4 0.0000 0.0000 0.0000 28.9735 0.0000 0.0000
# 5 0.0000 0.0000 0.0000 0.0000 30.4780 0.0000
# 6 0.0000 0.0000 0.0000 0.0000 0.0000 25.1274
#
#
#
# Elastic Compliance Matrix: (Units=1/GPa)
#
#
# Indices 1 2 3 4 5 6 
#
# 1 0.010353 -0.003925 -0.001974 0.000000 0.000000 0.000000
# 2 -0.003925 0.011490 -0.003402 0.000000 0.000000 0.000000
# 3 -0.001974 -0.003402 0.013559 0.000000 0.000000 0.000000
# 4 0.000000 0.000000 0.000000 0.034514 0.000000 0.000000
# 5 0.000000 0.000000 0.000000 0.000000 0.032811 0.000000
# 6 0.000000 0.000000 0.000000 0.000000 0.000000 0.039797
#
#
# Mechanical properties :
#
#
# Convention : Reuss Voigt Hill
#
# Bulk Modulus (GPa) = 59.52521 61.99464 60.75993
# Shear Modulus (GPa) = 29.98956 30.69684 30.34320
#
# Velocity S-wave (km/s) = 3.85522 3.90041 3.87788
# Velocity P-wave (km/s) = 7.02263 7.14203 7.08258
#
# Compressibility (1/GPa) = 0.01679960
#
# Stress axis : x y z
#
# Youngs Moduli (GPa) = 96.59126 87.03477 73.75367
#
# Poissons Ratio (x) = 0.34160 0.14562
# Poissons Ratio (y) = 0.37910 0.25088
# Poissons Ratio (z) = 0.19070 0.29606
#
# Static dielectric constant tensor:
#      x y z
#    x 3.703390 0.000000 0.000000 
#    y 0.000000 3.697840 0.000000 
#    z 0.000000 0.000000 3.576760 
# 
# 
# High freq. dielectric constant tensor:
#      x y z
#    x 1.782190 0.000000 0.000000 
#    y 0.000000 1.781980 0.000000 
#    z 0.000000 0.000000 1.786710 
# 
# From -- ./inp_files/4877.got.cif
#   From: 2010.03.12/outbox.cif.g09.slc.cpg/sg49_3_cif.got.tgz:4877.got - 2010.04.14 03:58:27.
