data_PCOD8203644
_publ_section_title
;
Structure prediction by ZEFSAII (Michael W. Deem and Ramdas Pophale) SiO2 
 PCOD8203644
Probable space group: P C C M
;
_chemical_formula_sum "Si O2"
_cell_formula_units_Z 40
_cell_length_a 26.143565
_cell_length_b 9.362705
_cell_length_c 8.901335
_cell_angle_alpha 90.000000
_cell_angle_beta 90.000000
_cell_angle_gamma 90.000000
_cell_volume 2178.819706
_symmetry_space_group_name_H-M "P C C M"
_symmetry_group_IT_number 49
_symmetry_cell_setting 'orthorhombic'
loop_
_space_group_symop_operation_xyz
x,y,z
-x,-y,z
x,-y,1/2-z
-x,y,1/2-z
-x,-y,-z
x,y,-z
-x,y,1/2+z
x,-y,1/2+z
loop_
_atom_site_type_symbol
_atom_site_label
_atom_site_fract_x
_atom_site_fract_y
_atom_site_fract_z
Si Si1 0.753624 0.845713 0.678577
Si Si2 0.952373 0.652814 0.826860
Si Si3 0.161138 0.345137 0.175709
Si Si4 0.548227 0.345744 0.175475
Si Si5 0.660548 0.652274 0.674936
O O1 0.757348 0.857501 0.500000
O O2 0.802747 0.765034 0.740819
O O3 0.702772 0.762981 0.732561
O O4 0.751058 0.000000 0.750000
O O5 0.950049 0.500000 0.750000
O O6 0.896153 0.720721 0.803869
O O7 0.000000 0.740218 0.750000
O O8 0.965568 0.635468 0.000000
O O9 0.167213 0.500000 0.250000
O O10 0.175173 0.358566 0.000000
O O11 0.549352 0.500000 0.250000
O O12 0.500000 0.259364 0.250000
O O13 0.604274 0.278863 0.209229
O O14 0.537773 0.358366 0.000000
O O15 0.669454 0.500000 0.750000
O O16 0.666780 0.623209 0.500000
#
# Coordination Sequence:
#
# PCOD8203644 Si02
#       5
#     8   8   8   8   8
#     4  11  23  38  54  73  99 134 172 213 259 307
#     4   9  16  26  44  71 103 133 163 200 245 292
#     4  10  20  34  53  79 107 136 170 210 252 298
#     4   9  15  25  42  68  99 127 156 194 240 290
#     4   9  19  33  51  75 102 130 164 205 248 295
#
# _framework density 18.358564000000001
#
# number of rings (size 3 to 8) (size 9 to 14) (size 15 to 20)
#    0.000    2.400    0.000    4.200    0.000    6.400 
#    0.000    0.000    0.000    1.200    0.000    8.400 
#    0.000    0.000    0.000    0.000    0.000    0.000 
#
# Total GULP energy -495580.815067 kJ/mol
# GULP energy per Si atom -12389.520377 kJ/mol
# Density = 1.831678 g / cm^3
# Si number density = 18.358564 Si / 1000 Ang^3
#
#
#
# Elastic Constant Matrix: (Units=GPa)
#
#
# Indices 1 2 3 4 5 6 
#
# 1 187.7556 64.5268 75.9877 0.0000 0.0000 0.0000
# 2 64.5268 78.8116 38.5546 0.0000 0.0000 0.0000
# 3 75.9877 38.5546 109.5462 0.0000 0.0000 0.0000
# 4 0.0000 0.0000 0.0000 21.0172 0.0000 0.0000
# 5 0.0000 0.0000 0.0000 0.0000 33.5527 0.0000
# 6 0.0000 0.0000 0.0000 0.0000 0.0000 2.1731
#
#
#
# Elastic Compliance Matrix: (Units=1/GPa)
#
#
# Indices 1 2 3 4 5 6 
#
# 1 0.008837 -0.005117 -0.004329 0.000000 0.000000 0.000000
# 2 -0.005117 0.018291 -0.002888 0.000000 0.000000 0.000000
# 3 -0.004329 -0.002888 0.013147 0.000000 0.000000 0.000000
# 4 0.000000 0.000000 0.000000 0.047580 0.000000 0.000000
# 5 0.000000 0.000000 0.000000 0.000000 0.029804 0.000000
# 6 0.000000 0.000000 0.000000 0.000000 0.000000 0.460182
#
#
# Mechanical properties :
#
#
# Convention : Reuss Voigt Hill
#
# Bulk Modulus (GPa) = 64.07100 81.58350 72.82725
# Shear Modulus (GPa) = 8.22759 24.48487 16.35623
#
# Velocity S-wave (km/s) = 2.11928 3.65595 2.98809
# Velocity P-wave (km/s) = 6.40031 7.89663 7.18751
#
# Compressibility (1/GPa) = 0.01560768
#
# Stress axis : x y z
#
# Youngs Moduli (GPa) = 113.16518 54.67144 76.06047
#
# Poissons Ratio (x) = 0.27978 0.32923
# Poissons Ratio (y) = 0.57912 0.21964
# Poissons Ratio (z) = 0.48984 0.15788
#
# Static dielectric constant tensor:
#      x y z
#    x 5.040570 0.000000 0.000000 
#    y 0.000000 2.820600 0.000000 
#    z 0.000000 0.000000 3.548550 
# 
# 
# High freq. dielectric constant tensor:
#      x y z
#    x 1.748470 0.000000 0.000000 
#    y 0.000000 1.643350 0.000000 
#    z 0.000000 0.000000 1.728630 
# 
# From -- ./inp_files/1893.got.cif
#   From: 2010.03.12/outbox.cif.g09.slc.cpg/sg49_1_cif.got.tgz:1893.got - 2010.04.14 03:58:27.
