data_PCOD8203409
_publ_section_title
;
Structure prediction by ZEFSAII (Michael W. Deem and Ramdas Pophale) SiO2 
 PCOD8203409
Probable space group: P C C M
;
_chemical_formula_sum "Si O2"
_cell_formula_units_Z 48
_cell_length_a 15.002960
_cell_length_b 8.590285
_cell_length_c 17.814556
_cell_angle_alpha 90.000000
_cell_angle_beta 90.000000
_cell_angle_gamma 90.000000
_cell_volume 2295.934673
_symmetry_space_group_name_H-M "P C C M"
_symmetry_group_IT_number 49
_symmetry_cell_setting 'orthorhombic'
loop_
_space_group_symop_operation_xyz
x,y,z
-x,-y,z
x,-y,1/2-z
-x,y,1/2-z
-x,-y,-z
x,y,-z
-x,y,1/2+z
x,-y,1/2+z
loop_
_atom_site_type_symbol
_atom_site_label
_atom_site_fract_x
_atom_site_fract_y
_atom_site_fract_z
Si Si1 0.680766 0.864019 0.849768
Si Si2 0.014863 0.176529 0.337318
Si Si3 0.344473 0.204199 0.680710
Si Si4 0.825850 0.401865 0.826072
Si Si5 0.495114 0.816203 0.416391
Si Si6 0.846582 0.305979 0.587118
O O1 0.642320 0.836525 0.767141
O O2 0.609022 0.775447 0.902610
O O3 0.778902 0.796119 0.862849
O O4 0.688354 0.049743 0.864105
O O5 0.112497 0.252649 0.345552
O O6 0.000000 0.184491 0.250000
O O7 0.946550 0.277656 0.385181
O O8 0.000000 0.000000 0.366458
O O9 0.274638 0.343442 0.677335
O O10 0.436926 0.263472 0.642738
O O11 0.851861 0.500000 0.750000
O O12 0.829218 0.513059 0.898220
O O13 0.521934 0.762768 0.500000
O O14 0.500000 0.000000 0.404739
O O15 0.835091 0.264805 0.500000
#
# Coordination Sequence:
#
# PCOD8203409 Si02
#       6
#     8   8   8   8   8   8
#     4  10  19  38  63  94 124 163 214 269 312 373
#     4  11  23  42  69  95 121 161 211 256 304 371
#     4  10  20  36  65  93 121 164 221 262 311 372
#     4  12  23  41  64  91 126 169 205 257 314 377
#     4   9  18  33  57  91 129 166 206 264 323 364
#     4  12  26  41  63  94 129 167 204 256 324 385
#
# _framework density 20.90652
#
# number of rings (size 3 to 8) (size 9 to 14) (size 15 to 20)
#    0.000    1.333    3.333    2.500    0.000    7.667 
#    0.000    2.500    0.000    2.000    0.000    0.000 
#    0.000    0.000    0.000    0.000    0.000    0.000 
#
# Total GULP energy -594990.232265 kJ/mol
# GULP energy per Si atom -12395.629839 kJ/mol
# Density = 2.085894 g / cm^3
# Si number density = 20.906520 Si / 1000 Ang^3
#
#
#
# Elastic Constant Matrix: (Units=GPa)
#
#
# Indices 1 2 3 4 5 6 
#
# 1 96.0034 21.7698 27.1818 0.0000 0.0000 0.0000
# 2 21.7698 82.4893 12.7060 0.0000 0.0000 0.0000
# 3 27.1818 12.7060 96.2693 0.0000 0.0000 0.0000
# 4 0.0000 0.0000 0.0000 20.7692 0.0000 0.0000
# 5 0.0000 0.0000 0.0000 0.0000 25.7094 0.0000
# 6 0.0000 0.0000 0.0000 0.0000 0.0000 27.9859
#
#
#
# Elastic Compliance Matrix: (Units=1/GPa)
#
#
# Indices 1 2 3 4 5 6 
#
# 1 0.011871 -0.002671 -0.002999 0.000000 0.000000 0.000000
# 2 -0.002671 0.012975 -0.000958 0.000000 0.000000 0.000000
# 3 -0.002999 -0.000958 0.011361 0.000000 0.000000 0.000000
# 4 0.000000 0.000000 0.000000 0.048148 0.000000 0.000000
# 5 0.000000 0.000000 0.000000 0.000000 0.038896 0.000000
# 6 0.000000 0.000000 0.000000 0.000000 0.000000 0.035732
#
#
# Mechanical properties :
#
#
# Convention : Reuss Voigt Hill
#
# Bulk Modulus (GPa) = 43.57289 44.23081 43.90185
# Shear Modulus (GPa) = 27.79454 29.09986 28.44720
#
# Velocity S-wave (km/s) = 3.65014 3.73487 3.69275
# Velocity P-wave (km/s) = 6.21705 6.30883 6.26311
#
# Compressibility (1/GPa) = 0.02295005
#
# Stress axis : x y z
#
# Youngs Moduli (GPa) = 84.23771 77.06953 88.02130
#
# Poissons Ratio (x) = 0.20585 0.26400
# Poissons Ratio (y) = 0.22499 0.08436
# Poissons Ratio (z) = 0.25266 0.07386
#
# Static dielectric constant tensor:
#      x y z
#    x 3.989170 0.000000 0.000000 
#    y 0.000000 3.829670 0.000000 
#    z 0.000000 0.000000 3.676750 
# 
# 
# High freq. dielectric constant tensor:
#      x y z
#    x 1.826570 0.000000 0.000000 
#    y 0.000000 1.801450 0.000000 
#    z 0.000000 0.000000 1.807830 
# 
# From -- ./inp_files/16259.got.cif
#   From: 2010.03.12/outbox.cif.g09.slc.cpg/sg49_9_cif.got.tgz:16259.got - 2010.04.14 03:58:27.
