data_PCOD8203151
_publ_section_title
;
Structure prediction by ZEFSAII (Michael W. Deem and Ramdas Pophale) SiO2 
 PCOD8203151
Probable space group: P C C M
;
_chemical_formula_sum "Si O2"
_cell_formula_units_Z 64
_cell_length_a 24.753105
_cell_length_b 15.039771
_cell_length_c 8.905636
_cell_angle_alpha 90.000000
_cell_angle_beta 90.000000
_cell_angle_gamma 90.000000
_cell_volume 3315.399349
_symmetry_space_group_name_H-M "P C C M"
_symmetry_group_IT_number 49
_symmetry_cell_setting 'orthorhombic'
loop_
_space_group_symop_operation_xyz
x,y,z
-x,-y,z
x,-y,1/2-z
-x,y,1/2-z
-x,-y,-z
x,y,-z
-x,y,1/2+z
x,-y,1/2+z
loop_
_atom_site_type_symbol
_atom_site_label
_atom_site_fract_x
_atom_site_fract_y
_atom_site_fract_z
Si Si1 0.365912 0.587668 0.830141
Si Si2 0.762627 0.413473 0.832907
Si Si3 0.634394 0.768154 0.823827
Si Si4 0.058256 0.583766 0.675159
Si Si5 0.057597 0.220054 0.175510
Si Si6 0.444301 0.904794 0.820599
Si Si7 0.759593 0.235464 0.674257
Si Si8 0.846888 0.904270 0.177471
O O1 0.389872 0.500000 0.750000
O O2 0.301742 0.582440 0.832912
O O3 0.384925 0.671560 0.731872
O O4 0.388590 0.594899 0.000000
O O5 0.786412 0.500000 0.750000
O O6 0.782200 0.323401 0.754377
O O7 0.786086 0.414315 0.000000
O O8 0.603806 0.840356 0.725188
O O9 0.697330 0.783263 0.788133
O O10 0.621504 0.778292 0.000000
O O11 0.090962 0.500000 0.750000
O O12 0.053330 0.565312 0.500000
O O13 0.083068 0.681565 0.708368
O O14 0.000000 0.585820 0.750000
O O15 0.100102 0.147661 0.236118
O O16 0.000000 0.203002 0.250000
O O17 0.048124 0.208765 0.000000
O O18 0.500000 0.867936 0.750000
O O19 0.430946 0.000000 0.750000
O O20 0.449137 0.911825 0.000000
O O21 0.768241 0.254198 0.500000
O O22 0.793861 0.150536 0.728029
O O23 0.844194 0.000000 0.250000
O O24 0.848511 0.915209 0.000000
#
# Coordination Sequence:
#
# PCOD8203151 Si02
#       8
#     8   8   8   8   8   8   8   8
#     4   9  16  27  45  73 106 142 181 222 264 309
#     4   9  16  27  47  74 105 139 176 215 258 307
#     4  10  19  33  54  81 109 142 181 220 263 316
#     4   9  15  25  44  71 100 130 159 194 240 295
#     4   9  19  35  55  77 103 133 169 211 257 308
#     4  11  22  38  58  81 109 141 177 222 271 320
#     4   9  19  35  54  76 107 142 177 217 263 313
#     4  10  22  40  57  75 101 135 172 218 271 319
#
# _framework density 19.303858999999999
#
# number of rings (size 3 to 8) (size 9 to 14) (size 15 to 20)
#    0.000    2.500    0.000    3.375    0.000    5.750 
#    0.000    3.125    0.000    1.875    0.000    2.625 
#    0.000    0.000    0.000    0.000    0.000    0.000 
#
# Total GULP energy -793389.793685 kJ/mol
# GULP energy per Si atom -12396.715526 kJ/mol
# Density = 1.925992 g / cm^3
# Si number density = 19.303859 Si / 1000 Ang^3
#
#
#
# Elastic Constant Matrix: (Units=GPa)
#
#
# Indices 1 2 3 4 5 6 
#
# 1 65.7056 65.1110 43.4270 0.0000 0.0000 0.0000
# 2 65.1110 178.1351 73.4160 0.0000 0.0000 0.0000
# 3 43.4270 73.4160 115.3953 0.0000 0.0000 0.0000
# 4 0.0000 0.0000 0.0000 41.1237 0.0000 0.0000
# 5 0.0000 0.0000 0.0000 0.0000 19.6383 0.0000
# 6 0.0000 0.0000 0.0000 0.0000 0.0000 -17.0224
#
#
#
# Elastic Compliance Matrix: (Units=1/GPa)
#
#
# Indices 1 2 3 4 5 6 
#
# 1 0.025858 -0.007375 -0.005039 0.000000 0.000000 0.000000
# 2 -0.007375 0.009712 -0.003404 0.000000 0.000000 0.000000
# 3 -0.005039 -0.003404 0.012728 0.000000 0.000000 0.000000
# 4 0.000000 0.000000 0.000000 0.024317 0.000000 0.000000
# 5 0.000000 0.000000 0.000000 0.000000 0.050921 0.000000
# 6 0.000000 0.000000 0.000000 0.000000 0.000000 -0.058746
#
#
# Mechanical properties :
#
#
# Convention : Reuss Voigt Hill
#
# Bulk Modulus (GPa) = 60.01471 80.34934 70.18203
# Shear Modulus (GPa) = 49.02991 20.56672 34.79832
#
# Velocity S-wave (km/s) = 5.04521 3.26762 4.25038
# Velocity P-wave (km/s) = 8.06820 7.47999 7.77966
#
# Compressibility (1/GPa) = 0.01666258
#
# Stress axis : x y z
#
# Youngs Moduli (GPa) = 38.67288 102.96582 78.56834
#
# Poissons Ratio (x) = 0.75932 0.39594
# Poissons Ratio (y) = 0.28519 0.26742
# Poissons Ratio (z) = 0.19489 0.35045
#
# Static dielectric constant tensor:
#      x y z
#    x 3.269790 0.000000 0.000000 
#    y 0.000000 4.016190 0.000000 
#    z 0.000000 0.000000 3.608230 
# 
# 
# High freq. dielectric constant tensor:
#      x y z
#    x 1.718110 0.000000 0.000000 
#    y 0.000000 1.762780 0.000000 
#    z 0.000000 0.000000 1.757990 
# 
# From -- ./inp_files/6504.got.cif
#   From: 2010.03.12/outbox.cif.g09.slc.cpg/sg49_4_cif.got.tgz:6504.got - 2010.04.14 03:58:27.
