data_PCOD8203695
_publ_section_title
;
Structure prediction by ZEFSAII (Michael W. Deem and Ramdas Pophale) SiO2 
 PCOD8203695
Probable space group: P C C M
;
_chemical_formula_sum "Si O2"
_cell_formula_units_Z 64
_cell_length_a 10.860425
_cell_length_b 8.781943
_cell_length_c 33.390501
_cell_angle_alpha 90.000000
_cell_angle_beta 90.000000
_cell_angle_gamma 90.000000
_cell_volume 3184.640179
_symmetry_space_group_name_H-M "P C C M"
_symmetry_group_IT_number 49
_symmetry_cell_setting 'orthorhombic'
loop_
_space_group_symop_operation_xyz
x,y,z
-x,-y,z
x,-y,1/2-z
-x,y,1/2-z
-x,-y,-z
x,y,-z
-x,y,1/2+z
x,-y,1/2+z
loop_
_atom_site_type_symbol
_atom_site_label
_atom_site_fract_x
_atom_site_fract_y
_atom_site_fract_z
Si Si1 0.246102 0.320075 0.827124
Si Si2 0.500000 0.320812 0.793975
Si Si3 0.000000 0.180923 0.544455
Si Si4 0.754498 0.819313 0.087730
Si Si5 0.858719 0.833496 0.750000
Si Si6 0.753898 0.320075 0.172875
Si Si7 0.754497 0.819311 0.587729
Si Si8 0.500001 0.181193 0.453697
O O1 0.384645 0.267186 0.819169
O O2 0.213074 0.240178 0.868302
O O3 0.167707 0.262886 0.789725
O O4 0.228588 0.500000 0.831137
O O5 0.500000 0.500000 0.787776
O O6 0.500000 0.243482 0.750000
O O7 0.615356 0.267186 0.819169
O O8 0.999999 0.245085 0.500000
O O9 0.872661 0.241816 0.563394
O O10 0.127341 0.241816 0.563393
O O11 0.000000 0.000000 0.546207
O O12 0.624500 0.758031 0.068860
O O13 0.749022 0.000001 0.088314
O O14 0.832296 0.737117 0.710274
O O15 0.000000 0.868131 0.750000
O O16 0.791114 0.000000 0.750000
O O17 0.786925 0.240182 0.131697
O O18 0.624499 0.758031 0.568859
O O19 0.500002 0.238978 0.500000
O O20 0.500000 0.000000 0.453402
#
# Coordination Sequence:
#
# PCOD8203695 Si02
#       8
#     8   8   8   8   8   8   8   8
#     4  11  22  38  60  84 114 151 191 230 281 344
#     4   9  17  34  56  78 106 142 185 228 270 323
#     4   9  18  34  57  82 109 146 187 227 282 345
#     4  10  20  34  55  84 116 147 187 240 290 336
#     4  11  25  42  59  80 112 151 192 239 286 329
#     4  11  22  38  60  84 114 151 191 230 281 344
#     4  10  20  34  55  84 116 147 187 240 290 336
#     4   9  17  32  57  86 114 148 195 246 288 336
#
# _framework density 20.09646
#
# number of rings (size 3 to 8) (size 9 to 14) (size 15 to 20)
#    0.000    2.000    1.250    2.625    1.750    4.000 
#    0.000    2.500    0.000    4.500    0.000    0.000 
#    0.000    0.000    0.000    0.000    0.000    0.000 
#
# Total GULP energy -793135.439039 kJ/mol
# GULP energy per Si atom -12392.741235 kJ/mol
# Density = 2.005072 g / cm^3
# Si number density = 20.096460 Si / 1000 Ang^3
#
#
#
# Elastic Constant Matrix: (Units=GPa)
#
#
# Indices 1 2 3 4 5 6 
#
# 1 152.5620 24.0230 72.0294 0.0000 0.0000 0.0000
# 2 24.0230 19.2572 15.3820 0.0000 0.0000 0.0000
# 3 72.0294 15.3820 181.1351 0.0000 0.0000 0.0000
# 4 0.0000 0.0000 0.0000 11.7924 0.0000 0.0000
# 5 0.0000 0.0000 0.0000 0.0000 36.4552 0.0000
# 6 0.0000 0.0000 0.0000 0.0000 0.0000 17.6493
#
#
#
# Elastic Compliance Matrix: (Units=1/GPa)
#
#
# Indices 1 2 3 4 5 6 
#
# 1 0.009429 -0.009405 -0.002951 0.000000 0.000000 0.000000
# 2 -0.009405 0.065089 -0.001787 0.000000 0.000000 0.000000
# 3 -0.002951 -0.001787 0.006846 0.000000 0.000000 0.000000
# 4 0.000000 0.000000 0.000000 0.084800 0.000000 0.000000
# 5 0.000000 0.000000 0.000000 0.000000 0.027431 0.000000
# 6 0.000000 0.000000 0.000000 0.000000 0.000000 0.056659
#
#
# Mechanical properties :
#
#
# Convention : Reuss Voigt Hill
#
# Bulk Modulus (GPa) = 18.84042 63.98033 41.41038
# Shear Modulus (GPa) = 16.87854 29.28071 23.07962
#
# Velocity S-wave (km/s) = 2.90121 3.82122 3.39254
# Velocity P-wave (km/s) = 4.54071 7.16761 5.99970
#
# Compressibility (1/GPa) = 0.05307738
#
# Stress axis : x y z
#
# Youngs Moduli (GPa) = 106.05745 15.36348 146.07293
#
# Poissons Ratio (x) = 0.14450 0.43102
# Poissons Ratio (y) = 0.99751 0.26107
# Poissons Ratio (z) = 0.31295 0.02746
#
# Static dielectric constant tensor:
#      x y z
#    x 3.974190 0.000000 0.000000 
#    y 0.000000 3.240810 0.000000 
#    z 0.000000 0.000000 3.549120 
# 
# 
# High freq. dielectric constant tensor:
#      x y z
#    x 1.798510 0.000000 0.000000 
#    y 0.000000 1.744710 0.000000 
#    z 0.000000 0.000000 1.799860 
# 
# From -- ./inp_files/26684.got.cif
#   From: 2010.03.12/outbox.cif.g09.slc.cpg/sg49_14_cif.got.tgz:26684.got - 2010.04.14 03:58:27.
