data_PCOD8203725
_publ_section_title
;
Structure prediction by ZEFSAII (Michael W. Deem and Ramdas Pophale) SiO2 
 PCOD8203725
Probable space group: P C C M
;
_chemical_formula_sum "Si O2"
_cell_formula_units_Z 64
_cell_length_a 25.351233
_cell_length_b 14.333434
_cell_length_c 8.895265
_cell_angle_alpha 90.000000
_cell_angle_beta 90.000000
_cell_angle_gamma 90.000000
_cell_volume 3232.274445
_symmetry_space_group_name_H-M "P C C M"
_symmetry_group_IT_number 49
_symmetry_cell_setting 'orthorhombic'
loop_
_space_group_symop_operation_xyz
x,y,z
-x,-y,z
x,-y,1/2-z
-x,y,1/2-z
-x,-y,-z
x,y,-z
-x,y,1/2+z
x,-y,1/2+z
loop_
_atom_site_type_symbol
_atom_site_label
_atom_site_fract_x
_atom_site_fract_y
_atom_site_fract_z
Si Si1 0.556723 0.587523 0.825647
Si Si2 0.251375 0.222131 0.675449
Si Si3 0.153382 0.899722 0.176913
Si Si4 0.053439 0.221496 0.321820
Si Si5 0.781126 0.595304 0.824515
Si Si6 0.648898 0.096917 0.176179
Si Si7 0.096759 0.596360 0.322863
Si Si8 0.442995 0.793682 0.324060
O O1 0.588773 0.500000 0.750000
O O2 0.500000 0.590781 0.750000
O O3 0.582021 0.689752 0.798186
O O4 0.550874 0.565937 0.000000
O O5 0.243942 0.242515 0.500000
O O6 0.202905 0.159979 0.736388
O O7 0.253344 0.319949 0.761564
O O8 0.305557 0.170551 0.712129
O O9 0.100048 0.847926 0.226017
O O10 0.154923 0.000000 0.250000
O O11 0.156969 0.912888 0.000000
O O12 0.048321 0.230009 0.500000
O O13 0.062915 0.322926 0.252592
O O14 0.000000 0.180241 0.250000
O O15 0.760924 0.500000 0.750000
O O16 0.842069 0.613530 0.783719
O O17 0.771634 0.586417 0.000000
O O18 0.594589 0.131177 0.248030
O O19 0.666034 0.000000 0.250000
O O20 0.640846 0.082506 0.000000
O O21 0.077382 0.500000 0.250000
O O22 0.086422 0.594076 0.500000
O O23 0.500000 0.803105 0.250000
O O24 0.448429 0.815392 0.500000
#
# Coordination Sequence:
#
# PCOD8203725 Si02
#       8
#     8   8   8   8   8   8   8   8
#     4   9  16  27  48  78 111 148 187 232 277 328
#     4  10  21  40  63  89 120 153 193 240 291 349
#     4  10  22  39  61  85 112 148 191 241 295 350
#     4  11  23  39  58  82 116 154 194 245 295 350
#     4  10  20  34  59  91 122 157 194 237 287 347
#     4  11  24  41  63  89 119 154 194 245 299 351
#     4  10  20  35  57  86 117 153 194 237 288 348
#     4  10  21  38  60  87 121 159 202 246 293 351
#
# _framework density 19.800298000000002
#
# number of rings (size 3 to 8) (size 9 to 14) (size 15 to 20)
#    0.000    1.875    1.250    3.000    0.000    5.750 
#    0.000    4.375    0.000    1.500    0.000    0.000 
#    0.000    0.000    0.000    0.000    0.000    0.000 
#
# Total GULP energy -793711.399768 kJ/mol
# GULP energy per Si atom -12401.740621 kJ/mol
# Density = 1.975523 g / cm^3
# Si number density = 19.800298 Si / 1000 Ang^3
#
#
#
# Elastic Constant Matrix: (Units=GPa)
#
#
# Indices 1 2 3 4 5 6 
#
# 1 91.5124 49.0782 47.1325 0.0000 0.0000 0.0000
# 2 49.0782 133.0427 56.9932 0.0000 0.0000 0.0000
# 3 47.1325 56.9932 99.2506 0.0000 0.0000 0.0000
# 4 0.0000 0.0000 0.0000 41.7572 0.0000 0.0000
# 5 0.0000 0.0000 0.0000 0.0000 17.1324 0.0000
# 6 0.0000 0.0000 0.0000 0.0000 0.0000 17.0266
#
#
#
# Elastic Compliance Matrix: (Units=1/GPa)
#
#
# Indices 1 2 3 4 5 6 
#
# 1 0.015552 -0.003413 -0.005426 0.000000 0.000000 0.000000
# 2 -0.003413 0.010717 -0.004534 0.000000 0.000000 0.000000
# 3 -0.005426 -0.004534 0.015256 0.000000 0.000000 0.000000
# 4 0.000000 0.000000 0.000000 0.023948 0.000000 0.000000
# 5 0.000000 0.000000 0.000000 0.000000 0.058369 0.000000
# 6 0.000000 0.000000 0.000000 0.000000 0.000000 0.058732
#
#
# Mechanical properties :
#
#
# Convention : Reuss Voigt Hill
#
# Bulk Modulus (GPa) = 67.65542 70.02373 68.83957
# Shear Modulus (GPa) = 23.33774 26.55669 24.94721
#
# Velocity S-wave (km/s) = 3.43688 3.66625 3.55342
# Velocity P-wave (km/s) = 7.07054 7.30504 7.18875
#
# Compressibility (1/GPa) = 0.01478078
#
# Stress axis : x y z
#
# Youngs Moduli (GPa) = 64.29936 93.30556 65.54994
#
# Poissons Ratio (x) = 0.31843 0.35566
# Poissons Ratio (y) = 0.21944 0.29718
# Poissons Ratio (z) = 0.34887 0.42302
#
# Static dielectric constant tensor:
#      x y z
#    x 3.446580 0.000000 0.000000 
#    y 0.000000 3.954990 0.000000 
#    z 0.000000 0.000000 3.631450 
# 
# 
# High freq. dielectric constant tensor:
#      x y z
#    x 1.753070 0.000000 0.000000 
#    y 0.000000 1.785360 0.000000 
#    z 0.000000 0.000000 1.780930 
# 
# From -- ./inp_files/6545.got.cif
#   From: 2010.03.12/outbox.cif.g09.slc.cpg/sg49_4_cif.got.tgz:6545.got - 2010.04.14 03:58:27.
