data_PCOD8203258
_publ_section_title
;
Structure prediction by ZEFSAII (Michael W. Deem and Ramdas Pophale) SiO2 
 PCOD8203258
Probable space group: P C C M
;
_chemical_formula_sum "Si O2"
_cell_formula_units_Z 64
_cell_length_a 8.745055
_cell_length_b 22.943493
_cell_length_c 14.914114
_cell_angle_alpha 90.000000
_cell_angle_beta 90.000000
_cell_angle_gamma 90.000000
_cell_volume 2992.399275
_symmetry_space_group_name_H-M "P C C M"
_symmetry_group_IT_number 49
_symmetry_cell_setting 'orthorhombic'
loop_
_space_group_symop_operation_xyz
x,y,z
-x,-y,z
x,-y,1/2-z
-x,y,1/2-z
-x,-y,-z
x,y,-z
-x,y,1/2+z
x,-y,1/2+z
loop_
_atom_site_type_symbol
_atom_site_label
_atom_site_fract_x
_atom_site_fract_y
_atom_site_fract_z
Si Si1 0.684652 0.818933 0.603424
Si Si2 0.820698 0.759654 0.235501
Si Si3 0.157882 0.576264 0.102838
Si Si4 0.896141 0.923289 0.597851
Si Si5 0.191890 0.442186 0.102457
Si Si6 0.202129 0.963886 0.339544
Si Si7 0.323186 0.640424 0.740729
Si Si8 0.664684 0.848525 0.896080
O O1 0.718509 0.802949 0.500000
O O2 0.737673 0.767492 0.668347
O O3 0.777366 0.876105 0.635751
O O4 0.507164 0.828864 0.619749
O O5 0.768169 0.696181 0.202462
O O6 0.775922 0.807821 0.161849
O O7 0.000000 0.762475 0.250000
O O8 0.215826 0.510668 0.117908
O O9 0.252160 0.620185 0.164768
O O10 0.978968 0.578195 0.127850
O O11 0.183164 0.595393 0.000000
O O12 0.955808 0.903628 0.500000
O O13 0.039180 0.929446 0.665384
O O14 0.810059 0.985564 0.585653
O O15 0.310493 0.410106 0.166828
O O16 0.228527 0.425866 0.000000
O O17 0.328968 0.915965 0.363592
O O18 0.239596 0.000000 0.250000
O O19 0.500000 0.656723 0.750000
O O20 0.713057 0.843597 0.000000
#
# Coordination Sequence:
#
# PCOD8203258 Si02
#       8
#     8   8   8   8   8   8   8   8
#     4  10  23  43  67  93 124 158 198 254 317 374
#     4  12  26  44  66  89 117 161 213 258 304 365
#     4   9  19  38  64  93 125 166 210 255 303 360
#     4  10  19  34  56  84 116 151 193 238 288 354
#     4   9  19  38  64  92 125 165 212 256 301 359
#     4  11  21  34  55  86 120 155 195 239 288 348
#     4  12  25  39  59  90 129 166 204 256 313 367
#     4  11  24  44  67  92 124 161 201 253 314 372
#
# _framework density 21.387519000000001
#
# number of rings (size 3 to 8) (size 9 to 14) (size 15 to 20)
#    0.000    1.500    0.000    7.125    0.000    6.500 
#    0.000    4.375    0.000    0.000    0.000    0.000 
#    0.000    0.000    0.000    0.000    0.000    0.000 
#
# Total GULP energy -793553.806317 kJ/mol
# GULP energy per Si atom -12399.278224 kJ/mol
# Density = 2.133884 g / cm^3
# Si number density = 21.387519 Si / 1000 Ang^3
#
#
#
# Elastic Constant Matrix: (Units=GPa)
#
#
# Indices 1 2 3 4 5 6 
#
# 1 88.5917 20.5110 34.2495 0.0000 0.0000 0.0000
# 2 20.5110 72.3080 27.2570 0.0000 0.0000 0.0000
# 3 34.2495 27.2570 103.2565 0.0000 0.0000 0.0000
# 4 0.0000 0.0000 0.0000 23.4344 0.0000 0.0000
# 5 0.0000 0.0000 0.0000 0.0000 28.9794 0.0000
# 6 0.0000 0.0000 0.0000 0.0000 0.0000 25.8488
#
#
#
# Elastic Compliance Matrix: (Units=1/GPa)
#
#
# Indices 1 2 3 4 5 6 
#
# 1 0.013296 -0.002342 -0.003792 0.000000 0.000000 0.000000
# 2 -0.002342 0.015771 -0.003386 0.000000 0.000000 0.000000
# 3 -0.003792 -0.003386 0.011836 0.000000 0.000000 0.000000
# 4 0.000000 0.000000 0.000000 0.042672 0.000000 0.000000
# 5 0.000000 0.000000 0.000000 0.000000 0.034507 0.000000
# 6 0.000000 0.000000 0.000000 0.000000 0.000000 0.038687
#
#
# Mechanical properties :
#
#
# Convention : Reuss Voigt Hill
#
# Bulk Modulus (GPa) = 45.74083 47.57680 46.65881
# Shear Modulus (GPa) = 27.30797 27.79509 27.55153
#
# Velocity S-wave (km/s) = 3.57714 3.60890 3.59305
# Velocity P-wave (km/s) = 6.20438 6.29754 6.25113
#
# Compressibility (1/GPa) = 0.02186231
#
# Stress axis : x y z
#
# Youngs Moduli (GPa) = 75.21079 63.40938 84.48640
#
# Poissons Ratio (x) = 0.14852 0.32037
# Poissons Ratio (y) = 0.17616 0.28608
# Poissons Ratio (z) = 0.28519 0.21471
#
# Static dielectric constant tensor:
#      x y z
#    x 3.707210 0.000000 0.000000 
#    y 0.000000 3.824010 0.000000 
#    z 0.000000 0.000000 3.960840 
# 
# 
# High freq. dielectric constant tensor:
#      x y z
#    x 1.828900 0.000000 0.000000 
#    y 0.000000 1.836020 0.000000 
#    z 0.000000 0.000000 1.849870 
# 
# From -- ./inp_files/12149.got.cif
#   From: 2010.03.12/outbox.cif.g09.slc.cpg/sg49_7_cif.got.tgz:12149.got - 2010.04.14 03:58:27.
