data_PCOD8203856
_publ_section_title
;
Structure prediction by ZEFSAII (Michael W. Deem and Ramdas Pophale) SiO2 
 PCOD8203856
Probable space group: P C C M
;
_chemical_formula_sum "Si O2"
_cell_formula_units_Z 40
_cell_length_a 14.291155
_cell_length_b 15.535461
_cell_length_c 8.569398
_cell_angle_alpha 90.000000
_cell_angle_beta 90.000000
_cell_angle_gamma 90.000000
_cell_volume 1902.575012
_symmetry_space_group_name_H-M "P C C M"
_symmetry_group_IT_number 49
_symmetry_cell_setting 'orthorhombic'
loop_
_space_group_symop_operation_xyz
x,y,z
-x,-y,z
x,-y,1/2-z
-x,y,1/2-z
-x,-y,-z
x,y,-z
-x,y,1/2+z
x,-y,1/2+z
loop_
_atom_site_type_symbol
_atom_site_label
_atom_site_fract_x
_atom_site_fract_y
_atom_site_fract_z
Si Si1 0.713138 0.589197 0.684010
Si Si2 0.291619 0.909772 0.179992
Si Si3 0.602571 0.250181 0.316605
Si Si4 0.093775 0.161182 0.679753
Si Si5 0.098990 0.346809 0.816222
O O1 0.671516 0.500000 0.750000
O O2 0.709011 0.588713 0.500000
O O3 0.650040 0.666594 0.743879
O O4 0.819889 0.597156 0.739194
O O5 0.338365 0.834058 0.276715
O O6 0.179399 0.904377 0.197819
O O7 0.326038 0.000000 0.250000
O O8 0.322250 0.902680 0.000000
O O9 0.500000 0.238034 0.250000
O O10 0.598473 0.262492 0.500000
O O11 0.077234 0.187044 0.500000
O O12 0.115951 0.247242 0.775487
O O13 0.000000 0.117202 0.750000
O O14 0.000000 0.379693 0.750000
O O15 0.102572 0.359909 0.000000
#
# Coordination Sequence:
#
# PCOD8203856 Si02
#       5
#     8   8   8   8   8
#     4  12  25  44  68  99 134 171 218 267 322 386
#     4  11  24  42  66  97 133 173 219 271 324 386
#     4  12  26  47  73  99 129 168 212 267 331 391
#     4  10  20  35  59  90 129 173 219 266 318 377
#     4  11  21  36  61  93 130 175 220 265 320 379
#
# _framework density 21.024138000000001
#
# number of rings (size 3 to 8) (size 9 to 14) (size 15 to 20)
#    0.000    0.800    2.000    7.800    0.000    4.000 
#    0.000    8.000    0.000    0.000    0.000    0.000 
#    0.000    0.000    0.000    0.000    0.000    0.000 
#
# Total GULP energy -496224.139943 kJ/mol
# GULP energy per Si atom -12405.603499 kJ/mol
# Density = 2.097629 g / cm^3
# Si number density = 21.024138 Si / 1000 Ang^3
#
#
#
# Elastic Constant Matrix: (Units=GPa)
#
#
# Indices 1 2 3 4 5 6 
#
# 1 87.4233 25.4075 43.5273 0.0000 0.0000 0.0000
# 2 25.4075 108.9094 44.5197 0.0000 0.0000 0.0000
# 3 43.5273 44.5197 193.4237 0.0000 0.0000 0.0000
# 4 0.0000 0.0000 0.0000 42.0884 0.0000 0.0000
# 5 0.0000 0.0000 0.0000 0.0000 61.3495 0.0000
# 6 0.0000 0.0000 0.0000 0.0000 0.0000 -22.4507
#
#
#
# Elastic Compliance Matrix: (Units=1/GPa)
#
#
# Indices 1 2 3 4 5 6 
#
# 1 0.013293 -0.002073 -0.002514 0.000000 0.000000 0.000000
# 2 -0.002073 0.010459 -0.001941 0.000000 0.000000 0.000000
# 3 -0.002514 -0.001941 0.006182 0.000000 0.000000 0.000000
# 4 0.000000 0.000000 0.000000 0.023759 0.000000 0.000000
# 5 0.000000 0.000000 0.000000 0.000000 0.016300 0.000000
# 6 0.000000 0.000000 0.000000 0.000000 0.000000 -0.044542
#
#
# Mechanical properties :
#
#
# Convention : Reuss Voigt Hill
#
# Bulk Modulus (GPa) = 59.24927 68.51838 63.88382
# Shear Modulus (GPa) = 113.29044 34.61758 73.95401
#
# Velocity S-wave (km/s) = 7.34866 4.06219 5.93735
# Velocity P-wave (km/s) = 10.01232 7.39344 8.80084
#
# Compressibility (1/GPa) = 0.01687785
#
# Stress axis : x y z
#
# Youngs Moduli (GPa) = 75.22776 95.61174 161.74781
#
# Poissons Ratio (x) = 0.19824 0.40666
# Poissons Ratio (y) = 0.15598 0.31391
# Poissons Ratio (z) = 0.18914 0.18556
#
# Static dielectric constant tensor:
#      x y z
#    x 4.049940 0.000000 0.000000 
#    y 0.000000 3.691470 0.000000 
#    z 0.000000 0.000000 3.987910 
# 
# 
# High freq. dielectric constant tensor:
#      x y z
#    x 1.827110 0.000000 0.000000 
#    y 0.000000 1.820490 0.000000 
#    z 0.000000 0.000000 1.845310 
# 
# From -- ./inp_files/3435.got.cif
#   From: 2010.03.12/outbox.cif.g09.slc.cpg/sg49_2_cif.got.tgz:3435.got - 2010.04.14 03:58:27.
