data_PCOD8203338
_publ_section_title
;
Structure prediction by ZEFSAII (Michael W. Deem and Ramdas Pophale) SiO2 
 PCOD8203338
Probable space group: P C C M
;
_chemical_formula_sum "Si O2"
_cell_formula_units_Z 64
_cell_length_a 19.556924
_cell_length_b 9.422914
_cell_length_c 16.941090
_cell_angle_alpha 90.000000
_cell_angle_beta 90.000000
_cell_angle_gamma 90.000000
_cell_volume 3121.958496
_symmetry_space_group_name_H-M "P C C M"
_symmetry_group_IT_number 49
_symmetry_cell_setting 'orthorhombic'
loop_
_space_group_symop_operation_xyz
x,y,z
-x,-y,z
x,-y,1/2-z
-x,y,1/2-z
-x,-y,-z
x,y,-z
-x,y,1/2+z
x,-y,1/2+z
loop_
_atom_site_type_symbol
_atom_site_label
_atom_site_fract_x
_atom_site_fract_y
_atom_site_fract_z
Si Si1 0.930031 0.572536 0.406653
Si Si2 0.676831 0.994776 0.340053
Si Si3 0.663069 0.698838 0.909187
Si Si4 0.170838 0.961392 0.662973
Si Si5 0.449886 0.116297 0.589278
Si Si6 0.945613 0.889282 0.409998
Si Si7 0.474401 0.344689 0.167998
Si Si8 0.183709 0.345577 0.092674
O O1 0.923948 0.583816 0.500000
O O2 0.935833 0.732519 0.370449
O O3 0.864448 0.477237 0.377998
O O4 0.000000 0.500000 0.379166
O O5 0.667953 0.135460 0.391455
O O6 0.756601 0.958361 0.344839
O O7 0.653531 0.000000 0.250000
O O8 0.626517 0.875907 0.375077
O O9 0.606878 0.643346 0.847099
O O10 0.735726 0.618411 0.895228
O O11 0.639923 0.677411 0.000000
O O12 0.169283 0.792501 0.646810
O O13 0.141360 0.000000 0.750000
O O14 0.126751 0.034048 0.595111
O O15 0.439889 0.072756 0.500000
O O16 0.487833 0.265888 0.596554
O O17 0.500000 0.000000 0.630727
O O18 0.968717 0.866081 0.500000
O O19 0.000000 0.000000 0.369421
O O20 0.500000 0.500000 0.169530
O O21 0.500000 0.270396 0.250000
O O22 0.169340 0.311026 0.000000
#
# Coordination Sequence:
#
# PCOD8203338 Si02
#       8
#     8   8   8   8   8   8   8   8
#     4   9  17  32  56  85 115 148 194 238 277 337
#     4  10  20  35  57  82 111 148 189 236 289 358
#     4  10  19  35  59  82 111 149 193 241 297 353
#     4  10  21  36  55  82 116 149 189 233 290 347
#     4  11  22  35  57  86 110 139 188 242 294 344
#     4  10  20  35  58  86 116 150 190 241 293 337
#     4  11  24  40  57  79 111 152 193 236 290 361
#     4   9  18  34  59  84 111 154 197 235 284 352
#
# _framework density 20.499952
#
# number of rings (size 3 to 8) (size 9 to 14) (size 15 to 20)
#    0.000    2.000    1.250    2.625    0.000    4.750 
#    2.250    0.625    0.000    0.750    0.000    0.000 
#    0.000    0.000    0.000    0.000    0.000    0.000 
#
# Total GULP energy -792841.296074 kJ/mol
# GULP energy per Si atom -12388.145251 kJ/mol
# Density = 2.045329 g / cm^3
# Si number density = 20.499952 Si / 1000 Ang^3
#
#
#
# Elastic Constant Matrix: (Units=GPa)
#
#
# Indices 1 2 3 4 5 6 
#
# 1 147.7346 60.0647 41.9188 0.0000 0.0000 0.0000
# 2 60.0647 104.9165 25.1109 0.0000 0.0000 0.0000
# 3 41.9188 25.1109 60.3272 0.0000 0.0000 0.0000
# 4 0.0000 0.0000 0.0000 18.3334 0.0000 0.0000
# 5 0.0000 0.0000 0.0000 0.0000 25.4918 0.0000
# 6 0.0000 0.0000 0.0000 0.0000 0.0000 25.1737
#
#
#
# Elastic Compliance Matrix: (Units=1/GPa)
#
#
# Indices 1 2 3 4 5 6 
#
# 1 0.010062 -0.004539 -0.005102 0.000000 0.000000 0.000000
# 2 -0.004539 0.012634 -0.002105 0.000000 0.000000 0.000000
# 3 -0.005102 -0.002105 0.020998 0.000000 0.000000 0.000000
# 4 0.000000 0.000000 0.000000 0.054545 0.000000 0.000000
# 5 0.000000 0.000000 0.000000 0.000000 0.039228 0.000000
# 6 0.000000 0.000000 0.000000 0.000000 0.000000 0.039724
#
#
# Mechanical properties :
#
#
# Convention : Reuss Voigt Hill
#
# Bulk Modulus (GPa) = 49.50190 63.01856 56.26023
# Shear Modulus (GPa) = 24.10594 26.19205 25.14899
#
# Velocity S-wave (km/s) = 3.43286 3.57832 3.50635
# Velocity P-wave (km/s) = 6.31763 6.91954 6.62543
#
# Compressibility (1/GPa) = 0.02020125
#
# Stress axis : x y z
#
# Youngs Moduli (GPa) = 99.38140 79.15203 47.62433
#
# Poissons Ratio (x) = 0.35931 0.24299
# Poissons Ratio (y) = 0.45114 0.10023
# Poissons Ratio (z) = 0.50707 0.16658
#
# Static dielectric constant tensor:
#      x y z
#    x 3.880310 0.000000 0.000000 
#    y 0.000000 3.660590 0.000000 
#    z 0.000000 0.000000 4.600640 
# 
# 
# High freq. dielectric constant tensor:
#      x y z
#    x 1.816030 0.000000 0.000000 
#    y 0.000000 1.784810 0.000000 
#    z 0.000000 0.000000 1.780220 
# 
# From -- ./inp_files/18312.got.cif
#   From: 2010.03.12/outbox.cif.g09.slc.cpg/sg49_10_cif.got.tgz:18312.got - 2010.04.14 03:58:27.
