data_PCOD8203391
_publ_section_title
;
Structure prediction by ZEFSAII (Michael W. Deem and Ramdas Pophale) SiO2 
 PCOD8203391
Probable space group: P C C M
;
_chemical_formula_sum "Si O2"
_cell_formula_units_Z 64
_cell_length_a 15.391888
_cell_length_b 23.639299
_cell_length_c 8.878507
_cell_angle_alpha 90.000000
_cell_angle_beta 90.000000
_cell_angle_gamma 90.000000
_cell_volume 3230.475337
_symmetry_space_group_name_H-M "P C C M"
_symmetry_group_IT_number 49
_symmetry_cell_setting 'orthorhombic'
loop_
_space_group_symop_operation_xyz
x,y,z
-x,-y,z
x,-y,1/2-z
-x,y,1/2-z
-x,-y,-z
x,y,-z
-x,y,1/2+z
x,-y,1/2+z
loop_
_atom_site_type_symbol
_atom_site_label
_atom_site_fract_x
_atom_site_fract_y
_atom_site_fract_z
Si Si1 0.912001 0.865069 0.826683
Si Si2 0.591823 0.876389 0.321983
Si Si3 0.161758 0.745189 0.674606
Si Si4 0.248976 0.939746 0.679895
Si Si5 0.412317 0.358303 0.822227
Si Si6 0.654905 0.248202 0.175760
Si Si7 0.089180 0.625200 0.323252
Si Si8 0.258013 0.439851 0.821862
O O1 0.900157 0.798436 0.796467
O O2 0.828180 0.898312 0.765090
O O3 0.000000 0.886610 0.750000
O O4 0.923181 0.878942 0.000000
O O5 0.500000 0.892310 0.250000
O O6 0.589960 0.886846 0.500000
O O7 0.661279 0.917696 0.247192
O O8 0.614737 0.812030 0.281338
O O9 0.191840 0.741222 0.500000
O O10 0.245040 0.750950 0.778686
O O11 0.109158 0.689629 0.723717
O O12 0.256132 0.942717 0.500000
O O13 0.226933 0.000000 0.750000
O O14 0.500000 0.383326 0.750000
O O15 0.398726 0.294440 0.767652
O O16 0.332545 0.396921 0.767612
O O17 0.421584 0.358514 0.000000
O O18 0.646430 0.261495 0.000000
O O19 0.079064 0.619707 0.500000
O O20 0.166195 0.584747 0.264343
O O21 0.000000 0.604395 0.250000
O O22 0.276560 0.500000 0.750000
O O23 0.258802 0.445935 0.000000
#
# Coordination Sequence:
#
# PCOD8203391 Si02
#       8
#     8   8   8   8   8   8   8   8
#     4  10  22  38  62  91 122 162 200 246 303 358
#     4  11  24  41  63  93 125 159 200 247 299 360
#     4  10  19  37  61  87 124 161 196 243 302 362
#     4  11  24  43  65  89 120 161 206 254 305 354
#     4  11  23  41  63  89 123 159 198 246 299 359
#     4  11  22  36  61  95 125 159 199 242 298 359
#     4  10  21  38  60  88 120 157 197 243 299 356
#     4  10  23  42  62  84 117 158 201 251 302 352
#
# _framework density 19.811326000000001
#
# number of rings (size 3 to 8) (size 9 to 14) (size 15 to 20)
#    0.000    1.500    2.500    2.250    0.000    7.000 
#    0.000    5.000    0.000    0.000    0.000    0.000 
#    0.000    0.000    0.000    0.000    0.000    0.000 
#
# Total GULP energy -793929.926268 kJ/mol
# GULP energy per Si atom -12405.155098 kJ/mol
# Density = 1.976623 g / cm^3
# Si number density = 19.811326 Si / 1000 Ang^3
#
#
#
# Elastic Constant Matrix: (Units=GPa)
#
#
# Indices 1 2 3 4 5 6 
#
# 1 129.3222 16.1103 33.8001 0.0000 0.0000 0.0000
# 2 16.1103 81.4276 26.8666 0.0000 0.0000 0.0000
# 3 33.8001 26.8666 53.1380 0.0000 0.0000 0.0000
# 4 0.0000 0.0000 0.0000 30.0632 0.0000 0.0000
# 5 0.0000 0.0000 0.0000 0.0000 40.5771 0.0000
# 6 0.0000 0.0000 0.0000 0.0000 0.0000 11.1678
#
#
#
# Elastic Compliance Matrix: (Units=1/GPa)
#
#
# Indices 1 2 3 4 5 6 
#
# 1 0.009276 0.000134 -0.005968 0.000000 0.000000 0.000000
# 2 0.000134 0.014742 -0.007539 0.000000 0.000000 0.000000
# 3 -0.005968 -0.007539 0.026426 0.000000 0.000000 0.000000
# 4 0.000000 0.000000 0.000000 0.033263 0.000000 0.000000
# 5 0.000000 0.000000 0.000000 0.000000 0.024644 0.000000
# 6 0.000000 0.000000 0.000000 0.000000 0.000000 0.089543
#
#
# Mechanical properties :
#
#
# Convention : Reuss Voigt Hill
#
# Bulk Modulus (GPa) = 42.19614 46.38243 44.28928
# Shear Modulus (GPa) = 21.50176 28.83568 25.16872
#
# Velocity S-wave (km/s) = 3.29800 3.81926 3.56816
# Velocity P-wave (km/s) = 5.98729 6.55072 6.27533
#
# Compressibility (1/GPa) = 0.02369885
#
# Stress axis : x y z
#
# Youngs Moduli (GPa) = 107.80843 67.83498 37.84092
#
# Poissons Ratio (x) = -0.00908 0.22583
# Poissons Ratio (y) = -0.01443 0.28527
# Poissons Ratio (z) = 0.64338 0.51138
#
# Static dielectric constant tensor:
#      x y z
#    x 3.764580 0.000000 0.000000 
#    y 0.000000 3.657740 0.000000 
#    z 0.000000 0.000000 3.536740 
# 
# 
# High freq. dielectric constant tensor:
#      x y z
#    x 1.786150 0.000000 0.000000 
#    y 0.000000 1.772790 0.000000 
#    z 0.000000 0.000000 1.770220 
# 
# From -- ./inp_files/4313.got.cif
#   From: 2010.03.12/outbox.cif.g09.slc.cpg/sg49_3_cif.got.tgz:4313.got - 2010.04.14 03:58:27.
