data_PCOD8203759
_publ_section_title
;
Structure prediction by ZEFSAII (Michael W. Deem and Ramdas Pophale) SiO2 
 PCOD8203759
Probable space group: P C C M
;
_chemical_formula_sum "Si O2"
_cell_formula_units_Z 48
_cell_length_a 28.985383
_cell_length_b 9.277164
_cell_length_c 9.371813
_cell_angle_alpha 90.000000
_cell_angle_beta 90.000000
_cell_angle_gamma 90.000000
_cell_volume 2520.100681
_symmetry_space_group_name_H-M "P C C M"
_symmetry_group_IT_number 49
_symmetry_cell_setting 'orthorhombic'
loop_
_space_group_symop_operation_xyz
x,y,z
-x,-y,z
x,-y,1/2-z
-x,y,1/2-z
-x,-y,-z
x,y,-z
-x,y,1/2+z
x,-y,1/2+z
loop_
_atom_site_type_symbol
_atom_site_label
_atom_site_fract_x
_atom_site_fract_y
_atom_site_fract_z
Si Si1 0.543246 0.850019 0.169823
Si Si2 0.623793 0.636546 0.161844
Si Si3 0.941942 0.680243 0.000000
Si Si4 0.886785 0.330835 0.765291
Si Si5 0.270202 0.352344 0.169679
Si Si6 0.043129 0.659612 0.000000
Si Si7 0.797663 0.851578 0.331294
O O1 0.500000 0.771518 0.250000
O O2 0.590417 0.767132 0.200169
O O3 0.549731 0.000000 0.250000
O O4 0.533842 0.867715 0.000000
O O5 0.607613 0.500000 0.250000
O O6 0.676129 0.682498 0.194444
O O7 0.618418 0.588345 0.000000
O O8 0.907917 0.731979 0.877547
O O9 0.956185 0.513295 0.000000
O O10 0.993822 0.744233 0.000000
O O11 0.875029 0.500000 0.750000
O O12 0.841280 0.252106 0.817161
O O13 0.929087 0.290059 0.864458
O O14 0.256332 0.500000 0.250000
O O15 0.244553 0.221763 0.247670
O O16 0.257805 0.362309 0.000000
O O17 0.786383 0.875181 0.500000
O O18 0.808196 0.000000 0.250000
#
# Coordination Sequence:
#
# PCOD8203759 Si02
#       7
#     8   8   4   8   8   4   8
#     4  10  20  35  54  80 114 154 200 241 285 336
#     4   9  20  37  58  86 117 149 187 235 287 343
#     4   9  18  28  59  87 117 141 185 229 282 325
#     4  10  20  35  59  86 115 146 186 230 284 339
#     4  10  21  40  65  90 117 149 190 237 290 348
#     4   9  16  34  51  89 117 147 179 233 274 335
#     4  12  26  42  59  82 116 153 194 240 290 345
#
# _framework density 19.046858
#
# number of rings (size 3 to 8) (size 9 to 14) (size 15 to 20)
#    0.000    2.000    0.833    3.000    2.333    5.000 
#    0.000    3.333    0.000    3.000    0.000    0.000 
#    0.000    0.000    0.000    0.000    0.000    0.000 
#
# Total GULP energy -594725.871443 kJ/mol
# GULP energy per Si atom -12390.122322 kJ/mol
# Density = 1.900351 g / cm^3
# Si number density = 19.046858 Si / 1000 Ang^3
#
#
#
# Elastic Constant Matrix: (Units=GPa)
#
#
# Indices 1 2 3 4 5 6 
#
# 1 99.9210 41.5489 49.2340 0.0000 0.0000 0.0000
# 2 41.5489 68.0896 42.3911 0.0000 0.0000 0.0000
# 3 49.2340 42.3911 150.6131 0.0000 0.0000 0.0000
# 4 0.0000 0.0000 0.0000 29.5715 0.0000 0.0000
# 5 0.0000 0.0000 0.0000 0.0000 -38.4862 0.0000
# 6 0.0000 0.0000 0.0000 0.0000 0.0000 3.8724
#
#
#
# Elastic Compliance Matrix: (Units=1/GPa)
#
#
# Indices 1 2 3 4 5 6 
#
# 1 0.014251 -0.007027 -0.002681 0.000000 0.000000 0.000000
# 2 -0.007027 0.021272 -0.003690 0.000000 0.000000 0.000000
# 3 -0.002681 -0.003690 0.008554 0.000000 0.000000 0.000000
# 4 0.000000 0.000000 0.000000 0.033816 0.000000 0.000000
# 5 0.000000 0.000000 0.000000 0.000000 -0.025983 0.000000
# 6 0.000000 0.000000 0.000000 0.000000 0.000000 0.258240
#
#
# Mechanical properties :
#
#
# Convention : Reuss Voigt Hill
#
# Bulk Modulus (GPa) = 57.86515 64.99686 61.43100
# Shear Modulus (GPa) = 14.58979 11.35485 12.97232
#
# Velocity S-wave (km/s) = 2.77066 2.44427 2.61257
# Velocity P-wave (km/s) = 6.37823 6.49344 6.43609
#
# Compressibility (1/GPa) = 0.01728156
#
# Stress axis : x y z
#
# Youngs Moduli (GPa) = 70.17212 47.01057 116.89917
#
# Poissons Ratio (x) = 0.33034 0.31336
# Poissons Ratio (y) = 0.49310 0.43136
# Poissons Ratio (z) = 0.18810 0.17347
#
# Static dielectric constant tensor:
#      x y z
#    x 3.876480 0.000000 0.000000 
#    y 0.000000 3.225480 0.000000 
#    z 0.000000 0.000000 3.771340 
# 
# 
# High freq. dielectric constant tensor:
#      x y z
#    x 1.755780 0.000000 0.000000 
#    y 0.000000 1.708310 0.000000 
#    z 0.000000 0.000000 1.762920 
# 
# From -- ./inp_files/2174.got.cif
#   From: 2010.03.12/outbox.cif.g09.slc.cpg/sg49_2_cif.got.tgz:2174.got - 2010.04.14 03:58:27.
