data_PCOD8203824
_publ_section_title
;
Structure prediction by ZEFSAII (Michael W. Deem and Ramdas Pophale) SiO2 
 PCOD8203824
Probable space group: P C C M
;
_chemical_formula_sum "Si O2"
_cell_formula_units_Z 60
_cell_length_a 22.299500
_cell_length_b 14.286960
_cell_length_c 9.050416
_cell_angle_alpha 90.000000
_cell_angle_beta 90.000000
_cell_angle_gamma 90.000000
_cell_volume 2883.390718
_symmetry_space_group_name_H-M "P C C M"
_symmetry_group_IT_number 49
_symmetry_cell_setting 'orthorhombic'
loop_
_space_group_symop_operation_xyz
x,y,z
-x,-y,z
x,-y,1/2-z
-x,y,1/2-z
-x,-y,-z
x,y,-z
-x,y,1/2+z
x,-y,1/2+z
loop_
_atom_site_type_symbol
_atom_site_label
_atom_site_fract_x
_atom_site_fract_y
_atom_site_fract_z
Si Si1 0.408196 0.089479 0.666954
Si Si2 0.063300 0.901717 0.179327
Si Si3 0.314917 0.376653 0.341831
Si Si4 0.717614 0.837513 0.332525
Si Si5 0.833210 0.787110 0.822887
Si Si6 0.500000 0.753825 0.250000
Si Si7 0.182448 0.589738 0.830185
Si Si8 0.427481 0.416702 0.840578
O O1 0.401699 0.058300 0.500000
O O2 0.341275 0.109034 0.730527
O O3 0.451582 0.179979 0.670551
O O4 0.436515 0.000000 0.750000
O O5 0.110230 0.825699 0.234324
O O6 0.000000 0.872134 0.250000
O O7 0.083359 0.000000 0.250000
O O8 0.060061 0.906928 0.000000
O O9 0.346442 0.396621 0.500000
O O10 0.300007 0.268937 0.332741
O O11 0.253111 0.432801 0.331455
O O12 0.359604 0.403832 0.212902
O O13 0.734068 0.870077 0.500000
O O14 0.774961 0.849178 0.225062
O O15 0.829438 0.680357 0.769845
O O16 0.840689 0.792619 0.000000
O O17 0.536895 0.681838 0.147618
O O18 0.151339 0.500000 0.750000
O O19 0.159041 0.602667 0.000000
O O20 0.459929 0.500000 0.750000
O O21 0.422275 0.460033 0.000000
#
# Coordination Sequence:
#
# PCOD8203824 Si02
#       8
#     8   8   8   8   8   4   8   8
#     4  11  25  45  67  89 115 148 193 247 307 370
#     4  11  22  40  65  96 133 173 216 262 311 367
#     4   9  18  36  60  83 115 153 192 239 298 358
#     4   9  19  39  62  85 118 158 195 248 306 358
#     4  11  22  37  61  95 131 170 212 257 307 366
#     4  12  26  46  64  84 110 152 194 250 300 372
#     4  10  20  35  56  87 124 167 210 258 307 363
#     4  12  26  40  61  87 113 146 189 238 299 368
#
# _framework density 20.808834000000001
#
# number of rings (size 3 to 8) (size 9 to 14) (size 15 to 20)
#    0.000    1.467    1.333    5.600    0.000    8.533 
#    0.000    1.333    0.000    0.400    0.000    2.800 
#    0.000    0.000    0.000    0.000    0.000    0.000 
#
# Total GULP energy -743335.136212 kJ/mol
# GULP energy per Si atom -12388.918937 kJ/mol
# Density = 2.076147 g / cm^3
# Si number density = 20.808834 Si / 1000 Ang^3
#
#
#
# Elastic Constant Matrix: (Units=GPa)
#
#
# Indices 1 2 3 4 5 6 
#
# 1 84.9560 40.5017 47.0629 0.0000 0.0000 0.0000
# 2 40.5017 97.7965 40.1959 0.0000 0.0000 0.0000
# 3 47.0629 40.1959 165.5996 0.0000 0.0000 0.0000
# 4 0.0000 0.0000 0.0000 25.8386 0.0000 0.0000
# 5 0.0000 0.0000 0.0000 0.0000 16.9956 0.0000
# 6 0.0000 0.0000 0.0000 0.0000 0.0000 7.0554
#
#
#
# Elastic Compliance Matrix: (Units=1/GPa)
#
#
# Indices 1 2 3 4 5 6 
#
# 1 0.016135 -0.005329 -0.003292 0.000000 0.000000 0.000000
# 2 -0.005329 0.013119 -0.001670 0.000000 0.000000 0.000000
# 3 -0.003292 -0.001670 0.007380 0.000000 0.000000 0.000000
# 4 0.000000 0.000000 0.000000 0.038702 0.000000 0.000000
# 5 0.000000 0.000000 0.000000 0.000000 0.058839 0.000000
# 6 0.000000 0.000000 0.000000 0.000000 0.000000 0.141735
#
#
# Mechanical properties :
#
#
# Convention : Reuss Voigt Hill
#
# Bulk Modulus (GPa) = 62.29972 67.09701 64.69836
# Shear Modulus (GPa) = 16.56500 24.68404 20.62452
#
# Velocity S-wave (km/s) = 2.82451 3.44790 3.15166
# Velocity P-wave (km/s) = 6.37504 6.94012 6.66357
#
# Compressibility (1/GPa) = 0.01605144
#
# Stress axis : x y z
#
# Youngs Moduli (GPa) = 61.97685 76.22746 135.50998
#
# Poissons Ratio (x) = 0.40623 0.44610
# Poissons Ratio (y) = 0.33028 0.22627
# Poissons Ratio (z) = 0.20403 0.12728
#
# Static dielectric constant tensor:
#      x y z
#    x 3.860250 0.000000 0.000000 
#    y 0.000000 3.788500 0.000000 
#    z 0.000000 0.000000 3.824160 
# 
# 
# High freq. dielectric constant tensor:
#      x y z
#    x 1.800210 0.000000 0.000000 
#    y 0.000000 1.819450 0.000000 
#    z 0.000000 0.000000 1.817620 
# 
# From -- ./inp_files/6422.got.cif
#   From: 2010.03.12/outbox.cif.g09.slc.cpg/sg49_4_cif.got.tgz:6422.got - 2010.04.14 03:58:27.
