data_PCOD8203366
_publ_section_title
;
Structure prediction by ZEFSAII (Michael W. Deem and Ramdas Pophale) SiO2 
 PCOD8203366
Probable space group: P C C M
;
_chemical_formula_sum "Si O2"
_cell_formula_units_Z 56
_cell_length_a 29.733255
_cell_length_b 5.124681
_cell_length_c 17.953484
_cell_angle_alpha 90.000000
_cell_angle_beta 90.000000
_cell_angle_gamma 90.000000
_cell_volume 2735.634242
_symmetry_space_group_name_H-M "P C C M"
_symmetry_group_IT_number 49
_symmetry_cell_setting 'orthorhombic'
loop_
_space_group_symop_operation_xyz
x,y,z
-x,-y,z
x,-y,1/2-z
-x,y,1/2-z
-x,-y,-z
x,y,-z
-x,y,1/2+z
x,-y,1/2+z
loop_
_atom_site_type_symbol
_atom_site_label
_atom_site_fract_x
_atom_site_fract_y
_atom_site_fract_z
Si Si1 0.601875 0.344346 0.084577
Si Si2 0.106836 0.739215 0.798765
Si Si3 0.029223 0.743759 0.085213
Si Si4 0.342850 0.172609 0.914575
Si Si5 0.757000 0.080637 0.589362
Si Si6 0.794028 0.430014 0.166358
Si Si7 0.449537 0.251146 0.281998
O O1 0.625209 0.602302 0.119876
O O2 0.555683 0.271041 0.128743
O O3 0.636900 0.112572 0.095910
O O4 0.586275 0.381484 0.000000
O O5 0.087763 0.500000 0.750000
O O6 0.073748 0.786149 0.867110
O O7 0.154547 0.659544 0.832744
O O8 0.111504 0.000000 0.750000
O O9 0.000000 0.500000 0.114421
O O10 0.044134 0.696930 0.000000
O O11 0.000000 0.000000 0.094188
O O12 0.292404 0.171470 0.882739
O O13 0.339205 0.253615 0.000000
O O14 0.760132 0.041927 0.500000
O O15 0.790791 0.308170 0.616082
O O16 0.766059 0.805111 0.629610
O O17 0.777106 0.500000 0.250000
O O18 0.423547 0.500000 0.250000
O O19 0.500000 0.247471 0.250000
O O20 0.423733 0.000000 0.250000
#
# Coordination Sequence:
#
# PCOD8203366 Si02
#       7
#     8   8   8   8   8   8   8
#     4  10  19  36  60  83 110 150 193 232 280 341
#     4  11  23  40  61  84 114 158 202 240 291 357
#     4  10  22  39  59  87 120 148 185 247 308 354
#     4   9  19  35  58  87 116 145 189 244 286 332
#     4  11  22  39  63  89 117 157 205 248 296 356
#     4  11  23  41  59  85 126 161 197 250 302 352
#     4  10  21  38  56  79 114 147 178 229 286 330
#
# _framework density 20.470572000000001
#
# number of rings (size 3 to 8) (size 9 to 14) (size 15 to 20)
#    0.000    1.714    0.000    5.143    0.000    5.143 
#    0.000   11.429    0.000    0.000    0.000    0.000 
#    0.000    0.000    0.000    0.000    0.000    0.000 
#
# Total GULP energy -694024.107437 kJ/mol
# GULP energy per Si atom -12393.287633 kJ/mol
# Density = 2.042398 g / cm^3
# Si number density = 20.470572 Si / 1000 Ang^3
#
#
#
# Elastic Constant Matrix: (Units=GPa)
#
#
# Indices 1 2 3 4 5 6 
#
# 1 89.8931 25.9883 64.3745 0.0000 0.0000 0.0000
# 2 25.9883 157.6776 51.0304 0.0000 0.0000 0.0000
# 3 64.3745 51.0304 120.2184 0.0000 0.0000 0.0000
# 4 0.0000 0.0000 0.0000 48.8501 0.0000 0.0000
# 5 0.0000 0.0000 0.0000 0.0000 36.1004 0.0000
# 6 0.0000 0.0000 0.0000 0.0000 0.0000 -18.6058
#
#
#
# Elastic Compliance Matrix: (Units=1/GPa)
#
#
# Indices 1 2 3 4 5 6 
#
# 1 0.018048 0.000177 -0.009740 0.000000 0.000000 0.000000
# 2 0.000177 0.007354 -0.003217 0.000000 0.000000 0.000000
# 3 -0.009740 -0.003217 0.014899 0.000000 0.000000 0.000000
# 4 0.000000 0.000000 0.000000 0.020471 0.000000 0.000000
# 5 0.000000 0.000000 0.000000 0.000000 0.027701 0.000000
# 6 0.000000 0.000000 0.000000 0.000000 0.000000 -0.053747
#
#
# Mechanical properties :
#
#
# Convention : Reuss Voigt Hill
#
# Bulk Modulus (GPa) = 67.82813 72.28617 70.05715
# Shear Modulus (GPa) = 76.69110 28.36200 52.52655
#
# Velocity S-wave (km/s) = 6.12743 3.72627 5.07102
# Velocity P-wave (km/s) = 9.12507 7.34182 8.28158
#
# Compressibility (1/GPa) = 0.01474315
#
# Stress axis : x y z
#
# Youngs Moduli (GPa) = 55.40866 135.98385 67.11906
#
# Poissons Ratio (x) = -0.02413 0.65371
# Poissons Ratio (y) = -0.00983 0.21589
# Poissons Ratio (z) = 0.53965 0.43740
#
# Static dielectric constant tensor:
#      x y z
#    x 3.477300 0.000000 0.000000 
#    y 0.000000 4.459000 0.000000 
#    z 0.000000 0.000000 3.800850 
# 
# 
# High freq. dielectric constant tensor:
#      x y z
#    x 1.784260 0.000000 0.000000 
#    y 0.000000 1.832530 0.000000 
#    z 0.000000 0.000000 1.794740 
# 
# From -- ./inp_files/14619.got.cif
#   From: 2010.03.12/outbox.cif.g09.slc.cpg/sg49_8_cif.got.tgz:14619.got - 2010.04.14 03:58:27.
