data_PCOD8203059
_publ_section_title
;
Structure prediction by ZEFSAII (Michael W. Deem and Ramdas Pophale) SiO2 
 PCOD8203059
Probable space group: P C C M
;
_chemical_formula_sum "Si O2"
_cell_formula_units_Z 56
_cell_length_a 15.408737
_cell_length_b 19.564009
_cell_length_c 8.742208
_cell_angle_alpha 90.000000
_cell_angle_beta 90.000000
_cell_angle_gamma 90.000000
_cell_volume 2635.396906
_symmetry_space_group_name_H-M "P C C M"
_symmetry_group_IT_number 49
_symmetry_cell_setting 'orthorhombic'
loop_
_space_group_symop_operation_xyz
x,y,z
-x,-y,z
x,-y,1/2-z
-x,y,1/2-z
-x,-y,-z
x,y,-z
-x,y,1/2+z
x,-y,1/2+z
loop_
_atom_site_type_symbol
_atom_site_label
_atom_site_fract_x
_atom_site_fract_y
_atom_site_fract_z
Si Si1 0.410601 0.152710 0.324757
Si Si2 0.253422 0.073915 0.818502
Si Si3 0.337743 0.703547 0.174019
Si Si4 0.850957 0.433784 0.331165
Si Si5 0.845015 0.284740 0.317962
Si Si6 0.910218 0.149605 0.181535
Si Si7 0.644094 0.432290 0.328541
O O1 0.500000 0.127590 0.250000
O O2 0.405269 0.127055 0.500000
O O3 0.332544 0.121920 0.227767
O O4 0.406174 0.234886 0.317125
O O5 0.165418 0.103789 0.750129
O O6 0.271122 0.000000 0.750000
O O7 0.245307 0.070396 0.000000
O O8 0.255868 0.723979 0.277552
O O9 0.384665 0.635060 0.235333
O O10 0.306169 0.691463 0.000000
O O11 0.892081 0.500000 0.250000
O O12 0.888344 0.437486 0.500000
O O13 0.878157 0.359933 0.261459
O O14 0.747498 0.437421 0.329005
O O15 0.854942 0.275701 0.500000
O O16 0.900910 0.228622 0.230019
O O17 0.000000 0.121142 0.250000
O O18 0.909710 0.143347 0.000000
O O19 0.604286 0.500000 0.250000
O O20 0.607423 0.426919 0.500000
#
# Coordination Sequence:
#
# PCOD8203059 Si02
#       7
#     8   8   8   8   8   8   8
#     4  11  24  42  66  98 133 172 217 263 316 377
#     4  12  26  47  74 102 135 170 208 257 311 375
#     4  10  19  32  54  83 119 161 209 261 316 377
#     4   8  15  25  41  70 108 150 200 253 308 369
#     4  10  19  33  55  84 119 163 210 260 318 375
#     4  12  25  43  67  98 132 170 215 261 315 377
#     4   9  16  26  43  71 109 152 203 258 317 377
#
# _framework density 21.249172000000002
#
# number of rings (size 3 to 8) (size 9 to 14) (size 15 to 20)
#    0.000    1.714    1.429    5.143    0.000    6.286 
#    0.000    2.857    0.000    0.857    0.000    6.000 
#    0.000    0.000    0.000    0.000    0.000    0.000 
#
# Total GULP energy -694373.260081 kJ/mol
# GULP energy per Si atom -12399.522501 kJ/mol
# Density = 2.120081 g / cm^3
# Si number density = 21.249172 Si / 1000 Ang^3
#
#
#
# Elastic Constant Matrix: (Units=GPa)
#
#
# Indices 1 2 3 4 5 6 
#
# 1 75.9595 17.8111 36.6788 0.0000 0.0000 0.0000
# 2 17.8111 111.3580 51.8226 0.0000 0.0000 0.0000
# 3 36.6788 51.8226 161.9650 0.0000 0.0000 0.0000
# 4 0.0000 0.0000 0.0000 41.2284 0.0000 0.0000
# 5 0.0000 0.0000 0.0000 0.0000 20.8615 0.0000
# 6 0.0000 0.0000 0.0000 0.0000 0.0000 -5.0207
#
#
#
# Elastic Compliance Matrix: (Units=1/GPa)
#
#
# Indices 1 2 3 4 5 6 
#
# 1 0.014867 -0.000953 -0.003062 0.000000 0.000000 0.000000
# 2 -0.000953 0.010612 -0.003180 0.000000 0.000000 0.000000
# 3 -0.003062 -0.003180 0.007885 0.000000 0.000000 0.000000
# 4 0.000000 0.000000 0.000000 0.024255 0.000000 0.000000
# 5 0.000000 0.000000 0.000000 0.000000 0.047935 0.000000
# 6 0.000000 0.000000 0.000000 0.000000 0.000000 -0.199177
#
#
# Mechanical properties :
#
#
# Convention : Reuss Voigt Hill
#
# Bulk Modulus (GPa) = 52.70105 62.43417 57.56761
# Shear Modulus (GPa) = -68.57874 27.61185 -20.48344
#
# Velocity S-wave (km/s) = -5.68715 3.60867 -3.10815
# Velocity P-wave (km/s) = 4.27429 6.84172 3.77753
#
# Compressibility (1/GPa) = 0.01897495
#
# Stress axis : x y z
#
# Youngs Moduli (GPa) = 67.26377 94.23124 126.82415
#
# Poissons Ratio (x) = 0.08980 0.38832
# Poissons Ratio (y) = 0.06410 0.40326
# Poissons Ratio (z) = 0.20595 0.29962
#
# Static dielectric constant tensor:
#      x y z
#    x 3.425250 0.000000 0.000000 
#    y 0.000000 4.181850 0.000000 
#    z 0.000000 0.000000 3.997360 
# 
# 
# High freq. dielectric constant tensor:
#      x y z
#    x 1.801820 0.000000 0.000000 
#    y 0.000000 1.843990 0.000000 
#    z 0.000000 0.000000 1.844330 
# 
# From -- ./inp_files/4084.got.cif
#   From: 2010.03.12/outbox.cif.g09.slc.cpg/sg49_3_cif.got.tgz:4084.got - 2010.04.14 03:58:27.
