data_PCOD8203242
_publ_section_title
;
Structure prediction by ZEFSAII (Michael W. Deem and Ramdas Pophale) SiO2 
 PCOD8203242
Probable space group: P C C M
;
_chemical_formula_sum "Si O2"
_cell_formula_units_Z 48
_cell_length_a 9.514849
_cell_length_b 31.076200
_cell_length_c 8.699898
_cell_angle_alpha 90.000000
_cell_angle_beta 90.000000
_cell_angle_gamma 90.000000
_cell_volume 2572.432389
_symmetry_space_group_name_H-M "P C C M"
_symmetry_group_IT_number 49
_symmetry_cell_setting 'orthorhombic'
loop_
_space_group_symop_operation_xyz
x,y,z
-x,-y,z
x,-y,1/2-z
-x,y,1/2-z
-x,-y,-z
x,y,-z
-x,y,1/2+z
x,-y,1/2+z
loop_
_atom_site_type_symbol
_atom_site_label
_atom_site_fract_x
_atom_site_fract_y
_atom_site_fract_z
Si Si1 0.351483 0.790236 0.676879
Si Si2 0.848485 0.955252 0.318259
Si Si3 0.846253 0.376458 0.819025
Si Si4 0.655412 0.303245 0.682043
Si Si5 0.655193 0.116737 0.318844
Si Si6 0.350805 0.545401 0.181260
O O1 0.500000 0.795981 0.750000
O O2 0.382403 0.785357 0.500000
O O3 0.284017 0.744598 0.729496
O O4 0.272230 0.835671 0.710054
O O5 0.859623 0.959354 0.500000
O O6 0.745623 0.917291 0.272935
O O7 0.000000 0.944530 0.250000
O O8 0.789959 0.000000 0.250000
O O9 0.765361 0.335731 0.753292
O O10 0.764371 0.419605 0.771365
O O11 0.000000 0.379185 0.750000
O O12 0.856934 0.371380 0.000000
O O13 0.500000 0.310721 0.750000
O O14 0.648060 0.310275 0.500000
O O15 0.500000 0.114757 0.250000
O O16 0.651396 0.105997 0.500000
O O17 0.301018 0.500000 0.250000
O O18 0.500000 0.559938 0.250000
O O19 0.367645 0.540913 0.000000
#
# Coordination Sequence:
#
# PCOD8203242 Si02
#       6
#     8   8   8   8   8   8
#     4   8  16  30  51  78 108 139 174 216 264 313
#     4  11  22  38  57  78 104 139 179 220 266 319
#     4  11  24  39  55  79 110 146 182 223 272 322
#     4  10  19  34  57  83 109 142 182 223 264 315
#     4  10  19  34  55  82 112 141 175 219 267 317
#     4  10  21  37  59  84 109 138 177 220 266 316
#
# _framework density 18.659382999999998
#
# number of rings (size 3 to 8) (size 9 to 14) (size 15 to 20)
#    0.000    2.000    0.000    5.000    0.000    6.000 
#    0.000    4.167    0.000    0.000    0.000    0.000 
#    0.000    0.000    0.000    0.000    0.000    0.000 
#
# Total GULP energy -594824.815652 kJ/mol
# GULP energy per Si atom -12392.183659 kJ/mol
# Density = 1.861691 g / cm^3
# Si number density = 18.659383 Si / 1000 Ang^3
#
#
#
# Elastic Constant Matrix: (Units=GPa)
#
#
# Indices 1 2 3 4 5 6 
#
# 1 104.9277 92.9784 50.0873 0.0000 0.0000 0.0000
# 2 92.9784 172.5619 71.4027 0.0000 0.0000 0.0000
# 3 50.0873 71.4027 104.6508 0.0000 0.0000 0.0000
# 4 0.0000 0.0000 0.0000 29.1347 0.0000 0.0000
# 5 0.0000 0.0000 0.0000 0.0000 30.9268 0.0000
# 6 0.0000 0.0000 0.0000 0.0000 0.0000 -41.9031
#
#
#
# Elastic Compliance Matrix: (Units=1/GPa)
#
#
# Indices 1 2 3 4 5 6 
#
# 1 0.018856 -0.008953 -0.002916 0.000000 0.000000 0.000000
# 2 -0.008953 0.012326 -0.004125 0.000000 0.000000 0.000000
# 3 -0.002916 -0.004125 0.013765 0.000000 0.000000 0.000000
# 4 0.000000 0.000000 0.000000 0.034323 0.000000 0.000000
# 5 0.000000 0.000000 0.000000 0.000000 0.032334 0.000000
# 6 0.000000 0.000000 0.000000 0.000000 0.000000 -0.023865
#
#
# Mechanical properties :
#
#
# Convention : Reuss Voigt Hill
#
# Bulk Modulus (GPa) = 77.16389 90.11969 83.64179
# Shear Modulus (GPa) = 40.30694 14.80981 27.55837
#
# Velocity S-wave (km/s) = 4.65278 2.82031 3.84724
# Velocity P-wave (km/s) = 8.38500 7.68164 8.04101
#
# Compressibility (1/GPa) = 0.01295943
#
# Stress axis : x y z
#
# Youngs Moduli (GPa) = 53.03375 81.13030 72.64541
#
# Poissons Ratio (x) = 0.72638 0.21183
# Poissons Ratio (y) = 0.47482 0.29964
# Poissons Ratio (z) = 0.15464 0.33464
#
# Static dielectric constant tensor:
#      x y z
#    x 3.163060 0.000000 0.000000 
#    y 0.000000 4.083600 0.000000 
#    z 0.000000 0.000000 3.643070 
# 
# 
# High freq. dielectric constant tensor:
#      x y z
#    x 1.693570 0.000000 0.000000 
#    y 0.000000 1.751780 0.000000 
#    z 0.000000 0.000000 1.742540 
# 
# From -- ./inp_files/2029.got.cif
#   From: 2010.03.12/outbox.cif.g09.slc.cpg/sg49_2_cif.got.tgz:2029.got - 2010.04.14 03:58:27.
