data_PCOD8203285
_publ_section_title
;
Structure prediction by ZEFSAII (Michael W. Deem and Ramdas Pophale) SiO2 
 PCOD8203285
Probable space group: P C C M
;
_chemical_formula_sum "Si O2"
_cell_formula_units_Z 40
_cell_length_a 13.266768
_cell_length_b 8.676786
_cell_length_c 16.230245
_cell_angle_alpha 90.000000
_cell_angle_beta 90.000000
_cell_angle_gamma 90.000000
_cell_volume 1868.310681
_symmetry_space_group_name_H-M "P C C M"
_symmetry_group_IT_number 49
_symmetry_cell_setting 'orthorhombic'
loop_
_space_group_symop_operation_xyz
x,y,z
-x,-y,z
x,-y,1/2-z
-x,y,1/2-z
-x,-y,-z
x,y,-z
-x,y,1/2+z
x,-y,1/2+z
loop_
_atom_site_type_symbol
_atom_site_label
_atom_site_fract_x
_atom_site_fract_y
_atom_site_fract_z
Si Si1 0.623905 0.420893 0.163222
Si Si2 0.835494 0.664110 0.719269
Si Si3 0.095194 0.105749 0.406134
Si Si4 0.739111 0.096275 0.670499
Si Si5 0.561135 0.722685 0.906991
O O1 0.597689 0.500000 0.250000
O O2 0.735501 0.353690 0.163385
O O3 0.544182 0.284276 0.143947
O O4 0.614237 0.554454 0.094606
O O5 0.879553 0.500000 0.750000
O O6 0.913292 0.752443 0.659056
O O7 0.808464 0.759658 0.801399
O O8 0.093668 0.167481 0.500000
O O9 0.196788 0.007388 0.392489
O O10 0.000000 0.000000 0.387290
O O11 0.635588 0.149646 0.629542
O O12 0.707847 0.000000 0.750000
O O13 0.536577 0.769396 0.000000
#
# Coordination Sequence:
#
# PCOD8203285 Si02
#       5
#     8   8   8   8   8
#     4  10  19  34  59  87 124 167 206 257 312 362
#     4  10  20  39  66  92 120 160 217 261 305 366
#     4  10  23  44  66  90 128 169 201 256 333 385
#     4  10  21  38  61  88 125 170 212 255 312 379
#     4  11  20  32  56  90 125 164 208 256 310 367
#
# _framework density 21.409716
#
# number of rings (size 3 to 8) (size 9 to 14) (size 15 to 20)
#    0.000    1.800    4.000    3.000    0.000    5.200 
#    0.000    9.000    0.000    8.400    0.000    0.000 
#    0.000    0.000    0.000    0.000    0.000    0.000 
#
# Total GULP energy -495899.969045 kJ/mol
# GULP energy per Si atom -12397.499226 kJ/mol
# Density = 2.136099 g / cm^3
# Si number density = 21.409716 Si / 1000 Ang^3
#
#
#
# Elastic Constant Matrix: (Units=GPa)
#
#
# Indices 1 2 3 4 5 6 
#
# 1 87.6485 29.6828 38.8678 0.0000 0.0000 0.0000
# 2 29.6828 109.4857 45.2074 0.0000 0.0000 0.0000
# 3 38.8678 45.2074 125.5477 0.0000 0.0000 0.0000
# 4 0.0000 0.0000 0.0000 32.9168 0.0000 0.0000
# 5 0.0000 0.0000 0.0000 0.0000 27.9553 0.0000
# 6 0.0000 0.0000 0.0000 0.0000 0.0000 37.4148
#
#
#
# Elastic Compliance Matrix: (Units=1/GPa)
#
#
# Indices 1 2 3 4 5 6 
#
# 1 0.013703 -0.002306 -0.003412 0.000000 0.000000 0.000000
# 2 -0.002306 0.011117 -0.003289 0.000000 0.000000 0.000000
# 3 -0.003412 -0.003289 0.010206 0.000000 0.000000 0.000000
# 4 0.000000 0.000000 0.000000 0.030380 0.000000 0.000000
# 5 0.000000 0.000000 0.000000 0.000000 0.035771 0.000000
# 6 0.000000 0.000000 0.000000 0.000000 0.000000 0.026727
#
#
# Mechanical properties :
#
#
# Convention : Reuss Voigt Hill
#
# Bulk Modulus (GPa) = 58.78382 61.13310 59.95846
# Shear Modulus (GPa) = 32.98390 33.58564 33.28477
#
# Velocity S-wave (km/s) = 3.92931 3.96499 3.94719
# Velocity P-wave (km/s) = 6.93557 7.04112 6.98855
#
# Compressibility (1/GPa) = 0.01701148
#
# Stress axis : x y z
#
# Youngs Moduli (GPa) = 72.97531 89.95292 97.98472
#
# Poissons Ratio (x) = 0.20746 0.33431
# Poissons Ratio (y) = 0.16830 0.32227
# Poissons Ratio (z) = 0.24898 0.29585
#
# Static dielectric constant tensor:
#      x y z
#    x 3.755930 0.000000 0.000000 
#    y 0.000000 4.018940 0.000000 
#    z 0.000000 0.000000 3.777370 
# 
# 
# High freq. dielectric constant tensor:
#      x y z
#    x 1.831460 0.000000 0.000000 
#    y 0.000000 1.834110 0.000000 
#    z 0.000000 0.000000 1.831970 
# 
# From -- ./inp_files/11583.got.cif
#   From: 2010.03.12/outbox.cif.g09.slc.cpg/sg49_6_cif.got.tgz:11583.got - 2010.04.14 03:58:27.
