data_PCOD8203137
_publ_section_title
;
Structure prediction by ZEFSAII (Michael W. Deem and Ramdas Pophale) SiO2 
 PCOD8203137
Probable space group: P C C M
;
_chemical_formula_sum "Si O2"
_cell_formula_units_Z 48
_cell_length_a 14.741535
_cell_length_b 18.543102
_cell_length_c 9.102250
_cell_angle_alpha 90.000000
_cell_angle_beta 90.000000
_cell_angle_gamma 90.000000
_cell_volume 2488.134509
_symmetry_space_group_name_H-M "P C C M"
_symmetry_group_IT_number 49
_symmetry_cell_setting 'orthorhombic'
loop_
_space_group_symop_operation_xyz
x,y,z
-x,-y,z
x,-y,1/2-z
-x,y,1/2-z
-x,-y,-z
x,y,-z
-x,y,1/2+z
x,-y,1/2+z
loop_
_atom_site_type_symbol
_atom_site_label
_atom_site_fract_x
_atom_site_fract_y
_atom_site_fract_z
Si Si1 0.167171 0.427740 0.324386
Si Si2 0.416741 0.281948 0.838344
Si Si3 0.356609 0.435321 0.165953
Si Si4 0.407159 0.924813 0.174214
Si Si5 0.909669 0.726472 0.329190
Si Si6 0.274277 0.796588 0.168882
O O1 0.122710 0.500000 0.250000
O O2 0.167837 0.435965 0.500000
O O3 0.268096 0.418806 0.262705
O O4 0.115118 0.354656 0.276336
O O5 0.500000 0.247476 0.750000
O O6 0.424401 0.368101 0.840799
O O7 0.321903 0.263974 0.765021
O O8 0.421272 0.248185 0.000000
O O9 0.408873 0.500000 0.250000
O O10 0.328010 0.457342 0.000000
O O11 0.500000 0.894884 0.250000
O O12 0.320194 0.873623 0.206211
O O13 0.381502 0.000000 0.250000
O O14 0.423295 0.934421 0.000000
O O15 0.930009 0.725192 0.500000
O O16 0.832199 0.787093 0.293694
O O17 0.000000 0.753592 0.250000
O O18 0.291503 0.776833 0.000000
#
# Coordination Sequence:
#
# PCOD8203137 Si02
#       6
#     8   8   8   8   8   8
#     4  10  19  33  54  76 103 138 179 232 289 339
#     4  11  23  35  52  78 106 141 183 226 272 328
#     4  10  20  33  50  72  98 135 180 225 275 327
#     4  10  20  35  59  89 122 153 184 220 261 317
#     4  10  22  38  57  81 109 144 185 233 285 335
#     4  10  21  39  59  81 113 149 182 224 276 325
#
# _framework density 19.291561999999999
#
# number of rings (size 3 to 8) (size 9 to 14) (size 15 to 20)
#    0.000    1.833    1.667    4.000    0.000    7.333 
#    0.000    3.333    0.000    0.500    0.000    3.500 
#    0.000    0.000    0.000    0.000    0.000    0.000 
#
# Total GULP energy -594840.772702 kJ/mol
# GULP energy per Si atom -12392.516098 kJ/mol
# Density = 1.924765 g / cm^3
# Si number density = 19.291562 Si / 1000 Ang^3
#
#
#
# Elastic Constant Matrix: (Units=GPa)
#
#
# Indices 1 2 3 4 5 6 
#
# 1 113.6919 49.3528 55.7365 0.0000 0.0000 0.0000
# 2 49.3528 97.4610 46.8439 0.0000 0.0000 0.0000
# 3 55.7365 46.8439 112.1599 0.0000 0.0000 0.0000
# 4 0.0000 0.0000 0.0000 9.0843 0.0000 0.0000
# 5 0.0000 0.0000 0.0000 0.0000 26.6333 0.0000
# 6 0.0000 0.0000 0.0000 0.0000 0.0000 21.4477
#
#
#
# Elastic Compliance Matrix: (Units=1/GPa)
#
#
# Indices 1 2 3 4 5 6 
#
# 1 0.012942 -0.004332 -0.004622 0.000000 0.000000 0.000000
# 2 -0.004332 0.014288 -0.003814 0.000000 0.000000 0.000000
# 3 -0.004622 -0.003814 0.012806 0.000000 0.000000 0.000000
# 4 0.000000 0.000000 0.000000 0.110080 0.000000 0.000000
# 5 0.000000 0.000000 0.000000 0.000000 0.037547 0.000000
# 6 0.000000 0.000000 0.000000 0.000000 0.000000 0.046625
#
#
# Mechanical properties :
#
#
# Convention : Reuss Voigt Hill
#
# Bulk Modulus (GPa) = 68.97395 69.68658 69.33026
# Shear Modulus (GPa) = 18.89232 22.85838 20.87535
#
# Velocity S-wave (km/s) = 3.13278 3.44596 3.29309
# Velocity P-wave (km/s) = 6.99405 7.21347 7.10461
#
# Compressibility (1/GPa) = 0.01449823
#
# Stress axis : x y z
#
# Youngs Moduli (GPa) = 77.26653 69.99059 78.08903
#
# Poissons Ratio (x) = 0.30321 0.36094
# Poissons Ratio (y) = 0.33473 0.29787
# Poissons Ratio (z) = 0.35714 0.26698
#
# Static dielectric constant tensor:
#      x y z
#    x 3.339540 0.000000 0.000000 
#    y 0.000000 3.619920 0.000000 
#    z 0.000000 0.000000 3.664380 
# 
# 
# High freq. dielectric constant tensor:
#      x y z
#    x 1.729660 0.000000 0.000000 
#    y 0.000000 1.739390 0.000000 
#    z 0.000000 0.000000 1.763490 
# 
# From -- ./inp_files/3843.got.cif
#   From: 2010.03.12/outbox.cif.g09.slc.cpg/sg49_2_cif.got.tgz:3843.got - 2010.04.14 03:58:27.
