data_PCOD8203039
_publ_section_title
;
Structure prediction by ZEFSAII (Michael W. Deem and Ramdas Pophale) SiO2 
 PCOD8203039
Probable space group: P C C M
;
_chemical_formula_sum "Si O2"
_cell_formula_units_Z 56
_cell_length_a 15.454788
_cell_length_b 20.242895
_cell_length_c 8.592992
_cell_angle_alpha 90.000000
_cell_angle_beta 90.000000
_cell_angle_gamma 90.000000
_cell_volume 2688.314546
_symmetry_space_group_name_H-M "P C C M"
_symmetry_group_IT_number 49
_symmetry_cell_setting 'orthorhombic'
loop_
_space_group_symop_operation_xyz
x,y,z
-x,-y,z
x,-y,1/2-z
-x,y,1/2-z
-x,-y,-z
x,y,-z
-x,y,1/2+z
x,-y,1/2+z
loop_
_atom_site_type_symbol
_atom_site_label
_atom_site_fract_x
_atom_site_fract_y
_atom_site_fract_z
Si Si1 0.410781 0.117610 0.318473
Si Si2 0.908338 0.171867 0.680163
Si Si3 0.628686 0.733681 0.680011
Si Si4 0.766862 0.069545 0.684141
Si Si5 0.587462 0.398543 0.681172
Si Si6 0.806678 0.297108 0.318366
Si Si7 0.229353 0.431707 0.316476
O O1 0.500000 0.088263 0.250000
O O2 0.405332 0.102767 0.500000
O O3 0.410271 0.195404 0.281443
O O4 0.330645 0.082251 0.238075
O O5 0.914333 0.156835 0.500000
O O6 0.831890 0.125888 0.749914
O O7 0.888589 0.249495 0.711452
O O8 0.000000 0.152311 0.750000
O O9 0.616023 0.713480 0.500000
O O10 0.582094 0.680284 0.790481
O O11 0.729959 0.734765 0.718950
O O12 0.767504 0.068185 0.500000
O O13 0.800007 0.000000 0.750000
O O14 0.500000 0.431320 0.750000
O O15 0.596826 0.414939 0.500000
O O16 0.669484 0.427341 0.772565
O O17 0.780748 0.299003 0.500000
O O18 0.825053 0.371544 0.259522
O O19 0.190817 0.500000 0.250000
O O20 0.218101 0.429346 0.500000
#
# Coordination Sequence:
#
# PCOD8203039 Si02
#       7
#     8   8   8   8   8   8   8
#     4  11  23  37  58  87 120 163 210 259 308 363
#     4  10  23  41  67  98 129 162 201 249 306 368
#     4  10  19  32  53  82 113 152 199 248 305 359
#     4  11  24  44  65  91 126 166 207 255 309 366
#     4  11  21  33  49  73 108 150 197 252 305 359
#     4  10  19  36  60  88 120 157 197 246 302 356
#     4  11  22  37  56  82 113 154 200 245 300 363
#
# _framework density 20.830895999999999
#
# number of rings (size 3 to 8) (size 9 to 14) (size 15 to 20)
#    0.000    1.429    1.429    6.429    0.000    6.000 
#    0.000    4.286    0.000    0.429    0.000    3.000 
#    0.000    0.000    0.000    0.000    0.000    0.000 
#
# Total GULP energy -694473.449191 kJ/mol
# GULP energy per Si atom -12401.311593 kJ/mol
# Density = 2.078348 g / cm^3
# Si number density = 20.830896 Si / 1000 Ang^3
#
#
#
# Elastic Constant Matrix: (Units=GPa)
#
#
# Indices 1 2 3 4 5 6 
#
# 1 101.6004 48.0438 18.1255 0.0000 0.0000 0.0000
# 2 48.0438 122.4948 48.1338 0.0000 0.0000 0.0000
# 3 18.1255 48.1338 75.9853 0.0000 0.0000 0.0000
# 4 0.0000 0.0000 0.0000 31.0799 0.0000 0.0000
# 5 0.0000 0.0000 0.0000 0.0000 29.0580 0.0000
# 6 0.0000 0.0000 0.0000 0.0000 0.0000 4.2076
#
#
#
# Elastic Compliance Matrix: (Units=1/GPa)
#
#
# Indices 1 2 3 4 5 6 
#
# 1 0.012085 -0.004803 0.000159 0.000000 0.000000 0.000000
# 2 -0.004803 0.012778 -0.006949 0.000000 0.000000 0.000000
# 3 0.000159 -0.006949 0.017524 0.000000 0.000000 0.000000
# 4 0.000000 0.000000 0.000000 0.032175 0.000000 0.000000
# 5 0.000000 0.000000 0.000000 0.000000 0.034414 0.000000
# 6 0.000000 0.000000 0.000000 0.000000 0.000000 0.237665
#
#
# Mechanical properties :
#
#
# Convention : Reuss Voigt Hill
#
# Bulk Modulus (GPa) = 52.07397 58.74295 55.40846
# Shear Modulus (GPa) = 13.28993 25.25426 19.27209
#
# Velocity S-wave (km/s) = 2.52859 3.48565 3.04496
# Velocity P-wave (km/s) = 5.79463 6.66790 6.24654
#
# Compressibility (1/GPa) = 0.01920345
#
# Stress axis : x y z
#
# Youngs Moduli (GPa) = 82.74714 78.26189 57.06454
#
# Poissons Ratio (x) = 0.37586 -0.00910
# Poissons Ratio (y) = 0.39740 0.39651
# Poissons Ratio (z) = -0.01320 0.54381
#
# Static dielectric constant tensor:
#      x y z
#    x 3.621460 0.000000 0.000000 
#    y 0.000000 3.989750 0.000000 
#    z 0.000000 0.000000 3.773700 
# 
# 
# High freq. dielectric constant tensor:
#      x y z
#    x 1.788930 0.000000 0.000000 
#    y 0.000000 1.822080 0.000000 
#    z 0.000000 0.000000 1.822400 
# 
# From -- ./inp_files/4014.got.cif
#   From: 2010.03.12/outbox.cif.g09.slc.cpg/sg49_3_cif.got.tgz:4014.got - 2010.04.14 03:58:27.
