data_PCOD8203694
_publ_section_title
;
Structure prediction by ZEFSAII (Michael W. Deem and Ramdas Pophale) SiO2 
 PCOD8203694
Probable space group: P C C M
;
_chemical_formula_sum "Si O2"
_cell_formula_units_Z 64
_cell_length_a 11.008730
_cell_length_b 8.816561
_cell_length_c 33.379695
_cell_angle_alpha 90.000000
_cell_angle_beta 90.000000
_cell_angle_gamma 90.000000
_cell_volume 3239.804476
_symmetry_space_group_name_H-M "P C C M"
_symmetry_group_IT_number 49
_symmetry_cell_setting 'orthorhombic'
loop_
_space_group_symop_operation_xyz
x,y,z
-x,-y,z
x,-y,1/2-z
-x,y,1/2-z
-x,-y,-z
x,y,-z
-x,y,1/2+z
x,-y,1/2+z
loop_
_atom_site_type_symbol
_atom_site_label
_atom_site_fract_x
_atom_site_fract_y
_atom_site_fract_z
Si Si1 0.269000 0.319860 0.828302
Si Si2 0.500000 0.178878 0.795129
Si Si3 1.000000 0.179571 0.544191
Si Si4 0.753882 0.819708 0.087878
Si Si5 0.868028 0.680053 0.750000
Si Si6 0.731000 0.319860 0.171698
Si Si7 0.753882 0.819708 0.587878
Si Si8 0.500000 0.179892 0.545918
O O1 0.394608 0.238769 0.822475
O O2 0.218374 0.261185 0.870132
O O3 0.191523 0.260194 0.790684
O O4 0.280986 0.500000 0.828588
O O5 0.500000 0.248686 0.750000
O O6 0.605392 0.238769 0.822475
O O7 0.500000 0.000000 0.792504
O O8 1.000000 0.248952 0.500000
O O9 0.872813 0.234295 0.563483
O O10 0.127187 0.234295 0.563483
O O11 0.000000 0.000000 0.543624
O O12 0.625142 0.764364 0.067945
O O13 0.750075 0.000000 0.093349
O O14 0.869111 0.500000 0.750000
O O15 0.808477 0.739806 0.709316
O O16 0.000000 0.751815 0.750000
O O17 0.781626 0.261185 0.129868
O O18 0.625142 0.764364 0.567945
O O19 0.500000 0.241343 0.500000
O O20 0.500000 0.000000 0.545189
#
# Coordination Sequence:
#
# PCOD8203694 Si02
#       8
#     8   8   8   8   8   8   8   8
#     4  11  22  37  59  83 113 150 193 234 281 343
#     4  11  22  37  58  82 112 145 184 236 289 335
#     4   9  18  34  57  84 115 152 194 240 290 349
#     4  10  20  34  55  84 115 145 187 241 291 338
#     4   9  20  37  55  76 106 151 198 235 270 329
#     4  11  22  37  59  83 113 150 193 234 281 343
#     4  10  20  34  55  84 115 145 187 241 291 338
#     4   9  17  32  56  81 105 140 184 227 276 338
#
# _framework density 19.754277999999999
#
# number of rings (size 3 to 8) (size 9 to 14) (size 15 to 20)
#    0.000    2.000    1.250    2.625    1.750    4.500 
#    0.000    0.000    0.000    7.500    0.000    0.000 
#    0.000    0.000    0.000    0.000    0.000    0.000 
#
# Total GULP energy -793019.780198 kJ/mol
# GULP energy per Si atom -12390.934066 kJ/mol
# Density = 1.970932 g / cm^3
# Si number density = 19.754278 Si / 1000 Ang^3
#
#
#
# Elastic Constant Matrix: (Units=GPa)
#
#
# Indices 1 2 3 4 5 6 
#
# 1 181.0597 24.3849 82.1357 0.0000 0.0000 0.0000
# 2 24.3849 37.2704 33.4917 0.0000 0.0000 0.0000
# 3 82.1357 33.4917 181.5402 0.0000 0.0000 0.0000
# 4 0.0000 0.0000 0.0000 16.4420 0.0000 0.0000
# 5 0.0000 0.0000 0.0000 0.0000 36.4606 0.0000
# 6 0.0000 0.0000 0.0000 0.0000 0.0000 -1.1440
#
#
#
# Elastic Compliance Matrix: (Units=1/GPa)
#
#
# Indices 1 2 3 4 5 6 
#
# 1 0.007084 -0.002104 -0.002817 0.000000 0.000000 0.000000
# 2 -0.002104 0.032788 -0.005097 0.000000 0.000000 0.000000
# 3 -0.002817 -0.005097 0.007723 0.000000 0.000000 0.000000
# 4 0.000000 0.000000 0.000000 0.060820 0.000000 0.000000
# 5 0.000000 0.000000 0.000000 0.000000 0.027427 0.000000
# 6 0.000000 0.000000 0.000000 0.000000 0.000000 -0.874118
#
#
# Mechanical properties :
#
#
# Convention : Reuss Voigt Hill
#
# Bulk Modulus (GPa) = 36.28496 75.54388 55.91442
# Shear Modulus (GPa) = -7.05165 27.67558 10.31197
#
# Velocity S-wave (km/s) = -1.89141 3.74704 2.28724
# Velocity P-wave (km/s) = 3.69298 7.55283 5.94489
#
# Compressibility (1/GPa) = 0.02755963
#
# Stress axis : x y z
#
# Youngs Moduli (GPa) = 141.15719 30.49935 129.47743
#
# Poissons Ratio (x) = 0.06416 0.36476
# Poissons Ratio (y) = 0.29693 0.65997
# Poissons Ratio (z) = 0.39766 0.15546
#
# Static dielectric constant tensor:
#      x y z
#    x 3.814120 0.000000 0.000000 
#    y 0.000000 3.145340 0.000000 
#    z 0.000000 0.000000 2.611310 
# 
# 
# High freq. dielectric constant tensor:
#      x y z
#    x 1.785980 0.000000 0.000000 
#    y 0.000000 1.726060 0.000000 
#    z 0.000000 0.000000 1.789320 
# 
# From -- ./inp_files/26685.got.cif
#   From: 2010.03.12/outbox.cif.g09.slc.cpg/sg49_14_cif.got.tgz:26685.got - 2010.04.14 03:58:27.
