data_PCOD8203423
_publ_section_title
;
Structure prediction by ZEFSAII (Michael W. Deem and Ramdas Pophale) SiO2 
 PCOD8203423
Probable space group: P C C M
;
_chemical_formula_sum "Si O2"
_cell_formula_units_Z 56
_cell_length_a 19.229268
_cell_length_b 17.789883
_cell_length_c 9.538154
_cell_angle_alpha 90.000000
_cell_angle_beta 90.000000
_cell_angle_gamma 90.000000
_cell_volume 3262.873031
_symmetry_space_group_name_H-M "P C C M"
_symmetry_group_IT_number 49
_symmetry_cell_setting 'orthorhombic'
loop_
_space_group_symop_operation_xyz
x,y,z
-x,-y,z
x,-y,1/2-z
-x,y,1/2-z
-x,-y,-z
x,y,-z
-x,y,1/2+z
x,-y,1/2+z
loop_
_atom_site_type_symbol
_atom_site_label
_atom_site_fract_x
_atom_site_fract_y
_atom_site_fract_z
Si Si1 0.157439 0.355673 0.753857
Si Si2 0.365522 0.277021 0.836313
Si Si3 0.435277 0.842798 0.166443
Si Si4 0.239158 0.224309 0.659810
Si Si5 0.293409 0.929490 0.156845
Si Si6 0.909435 0.431813 0.000000
Si Si7 0.936643 0.392166 0.500000
Si Si8 0.301459 0.428366 0.842713
O O1 0.168842 0.271056 0.692085
O O2 0.135472 0.413117 0.634574
O O3 0.227601 0.389340 0.816725
O O4 0.095646 0.351048 0.865735
O O5 0.425080 0.239237 0.739924
O O6 0.292601 0.247642 0.778890
O O7 0.363467 0.367574 0.819416
O O8 0.374479 0.254174 0.000000
O O9 0.500000 0.880532 0.250000
O O10 0.368099 0.893897 0.196834
O O11 0.449631 0.833924 0.000000
O O12 0.265202 0.242970 0.500000
O O13 0.232448 0.133676 0.672133
O O14 0.273619 0.000000 0.250000
O O15 0.296966 0.960411 0.000000
O O16 0.920742 0.520023 0.000000
O O17 0.980337 0.383072 0.000000
O O18 0.317333 0.500000 0.750000
O O19 0.301582 0.458479 0.000000
#
# Coordination Sequence:
#
# PCOD8203423 Si02
#       8
#     8   8   8   8   8   4   4   8
#     4  11  20  33  49  68  97 135 174 211 248 300
#     4   9  18  31  47  70  95 123 164 210 252 290
#     4  10  20  34  52  73 101 136 170 196 231 289
#     4   9  18  33  50  70  97 131 166 202 252 300
#     4   9  19  34  51  76 106 131 159 199 246 296
#     4  11  22  34  48  66  99 147 168 211 257 291
#     4  11  22  34  46  70 103 131 182 213 247 295
#     4  10  20  30  46  69  94 123 162 213 259 302
#
# _framework density 17.162787999999999
#
# number of rings (size 3 to 8) (size 9 to 14) (size 15 to 20)
#    0.000    2.143    1.429    3.429    2.000    5.429 
#    0.000    1.429    0.000    0.429    0.000    3.000 
#    0.000    3.429    0.000    0.000    0.000    0.000 
#
# Total GULP energy -693954.914955 kJ/mol
# GULP energy per Si atom -12392.052053 kJ/mol
# Density = 1.712372 g / cm^3
# Si number density = 17.162788 Si / 1000 Ang^3
#
#
#
# Elastic Constant Matrix: (Units=GPa)
#
#
# Indices 1 2 3 4 5 6 
#
# 1 32.5417 21.8111 13.9286 0.0000 0.0000 0.0000
# 2 21.8111 96.5095 48.9536 0.0000 0.0000 0.0000
# 3 13.9286 48.9536 112.3374 0.0000 0.0000 0.0000
# 4 0.0000 0.0000 0.0000 30.3007 0.0000 0.0000
# 5 0.0000 0.0000 0.0000 0.0000 21.2611 0.0000
# 6 0.0000 0.0000 0.0000 0.0000 0.0000 17.4469
#
#
#
# Elastic Compliance Matrix: (Units=1/GPa)
#
#
# Indices 1 2 3 4 5 6 
#
# 1 0.036339 -0.007609 -0.001190 0.000000 0.000000 0.000000
# 2 -0.007609 0.014895 -0.005547 0.000000 0.000000 0.000000
# 3 -0.001190 -0.005547 0.011467 0.000000 0.000000 0.000000
# 4 0.000000 0.000000 0.000000 0.033003 0.000000 0.000000
# 5 0.000000 0.000000 0.000000 0.000000 0.047034 0.000000
# 6 0.000000 0.000000 0.000000 0.000000 0.000000 0.057317
#
#
# Mechanical properties :
#
#
# Convention : Reuss Voigt Hill
#
# Bulk Modulus (GPa) = 29.40462 45.64167 37.52314
# Shear Modulus (GPa) = 20.82608 24.24808 22.53708
#
# Velocity S-wave (km/s) = 3.48723 3.76284 3.62765
# Velocity P-wave (km/s) = 5.77792 6.74757 6.28148
#
# Compressibility (1/GPa) = 0.03400826
#
# Stress axis : x y z
#
# Youngs Moduli (GPa) = 27.51857 67.13554 87.20882
#
# Poissons Ratio (x) = 0.51084 0.10376
# Poissons Ratio (y) = 0.20939 0.48379
# Poissons Ratio (z) = 0.03274 0.37243
#
# Static dielectric constant tensor:
#      x y z
#    x 3.151570 0.000000 0.000000 
#    y 0.000000 3.283100 0.000000 
#    z 0.000000 0.000000 3.338760 
# 
# 
# High freq. dielectric constant tensor:
#      x y z
#    x 1.626220 0.000000 0.000000 
#    y 0.000000 1.647310 0.000000 
#    z 0.000000 0.000000 1.684140 
# 
# From -- ./inp_files/5114.got.cif
#   From: 2010.03.12/outbox.cif.g09.slc.cpg/sg49_3_cif.got.tgz:5114.got - 2010.04.14 03:58:27.
