data_PCOD8203835
_publ_section_title
;
Structure prediction by ZEFSAII (Michael W. Deem and Ramdas Pophale) SiO2 
 PCOD8203835
Probable space group: P C C M
;
_chemical_formula_sum "Si O2"
_cell_formula_units_Z 64
_cell_length_a 11.778932
_cell_length_b 17.855409
_cell_length_c 15.570058
_cell_angle_alpha 90.000000
_cell_angle_beta 90.000000
_cell_angle_gamma 90.000000
_cell_volume 3274.657985
_symmetry_space_group_name_H-M "P C C M"
_symmetry_group_IT_number 49
_symmetry_cell_setting 'orthorhombic'
loop_
_space_group_symop_operation_xyz
x,y,z
-x,-y,z
x,-y,1/2-z
-x,y,1/2-z
-x,-y,-z
x,y,-z
-x,y,1/2+z
x,-y,1/2+z
loop_
_atom_site_type_symbol
_atom_site_label
_atom_site_fract_x
_atom_site_fract_y
_atom_site_fract_z
Si Si1 0.794132 0.098062 0.095355
Si Si2 0.176534 0.702967 0.404426
Si Si3 0.633473 0.808011 0.156549
Si Si4 0.129850 0.588213 0.253474
Si Si5 0.623108 0.782364 0.355966
Si Si6 0.216532 0.331412 0.402676
Si Si7 0.034678 0.789202 0.153086
Si Si8 0.625716 0.025648 0.602444
O O1 0.696452 0.160512 0.088397
O O2 0.910944 0.126951 0.141983
O O3 0.727808 0.027604 0.138464
O O4 0.833882 0.076743 0.000000
O O5 0.171653 0.667129 0.500000
O O6 0.290516 0.750446 0.395936
O O7 0.177214 0.633868 0.336106
O O8 0.076932 0.765571 0.399123
O O9 0.653012 0.792865 0.256325
O O10 0.507295 0.793715 0.123935
O O11 0.662000 0.893936 0.137910
O O12 0.143948 0.500000 0.250000
O O13 0.194191 0.603739 0.164740
O O14 0.000000 0.613632 0.250000
O O15 0.655746 0.698811 0.387816
O O16 0.197498 0.360234 0.500000
O O17 0.134074 0.263832 0.378670
O O18 0.000000 0.775885 0.250000
O O19 0.624267 0.024635 0.500000
O O20 0.500000 0.000000 0.636644
#
# Coordination Sequence:
#
# PCOD8203835 Si02
#       8
#     8   8   8   8   8   8   8   8
#     4  10  20  35  57  83 115 156 206 253 301 365
#     4  12  22  37  61  89 126 163 202 246 301 365
#     4  11  22  36  57  87 122 163 207 254 310 358
#     4  11  23  41  63  93 131 156 190 245 299 364
#     4  10  20  35  57  86 117 152 205 259 296 357
#     4  11  20  37  65  90 119 156 199 245 297 365
#     4  11  19  36  59  83 119 159 205 251 296 354
#     4  10  20  36  55  82 122 157 201 262 316 360
#
# _framework density 19.544025000000001
#
# number of rings (size 3 to 8) (size 9 to 14) (size 15 to 20)
#    0.000    1.250    5.000    3.375    0.000    2.500 
#    0.000    1.875    0.000    6.750    0.000    1.750 
#    0.000    0.000    0.000    0.000    0.000    0.000 
#
# Total GULP energy -792954.570411 kJ/mol
# GULP energy per Si atom -12389.915163 kJ/mol
# Density = 1.949954 g / cm^3
# Si number density = 19.544025 Si / 1000 Ang^3
#
#
#
# Elastic Constant Matrix: (Units=GPa)
#
#
# Indices 1 2 3 4 5 6 
#
# 1 70.9999 43.0709 28.9601 0.0000 0.0000 0.0000
# 2 43.0709 96.0595 43.8624 0.0000 0.0000 0.0000
# 3 28.9601 43.8624 118.4328 0.0000 0.0000 0.0000
# 4 0.0000 0.0000 0.0000 15.6573 0.0000 0.0000
# 5 0.0000 0.0000 0.0000 0.0000 17.0317 0.0000
# 6 0.0000 0.0000 0.0000 0.0000 0.0000 28.6439
#
#
#
# Elastic Compliance Matrix: (Units=1/GPa)
#
#
# Indices 1 2 3 4 5 6 
#
# 1 0.019681 -0.007976 -0.001859 0.000000 0.000000 0.000000
# 2 -0.007976 0.015761 -0.003887 0.000000 0.000000 0.000000
# 3 -0.001859 -0.003887 0.010338 0.000000 0.000000 0.000000
# 4 0.000000 0.000000 0.000000 0.063868 0.000000 0.000000
# 5 0.000000 0.000000 0.000000 0.000000 0.058714 0.000000
# 6 0.000000 0.000000 0.000000 0.000000 0.000000 0.034911
#
#
# Mechanical properties :
#
#
# Convention : Reuss Voigt Hill
#
# Bulk Modulus (GPa) = 54.53445 57.47546 56.00495
# Shear Modulus (GPa) = 21.11229 23.57316 22.34272
#
# Velocity S-wave (km/s) = 3.29027 3.47674 3.38479
# Velocity P-wave (km/s) = 6.51141 6.75197 6.63278
#
# Compressibility (1/GPa) = 0.01833703
#
# Stress axis : x y z
#
# Youngs Moduli (GPa) = 50.81022 63.44672 96.73364
#
# Poissons Ratio (x) = 0.50604 0.17980
# Poissons Ratio (y) = 0.40525 0.37600
# Poissons Ratio (z) = 0.09444 0.24662
#
# Static dielectric constant tensor:
#      x y z
#    x 3.860420 0.000000 0.000000 
#    y 0.000000 3.511250 0.000000 
#    z 0.000000 0.000000 3.615500 
# 
# 
# High freq. dielectric constant tensor:
#      x y z
#    x 1.757750 0.000000 0.000000 
#    y 0.000000 1.737400 0.000000 
#    z 0.000000 0.000000 1.768740 
# 
# From -- ./inp_files/13112.got.cif
#   From: 2010.03.12/outbox.cif.g09.slc.cpg/sg49_7_cif.got.tgz:13112.got - 2010.04.14 03:58:27.
