data_PCOD8203676
_publ_section_title
;
Structure prediction by ZEFSAII (Michael W. Deem and Ramdas Pophale) SiO2 
 PCOD8203676
Probable space group: P C C M
;
_chemical_formula_sum "Si O2"
_cell_formula_units_Z 64
_cell_length_a 17.928025
_cell_length_b 20.539945
_cell_length_c 8.841985
_cell_angle_alpha 90.000000
_cell_angle_beta 90.000000
_cell_angle_gamma 90.000000
_cell_volume 3255.978281
_symmetry_space_group_name_H-M "P C C M"
_symmetry_group_IT_number 49
_symmetry_cell_setting 'orthorhombic'
loop_
_space_group_symop_operation_xyz
x,y,z
-x,-y,z
x,-y,1/2-z
-x,y,1/2-z
-x,-y,-z
x,y,-z
-x,y,1/2+z
x,-y,1/2+z
loop_
_atom_site_type_symbol
_atom_site_label
_atom_site_fract_x
_atom_site_fract_y
_atom_site_fract_z
Si Si1 0.345895 0.797536 0.174507
Si Si2 0.422308 0.333977 0.675872
Si Si3 0.194760 0.061316 0.824410
Si Si4 0.138507 0.567748 0.676665
Si Si5 0.187953 0.794034 0.325209
Si Si6 0.312369 0.567178 0.324202
Si Si7 0.355439 0.938765 0.825708
Si Si8 0.076756 0.695669 0.821187
O O1 0.406095 0.741814 0.207908
O O2 0.274571 0.788416 0.281369
O O3 0.388301 0.866559 0.207499
O O4 0.318562 0.795419 0.000000
O O5 0.500000 0.354248 0.750000
O O6 0.426506 0.350229 0.500000
O O7 0.355385 0.373947 0.748125
O O8 0.156629 0.132092 0.801340
O O9 0.272314 0.063567 0.737383
O O10 0.148738 0.000000 0.750000
O O11 0.207904 0.047430 0.000000
O O12 0.112754 0.500000 0.750000
O O13 0.119595 0.566601 0.500000
O O14 0.225631 0.579900 0.706605
O O15 0.092766 0.624412 0.756400
O O16 0.180194 0.772868 0.500000
O O17 0.141484 0.745776 0.221331
O O18 0.339043 0.500000 0.250000
O O19 0.331416 0.564089 0.500000
O O20 0.399777 0.000000 0.750000
O O21 0.353942 0.955000 0.000000
O O22 0.000000 0.721835 0.750000
O O23 0.069705 0.691562 0.000000
#
# Coordination Sequence:
#
# PCOD8203676 Si02
#       8
#     8   8   8   8   8   8   8   8
#     4   9  19  34  53  77 106 141 179 221 269 322
#     4  11  23  38  55  77 107 142 181 223 268 318
#     4   9  16  26  44  72 105 137 171 215 265 316
#     4  10  21  39  63  90 117 144 178 219 264 316
#     4  10  20  34  54  81 110 141 180 224 270 322
#     4  10  21  38  61  87 113 141 174 215 261 312
#     4   9  15  25  43  70 102 133 169 214 265 316
#     4  12  25  40  58  80 110 147 185 225 270 318
#
# _framework density 19.656151000000001
#
# number of rings (size 3 to 8) (size 9 to 14) (size 15 to 20)
#    0.000    2.000    0.000    4.875    0.000    7.000 
#    0.000    2.500    0.000    0.750    0.000    5.250 
#    0.000    0.000    0.000    0.000    0.000    0.000 
#
# Total GULP energy -793405.231114 kJ/mol
# GULP energy per Si atom -12396.956736 kJ/mol
# Density = 1.961141 g / cm^3
# Si number density = 19.656151 Si / 1000 Ang^3
#
#
#
# Elastic Constant Matrix: (Units=GPa)
#
#
# Indices 1 2 3 4 5 6 
#
# 1 28.7419 3.9839 18.7406 0.0000 0.0000 0.0000
# 2 3.9839 91.0549 36.8572 0.0000 0.0000 0.0000
# 3 18.7406 36.8572 117.4450 0.0000 0.0000 0.0000
# 4 0.0000 0.0000 0.0000 37.8879 0.0000 0.0000
# 5 0.0000 0.0000 0.0000 0.0000 17.9133 0.0000
# 6 0.0000 0.0000 0.0000 0.0000 0.0000 4.3163
#
#
#
# Elastic Compliance Matrix: (Units=1/GPa)
#
#
# Indices 1 2 3 4 5 6 
#
# 1 0.038901 0.000929 -0.006499 0.000000 0.000000 0.000000
# 2 0.000929 0.012603 -0.004103 0.000000 0.000000 0.000000
# 3 -0.006499 -0.004103 0.010839 0.000000 0.000000 0.000000
# 4 0.000000 0.000000 0.000000 0.026394 0.000000 0.000000
# 5 0.000000 0.000000 0.000000 0.000000 0.055825 0.000000
# 6 0.000000 0.000000 0.000000 0.000000 0.000000 0.231681
#
#
# Mechanical properties :
#
#
# Convention : Reuss Voigt Hill
#
# Bulk Modulus (GPa) = 23.25786 39.60056 31.42921
# Shear Modulus (GPa) = 12.19746 23.86751 18.03248
#
# Velocity S-wave (km/s) = 2.49377 3.48839 3.03214
# Velocity P-wave (km/s) = 4.48886 6.03453 5.31815
#
# Compressibility (1/GPa) = 0.04299621
#
# Stress axis : x y z
#
# Youngs Moduli (GPa) = 25.70620 79.34835 92.25669
#
# Poissons Ratio (x) = -0.07368 0.59956
# Poissons Ratio (y) = -0.02387 0.37855
# Poissons Ratio (z) = 0.16706 0.32558
#
# Static dielectric constant tensor:
#      x y z
#    x 3.141540 0.000000 0.000000 
#    y 0.000000 4.405570 0.000000 
#    z 0.000000 0.000000 3.713530 
# 
# 
# High freq. dielectric constant tensor:
#      x y z
#    x 1.717750 0.000000 0.000000 
#    y 0.000000 1.792220 0.000000 
#    z 0.000000 0.000000 1.782500 
# 
# From -- ./inp_files/5291.got.cif
#   From: 2010.03.12/outbox.cif.g09.slc.cpg/sg49_3_cif.got.tgz:5291.got - 2010.04.14 03:58:27.
