data_PCOD8203958
_publ_section_title
;
Structure prediction by ZEFSAII (Michael W. Deem and Ramdas Pophale) SiO2 
 PCOD8203958
Probable space group: P C C M
;
_chemical_formula_sum "Si O2"
_cell_formula_units_Z 64
_cell_length_a 14.972893
_cell_length_b 11.591775
_cell_length_c 18.108288
_cell_angle_alpha 90.000000
_cell_angle_beta 90.000000
_cell_angle_gamma 90.000000
_cell_volume 3142.918047
_symmetry_space_group_name_H-M "P C C M"
_symmetry_group_IT_number 49
_symmetry_cell_setting 'orthorhombic'
loop_
_space_group_symop_operation_xyz
x,y,z
-x,-y,z
x,-y,1/2-z
-x,y,1/2-z
-x,-y,-z
x,y,-z
-x,y,1/2+z
x,-y,1/2+z
loop_
_atom_site_type_symbol
_atom_site_label
_atom_site_fract_x
_atom_site_fract_y
_atom_site_fract_z
Si Si1 0.391175 0.233519 0.086710
Si Si2 0.649477 0.002387 0.837179
Si Si3 0.832056 0.979559 0.083480
Si Si4 0.883738 0.228646 0.916226
Si Si5 0.079877 0.254464 0.912378
Si Si6 0.234875 0.614508 0.347148
Si Si7 0.261504 0.645093 0.178363
Si Si8 0.552465 0.232875 0.172970
O O1 0.308311 0.311241 0.110114
O O2 0.485424 0.289146 0.112024
O O3 0.392848 0.113627 0.131164
O O4 0.387018 0.212193 0.000000
O O5 0.747046 0.017156 0.869995
O O6 0.586293 0.109602 0.857453
O O7 0.659532 0.000000 0.750000
O O8 0.896611 0.090059 0.085295
O O9 0.880512 0.867277 0.117877
O O10 0.800815 0.951178 0.000000
O O11 0.801090 0.268652 0.866783
O O12 0.978209 0.276290 0.885333
O O13 0.865256 0.270354 0.000000
O O14 0.138636 0.360001 0.882659
O O15 0.080017 0.251169 0.000000
O O16 0.227891 0.647420 0.261890
O O17 0.256373 0.480564 0.358303
O O18 0.364390 0.681520 0.179416
O O19 0.500000 0.221376 0.250000
#
# Coordination Sequence:
#
# PCOD8203958 Si02
#       8
#     8   8   8   8   8   8   8   8
#     4  12  26  43  67  99 133 172 219 273 335 407
#     4  12  22  37  66  97 133 171 210 264 333 400
#     4  10  20  36  63  95 133 174 213 262 327 400
#     4  10  22  40  64  97 134 174 219 272 333 399
#     4  10  21  40  66  96 135 176 216 270 337 402
#     4  11  24  44  67  92 126 173 226 277 332 395
#     4  11  25  45  67  92 125 174 226 280 337 386
#     4  12  24  44  67  94 134 175 213 268 339 409
#
# _framework density 20.363242
#
# number of rings (size 3 to 8) (size 9 to 14) (size 15 to 20)
#    0.000    1.000    5.000    1.500    0.000    6.000 
#    0.000    3.125    0.000    2.250    0.000    0.000 
#    0.000    0.000    0.000    0.000    0.000    0.000 
#
# Total GULP energy -793632.207173 kJ/mol
# GULP energy per Si atom -12400.503237 kJ/mol
# Density = 2.031689 g / cm^3
# Si number density = 20.363242 Si / 1000 Ang^3
#
#
#
# Elastic Constant Matrix: (Units=GPa)
#
#
# Indices 1 2 3 4 5 6 
#
# 1 111.3163 13.2174 27.4988 0.0000 0.0000 0.0000
# 2 13.2174 78.6732 21.5313 0.0000 0.0000 0.0000
# 3 27.4988 21.5313 78.1930 0.0000 0.0000 0.0000
# 4 0.0000 0.0000 0.0000 -1.6578 0.0000 0.0000
# 5 0.0000 0.0000 0.0000 0.0000 39.5643 0.0000
# 6 0.0000 0.0000 0.0000 0.0000 0.0000 14.6608
#
#
#
# Elastic Compliance Matrix: (Units=1/GPa)
#
#
# Indices 1 2 3 4 5 6 
#
# 1 0.009881 -0.000767 -0.003264 0.000000 0.000000 0.000000
# 2 -0.000767 0.013806 -0.003532 0.000000 0.000000 0.000000
# 3 -0.003264 -0.003532 0.014909 0.000000 0.000000 0.000000
# 4 0.000000 0.000000 0.000000 -0.603204 0.000000 0.000000
# 5 0.000000 0.000000 0.000000 0.000000 0.025275 0.000000
# 6 0.000000 0.000000 0.000000 0.000000 0.000000 0.068209
#
#
# Mechanical properties :
#
#
# Convention : Reuss Voigt Hill
#
# Bulk Modulus (GPa) = 42.60548 43.63084 43.11816
# Shear Modulus (GPa) = -11.15638 24.24244 6.54303
#
# Velocity S-wave (km/s) = -2.34320 3.45411 1.79447
# Velocity P-wave (km/s) = 3.69424 6.11397 5.05114
#
# Compressibility (1/GPa) = 0.02347116
#
# Stress axis : x y z
#
# Youngs Moduli (GPa) = 101.20745 72.43075 67.07260
#
# Poissons Ratio (x) = 0.05554 0.21890
# Poissons Ratio (y) = 0.07761 0.23690
# Poissons Ratio (z) = 0.33031 0.25583
#
# Static dielectric constant tensor:
#      x y z
#    x 3.932750 0.000000 0.000000 
#    y 0.000000 3.756920 0.000000 
#    z 0.000000 0.000000 3.698140 
# 
# 
# High freq. dielectric constant tensor:
#      x y z
#    x 1.813120 0.000000 0.000000 
#    y 0.000000 1.789990 0.000000 
#    z 0.000000 0.000000 1.789210 
# 
# From -- ./inp_files/17936.got.cif
#   From: 2010.03.12/outbox.cif.g09.slc.cpg/sg49_9_cif.got.tgz:17936.got - 2010.04.14 03:58:27.
