data_PCOD8203766
_publ_section_title
;
Structure prediction by ZEFSAII (Michael W. Deem and Ramdas Pophale) SiO2 
 PCOD8203766
Probable space group: P C C M
;
_chemical_formula_sum "Si O2"
_cell_formula_units_Z 48
_cell_length_a 19.304354
_cell_length_b 8.955600
_cell_length_c 14.861954
_cell_angle_alpha 90.000000
_cell_angle_beta 90.000000
_cell_angle_gamma 90.000000
_cell_volume 2569.365412
_symmetry_space_group_name_H-M "P C C M"
_symmetry_group_IT_number 49
_symmetry_cell_setting 'orthorhombic'
loop_
_space_group_symop_operation_xyz
x,y,z
-x,-y,z
x,-y,1/2-z
-x,y,1/2-z
-x,-y,-z
x,y,-z
-x,y,1/2+z
x,-y,1/2+z
loop_
_atom_site_type_symbol
_atom_site_label
_atom_site_fract_x
_atom_site_fract_y
_atom_site_fract_z
Si Si1 0.351320 0.328139 0.101382
Si Si2 0.500000 0.331905 0.355952
Si Si3 0.648680 0.328139 0.898618
Si Si4 0.105976 0.822606 0.750000
Si Si5 1.000000 0.177508 0.897989
Si Si6 0.261937 0.176976 0.250000
O O1 0.429014 0.257330 0.108011
O O2 0.352646 0.500000 0.135445
O O3 0.299333 0.233750 0.160979
O O4 0.324132 0.316558 0.000000
O O5 0.500000 0.500000 0.393164
O O6 0.500000 0.322762 0.250000
O O7 0.429014 0.257330 0.391989
O O8 0.700667 0.233750 0.839021
O O9 0.675868 0.316558 0.000000
O O10 0.067173 0.767399 0.841144
O O11 0.183785 0.759268 0.750000
O O12 0.067173 0.767399 0.658856
O O13 0.105808 0.000000 0.750000
O O14 1.000000 0.245048 0.000000
O O15 0.000000 0.000000 0.904670
O O16 0.262699 0.000000 0.250000
#
# Coordination Sequence:
#
# PCOD8203766 Si02
#       6
#     8   8   8   8   8   8
#     4  10  20  35  55  76  98 130 175 220 257 296
#     4   9  15  29  55  77  93 120 169 228 265 288
#     4  10  20  35  55  76  98 130 175 220 257 296
#     4   8  16  28  42  67  99 129 160 195 240 293
#     4   8  13  25  46  67  89 122 164 204 238 278
#     4  11  22  34  49  74 112 143 162 196 252 315
#
# _framework density 18.681654999999999
#
# number of rings (size 3 to 8) (size 9 to 14) (size 15 to 20)
#    0.000    2.667    1.667    2.000    0.000    4.000 
#    0.000    5.000    0.000    2.000    0.000    9.333 
#    0.000   16.000    0.000    0.000    0.000    0.000 
#
# Total GULP energy -594895.107455 kJ/mol
# GULP energy per Si atom -12393.648072 kJ/mol
# Density = 1.863913 g / cm^3
# Si number density = 18.681655 Si / 1000 Ang^3
#
#
#
# Elastic Constant Matrix: (Units=GPa)
#
#
# Indices 1 2 3 4 5 6 
#
# 1 179.5210 32.6063 76.2411 0.0000 0.0000 0.0000
# 2 32.6063 32.9054 23.8928 0.0000 0.0000 0.0000
# 3 76.2411 23.8928 147.0361 0.0000 0.0000 0.0000
# 4 0.0000 0.0000 0.0000 20.2140 0.0000 0.0000
# 5 0.0000 0.0000 0.0000 0.0000 -6.2790 0.0000
# 6 0.0000 0.0000 0.0000 0.0000 0.0000 -44.6867
#
#
#
# Elastic Compliance Matrix: (Units=1/GPa)
#
#
# Indices 1 2 3 4 5 6 
#
# 1 0.007943 -0.005533 -0.003219 0.000000 0.000000 0.000000
# 2 -0.005533 0.038310 -0.003356 0.000000 0.000000 0.000000
# 3 -0.003219 -0.003356 0.009016 0.000000 0.000000 0.000000
# 4 0.000000 0.000000 0.000000 0.049471 0.000000 0.000000
# 5 0.000000 0.000000 0.000000 0.000000 -0.159261 0.000000
# 6 0.000000 0.000000 0.000000 0.000000 0.000000 -0.022378
#
#
# Mechanical properties :
#
#
# Convention : Reuss Voigt Hill
#
# Bulk Modulus (GPa) = 32.20494 69.43809 50.82152
# Shear Modulus (GPa) = -118.11148 8.96447 -54.57350
#
# Velocity S-wave (km/s) = -7.95993 2.19293 -5.41071
# Velocity P-wave (km/s) = 8.19783 6.60771 3.43094
#
# Compressibility (1/GPa) = 0.03105113
#
# Stress axis : x y z
#
# Youngs Moduli (GPa) = 125.90491 26.10306 110.91756
#
# Poissons Ratio (x) = 0.14442 0.35708
# Poissons Ratio (y) = 0.69660 0.37227
# Poissons Ratio (z) = 0.40532 0.08761
#
# Static dielectric constant tensor:
#      x y z
#    x 3.742990 0.000000 0.000000 
#    y 0.000000 2.865130 0.000000 
#    z 0.000000 0.000000 3.557370 
# 
# 
# High freq. dielectric constant tensor:
#      x y z
#    x 1.731420 0.000000 0.000000 
#    y 0.000000 1.659050 0.000000 
#    z 0.000000 0.000000 1.739420 
# 
# From -- ./inp_files/14024.got.cif
#   From: 2010.03.12/outbox.cif.g09.slc.cpg/sg49_8_cif.got.tgz:14024.got - 2010.04.14 03:58:27.
