data_PCOD8203317
_publ_section_title
;
Structure prediction by ZEFSAII (Michael W. Deem and Ramdas Pophale) SiO2 
 PCOD8203317
Probable space group: P C C M
;
_chemical_formula_sum "Si O2"
_cell_formula_units_Z 64
_cell_length_a 19.614824
_cell_length_b 20.520889
_cell_length_c 8.893976
_cell_angle_alpha 90.000000
_cell_angle_beta 90.000000
_cell_angle_gamma 90.000000
_cell_volume 3579.946530
_symmetry_space_group_name_H-M "P C C M"
_symmetry_group_IT_number 49
_symmetry_cell_setting 'orthorhombic'
loop_
_space_group_symop_operation_xyz
x,y,z
-x,-y,z
x,-y,1/2-z
-x,y,1/2-z
-x,-y,-z
x,y,-z
-x,y,1/2+z
x,-y,1/2+z
loop_
_atom_site_type_symbol
_atom_site_label
_atom_site_fract_x
_atom_site_fract_y
_atom_site_fract_z
Si Si1 0.568596 0.125143 0.824281
Si Si2 0.708459 0.066621 0.176592
Si Si3 0.067244 0.238855 0.675635
Si Si4 0.292913 0.313248 0.820992
Si Si5 0.213952 0.433115 0.678412
Si Si6 0.213943 0.804747 0.176600
Si Si7 0.570225 0.276258 0.822286
Si Si8 0.067337 0.613396 0.824378
O O1 0.500000 0.097295 0.750000
O O2 0.633258 0.085134 0.762016
O O3 0.580352 0.200394 0.782851
O O4 0.560540 0.116067 0.000000
O O5 0.761201 0.123331 0.220292
O O6 0.734261 0.000000 0.250000
O O7 0.705933 0.056940 0.000000
O O8 0.055303 0.237619 0.500000
O O9 0.134322 0.198220 0.720118
O O10 0.077503 0.312660 0.734417
O O11 0.000000 0.207035 0.750000
O O12 0.253828 0.374323 0.753166
O O13 0.256174 0.247159 0.771234
O O14 0.369166 0.315827 0.755784
O O15 0.294532 0.317626 0.000000
O O16 0.241429 0.500000 0.750000
O O17 0.225805 0.431870 0.500000
O O18 0.134110 0.427051 0.720350
O O19 0.226008 0.789359 0.000000
O O20 0.500000 0.301828 0.750000
O O21 0.570142 0.289041 0.000000
O O22 0.000000 0.581716 0.750000
O O23 0.055328 0.612827 0.000000
#
# Coordination Sequence:
#
# PCOD8203317 Si02
#       8
#     8   8   8   8   8   8   8   8
#     4   9  18  32  51  74 105 144 180 218 264 317
#     4  10  21  36  53  75 106 145 184 226 277 328
#     4   9  17  31  53  79 106 138 175 222 278 330
#     4  12  23  35  57  87 112 144 187 231 276 326
#     4  11  23  40  57  79 112 151 189 230 278 327
#     4  10  19  37  58  77 107 147 184 225 281 331
#     4  10  19  35  57  83 114 145 181 227 277 327
#     4   9  18  32  52  76 108 146 182 222 270 324
#
# _framework density 17.877362999999999
#
# number of rings (size 3 to 8) (size 9 to 14) (size 15 to 20)
#    0.000    2.000    2.500    1.875    0.000    3.500 
#    0.000    2.500    0.000    0.750    0.000    5.250 
#    0.000    0.000    0.000    0.000    0.000    0.000 
#
# Total GULP energy -793677.484618 kJ/mol
# GULP energy per Si atom -12401.210697 kJ/mol
# Density = 1.783667 g / cm^3
# Si number density = 17.877363 Si / 1000 Ang^3
#
#
#
# Elastic Constant Matrix: (Units=GPa)
#
#
# Indices 1 2 3 4 5 6 
#
# 1 121.7415 46.6876 56.5009 0.0000 0.0000 0.0000
# 2 46.6876 85.9807 44.8995 0.0000 0.0000 0.0000
# 3 56.5009 44.8995 76.4041 0.0000 0.0000 0.0000
# 4 0.0000 0.0000 0.0000 25.4238 0.0000 0.0000
# 5 0.0000 0.0000 0.0000 0.0000 31.6278 0.0000
# 6 0.0000 0.0000 0.0000 0.0000 0.0000 -230.1121
#
#
#
# Elastic Compliance Matrix: (Units=1/GPa)
#
#
# Indices 1 2 3 4 5 6 
#
# 1 0.013003 -0.002942 -0.007886 0.000000 0.000000 0.000000
# 2 -0.002942 0.017446 -0.008076 0.000000 0.000000 0.000000
# 3 -0.007886 -0.008076 0.023667 0.000000 0.000000 0.000000
# 4 0.000000 0.000000 0.000000 0.039333 0.000000 0.000000
# 5 0.000000 0.000000 0.000000 0.000000 0.031618 0.000000
# 6 0.000000 0.000000 0.000000 0.000000 0.000000 -0.004346
#
#
# Mechanical properties :
#
#
# Convention : Reuss Voigt Hill
#
# Bulk Modulus (GPa) = 61.33158 64.47804 62.90481
# Shear Modulus (GPa) = 30.49435 -25.54287 2.47574
#
# Velocity S-wave (km/s) = 4.13456 -3.78403 1.17807
# Velocity P-wave (km/s) = 7.56135 4.12957 6.09210
#
# Compressibility (1/GPa) = 0.01630481
#
# Stress axis : x y z
#
# Youngs Moduli (GPa) = 76.90797 57.32107 42.25370
#
# Poissons Ratio (x) = 0.16864 0.33323
# Poissons Ratio (y) = 0.22627 0.34126
# Poissons Ratio (z) = 0.60653 0.46295
#
# Static dielectric constant tensor:
#      x y z
#    x 3.534800 0.000000 0.000000 
#    y 0.000000 3.166540 0.000000 
#    z 0.000000 0.000000 3.273870 
# 
# 
# High freq. dielectric constant tensor:
#      x y z
#    x 1.699520 0.000000 0.000000 
#    y 0.000000 1.666130 0.000000 
#    z 0.000000 0.000000 1.690940 
# 
# From -- ./inp_files/5257.got.cif
#   From: 2010.03.12/outbox.cif.g09.slc.cpg/sg49_3_cif.got.tgz:5257.got - 2010.04.14 03:58:27.
