data_PCOD8203556
_publ_section_title
;
Structure prediction by ZEFSAII (Michael W. Deem and Ramdas Pophale) SiO2 
 PCOD8203556
Probable space group: P C C M
;
_chemical_formula_sum "Si O2"
_cell_formula_units_Z 58
_cell_length_a 14.613876
_cell_length_b 24.988286
_cell_length_c 8.902292
_cell_angle_alpha 90.000000
_cell_angle_beta 90.000000
_cell_angle_gamma 90.000000
_cell_volume 3250.900829
_symmetry_space_group_name_H-M "P C C M"
_symmetry_group_IT_number 49
_symmetry_cell_setting 'orthorhombic'
loop_
_space_group_symop_operation_xyz
x,y,z
-x,-y,z
x,-y,1/2-z
-x,y,1/2-z
-x,-y,-z
x,y,-z
-x,y,1/2+z
x,-y,1/2+z
loop_
_atom_site_type_symbol
_atom_site_label
_atom_site_fract_x
_atom_site_fract_y
_atom_site_fract_z
Si Si1 0.268824 0.246755 0.674301
Si Si2 0.587671 0.844180 0.673492
Si Si3 0.859227 0.914207 0.833352
Si Si4 0.402254 0.549739 0.327046
Si Si5 0.335924 0.945711 0.678521
Si Si6 0.599452 0.668796 0.824610
Si Si7 0.906493 0.201999 0.679110
Si Si8 0.000000 0.000000 0.250000
O O1 0.250047 0.259214 0.500000
O O2 0.323592 0.191856 0.694967
O O3 0.326350 0.294512 0.745058
O O4 0.174058 0.240358 0.762770
O O5 0.500000 0.815027 0.750000
O O6 0.567962 0.856000 0.500000
O O7 0.599389 0.898747 0.764936
O O8 0.767039 0.935926 0.755155
O O9 0.893502 0.859035 0.757125
O O10 0.830525 0.897466 0.000000
O O11 0.935947 0.960489 0.845540
O O12 0.346037 0.500000 0.250000
O O13 0.500000 0.552006 0.250000
O O14 0.413243 0.535730 0.500000
O O15 0.359448 0.608673 0.304336
O O16 0.338608 0.950222 0.500000
O O17 0.373889 0.000000 0.750000
O O18 0.500000 0.676038 0.750000
O O19 0.589560 0.683608 0.000000
O O20 0.912252 0.204633 0.500000
O O21 0.000000 0.224237 0.750000
#
# Coordination Sequence:
#
# PCOD8203556 Si02
#       8
#     8   8   8   8   8   8   8   2
#     4  11  23  38  57  81 107 141 180 223 272 321
#     4  11  24  40  58  80 102 132 170 214 261 314
#     4  10  21  33  51  76 103 131 157 195 249 308
#     4   9  16  26  43  69 104 147 191 230 273 315
#     4  11  22  39  57  77 101 129 162 202 254 309
#     4  10  20  33  51  78 112 151 192 235 275 321
#     4  11  22  39  58  80 106 137 173 213 264 321
#     4  12  18  36  52  82 106 128 162 200 256 320
#
# _framework density 17.841208999999999
#
# number of rings (size 3 to 8) (size 9 to 14) (size 15 to 20)
#    0.000    1.517    2.759    3.517    0.000    4.690 
#    0.000    1.379    0.000    0.000    0.000    0.000 
#    0.000    0.552    0.000    5.793    0.000    3.172 
#
# Total GULP energy -718964.140595 kJ/mol
# GULP energy per Si atom -12395.933459 kJ/mol
# Density = 1.780060 g / cm^3
# Si number density = 17.841209 Si / 1000 Ang^3
#
#
#
# Elastic Constant Matrix: (Units=GPa)
#
#
# Indices 1 2 3 4 5 6 
#
# 1 88.8524 33.5029 42.9341 0.0000 0.0000 0.0000
# 2 33.5029 102.3194 52.1095 0.0000 0.0000 0.0000
# 3 42.9341 52.1095 122.6266 0.0000 0.0000 0.0000
# 4 0.0000 0.0000 0.0000 27.8175 0.0000 0.0000
# 5 0.0000 0.0000 0.0000 0.0000 26.5343 0.0000
# 6 0.0000 0.0000 0.0000 0.0000 0.0000 5.6662
#
#
#
# Elastic Compliance Matrix: (Units=1/GPa)
#
#
# Indices 1 2 3 4 5 6 
#
# 1 0.014101 -0.002684 -0.003797 0.000000 0.000000 0.000000
# 2 -0.002684 0.012983 -0.004578 0.000000 0.000000 0.000000
# 3 -0.003797 -0.004578 0.011429 0.000000 0.000000 0.000000
# 4 0.000000 0.000000 0.000000 0.035949 0.000000 0.000000
# 5 0.000000 0.000000 0.000000 0.000000 0.037687 0.000000
# 6 0.000000 0.000000 0.000000 0.000000 0.000000 0.176484
#
#
# Mechanical properties :
#
#
# Convention : Reuss Voigt Hill
#
# Bulk Modulus (GPa) = 60.98316 63.43240 62.20778
# Shear Modulus (GPa) = 15.81203 24.35373 20.08288
#
# Velocity S-wave (km/s) = 2.98025 3.69864 3.35870
# Velocity P-wave (km/s) = 6.78953 7.33968 7.06996
#
# Compressibility (1/GPa) = 0.01639797
#
# Stress axis : x y z
#
# Youngs Moduli (GPa) = 70.91640 77.02199 87.49386
#
# Poissons Ratio (x) = 0.20670 0.33219
# Poissons Ratio (y) = 0.19031 0.40051
# Poissons Ratio (z) = 0.26925 0.35258
#
# Static dielectric constant tensor:
#      x y z
#    x 3.166780 0.000000 0.000000 
#    y 0.000000 3.766280 0.000000 
#    z 0.000000 0.000000 3.316630 
# 
# 
# High freq. dielectric constant tensor:
#      x y z
#    x 1.667260 0.000000 0.000000 
#    y 0.000000 1.680320 0.000000 
#    z 0.000000 0.000000 1.699290 
# 
# From -- ./inp_files/4277.got.cif
#   From: 2010.03.12/outbox.cif.g09.slc.cpg/sg49_3_cif.got.tgz:4277.got - 2010.04.14 03:58:27.
