data_PCOD8203728
_publ_section_title
;
Structure prediction by ZEFSAII (Michael W. Deem and Ramdas Pophale) SiO2 
 PCOD8203728
Probable space group: P C C M
;
_chemical_formula_sum "Si O2"
_cell_formula_units_Z 48
_cell_length_a 13.705658
_cell_length_b 23.721995
_cell_length_c 8.569899
_cell_angle_alpha 90.000000
_cell_angle_beta 90.000000
_cell_angle_gamma 90.000000
_cell_volume 2786.293131
_symmetry_space_group_name_H-M "P C C M"
_symmetry_group_IT_number 49
_symmetry_cell_setting 'orthorhombic'
loop_
_space_group_symop_operation_xyz
x,y,z
-x,-y,z
x,-y,1/2-z
-x,y,1/2-z
-x,-y,-z
x,y,-z
-x,y,1/2+z
x,-y,1/2+z
loop_
_atom_site_type_symbol
_atom_site_label
_atom_site_fract_x
_atom_site_fract_y
_atom_site_fract_z
Si Si1 0.103249 0.727838 0.317940
Si Si2 0.605077 0.773958 0.685336
Si Si3 0.295570 0.334072 0.184536
Si Si4 0.605307 0.439601 0.184824
Si Si5 0.214829 0.163289 0.185596
Si Si6 0.104443 0.060664 0.684391
O O1 0.090734 0.731430 0.500000
O O2 0.184158 0.681446 0.272187
O O3 0.138154 0.789019 0.256648
O O4 0.000000 0.709420 0.250000
O O5 0.500000 0.790775 0.750000
O O6 0.606977 0.775976 0.500000
O O7 0.631197 0.711302 0.742410
O O8 0.678456 0.820096 0.755145
O O9 0.315168 0.394768 0.258705
O O10 0.312667 0.334867 0.000000
O O11 0.637995 0.500000 0.250000
O O12 0.500000 0.421798 0.250000
O O13 0.600212 0.442132 0.000000
O O14 0.186503 0.104377 0.262758
O O15 0.216072 0.158095 0.000000
O O16 0.097706 0.057513 0.500000
O O17 0.000000 0.080219 0.750000
O O18 0.134730 0.000000 0.750000
#
# Coordination Sequence:
#
# PCOD8203728 Si02
#       6
#     8   8   8   8   8   8
#     4   9  19  32  50  73 101 132 164 202 247 294
#     4  11  21  34  52  76 103 135 170 208 252 301
#     4  10  20  35  51  73 103 135 168 207 250 297
#     4  11  21  34  52  75 101 132 165 204 249 299
#     4  10  20  35  52  75 104 135 169 210 254 302
#     4  11  21  34  52  76 104 137 172 211 255 303
#
# _framework density 17.227188000000002
#
# number of rings (size 3 to 8) (size 9 to 14) (size 15 to 20)
#    0.000    1.667    0.000    8.500    0.000    5.333 
#    0.000    0.000    0.000    1.000    0.000    7.000 
#    0.000    0.000    0.000    0.000    0.000    0.000 
#
# Total GULP energy -595358.630200 kJ/mol
# GULP energy per Si atom -12403.304796 kJ/mol
# Density = 1.718798 g / cm^3
# Si number density = 17.227188 Si / 1000 Ang^3
#
#
#
# Elastic Constant Matrix: (Units=GPa)
#
#
# Indices 1 2 3 4 5 6 
#
# 1 119.2688 66.9885 40.5591 0.0000 0.0000 0.0000
# 2 66.9885 120.0344 48.2887 0.0000 0.0000 0.0000
# 3 40.5591 48.2887 122.6478 0.0000 0.0000 0.0000
# 4 0.0000 0.0000 0.0000 30.7268 0.0000 0.0000
# 5 0.0000 0.0000 0.0000 0.0000 30.7188 0.0000
# 6 0.0000 0.0000 0.0000 0.0000 0.0000 24.4495
#
#
#
# Elastic Compliance Matrix: (Units=1/GPa)
#
#
# Indices 1 2 3 4 5 6 
#
# 1 0.012486 -0.006306 -0.001646 0.000000 0.000000 0.000000
# 2 -0.006306 0.013083 -0.003066 0.000000 0.000000 0.000000
# 3 -0.001646 -0.003066 0.009905 0.000000 0.000000 0.000000
# 4 0.000000 0.000000 0.000000 0.032545 0.000000 0.000000
# 5 0.000000 0.000000 0.000000 0.000000 0.032553 0.000000
# 6 0.000000 0.000000 0.000000 0.000000 0.000000 0.040901
#
#
# Mechanical properties :
#
#
# Convention : Reuss Voigt Hill
#
# Bulk Modulus (GPa) = 74.41422 74.84707 74.63065
# Shear Modulus (GPa) = 29.76385 30.91999 30.34192
#
# Velocity S-wave (km/s) = 4.16110 4.24115 4.20131
# Velocity P-wave (km/s) = 8.14714 8.21733 8.18231
#
# Compressibility (1/GPa) = 0.01343829
#
# Stress axis : x y z
#
# Youngs Moduli (GPa) = 80.08945 76.43222 100.95944
#
# Poissons Ratio (x) = 0.48197 0.16621
# Poissons Ratio (y) = 0.50503 0.30953
# Poissons Ratio (z) = 0.13185 0.23433
#
# Static dielectric constant tensor:
#      x y z
#    x 3.468100 0.000000 0.000000 
#    y 0.000000 3.117010 0.000000 
#    z 0.000000 0.000000 3.334570 
# 
# 
# High freq. dielectric constant tensor:
#      x y z
#    x 1.655880 0.000000 0.000000 
#    y 0.000000 1.657850 0.000000 
#    z 0.000000 0.000000 1.685440 
# 
# From -- ./inp_files/2901.got.cif
#   From: 2010.03.12/outbox.cif.g09.slc.cpg/sg49_2_cif.got.tgz:2901.got - 2010.04.14 03:58:27.
