data_PCOD8203863
_publ_section_title
;
Structure prediction by ZEFSAII (Michael W. Deem and Ramdas Pophale) SiO2 
 PCOD8203863
Probable space group: P C C M
;
_chemical_formula_sum "Si O2"
_cell_formula_units_Z 54
_cell_length_a 5.383269
_cell_length_b 29.162030
_cell_length_c 14.552964
_cell_angle_alpha 90.000000
_cell_angle_beta 90.000000
_cell_angle_gamma 90.000000
_cell_volume 2284.626917
_symmetry_space_group_name_H-M "P C C M"
_symmetry_group_IT_number 49
_symmetry_cell_setting 'orthorhombic'
loop_
_space_group_symop_operation_xyz
x,y,z
-x,-y,z
x,-y,1/2-z
-x,y,1/2-z
-x,-y,-z
x,y,-z
-x,y,1/2+z
x,-y,1/2+z
loop_
_atom_site_type_symbol
_atom_site_label
_atom_site_fract_x
_atom_site_fract_y
_atom_site_fract_z
Si Si1 0.664016 0.927683 0.111618
Si Si2 0.507466 0.448092 0.640836
Si Si3 0.988986 0.599820 0.641635
Si Si4 0.836476 0.119875 0.897693
Si Si5 0.500000 0.000000 0.750000
Si Si6 0.123536 0.779311 0.155331
Si Si7 0.835171 0.306460 0.401354
Si Si8 0.500000 0.719654 0.250000
O O1 0.415143 0.900818 0.145773
O O2 0.902934 0.897861 0.144474
O O3 0.673858 0.972134 0.177556
O O4 0.665286 0.938047 0.000000
O O5 0.500000 0.500000 0.604305
O O6 0.500000 0.446881 0.750000
O O7 0.258652 0.423885 0.601876
O O8 0.756999 0.423316 0.602516
O O9 0.000000 0.595519 0.750000
O O10 0.966234 0.652624 0.607734
O O11 0.822303 0.174933 0.900763
O O12 0.836502 0.101070 0.000000
O O13 0.375061 0.752301 0.175042
O O14 0.000000 0.794920 0.250000
O O15 0.951351 0.744314 0.099692
O O16 0.695961 0.310307 0.500000
O O17 0.669523 0.313881 0.310330
#
# Coordination Sequence:
#
# PCOD8203863 Si02
#       8
#     8   8   8   8   2   8   8   4
#     4  10  25  44  66 100 135 173 225 277 336 406
#     4   9  18  33  58  91 125 168 218 276 345 410
#     4  10  20  35  61  90 128 170 218 286 335 403
#     4  10  23  43  66  96 138 177 217 275 334 400
#     4  12  26  44  76  96 132 182 222 284 344 400
#     4  10  23  40  65  93 133 173 225 279 336 403
#     4  11  25  42  64  96 135 183 233 280 349 416
#     4  10  24  43  64  98 135 181 230 293 334 404
#
# _framework density 23.636244000000001
#
# number of rings (size 3 to 8) (size 9 to 14) (size 15 to 20)
#    0.000    1.926    0.000    2.444   11.407    4.148 
#    0.000    2.222    0.000    2.667    0.000    0.000 
#    0.000    0.000    0.000    0.000    0.000    0.000 
#
# Total GULP energy -669102.525721 kJ/mol
# GULP energy per Si atom -12390.787513 kJ/mol
# Density = 2.358245 g / cm^3
# Si number density = 23.636244 Si / 1000 Ang^3
#
#
#
# Elastic Constant Matrix: (Units=GPa)
#
#
# Indices 1 2 3 4 5 6 
#
# 1 170.2693 62.8986 36.8830 0.0000 0.0000 0.0000
# 2 62.8986 144.8121 42.6271 0.0000 0.0000 0.0000
# 3 36.8830 42.6271 82.5315 0.0000 0.0000 0.0000
# 4 0.0000 0.0000 0.0000 57.1295 0.0000 0.0000
# 5 0.0000 0.0000 0.0000 0.0000 -1.3058 0.0000
# 6 0.0000 0.0000 0.0000 0.0000 0.0000 27.1216
#
#
#
# Elastic Compliance Matrix: (Units=1/GPa)
#
#
# Indices 1 2 3 4 5 6 
#
# 1 0.007240 -0.002585 -0.001900 0.000000 0.000000 0.000000
# 2 -0.002585 0.009067 -0.003528 0.000000 0.000000 0.000000
# 3 -0.001900 -0.003528 0.014788 0.000000 0.000000 0.000000
# 4 0.000000 0.000000 0.000000 0.017504 0.000000 0.000000
# 5 0.000000 0.000000 0.000000 0.000000 -0.765829 0.000000
# 6 0.000000 0.000000 0.000000 0.000000 0.000000 0.036871
#
#
# Mechanical properties :
#
#
# Convention : Reuss Voigt Hill
#
# Bulk Modulus (GPa) = 66.36467 75.82560 71.09514
# Shear Modulus (GPa) = -7.58367 33.60268 13.00950
#
# Velocity S-wave (km/s) = -1.79317 3.77458 2.34862
# Velocity P-wave (km/s) = 4.88377 7.15168 6.12363
#
# Compressibility (1/GPa) = 0.01506826
#
# Stress axis : x y z
#
# Youngs Moduli (GPa) = 138.12860 110.29287 67.62356
#
# Poissons Ratio (x) = 0.28513 0.12849
# Poissons Ratio (y) = 0.35709 0.23855
# Poissons Ratio (z) = 0.26246 0.38907
#
# Static dielectric constant tensor:
#      x y z
#    x 4.511570 0.000000 0.000000 
#    y 0.000000 4.104990 0.000000 
#    z 0.000000 0.000000 3.680830 
# 
# 
# High freq. dielectric constant tensor:
#      x y z
#    x 1.931520 0.000000 0.000000 
#    y 0.000000 1.936340 0.000000 
#    z 0.000000 0.000000 1.931900 
# 
# From -- ./inp_files/10784.got.cif
#   From: 2010.03.12/outbox.cif.g09.slc.cpg/sg49_6_cif.got.tgz:10784.got - 2010.04.14 03:58:27.
