data_PCOD8203452
_publ_section_title
;
Structure prediction by ZEFSAII (Michael W. Deem and Ramdas Pophale) SiO2 
 PCOD8203452
Probable space group: P C C M
;
_chemical_formula_sum "Si O2"
_cell_formula_units_Z 64
_cell_length_a 28.144285
_cell_length_b 14.523174
_cell_length_c 8.856150
_cell_angle_alpha 90.000000
_cell_angle_beta 90.000000
_cell_angle_gamma 90.000000
_cell_volume 3619.901259
_symmetry_space_group_name_H-M "P C C M"
_symmetry_group_IT_number 49
_symmetry_cell_setting 'orthorhombic'
loop_
_space_group_symop_operation_xyz
x,y,z
-x,-y,z
x,-y,1/2-z
-x,y,1/2-z
-x,-y,-z
x,y,-z
-x,y,1/2+z
x,-y,1/2+z
loop_
_atom_site_type_symbol
_atom_site_label
_atom_site_fract_x
_atom_site_fract_y
_atom_site_fract_z
Si Si1 0.455276 0.599195 0.824695
Si Si2 0.350149 0.400534 0.324160
Si Si3 0.731146 0.711774 0.824008
Si Si4 0.768823 0.090233 0.678264
Si Si5 0.920016 0.407629 0.178780
Si Si6 0.048943 0.782072 0.319843
Si Si7 0.138840 0.852533 0.831407
Si Si8 0.180338 0.650608 0.164897
O O1 0.454267 0.500000 0.750000
O O2 0.500000 0.655352 0.750000
O O3 0.403043 0.641429 0.793841
O O4 0.465754 0.590315 0.000000
O O5 0.341881 0.500000 0.250000
O O6 0.341028 0.414888 0.500000
O O7 0.315016 0.323645 0.261359
O O8 0.740773 0.817226 0.772996
O O9 0.776484 0.647564 0.783727
O O10 0.721785 0.704143 0.000000
O O11 0.770134 0.081628 0.500000
O O12 0.822506 0.088680 0.740719
O O13 0.743053 0.000000 0.750000
O O14 0.942725 0.500000 0.250000
O O15 0.943568 0.321716 0.262033
O O16 0.863317 0.414047 0.213775
O O17 0.930011 0.400260 0.000000
O O18 0.047682 0.782805 0.500000
O O19 0.089736 0.851414 0.261454
O O20 0.000000 0.819651 0.250000
O O21 0.157827 0.750394 0.845759
O O22 0.130984 0.893584 0.000000
O O23 0.200523 0.622073 0.000000
#
# Coordination Sequence:
#
# PCOD8203452 Si02
#       8
#     8   8   8   8   8   8   8   8
#     4   9  16  26  42  63  87 121 164 210 254 296
#     4  10  20  32  46  66  96 134 174 211 252 296
#     4  10  20  32  48  71 100 131 166 205 246 291
#     4  10  20  34  54  80 105 132 164 200 243 292
#     4  10  20  33  47  65  87 115 152 194 238 283
#     4  11  21  34  51  70  92 119 151 188 232 284
#     4   9  17  32  52  73  95 119 148 184 225 273
#     4   8  16  30  46  62  85 116 149 185 228 276
#
# _framework density 17.680040000000002
#
# number of rings (size 3 to 8) (size 9 to 14) (size 15 to 20)
#    0.000    2.375    0.000    4.500    0.000    7.250 
#    0.000    2.500    0.000    0.375    0.000    2.625 
#    0.000    0.500    0.000    5.500    0.000    4.000 
#
# Total GULP energy -793177.702759 kJ/mol
# GULP energy per Si atom -12393.401606 kJ/mol
# Density = 1.763980 g / cm^3
# Si number density = 17.680040 Si / 1000 Ang^3
#
#
#
# Elastic Constant Matrix: (Units=GPa)
#
#
# Indices 1 2 3 4 5 6 
#
# 1 120.5837 28.8666 62.5383 0.0000 0.0000 0.0000
# 2 28.8666 53.5607 31.4384 0.0000 0.0000 0.0000
# 3 62.5383 31.4384 123.0013 0.0000 0.0000 0.0000
# 4 0.0000 0.0000 0.0000 22.9424 0.0000 0.0000
# 5 0.0000 0.0000 0.0000 0.0000 23.5902 0.0000
# 6 0.0000 0.0000 0.0000 0.0000 0.0000 11.6491
#
#
#
# Elastic Compliance Matrix: (Units=1/GPa)
#
#
# Indices 1 2 3 4 5 6 
#
# 1 0.011745 -0.003324 -0.005122 0.000000 0.000000 0.000000
# 2 -0.003324 0.022906 -0.004165 0.000000 0.000000 0.000000
# 3 -0.005122 -0.004165 0.011799 0.000000 0.000000 0.000000
# 4 0.000000 0.000000 0.000000 0.043587 0.000000 0.000000
# 5 0.000000 0.000000 0.000000 0.000000 0.042390 0.000000
# 6 0.000000 0.000000 0.000000 0.000000 0.000000 0.085844
#
#
# Mechanical properties :
#
#
# Convention : Reuss Voigt Hill
#
# Bulk Modulus (GPa) = 47.10531 60.31471 53.71001
# Shear Modulus (GPa) = 19.95455 23.25650 21.60553
#
# Velocity S-wave (km/s) = 3.36318 3.63079 3.49955
# Velocity P-wave (km/s) = 6.46393 7.19483 6.83915
#
# Compressibility (1/GPa) = 0.02122903
#
# Stress axis : x y z
#
# Youngs Moduli (GPa) = 85.14169 43.65617 84.75425
#
# Poissons Ratio (x) = 0.14509 0.43413
# Poissons Ratio (y) = 0.28297 0.35299
# Poissons Ratio (z) = 0.43611 0.18182
#
# Static dielectric constant tensor:
#      x y z
#    x 3.901380 0.000000 0.000000 
#    y 0.000000 3.068290 0.000000 
#    z 0.000000 0.000000 3.432830 
# 
# 
# High freq. dielectric constant tensor:
#      x y z
#    x 1.674440 0.000000 0.000000 
#    y 0.000000 1.644990 0.000000 
#    z 0.000000 0.000000 1.702020 
# 
# From -- ./inp_files/7040.got.cif
#   From: 2010.03.12/outbox.cif.g09.slc.cpg/sg49_4_cif.got.tgz:7040.got - 2010.04.14 03:58:27.
