data_PCOD8203543
_publ_section_title
;
Structure prediction by ZEFSAII (Michael W. Deem and Ramdas Pophale) SiO2 
 PCOD8203543
Probable space group: P C C M
;
_chemical_formula_sum "Si O2"
_cell_formula_units_Z 40
_cell_length_a 13.746432
_cell_length_b 18.522302
_cell_length_c 8.684458
_cell_angle_alpha 90.000000
_cell_angle_beta 90.000000
_cell_angle_gamma 90.000000
_cell_volume 2211.198180
_symmetry_space_group_name_H-M "P C C M"
_symmetry_group_IT_number 49
_symmetry_cell_setting 'orthorhombic'
loop_
_space_group_symop_operation_xyz
x,y,z
-x,-y,z
x,-y,1/2-z
-x,y,1/2-z
-x,-y,-z
x,y,-z
-x,y,1/2+z
x,-y,1/2+z
loop_
_atom_site_type_symbol
_atom_site_label
_atom_site_fract_x
_atom_site_fract_y
_atom_site_fract_z
Si Si1 0.282103 0.204820 0.318939
Si Si2 0.218507 0.574449 0.680453
Si Si3 0.605321 0.651809 0.319305
Si Si4 0.105657 0.716956 0.681690
Si Si5 0.603145 0.077192 0.317787
O O1 0.280883 0.189834 0.500000
O O2 0.355972 0.268960 0.274459
O O3 0.174565 0.224177 0.261498
O O4 0.314476 0.133603 0.229299
O O5 0.177893 0.500000 0.750000
O O6 0.230341 0.566570 0.500000
O O7 0.323888 0.591334 0.750748
O O8 0.142030 0.636749 0.724921
O O9 0.500000 0.640080 0.250000
O O10 0.600964 0.641019 0.500000
O O11 0.105877 0.729676 0.500000
O O12 0.000000 0.728618 0.750000
O O13 0.500000 0.103089 0.250000
O O14 0.594229 0.071666 0.500000
O O15 0.633307 0.000000 0.250000
#
# Coordination Sequence:
#
# PCOD8203543 Si02
#       5
#     8   8   8   8   8
#     4  10  20  35  55  79 107 139 175 218 263 310
#     4  10  21  36  53  74 102 133 170 214 262 313
#     4  10  20  33  51  74 102 136 174 213 256 307
#     4  10  21  37  57  80 104 134 172 217 265 315
#     4  11  21  34  53  80 114 149 183 217 256 304
#
# _framework density 18.089739999999999
#
# number of rings (size 3 to 8) (size 9 to 14) (size 15 to 20)
#    0.000    1.800    0.000    5.400    0.000    7.200 
#    0.000    4.000    0.000    0.600    0.000    4.200 
#    0.000    0.000    0.000    0.000    0.000    0.000 
#
# Total GULP energy -496215.863515 kJ/mol
# GULP energy per Si atom -12405.396588 kJ/mol
# Density = 1.804857 g / cm^3
# Si number density = 18.089740 Si / 1000 Ang^3
#
#
#
# Elastic Constant Matrix: (Units=GPa)
#
#
# Indices 1 2 3 4 5 6 
#
# 1 110.2629 49.1239 38.6630 0.0000 0.0000 0.0000
# 2 49.1239 105.7914 47.3255 0.0000 0.0000 0.0000
# 3 38.6630 47.3255 104.1438 0.0000 0.0000 0.0000
# 4 0.0000 0.0000 0.0000 32.5632 0.0000 0.0000
# 5 0.0000 0.0000 0.0000 0.0000 31.3966 0.0000
# 6 0.0000 0.0000 0.0000 0.0000 0.0000 25.4387
#
#
#
# Elastic Compliance Matrix: (Units=1/GPa)
#
#
# Indices 1 2 3 4 5 6 
#
# 1 0.011891 -0.004452 -0.002392 0.000000 0.000000 0.000000
# 2 -0.004452 0.013531 -0.004496 0.000000 0.000000 0.000000
# 3 -0.002392 -0.004496 0.012533 0.000000 0.000000 0.000000
# 4 0.000000 0.000000 0.000000 0.030710 0.000000 0.000000
# 5 0.000000 0.000000 0.000000 0.000000 0.031851 0.000000
# 6 0.000000 0.000000 0.000000 0.000000 0.000000 0.039310
#
#
# Mechanical properties :
#
#
# Convention : Reuss Voigt Hill
#
# Bulk Modulus (GPa) = 65.46043 65.60256 65.53149
# Shear Modulus (GPa) = 29.83352 30.21873 30.02613
#
# Velocity S-wave (km/s) = 4.06543 4.09160 4.07854
# Velocity P-wave (km/s) = 7.63558 7.65933 7.64746
#
# Compressibility (1/GPa) = 0.01527640
#
# Stress axis : x y z
#
# Youngs Moduli (GPa) = 84.09618 73.90405 79.78850
#
# Poissons Ratio (x) = 0.32900 0.19082
# Poissons Ratio (y) = 0.37438 0.35874
# Poissons Ratio (z) = 0.20112 0.33228
#
# Static dielectric constant tensor:
#      x y z
#    x 3.188490 0.000000 0.000000 
#    y 0.000000 3.358550 0.000000 
#    z 0.000000 0.000000 3.476460 
# 
# 
# High freq. dielectric constant tensor:
#      x y z
#    x 1.691620 0.000000 0.000000 
#    y 0.000000 1.695200 0.000000 
#    z 0.000000 0.000000 1.721970 
# 
# From -- ./inp_files/2662.got.cif
#   From: 2010.03.12/outbox.cif.g09.slc.cpg/sg49_2_cif.got.tgz:2662.got - 2010.04.14 03:58:27.
