data_PCOD8203792
_publ_section_title
;
Structure prediction by ZEFSAII (Michael W. Deem and Ramdas Pophale) SiO2 
 PCOD8203792
Probable space group: P C C M
;
_chemical_formula_sum "Si O2"
_cell_formula_units_Z 48
_cell_length_a 9.123460
_cell_length_b 30.859365
_cell_length_c 8.655043
_cell_angle_alpha 90.000000
_cell_angle_beta 90.000000
_cell_angle_gamma 90.000000
_cell_volume 2436.777003
_symmetry_space_group_name_H-M "P C C M"
_symmetry_group_IT_number 49
_symmetry_cell_setting 'orthorhombic'
loop_
_space_group_symop_operation_xyz
x,y,z
-x,-y,z
x,-y,1/2-z
-x,y,1/2-z
-x,-y,-z
x,y,-z
-x,y,1/2+z
x,-y,1/2+z
loop_
_atom_site_type_symbol
_atom_site_label
_atom_site_fract_x
_atom_site_fract_y
_atom_site_fract_z
Si Si1 0.160260 0.871296 0.818257
Si Si2 0.655570 0.044993 0.820042
Si Si3 0.660420 0.793168 0.182910
Si Si4 0.662159 0.362538 0.318602
Si Si5 0.160403 0.714308 0.182872
Si Si6 0.340469 0.458491 0.178406
O O1 0.227671 0.918085 0.782051
O O2 0.250589 0.835538 0.727620
O O3 0.000000 0.871067 0.750000
O O4 0.159852 0.860638 0.000000
O O5 0.500000 0.058696 0.750000
O O6 0.714594 0.000000 0.750000
O O7 0.632738 0.038360 0.000000
O O8 0.500000 0.798544 0.250000
O O9 0.732407 0.750944 0.255439
O O10 0.654368 0.787934 0.000000
O O11 0.500000 0.356226 0.250000
O O12 0.654024 0.351898 0.500000
O O13 0.777596 0.331871 0.234875
O O14 0.727411 0.411011 0.288937
O O15 0.000000 0.722106 0.250000
O O16 0.151783 0.716588 0.000000
O O17 0.251703 0.500000 0.250000
O O18 0.500000 0.457661 0.250000
O O19 0.354108 0.467557 0.000000
#
# Coordination Sequence:
#
# PCOD8203792 Si02
#       6
#     8   8   8   8   8   8
#     4  11  24  41  61  89 122 159 198 241 292 347
#     4  10  21  37  60  87 118 155 199 246 294 345
#     4  12  25  43  66  91 119 152 191 237 285 341
#     4  10  20  35  55  83 115 150 191 236 284 338
#     4  12  25  42  62  85 115 151 189 234 286 343
#     4   9  16  26  45  73 108 144 183 230 280 331
#
# _framework density 19.698150999999999
#
# number of rings (size 3 to 8) (size 9 to 14) (size 15 to 20)
#    0.000    1.333    0.000    7.500    0.000    6.333 
#    0.000    1.667    0.000    0.500    0.000    3.500 
#    0.000    0.000    0.000    0.000    0.000    0.000 
#
# Total GULP energy -595189.117360 kJ/mol
# GULP energy per Si atom -12399.773278 kJ/mol
# Density = 1.965332 g / cm^3
# Si number density = 19.698151 Si / 1000 Ang^3
#
#
#
# Elastic Constant Matrix: (Units=GPa)
#
#
# Indices 1 2 3 4 5 6 
#
# 1 99.9824 56.0198 42.7837 0.0000 0.0000 0.0000
# 2 56.0198 136.6692 69.6897 0.0000 0.0000 0.0000
# 3 42.7837 69.6897 156.6934 0.0000 0.0000 0.0000
# 4 0.0000 0.0000 0.0000 25.3987 0.0000 0.0000
# 5 0.0000 0.0000 0.0000 0.0000 30.7669 0.0000
# 6 0.0000 0.0000 0.0000 0.0000 0.0000 -38.6049
#
#
#
# Elastic Compliance Matrix: (Units=1/GPa)
#
#
# Indices 1 2 3 4 5 6 
#
# 1 0.013271 -0.004646 -0.001557 0.000000 0.000000 0.000000
# 2 -0.004646 0.011089 -0.003664 0.000000 0.000000 0.000000
# 3 -0.001557 -0.003664 0.008436 0.000000 0.000000 0.000000
# 4 0.000000 0.000000 0.000000 0.039372 0.000000 0.000000
# 5 0.000000 0.000000 0.000000 0.000000 0.032503 0.000000
# 6 0.000000 0.000000 0.000000 0.000000 0.000000 -0.025903
#
#
# Mechanical properties :
#
#
# Convention : Reuss Voigt Hill
#
# Bulk Modulus (GPa) = 76.54763 81.14793 78.84778
# Shear Modulus (GPa) = 48.61185 18.50225 33.55705
#
# Velocity S-wave (km/s) = 4.97312 3.06811 4.13190
# Velocity P-wave (km/s) = 8.48060 7.33731 7.92959
#
# Compressibility (1/GPa) = 0.01306376
#
# Stress axis : x y z
#
# Youngs Moduli (GPa) = 75.35165 90.17768 118.53280
#
# Poissons Ratio (x) = 0.41893 0.18461
# Poissons Ratio (y) = 0.35005 0.43425
# Poissons Ratio (z) = 0.11735 0.33037
#
# Static dielectric constant tensor:
#      x y z
#    x 3.377120 0.000000 0.000000 
#    y 0.000000 4.522800 0.000000 
#    z 0.000000 0.000000 3.336770 
# 
# 
# High freq. dielectric constant tensor:
#      x y z
#    x 1.746020 0.000000 0.000000 
#    y 0.000000 1.794770 0.000000 
#    z 0.000000 0.000000 1.790850 
# 
# From -- ./inp_files/2075.got.cif
#   From: 2010.03.12/outbox.cif.g09.slc.cpg/sg49_2_cif.got.tgz:2075.got - 2010.04.14 03:58:27.
