data_PCOD8203720
_publ_section_title
;
Structure prediction by ZEFSAII (Michael W. Deem and Ramdas Pophale) SiO2 
 PCOD8203720
Probable space group: P C C M
;
_chemical_formula_sum "Si O2"
_cell_formula_units_Z 64
_cell_length_a 23.809088
_cell_length_b 8.469464
_cell_length_c 17.038006
_cell_angle_alpha 90.000000
_cell_angle_beta 90.000000
_cell_angle_gamma 90.000000
_cell_volume 3435.717551
_symmetry_space_group_name_H-M "P C C M"
_symmetry_group_IT_number 49
_symmetry_cell_setting 'orthorhombic'
loop_
_space_group_symop_operation_xyz
x,y,z
-x,-y,z
x,-y,1/2-z
-x,y,1/2-z
-x,-y,-z
x,y,-z
-x,y,1/2+z
x,-y,1/2+z
loop_
_atom_site_type_symbol
_atom_site_label
_atom_site_fract_x
_atom_site_fract_y
_atom_site_fract_z
Si Si1 0.994356 0.813069 0.914089
Si Si2 0.499313 0.321395 0.156815
Si Si3 0.895269 0.109350 0.679558
Si Si4 0.880978 0.807281 0.409355
Si Si5 0.614060 0.806610 0.408700
Si Si6 0.683122 0.320757 0.226397
Si Si7 0.812835 0.320919 0.227498
Si Si8 0.601296 0.893147 0.821950
O O1 0.055519 0.746892 0.889131
O O2 0.945288 0.774912 0.851200
O O3 0.977860 0.744673 0.000000
O O4 0.000000 0.000000 0.920175
O O5 0.500000 0.500000 0.122847
O O6 0.500000 0.328088 0.250000
O O7 0.551251 0.231890 0.118898
O O8 0.443673 0.221796 0.136146
O O9 0.843174 0.212663 0.708112
O O10 0.919049 0.000000 0.750000
O O11 0.874158 0.993654 0.610261
O O12 0.866394 0.781698 0.500000
O O13 0.838125 0.703920 0.358891
O O14 0.622806 0.771954 0.500000
O O15 0.658197 0.700128 0.360861
O O16 0.624684 0.991232 0.389655
O O17 0.672475 0.500000 0.250000
O O18 0.747990 0.273201 0.226469
O O19 0.652662 0.208866 0.288857
O O20 0.821989 0.500000 0.250000
O O21 0.575848 0.000000 0.750000
#
# Coordination Sequence:
#
# PCOD8203720 Si02
#       8
#     8   8   8   8   8   8   8   8
#     4   8  14  27  48  75 106 138 173 216 271 327
#     4  11  20  34  58  86 117 155 190 209 257 329
#     4   9  17  29  51  79 105 135 181 229 264 315
#     4   9  18  33  54  79 107 142 179 221 276 327
#     4  11  24  37  58  91 117 139 179 234 279 312
#     4  10  21  41  62  76 100 151 194 221 266 337
#     4  10  22  37  54  78 108 141 185 228 270 322
#     4  10  20  34  58  83 111 147 180 221 269 326
#
# _framework density 18.627842000000001
#
# number of rings (size 3 to 8) (size 9 to 14) (size 15 to 20)
#    0.000    2.250    2.500    2.250    0.000   12.000 
#    0.000    4.375    0.000    4.500    0.000    0.000 
#    0.000    0.000    0.000    0.000    0.000    0.000 
#
# Total GULP energy -793343.268752 kJ/mol
# GULP energy per Si atom -12395.988574 kJ/mol
# Density = 1.858544 g / cm^3
# Si number density = 18.627842 Si / 1000 Ang^3
#
#
#
# Elastic Constant Matrix: (Units=GPa)
#
#
# Indices 1 2 3 4 5 6 
#
# 1 149.9814 68.3551 78.2254 0.0000 0.0000 0.0000
# 2 68.3551 80.0495 47.5149 0.0000 0.0000 0.0000
# 3 78.2254 47.5149 112.6494 0.0000 0.0000 0.0000
# 4 0.0000 0.0000 0.0000 14.0178 0.0000 0.0000
# 5 0.0000 0.0000 0.0000 0.0000 12.2560 0.0000
# 6 0.0000 0.0000 0.0000 0.0000 0.0000 24.7630
#
#
#
# Elastic Compliance Matrix: (Units=1/GPa)
#
#
# Indices 1 2 3 4 5 6 
#
# 1 0.013365 -0.007875 -0.005959 0.000000 0.000000 0.000000
# 2 -0.007875 0.021305 -0.003518 0.000000 0.000000 0.000000
# 3 -0.005959 -0.003518 0.014499 0.000000 0.000000 0.000000
# 4 0.000000 0.000000 0.000000 0.071338 0.000000 0.000000
# 5 0.000000 0.000000 0.000000 0.000000 0.081593 0.000000
# 6 0.000000 0.000000 0.000000 0.000000 0.000000 0.040383
#
#
# Mechanical properties :
#
#
# Convention : Reuss Voigt Hill
#
# Bulk Modulus (GPa) = 69.13299 81.20789 75.17044
# Shear Modulus (GPa) = 17.73008 20.11303 18.92155
#
# Velocity S-wave (km/s) = 3.08848 3.28949 3.19057
# Velocity P-wave (km/s) = 7.06481 7.62346 7.34945
#
# Compressibility (1/GPa) = 0.01446487
#
# Stress axis : x y z
#
# Youngs Moduli (GPa) = 74.82440 46.93748 68.97144
#
# Poissons Ratio (x) = 0.36964 0.41099
# Poissons Ratio (y) = 0.58926 0.24262
# Poissons Ratio (z) = 0.44587 0.16511
#
# Static dielectric constant tensor:
#      x y z
#    x 3.550540 0.000000 0.000000 
#    y 0.000000 3.509310 0.000000 
#    z 0.000000 0.000000 3.219990 
# 
# 
# High freq. dielectric constant tensor:
#      x y z
#    x 1.718680 0.000000 0.000000 
#    y 0.000000 1.710890 0.000000 
#    z 0.000000 0.000000 1.710850 
# 
# From -- ./inp_files/18384.got.cif
#   From: 2010.03.12/outbox.cif.g09.slc.cpg/sg49_10_cif.got.tgz:18384.got - 2010.04.14 03:58:27.
