data_PCOD8203304
_publ_section_title
;
Structure prediction by ZEFSAII (Michael W. Deem and Ramdas Pophale) SiO2 
 PCOD8203304
Probable space group: P C C M
;
_chemical_formula_sum "Si O2"
_cell_formula_units_Z 64
_cell_length_a 25.471872
_cell_length_b 14.338009
_cell_length_c 8.828812
_cell_angle_alpha 90.000000
_cell_angle_beta 90.000000
_cell_angle_gamma 90.000000
_cell_volume 3224.422785
_symmetry_space_group_name_H-M "P C C M"
_symmetry_group_IT_number 49
_symmetry_cell_setting 'orthorhombic'
loop_
_space_group_symop_operation_xyz
x,y,z
-x,-y,z
x,-y,1/2-z
-x,y,1/2-z
-x,-y,-z
x,y,-z
-x,y,1/2+z
x,-y,1/2+z
loop_
_atom_site_type_symbol
_atom_site_label
_atom_site_fract_x
_atom_site_fract_y
_atom_site_fract_z
Si Si1 0.556724 0.588166 0.824231
Si Si2 0.252687 0.224541 0.677101
Si Si3 0.154573 0.899266 0.179331
Si Si4 0.054120 0.212915 0.322762
Si Si5 0.783631 0.595623 0.820334
Si Si6 0.649167 0.097353 0.177530
Si Si7 0.103132 0.594295 0.178964
Si Si8 0.443012 0.794050 0.322673
O O1 0.588544 0.500000 0.750000
O O2 0.500000 0.590725 0.750000
O O3 0.581718 0.690235 0.793944
O O4 0.551365 0.567819 0.000000
O O5 0.247641 0.247793 0.500000
O O6 0.203678 0.162609 0.732384
O O7 0.254289 0.320301 0.771421
O O8 0.305953 0.171385 0.716516
O O9 0.101416 0.850717 0.240138
O O10 0.160396 0.000000 0.250000
O O11 0.153975 0.908742 0.000000
O O12 0.049320 0.199068 0.500000
O O13 0.064417 0.320981 0.281803
O O14 0.000000 0.178972 0.250000
O O15 0.760969 0.500000 0.750000
O O16 0.841073 0.615936 0.753753
O O17 0.786258 0.586757 0.000000
O O18 0.594491 0.130416 0.247583
O O19 0.666294 0.000000 0.250000
O O20 0.642071 0.083764 0.000000
O O21 0.078639 0.500000 0.250000
O O22 0.111354 0.582584 0.000000
O O23 0.500000 0.804370 0.250000
O O24 0.448098 0.814508 0.500000
#
# Coordination Sequence:
#
# PCOD8203304 Si02
#       8
#     8   8   8   8   8   8   8   8
#     4   9  16  27  48  78 111 149 188 233 279 328
#     4  10  21  41  64  87 120 153 190 239 291 348
#     4  10  21  39  60  83 111 146 189 240 294 348
#     4  10  22  38  56  78 114 153 190 242 293 347
#     4  11  21  34  59  91 121 155 194 236 285 346
#     4  11  24  41  64  90 119 155 193 244 300 351
#     4  10  19  35  56  81 115 152 191 236 288 346
#     4  10  21  38  60  87 122 160 203 248 292 351
#
# _framework density 19.848514000000002
#
# number of rings (size 3 to 8) (size 9 to 14) (size 15 to 20)
#    0.000    1.875    1.250    4.125    0.000    5.250 
#    0.000    4.375    0.000    1.500    0.000    0.000 
#    0.000    0.000    0.000    0.000    0.000    0.000 
#
# Total GULP energy -793587.991461 kJ/mol
# GULP energy per Si atom -12399.812367 kJ/mol
# Density = 1.980334 g / cm^3
# Si number density = 19.848514 Si / 1000 Ang^3
#
#
#
# Elastic Constant Matrix: (Units=GPa)
#
#
# Indices 1 2 3 4 5 6 
#
# 1 93.9248 47.9803 39.8023 0.0000 0.0000 0.0000
# 2 47.9803 126.1725 57.1431 0.0000 0.0000 0.0000
# 3 39.8023 57.1431 103.2633 0.0000 0.0000 0.0000
# 4 0.0000 0.0000 0.0000 39.4263 0.0000 0.0000
# 5 0.0000 0.0000 0.0000 0.0000 24.0645 0.0000
# 6 0.0000 0.0000 0.0000 0.0000 0.0000 19.2602
#
#
#
# Elastic Compliance Matrix: (Units=1/GPa)
#
#
# Indices 1 2 3 4 5 6 
#
# 1 0.013994 -0.003841 -0.003268 0.000000 0.000000 0.000000
# 2 -0.003841 0.011631 -0.004956 0.000000 0.000000 0.000000
# 3 -0.003268 -0.004956 0.013686 0.000000 0.000000 0.000000
# 4 0.000000 0.000000 0.000000 0.025364 0.000000 0.000000
# 5 0.000000 0.000000 0.000000 0.000000 0.041555 0.000000
# 6 0.000000 0.000000 0.000000 0.000000 0.000000 0.051920
#
#
# Mechanical properties :
#
#
# Convention : Reuss Voigt Hill
#
# Bulk Modulus (GPa) = 65.87382 68.13466 67.00424
# Shear Modulus (GPa) = 26.68936 28.44586 27.56761
#
# Velocity S-wave (km/s) = 3.67093 3.78980 3.73084
# Velocity P-wave (km/s) = 7.15737 7.31792 7.23809
#
# Compressibility (1/GPa) = 0.01518054
#
# Stress axis : x y z
#
# Youngs Moduli (GPa) = 71.45853 85.97856 73.06772
#
# Poissons Ratio (x) = 0.33028 0.23880
# Poissons Ratio (y) = 0.27451 0.36209
# Poissons Ratio (z) = 0.23354 0.42607
#
# Static dielectric constant tensor:
#      x y z
#    x 3.413470 0.000000 0.000000 
#    y 0.000000 4.135990 0.000000 
#    z 0.000000 0.000000 3.596580 
# 
# 
# High freq. dielectric constant tensor:
#      x y z
#    x 1.751010 0.000000 0.000000 
#    y 0.000000 1.790880 0.000000 
#    z 0.000000 0.000000 1.777900 
# 
# From -- ./inp_files/6544.got.cif
#   From: 2010.03.12/outbox.cif.g09.slc.cpg/sg49_4_cif.got.tgz:6544.got - 2010.04.14 03:58:27.
