data_PCOD8203411
_publ_section_title
;
Structure prediction by ZEFSAII (Michael W. Deem and Ramdas Pophale) SiO2 
 PCOD8203411
Probable space group: P C C M
;
_chemical_formula_sum "Si O2"
_cell_formula_units_Z 64
_cell_length_a 23.481806
_cell_length_b 15.404724
_cell_length_c 8.629297
_cell_angle_alpha 90.000000
_cell_angle_beta 90.000000
_cell_angle_gamma 90.000000
_cell_volume 3121.481993
_symmetry_space_group_name_H-M "P C C M"
_symmetry_group_IT_number 49
_symmetry_cell_setting 'orthorhombic'
loop_
_space_group_symop_operation_xyz
x,y,z
-x,-y,z
x,-y,1/2-z
-x,y,1/2-z
-x,-y,-z
x,y,-z
-x,y,1/2+z
x,-y,1/2+z
loop_
_atom_site_type_symbol
_atom_site_label
_atom_site_fract_x
_atom_site_fract_y
_atom_site_fract_z
Si Si1 0.620667 0.592299 0.315763
Si Si2 0.937589 0.251417 0.183379
Si Si3 0.860525 0.409711 0.816616
Si Si4 0.369315 0.910118 0.178255
Si Si5 0.129344 0.909252 0.318192
Si Si6 0.439473 0.756407 0.317009
Si Si7 0.244044 0.146717 0.677934
Si Si8 0.741155 0.658257 0.316101
O O1 0.600734 0.500000 0.250000
O O2 0.619140 0.590976 0.500000
O O3 0.577153 0.664383 0.256196
O O4 0.684084 0.613361 0.250914
O O5 0.901030 0.333112 0.244045
O O6 0.908254 0.164607 0.241227
O O7 0.000000 0.260871 0.250000
O O8 0.940234 0.249391 0.000000
O O9 0.883696 0.500000 0.750000
O O10 0.796353 0.393265 0.754440
O O11 0.861211 0.413398 0.000000
O O12 0.394057 0.829476 0.272236
O O13 0.301201 0.908966 0.192746
O O14 0.392242 0.000000 0.250000
O O15 0.388758 0.902940 0.000000
O O16 0.119488 0.908100 0.500000
O O17 0.196010 0.897861 0.281448
O O18 0.107439 0.000000 0.250000
O O19 0.500000 0.785678 0.250000
O O20 0.442474 0.746945 0.500000
O O21 0.222506 0.150372 0.500000
O O22 0.255524 0.243073 0.743183
O O23 0.738835 0.658949 0.500000
#
# Coordination Sequence:
#
# PCOD8203411 Si02
#       8
#     8   8   8   8   8   8   8   8
#     4  11  22  40  65  96 130 167 208 256 314 376
#     4  11  24  44  66  89 122 163 209 262 314 368
#     4  10  21  38  62  90 125 164 204 250 305 363
#     4  11  23  41  66  96 130 168 208 257 313 375
#     4  12  25  41  64  95 127 164 208 255 309 373
#     4  12  26  45  67  92 123 164 214 265 317 375
#     4  10  19  38  65  93 129 168 205 251 310 369
#     4   9  17  35  62  91 126 166 201 246 308 368
#
# _framework density 20.503081999999999
#
# number of rings (size 3 to 8) (size 9 to 14) (size 15 to 20)
#    0.000    1.250    2.500    4.125    0.000    4.000 
#    0.000    5.625    0.000    0.000    0.000    0.000 
#    0.000    0.000    0.000    0.000    0.000    0.000 
#
# Total GULP energy -793940.382947 kJ/mol
# GULP energy per Si atom -12405.318484 kJ/mol
# Density = 2.045642 g / cm^3
# Si number density = 20.503082 Si / 1000 Ang^3
#
#
#
# Elastic Constant Matrix: (Units=GPa)
#
#
# Indices 1 2 3 4 5 6 
#
# 1 76.2930 12.9387 28.8408 0.0000 0.0000 0.0000
# 2 12.9387 136.8172 35.5245 0.0000 0.0000 0.0000
# 3 28.8408 35.5245 86.7678 0.0000 0.0000 0.0000
# 4 0.0000 0.0000 0.0000 34.7774 0.0000 0.0000
# 5 0.0000 0.0000 0.0000 0.0000 31.5215 0.0000
# 6 0.0000 0.0000 0.0000 0.0000 0.0000 10.9467
#
#
#
# Elastic Compliance Matrix: (Units=1/GPa)
#
#
# Indices 1 2 3 4 5 6 
#
# 1 0.014993 -0.000139 -0.004927 0.000000 0.000000 0.000000
# 2 -0.000139 0.008180 -0.003303 0.000000 0.000000 0.000000
# 3 -0.004927 -0.003303 0.014515 0.000000 0.000000 0.000000
# 4 0.000000 0.000000 0.000000 0.028754 0.000000 0.000000
# 5 0.000000 0.000000 0.000000 0.000000 0.031724 0.000000
# 6 0.000000 0.000000 0.000000 0.000000 0.000000 0.091352
#
#
# Mechanical properties :
#
#
# Convention : Reuss Voigt Hill
#
# Bulk Modulus (GPa) = 47.72991 50.49844 49.11418
# Shear Modulus (GPa) = 23.44789 30.28739 26.86764
#
# Velocity S-wave (km/s) = 3.38543 3.84762 3.62390
# Velocity P-wave (km/s) = 6.21381 6.66499 6.44335
#
# Compressibility (1/GPa) = 0.02095122
#
# Stress axis : x y z
#
# Youngs Moduli (GPa) = 66.69615 122.25354 68.89466
#
# Poissons Ratio (x) = 0.01695 0.33944
# Poissons Ratio (y) = 0.00925 0.22755
# Poissons Ratio (z) = 0.32860 0.40379
#
# Static dielectric constant tensor:
#      x y z
#    x 3.781900 0.000000 0.000000 
#    y 0.000000 3.921700 0.000000 
#    z 0.000000 0.000000 3.585840 
# 
# 
# High freq. dielectric constant tensor:
#      x y z
#    x 1.800350 0.000000 0.000000 
#    y 0.000000 1.817410 0.000000 
#    z 0.000000 0.000000 1.793060 
# 
# From -- ./inp_files/6524.got.cif
#   From: 2010.03.12/outbox.cif.g09.slc.cpg/sg49_4_cif.got.tgz:6524.got - 2010.04.14 03:58:27.
