data_PCOD8203422
_publ_section_title
;
Structure prediction by ZEFSAII (Michael W. Deem and Ramdas Pophale) SiO2 
 PCOD8203422
Probable space group: P C C M
;
_chemical_formula_sum "Si O2"
_cell_formula_units_Z 48
_cell_length_a 11.052529
_cell_length_b 14.492187
_cell_length_c 14.367084
_cell_angle_alpha 90.000000
_cell_angle_beta 90.000000
_cell_angle_gamma 90.000000
_cell_volume 2301.252235
_symmetry_space_group_name_H-M "P C C M"
_symmetry_group_IT_number 49
_symmetry_cell_setting 'orthorhombic'
loop_
_space_group_symop_operation_xyz
x,y,z
-x,-y,z
x,-y,1/2-z
-x,y,1/2-z
-x,-y,-z
x,y,-z
-x,y,1/2+z
x,-y,1/2+z
loop_
_atom_site_type_symbol
_atom_site_label
_atom_site_fract_x
_atom_site_fract_y
_atom_site_fract_z
Si Si1 0.197442 0.099271 0.259861
Si Si2 0.793606 0.595658 0.105558
Si Si3 0.611203 0.561426 0.606760
Si Si4 0.274140 0.702245 0.775756
Si Si5 0.015506 0.864967 0.396076
Si Si6 0.049821 0.656165 0.102505
O O1 0.284903 0.186340 0.282719
O O2 0.136828 0.114863 0.160112
O O3 0.098764 0.090976 0.342305
O O4 0.266505 0.000000 0.250000
O O5 0.736696 0.494408 0.122356
O O6 0.724263 0.670237 0.169081
O O7 0.937810 0.587385 0.126141
O O8 0.769593 0.628069 0.000000
O O9 0.500000 0.500000 0.643408
O O10 0.589813 0.589035 0.500000
O O11 0.616118 0.655908 0.666602
O O12 0.150616 0.660102 0.818672
O O13 0.020923 0.907765 0.500000
O O14 0.010451 0.755806 0.402095
O O15 0.105788 0.631376 0.000000
#
# Coordination Sequence:
#
# PCOD8203422 Si02
#       6
#     8   8   8   8   8   8
#     4  10  20  30  45  76 112 147 192 231 271 328
#     4  10  20  34  54  79 109 143 183 230 280 339
#     4  10  23  42  61  82 105 134 183 241 294 349
#     4  11  20  34  55  78 113 149 184 227 282 338
#     4   9  16  29  47  69 107 154 193 228 268 320
#     4   9  17  30  50  78 111 147 187 226 276 335
#
# _framework density 20.85821
#
# number of rings (size 3 to 8) (size 9 to 14) (size 15 to 20)
#    0.000    2.167    1.667    2.500    0.000    4.000 
#    0.000    4.167    0.000    0.000    0.000    2.333 
#    0.000    4.000    0.000    0.000    0.000    0.000 
#
# Total GULP energy -594894.453699 kJ/mol
# GULP energy per Si atom -12393.634452 kJ/mol
# Density = 2.081074 g / cm^3
# Si number density = 20.858210 Si / 1000 Ang^3
#
#
#
# Elastic Constant Matrix: (Units=GPa)
#
#
# Indices 1 2 3 4 5 6 
#
# 1 39.2904 48.0395 19.0631 0.0000 0.0000 0.0000
# 2 48.0395 132.6829 43.6338 0.0000 0.0000 0.0000
# 3 19.0631 43.6338 124.2353 0.0000 0.0000 0.0000
# 4 0.0000 0.0000 0.0000 13.4500 0.0000 0.0000
# 5 0.0000 0.0000 0.0000 0.0000 16.0399 0.0000
# 6 0.0000 0.0000 0.0000 0.0000 0.0000 19.0959
#
#
#
# Elastic Compliance Matrix: (Units=1/GPa)
#
#
# Indices 1 2 3 4 5 6 
#
# 1 0.045871 -0.016160 -0.001363 0.000000 0.000000 0.000000
# 2 -0.016160 0.014214 -0.002513 0.000000 0.000000 0.000000
# 3 -0.001363 -0.002513 0.009141 0.000000 0.000000 0.000000
# 4 0.000000 0.000000 0.000000 0.074349 0.000000 0.000000
# 5 0.000000 0.000000 0.000000 0.000000 0.062344 0.000000
# 6 0.000000 0.000000 0.000000 0.000000 0.000000 0.052367
#
#
# Mechanical properties :
#
#
# Convention : Reuss Voigt Hill
#
# Bulk Modulus (GPa) = 34.29942 57.52016 45.90979
# Shear Modulus (GPa) = 16.22971 22.08197 19.15584
#
# Velocity S-wave (km/s) = 2.79247 3.25725 3.03377
# Velocity P-wave (km/s) = 5.18430 6.46397 5.85917
#
# Compressibility (1/GPa) = 0.02915501
#
# Stress axis : x y z
#
# Youngs Moduli (GPa) = 21.80009 70.35314 109.39918
#
# Poissons Ratio (x) = 1.13691 0.14910
# Poissons Ratio (y) = 0.35229 0.27487
# Poissons Ratio (z) = 0.02971 0.17677
#
# Static dielectric constant tensor:
#      x y z
#    x 3.371030 0.000000 0.000000 
#    y 0.000000 3.911950 0.000000 
#    z 0.000000 0.000000 4.098970 
# 
# 
# High freq. dielectric constant tensor:
#      x y z
#    x 1.754940 0.000000 0.000000 
#    y 0.000000 1.813780 0.000000 
#    z 0.000000 0.000000 1.834020 
# 
# From -- ./inp_files/12756.got.cif
#   From: 2010.03.12/outbox.cif.g09.slc.cpg/sg49_7_cif.got.tgz:12756.got - 2010.04.14 03:58:27.
