data_PCOD8203319
_publ_section_title
;
Structure prediction by ZEFSAII (Michael W. Deem and Ramdas Pophale) SiO2 
 PCOD8203319
Probable space group: P C C M
;
_chemical_formula_sum "Si O2"
_cell_formula_units_Z 56
_cell_length_a 14.154450
_cell_length_b 11.749351
_cell_length_c 15.953147
_cell_angle_alpha 90.000000
_cell_angle_beta 90.000000
_cell_angle_gamma 90.000000
_cell_volume 2653.097704
_symmetry_space_group_name_H-M "P C C M"
_symmetry_group_IT_number 49
_symmetry_cell_setting 'orthorhombic'
loop_
_space_group_symop_operation_xyz
x,y,z
-x,-y,z
x,-y,1/2-z
-x,y,1/2-z
-x,-y,-z
x,y,-z
-x,y,1/2+z
x,-y,1/2+z
loop_
_atom_site_type_symbol
_atom_site_label
_atom_site_fract_x
_atom_site_fract_y
_atom_site_fract_z
Si Si1 0.328949 0.737260 0.340103
Si Si2 0.141985 0.836413 0.904462
Si Si3 0.508908 0.628512 0.597103
Si Si4 0.716216 0.339147 0.845057
Si Si5 0.791234 0.923864 0.098458
Si Si6 0.806338 0.562053 0.095123
Si Si7 0.948633 0.257577 0.401463
O O1 0.440727 0.713021 0.350238
O O2 0.291924 0.701100 0.249559
O O3 0.302955 0.870090 0.357802
O O4 0.274043 0.659584 0.407750
O O5 0.225607 0.747754 0.900717
O O6 0.049451 0.778387 0.860356
O O7 0.179239 0.953777 0.862365
O O8 0.114643 0.865452 0.000000
O O9 0.500000 0.500000 0.631387
O O10 0.481003 0.636301 0.500000
O O11 0.615917 0.663328 0.610293
O O12 0.770210 0.460185 0.846167
O O13 0.877753 0.842786 0.121073
O O14 0.770486 0.934488 0.000000
O O15 0.903887 0.621161 0.130003
O O16 0.819628 0.516927 0.000000
O O17 0.961444 0.271818 0.500000
#
# Coordination Sequence:
#
# PCOD8203319 Si02
#       7
#     8   8   8   8   8   8   8
#     4  11  22  37  58  84 117 156 195 243 300 354
#     4  10  20  36  58  86 119 155 198 250 296 343
#     4  11  22  38  63  88 112 149 198 247 292 352
#     4  12  24  35  54  88 126 155 190 240 301 363
#     4   9  18  36  62  86 112 153 207 253 291 344
#     4  10  19  35  57  84 117 154 198 241 286 347
#     4   8  16  32  59  88 112 148 201 249 286 334
#
# _framework density 21.107402
#
# number of rings (size 3 to 8) (size 9 to 14) (size 15 to 20)
#    0.000    1.857    1.429    4.714    0.000    3.429 
#    0.000    5.714    0.000   11.143    0.000    0.000 
#    0.000    0.000    0.000    0.000    0.000    0.000 
#
# Total GULP energy -694100.594334 kJ/mol
# GULP energy per Si atom -12394.653470 kJ/mol
# Density = 2.105936 g / cm^3
# Si number density = 21.107402 Si / 1000 Ang^3
#
#
#
# Elastic Constant Matrix: (Units=GPa)
#
#
# Indices 1 2 3 4 5 6 
#
# 1 143.5388 85.2952 11.2816 0.0000 0.0000 0.0000
# 2 85.2952 116.5626 10.7919 0.0000 0.0000 0.0000
# 3 11.2816 10.7919 33.6059 0.0000 0.0000 0.0000
# 4 0.0000 0.0000 0.0000 19.8346 0.0000 0.0000
# 5 0.0000 0.0000 0.0000 0.0000 15.1623 0.0000
# 6 0.0000 0.0000 0.0000 0.0000 0.0000 30.0107
#
#
#
# Elastic Compliance Matrix: (Units=1/GPa)
#
#
# Indices 1 2 3 4 5 6 
#
# 1 0.012380 -0.008940 -0.001285 0.000000 0.000000 0.000000
# 2 -0.008940 0.015298 -0.001911 0.000000 0.000000 0.000000
# 3 -0.001285 -0.001911 0.030802 0.000000 0.000000 0.000000
# 4 0.000000 0.000000 0.000000 0.050417 0.000000 0.000000
# 5 0.000000 0.000000 0.000000 0.000000 0.065953 0.000000
# 6 0.000000 0.000000 0.000000 0.000000 0.000000 0.033321
#
#
# Mechanical properties :
#
#
# Convention : Reuss Voigt Hill
#
# Bulk Modulus (GPa) = 29.23404 56.49385 42.86394
# Shear Modulus (GPa) = 20.50456 25.42410 22.96433
#
# Velocity S-wave (km/s) = 3.12017 3.47437 3.30203
# Velocity P-wave (km/s) = 5.18275 6.55119 5.90673
#
# Compressibility (1/GPa) = 0.03420670
#
# Stress axis : x y z
#
# Youngs Moduli (GPa) = 80.77230 65.36675 32.46553
#
# Poissons Ratio (x) = 0.58441 0.04172
# Poissons Ratio (y) = 0.72214 0.06205
# Poissons Ratio (z) = 0.10380 0.12494
#
# Static dielectric constant tensor:
#      x y z
#    x 4.004000 0.000000 0.000000 
#    y 0.000000 3.973440 0.000000 
#    z 0.000000 0.000000 3.452710 
# 
# 
# High freq. dielectric constant tensor:
#      x y z
#    x 1.827450 0.000000 0.000000 
#    y 0.000000 1.820170 0.000000 
#    z 0.000000 0.000000 1.801870 
# 
# From -- ./inp_files/13583.got.cif
#   From: 2010.03.12/outbox.cif.g09.slc.cpg/sg49_7_cif.got.tgz:13583.got - 2010.04.14 03:58:27.
