data_PCOD8203297
_publ_section_title
;
Structure prediction by ZEFSAII (Michael W. Deem and Ramdas Pophale) SiO2 
 PCOD8203297
Probable space group: P C C M
;
_chemical_formula_sum "Si O2"
_cell_formula_units_Z 48
_cell_length_a 14.390439
_cell_length_b 20.638383
_cell_length_c 8.762508
_cell_angle_alpha 90.000000
_cell_angle_beta 90.000000
_cell_angle_gamma 90.000000
_cell_volume 2602.424495
_symmetry_space_group_name_H-M "P C C M"
_symmetry_group_IT_number 49
_symmetry_cell_setting 'orthorhombic'
loop_
_space_group_symop_operation_xyz
x,y,z
-x,-y,z
x,-y,1/2-z
-x,y,1/2-z
-x,-y,-z
x,y,-z
-x,y,1/2+z
x,-y,1/2+z
loop_
_atom_site_type_symbol
_atom_site_label
_atom_site_fract_x
_atom_site_fract_y
_atom_site_fract_z
Si Si1 0.899016 0.309113 0.319215
Si Si2 0.786913 0.432917 0.320931
Si Si3 0.098266 0.067424 0.820551
Si Si4 0.404574 0.233567 0.319469
Si Si5 0.594510 0.626021 0.819656
Si Si6 0.224218 0.811821 0.321110
O O1 0.907061 0.309751 0.500000
O O2 0.850513 0.374625 0.257459
O O3 0.838237 0.248192 0.264426
O O4 0.000000 0.302481 0.250000
O O5 0.821782 0.500000 0.250000
O O6 0.798842 0.437629 0.500000
O O7 0.679457 0.420865 0.276473
O O8 0.172981 0.121810 0.779488
O O9 0.000000 0.088328 0.750000
O O10 0.133825 0.000000 0.750000
O O11 0.085041 0.059311 0.000000
O O12 0.500000 0.205212 0.250000
O O13 0.413351 0.237489 0.500000
O O14 0.384814 0.304421 0.252275
O O15 0.320660 0.186911 0.270600
O O16 0.500000 0.595845 0.750000
O O17 0.584054 0.634816 0.000000
O O18 0.245344 0.805642 0.500000
#
# Coordination Sequence:
#
# PCOD8203297 Si02
#       6
#     8   8   8   8   8   8
#     4  10  21  38  56  77 105 137 178 227 273 320
#     4  10  22  38  55  73 104 141 176 225 274 326
#     4  10  20  34  56  83 118 156 187 228 270 321
#     4  11  21  33  55  84 112 143 179 223 270 324
#     4  10  19  35  55  77 107 139 174 220 273 327
#     4  10  20  37  58  81 113 147 182 225 273 318
#
# _framework density 18.44434
#
# number of rings (size 3 to 8) (size 9 to 14) (size 15 to 20)
#    0.000    1.833    1.667    4.500    0.000    4.667 
#    0.000    3.333    0.000    0.500    0.000    3.500 
#    0.000    0.000    0.000    0.000    0.000    0.000 
#
# Total GULP energy -595321.393719 kJ/mol
# GULP energy per Si atom -12402.529036 kJ/mol
# Density = 1.840236 g / cm^3
# Si number density = 18.444340 Si / 1000 Ang^3
#
#
#
# Elastic Constant Matrix: (Units=GPa)
#
#
# Indices 1 2 3 4 5 6 
#
# 1 132.9174 67.2433 49.5587 0.0000 0.0000 0.0000
# 2 67.2433 112.9904 40.7086 0.0000 0.0000 0.0000
# 3 49.5587 40.7086 79.7208 0.0000 0.0000 0.0000
# 4 0.0000 0.0000 0.0000 23.3118 0.0000 0.0000
# 5 0.0000 0.0000 0.0000 0.0000 34.5404 0.0000
# 6 0.0000 0.0000 0.0000 0.0000 0.0000 27.2856
#
#
#
# Elastic Compliance Matrix: (Units=1/GPa)
#
#
# Indices 1 2 3 4 5 6 
#
# 1 0.012043 -0.005478 -0.004690 0.000000 0.000000 0.000000
# 2 -0.005478 0.013337 -0.003405 0.000000 0.000000 0.000000
# 3 -0.004690 -0.003405 0.017198 0.000000 0.000000 0.000000
# 4 0.000000 0.000000 0.000000 0.042897 0.000000 0.000000
# 5 0.000000 0.000000 0.000000 0.000000 0.028952 0.000000
# 6 0.000000 0.000000 0.000000 0.000000 0.000000 0.036649
#
#
# Mechanical properties :
#
#
# Convention : Reuss Voigt Hill
#
# Bulk Modulus (GPa) = 64.79519 71.18330 67.98924
# Shear Modulus (GPa) = 27.26802 28.23542 27.75172
#
# Velocity S-wave (km/s) = 3.84916 3.91685 3.88315
# Velocity P-wave (km/s) = 7.41358 7.68979 7.55295
#
# Compressibility (1/GPa) = 0.01543325
#
# Stress axis : x y z
#
# Youngs Moduli (GPa) = 83.03498 74.97933 58.14657
#
# Poissons Ratio (x) = 0.41071 0.27268
# Poissons Ratio (y) = 0.45483 0.19800
# Poissons Ratio (z) = 0.38940 0.25532
#
# Static dielectric constant tensor:
#      x y z
#    x 3.559780 0.000000 0.000000 
#    y 0.000000 3.388240 0.000000 
#    z 0.000000 0.000000 3.350300 
# 
# 
# High freq. dielectric constant tensor:
#      x y z
#    x 1.722560 0.000000 0.000000 
#    y 0.000000 1.700850 0.000000 
#    z 0.000000 0.000000 1.717670 
# 
# From -- ./inp_files/3747.got.cif
#   From: 2010.03.12/outbox.cif.g09.slc.cpg/sg49_2_cif.got.tgz:3747.got - 2010.04.14 03:58:27.
