data_PCOD8203822
_publ_section_title
;
Structure prediction by ZEFSAII (Michael W. Deem and Ramdas Pophale) SiO2 
 PCOD8203822
Probable space group: P C C M
;
_chemical_formula_sum "Si O2"
_cell_formula_units_Z 48
_cell_length_a 8.984364
_cell_length_b 29.075082
_cell_length_c 9.590612
_cell_angle_alpha 90.000000
_cell_angle_beta 90.000000
_cell_angle_gamma 90.000000
_cell_volume 2505.270408
_symmetry_space_group_name_H-M "P C C M"
_symmetry_group_IT_number 49
_symmetry_cell_setting 'orthorhombic'
loop_
_space_group_symop_operation_xyz
x,y,z
-x,-y,z
x,-y,1/2-z
-x,y,1/2-z
-x,-y,-z
x,y,-z
-x,y,1/2+z
x,-y,1/2+z
loop_
_atom_site_type_symbol
_atom_site_label
_atom_site_fract_x
_atom_site_fract_y
_atom_site_fract_z
Si Si1 0.148530 0.455362 0.166671
Si Si2 0.844003 0.935948 0.500000
Si Si3 0.646696 0.631494 0.160049
Si Si4 0.675897 0.098714 0.736097
Si Si5 0.354421 0.800045 0.340476
Si Si6 0.148389 0.716119 0.662698
Si Si7 0.181801 0.955452 0.500000
O O1 0.210132 0.500000 0.250000
O O2 0.269041 0.416021 0.185413
O O3 0.000000 0.440160 0.250000
O O4 0.118650 0.464609 0.000000
O O5 0.768489 0.909594 0.625936
O O6 0.021791 0.930285 0.500000
O O7 0.817340 0.989994 0.500000
O O8 0.500000 0.631829 0.250000
O O9 0.749401 0.673573 0.207844
O O10 0.599997 0.637432 0.000000
O O11 0.500000 0.093434 0.750000
O O12 0.715151 0.149553 0.682033
O O13 0.727456 0.059204 0.633710
O O14 0.500000 0.791615 0.250000
O O15 0.403201 0.793663 0.500000
O O16 0.230237 0.763382 0.297681
O O17 0.107857 0.713748 0.500000
O O18 0.000000 0.713084 0.750000
#
# Coordination Sequence:
#
# PCOD8203822 Si02
#       7
#     8   4   8   8   8   8   4
#     4  10  20  35  56  84 115 154 197 245 296 352
#     4  11  25  39  63  87 117 165 191 241 300 347
#     4  10  22  38  58  84 117 154 198 244 295 350
#     4  11  23  40  62  90 118 154 198 244 292 350
#     4  10  22  40  62  87 118 151 188 236 288 344
#     4  10  22  40  60  89 119 151 194 240 289 347
#     4  11  23  43  59  87 125 151 201 241 292 355
#
# _framework density 19.159607999999999
#
# number of rings (size 3 to 8) (size 9 to 14) (size 15 to 20)
#    0.000    1.667    0.833    3.500    3.500    7.667 
#    0.000    1.667    0.000    0.000    0.000    0.000 
#    0.000    0.000    0.000    0.000    0.000    0.000 
#
# Total GULP energy -595179.419646 kJ/mol
# GULP energy per Si atom -12399.571243 kJ/mol
# Density = 1.911600 g / cm^3
# Si number density = 19.159608 Si / 1000 Ang^3
#
#
#
# Elastic Constant Matrix: (Units=GPa)
#
#
# Indices 1 2 3 4 5 6 
#
# 1 120.8141 76.7742 56.5379 0.0000 0.0000 0.0000
# 2 76.7742 102.0206 44.6083 0.0000 0.0000 0.0000
# 3 56.5379 44.6083 113.8223 0.0000 0.0000 0.0000
# 4 0.0000 0.0000 0.0000 35.5161 0.0000 0.0000
# 5 0.0000 0.0000 0.0000 0.0000 38.4147 0.0000
# 6 0.0000 0.0000 0.0000 0.0000 0.0000 30.9634
#
#
#
# Elastic Compliance Matrix: (Units=1/GPa)
#
#
# Indices 1 2 3 4 5 6 
#
# 1 0.017408 -0.011246 -0.004239 0.000000 0.000000 0.000000
# 2 -0.011246 0.019095 -0.001897 0.000000 0.000000 0.000000
# 3 -0.004239 -0.001897 0.011635 0.000000 0.000000 0.000000
# 4 0.000000 0.000000 0.000000 0.028156 0.000000 0.000000
# 5 0.000000 0.000000 0.000000 0.000000 0.026032 0.000000
# 6 0.000000 0.000000 0.000000 0.000000 0.000000 0.032296
#
#
# Mechanical properties :
#
#
# Convention : Reuss Voigt Hill
#
# Bulk Modulus (GPa) = 74.78372 76.94419 75.86396
# Shear Modulus (GPa) = 28.76133 31.56129 30.16131
#
# Velocity S-wave (km/s) = 3.87866 4.06308 3.97194
# Velocity P-wave (km/s) = 7.69256 7.89039 7.79210
#
# Compressibility (1/GPa) = 0.01337189
#
# Stress axis : x y z
#
# Youngs Moduli (GPa) = 57.44533 52.37021 85.94867
#
# Poissons Ratio (x) = 0.58898 0.36436
# Poissons Ratio (y) = 0.64606 0.16306
# Poissons Ratio (z) = 0.24352 0.09935
#
# Static dielectric constant tensor:
#      x y z
#    x 3.453630 0.000000 0.000000 
#    y 0.000000 3.749480 0.000000 
#    z 0.000000 0.000000 3.622470 
# 
# 
# High freq. dielectric constant tensor:
#      x y z
#    x 1.745990 0.000000 0.000000 
#    y 0.000000 1.762480 0.000000 
#    z 0.000000 0.000000 1.757580 
# 
# From -- ./inp_files/2158.got.cif
#   From: 2010.03.12/outbox.cif.g09.slc.cpg/sg49_2_cif.got.tgz:2158.got - 2010.04.14 03:58:27.
