data_PCOD8203960
_publ_section_title
;
Structure prediction by ZEFSAII (Michael W. Deem and Ramdas Pophale) SiO2 
 PCOD8203960
Probable space group: P C C M
;
_chemical_formula_sum "Si O2"
_cell_formula_units_Z 64
_cell_length_a 18.998975
_cell_length_b 11.621410
_cell_length_c 14.107960
_cell_angle_alpha 90.000000
_cell_angle_beta 90.000000
_cell_angle_gamma 90.000000
_cell_volume 3114.965308
_symmetry_space_group_name_H-M "P C C M"
_symmetry_group_IT_number 49
_symmetry_cell_setting 'orthorhombic'
loop_
_space_group_symop_operation_xyz
x,y,z
-x,-y,z
x,-y,1/2-z
-x,y,1/2-z
-x,-y,-z
x,y,-z
-x,y,1/2+z
x,-y,1/2+z
loop_
_atom_site_type_symbol
_atom_site_label
_atom_site_fract_x
_atom_site_fract_y
_atom_site_fract_z
Si Si1 0.078059 0.807384 0.742610
Si Si2 0.884007 0.993213 0.609264
Si Si3 0.607428 0.031160 0.351509
Si Si4 0.784453 0.326071 0.274889
Si Si5 0.748105 0.877460 0.101608
Si Si6 0.276584 0.538034 0.113099
Si Si7 0.517787 0.822001 0.605874
Si Si8 0.563571 0.577777 0.387763
O O1 0.075707 0.897910 0.655439
O O2 0.131767 0.701105 0.725670
O O3 0.000000 0.753773 0.750000
O O4 0.099075 0.874132 0.838593
O O5 0.906917 0.982014 0.500000
O O6 0.800907 0.017376 0.623112
O O7 0.670499 0.074887 0.415297
O O8 0.548367 0.130416 0.334206
O O9 0.638943 0.000000 0.250000
O O10 0.576510 0.919928 0.402917
O O11 0.746130 0.212573 0.312953
O O12 0.756667 0.352720 0.168675
O O13 0.765787 0.427976 0.348182
O O14 0.770458 0.820471 0.000000
O O15 0.359451 0.529487 0.141689
O O16 0.265981 0.552479 0.000000
O O17 0.489698 0.795448 0.500000
O O18 0.550752 0.706774 0.651837
O O19 0.500000 0.500000 0.346179
O O20 0.560468 0.579452 0.500000
#
# Coordination Sequence:
#
# PCOD8203960 Si02
#       8
#     8   8   8   8   8   8   8   8
#     4  10  21  37  60  89 126 162 197 247 299 358
#     4   9  19  35  57  90 127 161 200 242 293 359
#     4  11  23  34  52  79 116 158 197 247 303 363
#     4  10  23  40  62  90 116 152 202 248 301 375
#     4  10  21  36  59  85 116 161 203 245 297 360
#     4  10  22  43  64  87 118 153 194 256 318 357
#     4  10  20  37  54  75 112 153 201 251 306 373
#     4   9  20  37  60  86 112 148 198 254 312 364
#
# _framework density 20.545976
#
# number of rings (size 3 to 8) (size 9 to 14) (size 15 to 20)
#    0.000    2.125    0.000    3.375    7.000    2.000 
#    0.000    5.000    0.000    0.750    0.000    0.000 
#    0.000    0.000    0.000    0.000    0.000    0.000 
#
# Total GULP energy -793285.001082 kJ/mol
# GULP energy per Si atom -12395.078142 kJ/mol
# Density = 2.049921 g / cm^3
# Si number density = 20.545976 Si / 1000 Ang^3
#
#
#
# Elastic Constant Matrix: (Units=GPa)
#
#
# Indices 1 2 3 4 5 6 
#
# 1 162.3150 72.8109 31.6857 0.0000 0.0000 0.0000
# 2 72.8109 105.8953 35.8127 0.0000 0.0000 0.0000
# 3 31.6857 35.8127 119.7781 0.0000 0.0000 0.0000
# 4 0.0000 0.0000 0.0000 28.7092 0.0000 0.0000
# 5 0.0000 0.0000 0.0000 0.0000 19.3985 0.0000
# 6 0.0000 0.0000 0.0000 0.0000 0.0000 23.6867
#
#
#
# Elastic Compliance Matrix: (Units=1/GPa)
#
#
# Indices 1 2 3 4 5 6 
#
# 1 0.008945 -0.005952 -0.000587 0.000000 0.000000 0.000000
# 2 -0.005952 0.014466 -0.002751 0.000000 0.000000 0.000000
# 3 -0.000587 -0.002751 0.009326 0.000000 0.000000 0.000000
# 4 0.000000 0.000000 0.000000 0.034832 0.000000 0.000000
# 5 0.000000 0.000000 0.000000 0.000000 0.051550 0.000000
# 6 0.000000 0.000000 0.000000 0.000000 0.000000 0.042218
#
#
# Mechanical properties :
#
#
# Convention : Reuss Voigt Hill
#
# Bulk Modulus (GPa) = 70.62782 74.28965 72.45874
# Shear Modulus (GPa) = 27.08015 30.87081 28.97548
#
# Velocity S-wave (km/s) = 3.63440 3.88044 3.75944
# Velocity P-wave (km/s) = 7.21540 7.50423 7.36123
#
# Compressibility (1/GPa) = 0.01415873
#
# Stress axis : x y z
#
# Youngs Moduli (GPa) = 111.78891 69.12697 107.22236
#
# Poissons Ratio (x) = 0.41146 0.06291
# Poissons Ratio (y) = 0.66539 0.29493
# Poissons Ratio (z) = 0.06559 0.19015
#
# Static dielectric constant tensor:
#      x y z
#    x 3.729350 0.000000 0.000000 
#    y 0.000000 3.622000 0.000000 
#    z 0.000000 0.000000 3.761130 
# 
# 
# High freq. dielectric constant tensor:
#      x y z
#    x 1.797000 0.000000 0.000000 
#    y 0.000000 1.780580 0.000000 
#    z 0.000000 0.000000 1.814610 
# 
# From -- ./inp_files/14172.got.cif
#   From: 2010.03.12/outbox.cif.g09.slc.cpg/sg49_8_cif.got.tgz:14172.got - 2010.04.14 03:58:27.
