data_PCOD8203233
_publ_section_title
;
Structure prediction by ZEFSAII (Michael W. Deem and Ramdas Pophale) SiO2 
 PCOD8203233
Probable space group: P C C M
;
_chemical_formula_sum "Si O2"
_cell_formula_units_Z 64
_cell_length_a 17.507390
_cell_length_b 20.976103
_cell_length_c 8.652911
_cell_angle_alpha 90.000000
_cell_angle_beta 90.000000
_cell_angle_gamma 90.000000
_cell_volume 3177.667484
_symmetry_space_group_name_H-M "P C C M"
_symmetry_group_IT_number 49
_symmetry_cell_setting 'orthorhombic'
loop_
_space_group_symop_operation_xyz
x,y,z
-x,-y,z
x,-y,1/2-z
-x,y,1/2-z
-x,-y,-z
x,y,-z
-x,y,1/2+z
x,-y,1/2+z
loop_
_atom_site_type_symbol
_atom_site_label
_atom_site_fract_x
_atom_site_fract_y
_atom_site_fract_z
Si Si1 0.579756 0.794750 0.315572
Si Si2 0.882605 0.721165 0.678312
Si Si3 0.627835 0.933276 0.319075
Si Si4 0.711060 0.700875 0.680039
Si Si5 0.209445 0.061856 0.177699
Si Si6 0.759350 0.564248 0.683067
Si Si7 0.071845 0.152999 0.822461
Si Si8 0.079055 0.593221 0.680444
O O1 0.500000 0.768523 0.250000
O O2 0.580822 0.793799 0.500000
O O3 0.589089 0.868136 0.255487
O O4 0.645431 0.746885 0.247610
O O5 0.893365 0.700200 0.500000
O O6 0.793019 0.732000 0.715735
O O7 0.926582 0.785258 0.714726
O O8 0.919065 0.668750 0.789975
O O9 0.616471 0.938232 0.500000
O O10 0.716173 0.924933 0.278487
O O11 0.594216 0.000000 0.250000
O O12 0.694389 0.697069 0.500000
O O13 0.713985 0.627473 0.744655
O O14 0.151531 0.118681 0.198662
O O15 0.168403 0.000000 0.250000
O O16 0.232854 0.050861 0.000000
O O17 0.719780 0.500000 0.750000
O O18 0.757205 0.563121 0.500000
O O19 0.847675 0.563326 0.735167
O O20 0.000000 0.113461 0.750000
O O21 0.057484 0.169687 0.000000
O O22 0.083135 0.577842 0.500000
O O23 0.000000 0.564830 0.750000
#
# Coordination Sequence:
#
# PCOD8203233 Si02
#       8
#     8   8   8   8   8   8   8   8
#     4  10  21  37  57  84 114 146 179 216 262 316
#     4  10  19  34  55  76 100 135 177 222 269 321
#     4  10  20  35  57  82 111 145 182 219 263 318
#     4   8  17  35  58  80 106 140 178 218 266 321
#     4  10  21  36  54  74  97 128 172 220 268 320
#     4  10  20  36  57  82 109 142 184 230 278 329
#     4  11  23  35  48  70  98 131 172 222 274 326
#     4  11  21  34  51  75 109 146 183 225 272 323
#
# _framework density 20.140561000000002
#
# number of rings (size 3 to 8) (size 9 to 14) (size 15 to 20)
#    0.000    2.000    0.000    5.625    0.000    4.750 
#    0.000    7.500    0.000    0.375    0.000    2.625 
#    0.000    0.000    0.000    0.000    0.000    0.000 
#
# Total GULP energy -793190.629157 kJ/mol
# GULP energy per Si atom -12393.603581 kJ/mol
# Density = 2.009472 g / cm^3
# Si number density = 20.140561 Si / 1000 Ang^3
#
#
#
# Elastic Constant Matrix: (Units=GPa)
#
#
# Indices 1 2 3 4 5 6 
#
# 1 82.5945 40.8631 16.5431 0.0000 0.0000 0.0000
# 2 40.8631 112.9895 30.4306 0.0000 0.0000 0.0000
# 3 16.5431 30.4306 59.8614 0.0000 0.0000 0.0000
# 4 0.0000 0.0000 0.0000 28.6452 0.0000 0.0000
# 5 0.0000 0.0000 0.0000 0.0000 26.4244 0.0000
# 6 0.0000 0.0000 0.0000 0.0000 0.0000 -1.2216
#
#
#
# Elastic Compliance Matrix: (Units=1/GPa)
#
#
# Indices 1 2 3 4 5 6 
#
# 1 0.014876 -0.004951 -0.001594 0.000000 0.000000 0.000000
# 2 -0.004951 0.011902 -0.004682 0.000000 0.000000 0.000000
# 3 -0.001594 -0.004682 0.019526 0.000000 0.000000 0.000000
# 4 0.000000 0.000000 0.000000 0.034910 0.000000 0.000000
# 5 0.000000 0.000000 0.000000 0.000000 0.037844 0.000000
# 6 0.000000 0.000000 0.000000 0.000000 0.000000 -0.818600
#
#
# Mechanical properties :
#
#
# Convention : Reuss Voigt Hill
#
# Bulk Modulus (GPa) = 41.92961 47.90210 44.91585
# Shear Modulus (GPa) = -7.47230 21.94351 7.23561
#
# Velocity S-wave (km/s) = -1.92825 3.30437 1.89746
# Velocity P-wave (km/s) = 3.98826 6.19629 5.21057
#
# Compressibility (1/GPa) = 0.02384950
#
# Stress axis : x y z
#
# Youngs Moduli (GPa) = 67.22262 84.02115 51.21357
#
# Poissons Ratio (x) = 0.41595 0.08166
# Poissons Ratio (y) = 0.33279 0.23979
# Poissons Ratio (z) = 0.10718 0.39340
#
# Static dielectric constant tensor:
#      x y z
#    x 3.636220 0.000000 0.000000 
#    y 0.000000 4.150040 0.000000 
#    z 0.000000 0.000000 3.566240 
# 
# 
# High freq. dielectric constant tensor:
#      x y z
#    x 1.769080 0.000000 0.000000 
#    y 0.000000 1.791880 0.000000 
#    z 0.000000 0.000000 1.778010 
# 
# From -- ./inp_files/5318.got.cif
#   From: 2010.03.12/outbox.cif.g09.slc.cpg/sg49_3_cif.got.tgz:5318.got - 2010.04.14 03:58:27.
