data_PCOD8203302
_publ_section_title
;
Structure prediction by ZEFSAII (Michael W. Deem and Ramdas Pophale) SiO2 
 PCOD8203302
Probable space group: P C C M
;
_chemical_formula_sum "Si O2"
_cell_formula_units_Z 48
_cell_length_a 14.611977
_cell_length_b 18.377703
_cell_length_c 9.173336
_cell_angle_alpha 90.000000
_cell_angle_beta 90.000000
_cell_angle_gamma 90.000000
_cell_volume 2463.357871
_symmetry_space_group_name_H-M "P C C M"
_symmetry_group_IT_number 49
_symmetry_cell_setting 'orthorhombic'
loop_
_space_group_symop_operation_xyz
x,y,z
-x,-y,z
x,-y,1/2-z
-x,y,1/2-z
-x,-y,-z
x,y,-z
-x,y,1/2+z
x,-y,1/2+z
loop_
_atom_site_type_symbol
_atom_site_label
_atom_site_fract_x
_atom_site_fract_y
_atom_site_fract_z
Si Si1 0.917800 0.720003 0.660100
Si Si2 0.410598 0.720177 0.328413
Si Si3 0.864674 0.436506 0.840702
Si Si4 0.342671 0.425577 0.675115
Si Si5 0.774653 0.205938 0.334532
Si Si6 0.906611 0.924685 0.826982
O O1 0.921650 0.754429 0.500000
O O2 0.929914 0.633359 0.657279
O O3 0.820680 0.734919 0.731308
O O4 0.000000 0.756432 0.750000
O O5 0.500000 0.753381 0.250000
O O6 0.426401 0.705622 0.500000
O O7 0.390547 0.643867 0.248553
O O8 0.333482 0.783546 0.306685
O O9 0.913180 0.500000 0.750000
O O10 0.763743 0.417460 0.781648
O O11 0.853065 0.469698 0.000000
O O12 0.380994 0.500000 0.750000
O O13 0.359745 0.425924 0.500000
O O14 0.799197 0.226179 0.500000
O O15 0.818907 0.127416 0.296962
O O16 0.000000 0.894829 0.750000
O O17 0.879837 0.000000 0.750000
O O18 0.923471 0.935054 0.000000
#
# Coordination Sequence:
#
# PCOD8203302 Si02
#       6
#     8   8   8   8   8   8
#     4  11  22  35  52  78 108 143 186 228 275 332
#     4  11  23  39  59  84 112 146 188 238 290 344
#     4   9  19  33  50  71  99 137 180 227 276 329
#     4  10  19  35  56  80 107 141 186 238 296 350
#     4  10  22  39  59  83 114 149 185 228 278 330
#     4  10  20  36  59  91 124 155 188 223 265 320
#
# _framework density 19.485596999999999
#
# number of rings (size 3 to 8) (size 9 to 14) (size 15 to 20)
#    0.000    1.833    1.667    3.000    0.000    6.000 
#    0.000    3.333    0.000    0.500    0.000    3.500 
#    0.000    0.000    0.000    0.000    0.000    0.000 
#
# Total GULP energy -594837.273660 kJ/mol
# GULP energy per Si atom -12392.443201 kJ/mol
# Density = 1.944125 g / cm^3
# Si number density = 19.485597 Si / 1000 Ang^3
#
#
#
# Elastic Constant Matrix: (Units=GPa)
#
#
# Indices 1 2 3 4 5 6 
#
# 1 108.7186 43.3545 63.1323 0.0000 0.0000 0.0000
# 2 43.3545 94.6123 53.4090 0.0000 0.0000 0.0000
# 3 63.1323 53.4090 136.0438 0.0000 0.0000 0.0000
# 4 0.0000 0.0000 0.0000 20.4283 0.0000 0.0000
# 5 0.0000 0.0000 0.0000 0.0000 23.8477 0.0000
# 6 0.0000 0.0000 0.0000 0.0000 0.0000 18.0500
#
#
#
# Elastic Compliance Matrix: (Units=1/GPa)
#
#
# Indices 1 2 3 4 5 6 
#
# 1 0.013380 -0.003374 -0.004885 0.000000 0.000000 0.000000
# 2 -0.003374 0.014429 -0.004099 0.000000 0.000000 0.000000
# 3 -0.004885 -0.004099 0.011227 0.000000 0.000000 0.000000
# 4 0.000000 0.000000 0.000000 0.048952 0.000000 0.000000
# 5 0.000000 0.000000 0.000000 0.000000 0.041933 0.000000
# 6 0.000000 0.000000 0.000000 0.000000 0.000000 0.055402
#
#
# Mechanical properties :
#
#
# Convention : Reuss Voigt Hill
#
# Bulk Modulus (GPa) = 69.82803 73.24068 71.53436
# Shear Modulus (GPa) = 23.27633 24.43047 23.85340
#
# Velocity S-wave (km/s) = 3.45996 3.54470 3.50259
# Velocity P-wave (km/s) = 7.20245 7.37712 7.29031
#
# Compressibility (1/GPa) = 0.01432090
#
# Stress axis : x y z
#
# Youngs Moduli (GPa) = 74.73921 69.30284 89.07431
#
# Poissons Ratio (x) = 0.23381 0.43509
# Poissons Ratio (y) = 0.25215 0.36513
# Poissons Ratio (z) = 0.36507 0.28409
#
# Static dielectric constant tensor:
#      x y z
#    x 3.537770 0.000000 0.000000 
#    y 0.000000 3.399340 0.000000 
#    z 0.000000 0.000000 3.760260 
# 
# 
# High freq. dielectric constant tensor:
#      x y z
#    x 1.746990 0.000000 0.000000 
#    y 0.000000 1.739170 0.000000 
#    z 0.000000 0.000000 1.775120 
# 
# From -- ./inp_files/3679.got.cif
#   From: 2010.03.12/outbox.cif.g09.slc.cpg/sg49_2_cif.got.tgz:3679.got - 2010.04.14 03:58:27.
