data_PCOD8203273
_publ_section_title
;
Structure prediction by ZEFSAII (Michael W. Deem and Ramdas Pophale) SiO2 
 PCOD8203273
Probable space group: P C C M
;
_chemical_formula_sum "Si O2"
_cell_formula_units_Z 48
_cell_length_a 15.410835
_cell_length_b 8.590563
_cell_length_c 15.038213
_cell_angle_alpha 90.000000
_cell_angle_beta 90.000000
_cell_angle_gamma 90.000000
_cell_volume 1990.875167
_symmetry_space_group_name_H-M "P C C M"
_symmetry_group_IT_number 49
_symmetry_cell_setting 'orthorhombic'
loop_
_space_group_symop_operation_xyz
x,y,z
-x,-y,z
x,-y,1/2-z
-x,y,1/2-z
-x,-y,-z
x,y,-z
-x,y,1/2+z
x,-y,1/2+z
loop_
_atom_site_type_symbol
_atom_site_label
_atom_site_fract_x
_atom_site_fract_y
_atom_site_fract_z
Si Si1 0.822244 0.877662 0.667629
Si Si2 0.026744 0.324822 0.605303
Si Si3 0.145623 0.819787 0.597026
Si Si4 0.314480 0.338145 0.106332
Si Si5 0.333309 0.690942 0.895731
Si Si6 0.484473 0.829270 0.604509
O O1 0.890033 0.734034 0.661814
O O2 0.725688 0.808917 0.660923
O O3 0.834135 0.000000 0.750000
O O4 0.841263 0.994743 0.585982
O O5 0.046821 0.308366 0.500000
O O6 0.000000 0.500000 0.630162
O O7 0.946677 0.219771 0.640778
O O8 0.143265 0.741239 0.500000
O O9 0.227929 0.741845 0.648420
O O10 0.313951 0.516600 0.135990
O O11 0.398823 0.250621 0.146527
O O12 0.315817 0.322907 0.000000
O O13 0.433394 0.722072 0.873780
O O14 0.313199 0.714151 0.000000
O O15 0.469998 0.845803 0.500000
O O16 0.500000 0.000000 0.646378
#
# Coordination Sequence:
#
# PCOD8203273 Si02
#       6
#     8   8   8   8   8   8
#     4  12  25  39  56  85 122 162 204 252 312 378
#     4  10  21  40  66  92 117 152 204 262 318 380
#     4  10  20  36  60  86 113 149 193 247 310 378
#     4   9  17  31  55  90 123 151 195 253 310 367
#     4  10  19  34  57  83 117 161 206 254 306 366
#     4   9  16  27  50  87 123 152 191 249 308 355
#
# _framework density 24.109998999999998
#
# number of rings (size 3 to 8) (size 9 to 14) (size 15 to 20)
#    0.000    2.000    0.000    4.500    0.000   10.000 
#    0.000    4.167    0.000    4.500    0.000    4.667 
#    0.000    0.000    0.000    0.000    0.000    0.667 
#
# Total GULP energy -594913.108211 kJ/mol
# GULP energy per Si atom -12394.023088 kJ/mol
# Density = 2.405512 g / cm^3
# Si number density = 24.109999 Si / 1000 Ang^3
#
#
#
# Elastic Constant Matrix: (Units=GPa)
#
#
# Indices 1 2 3 4 5 6 
#
# 1 132.6343 26.8503 4.2212 0.0000 0.0000 0.0000
# 2 26.8503 119.5319 -3.7544 0.0000 0.0000 0.0000
# 3 4.2212 -3.7544 46.3002 0.0000 0.0000 0.0000
# 4 0.0000 0.0000 0.0000 17.9896 0.0000 0.0000
# 5 0.0000 0.0000 0.0000 0.0000 5.0948 0.0000
# 6 0.0000 0.0000 0.0000 0.0000 0.0000 57.8633
#
#
#
# Elastic Compliance Matrix: (Units=1/GPa)
#
#
# Indices 1 2 3 4 5 6 
#
# 1 0.007934 -0.001809 -0.000870 0.000000 0.000000 0.000000
# 2 -0.001809 0.008800 0.000879 0.000000 0.000000 0.000000
# 3 -0.000870 0.000879 0.021749 0.000000 0.000000 0.000000
# 4 0.000000 0.000000 0.000000 0.055588 0.000000 0.000000
# 5 0.000000 0.000000 0.000000 0.000000 0.196278 0.000000
# 6 0.000000 0.000000 0.000000 0.000000 0.000000 0.017282
#
#
# Mechanical properties :
#
#
# Convention : Reuss Voigt Hill
#
# Bulk Modulus (GPa) = 28.66934 39.23339 33.95136
# Shear Modulus (GPa) = 15.48663 34.26615 24.87639
#
# Velocity S-wave (km/s) = 2.53718 3.77403 3.21563
# Velocity P-wave (km/s) = 4.52768 5.94130 5.28199
#
# Compressibility (1/GPa) = 0.03488047
#
# Stress axis : x y z
#
# Youngs Moduli (GPa) = 126.04751 113.63619 45.97970
#
# Poissons Ratio (x) = 0.20562 0.04000
# Poissons Ratio (y) = 0.22807 -0.04040
# Poissons Ratio (z) = 0.10966 -0.09983
#
# Static dielectric constant tensor:
#      x y z
#    x 4.523260 0.000000 0.000000 
#    y 0.000000 4.582410 0.000000 
#    z 0.000000 0.000000 3.990610 
# 
# 
# High freq. dielectric constant tensor:
#      x y z
#    x 1.970410 0.000000 0.000000 
#    y 0.000000 1.965710 0.000000 
#    z 0.000000 0.000000 1.922660 
# 
# From -- ./inp_files/17743.got.cif
#   From: 2010.03.12/outbox.cif.g09.slc.cpg/sg49_9_cif.got.tgz:17743.got - 2010.04.14 03:58:27.
