data_PCOD8203627
_publ_section_title
;
Structure prediction by ZEFSAII (Michael W. Deem and Ramdas Pophale) SiO2 
 PCOD8203627
Probable space group: P C C M
;
_chemical_formula_sum "Si O2"
_cell_formula_units_Z 40
_cell_length_a 9.910017
_cell_length_b 25.458558
_cell_length_c 8.542869
_cell_angle_alpha 90.000000
_cell_angle_beta 90.000000
_cell_angle_gamma 90.000000
_cell_volume 2155.320935
_symmetry_space_group_name_H-M "P C C M"
_symmetry_group_IT_number 49
_symmetry_cell_setting 'orthorhombic'
loop_
_space_group_symop_operation_xyz
x,y,z
-x,-y,z
x,-y,1/2-z
-x,y,1/2-z
-x,-y,-z
x,y,-z
-x,y,1/2+z
x,-y,1/2+z
loop_
_atom_site_type_symbol
_atom_site_label
_atom_site_fract_x
_atom_site_fract_y
_atom_site_fract_z
Si Si1 0.857336 0.248386 0.815596
Si Si2 0.650415 0.166807 0.684283
Si Si3 0.352041 0.050919 0.819306
Si Si4 0.646598 0.444387 0.184748
Si Si5 0.145922 0.361626 0.814835
O O1 0.743493 0.206174 0.779485
O O2 0.816826 0.302323 0.731141
O O3 0.000000 0.227583 0.750000
O O4 0.869346 0.258264 0.000000
O O5 0.500000 0.172176 0.750000
O O6 0.650565 0.179884 0.500000
O O7 0.711846 0.108214 0.715812
O O8 0.500000 0.051714 0.750000
O O9 0.270955 0.000000 0.750000
O O10 0.363736 0.040905 0.000000
O O11 0.698972 0.500000 0.250000
O O12 0.500000 0.430358 0.250000
O O13 0.746534 0.399129 0.236025
O O14 0.638690 0.447913 0.000000
O O15 0.000000 0.377385 0.750000
O O16 0.149067 0.368303 0.000000
#
# Coordination Sequence:
#
# PCOD8203627 Si02
#       5
#     8   8   8   8   8
#     4  11  22  38  58  80 107 143 180 221 270 324
#     4  10  20  34  52  79 109 140 178 223 268 318
#     4   9  16  26  44  69 101 135 171 213 262 313
#     4  11  22  39  60  86 116 149 184 222 269 321
#     4  11  22  39  60  84 111 143 182 226 269 318
#
# _framework density 18.558720999999998
#
# number of rings (size 3 to 8) (size 9 to 14) (size 15 to 20)
#    0.000    1.600    0.000    9.000    0.000    3.600 
#    0.000    6.000    0.000    0.600    0.000    4.200 
#    0.000    0.000    0.000    0.000    0.000    0.000 
#
# Total GULP energy -495895.504175 kJ/mol
# GULP energy per Si atom -12397.387604 kJ/mol
# Density = 1.851648 g / cm^3
# Si number density = 18.558721 Si / 1000 Ang^3
#
#
#
# Elastic Constant Matrix: (Units=GPa)
#
#
# Indices 1 2 3 4 5 6 
#
# 1 76.2129 64.0904 32.2313 0.0000 0.0000 0.0000
# 2 64.0904 104.0199 36.7527 0.0000 0.0000 0.0000
# 3 32.2313 36.7527 137.3989 0.0000 0.0000 0.0000
# 4 0.0000 0.0000 0.0000 35.2739 0.0000 0.0000
# 5 0.0000 0.0000 0.0000 0.0000 27.5585 0.0000
# 6 0.0000 0.0000 0.0000 0.0000 0.0000 117.7227
#
#
#
# Elastic Compliance Matrix: (Units=1/GPa)
#
#
# Indices 1 2 3 4 5 6 
#
# 1 0.027789 -0.016365 -0.002141 0.000000 0.000000 0.000000
# 2 -0.016365 0.020255 -0.001579 0.000000 0.000000 0.000000
# 3 -0.002141 -0.001579 0.008203 0.000000 0.000000 0.000000
# 4 0.000000 0.000000 0.000000 0.028350 0.000000 0.000000
# 5 0.000000 0.000000 0.000000 0.000000 0.036286 0.000000
# 6 0.000000 0.000000 0.000000 0.000000 0.000000 0.008495
#
#
# Mechanical properties :
#
#
# Convention : Reuss Voigt Hill
#
# Bulk Modulus (GPa) = 62.20653 64.86450 63.53552
# Shear Modulus (GPa) = 28.58687 48.41486 38.50086
#
# Velocity S-wave (km/s) = 3.92898 5.11312 4.55966
# Velocity P-wave (km/s) = 7.36030 8.35976 7.87590
#
# Compressibility (1/GPa) = 0.01607548
#
# Stress axis : x y z
#
# Youngs Moduli (GPa) = 35.98579 49.37164 121.91080
#
# Poissons Ratio (x) = 0.80797 0.26104
# Poissons Ratio (y) = 0.58891 0.19249
# Poissons Ratio (z) = 0.07705 0.07795
#
# Static dielectric constant tensor:
#      x y z
#    x 3.175840 0.000000 0.000000 
#    y 0.000000 4.070580 0.000000 
#    z 0.000000 0.000000 3.662320 
# 
# 
# High freq. dielectric constant tensor:
#      x y z
#    x 1.690060 0.000000 0.000000 
#    y 0.000000 1.738140 0.000000 
#    z 0.000000 0.000000 1.747120 
# 
# From -- ./inp_files/1918.got.cif
#   From: 2010.03.12/outbox.cif.g09.slc.cpg/sg49_1_cif.got.tgz:1918.got - 2010.04.14 03:58:27.
