data_PCOD8203414
_publ_section_title
;
Structure prediction by ZEFSAII (Michael W. Deem and Ramdas Pophale) SiO2 
 PCOD8203414
Probable space group: P C C M
;
_chemical_formula_sum "Si O2"
_cell_formula_units_Z 64
_cell_length_a 14.137419
_cell_length_b 12.558056
_cell_length_c 17.825735
_cell_angle_alpha 90.000000
_cell_angle_beta 90.000000
_cell_angle_gamma 90.000000
_cell_volume 3164.754244
_symmetry_space_group_name_H-M "P C C M"
_symmetry_group_IT_number 49
_symmetry_cell_setting 'orthorhombic'
loop_
_space_group_symop_operation_xyz
x,y,z
-x,-y,z
x,-y,1/2-z
-x,y,1/2-z
-x,-y,-z
x,y,-z
-x,y,1/2+z
x,-y,1/2+z
loop_
_atom_site_type_symbol
_atom_site_label
_atom_site_fract_x
_atom_site_fract_y
_atom_site_fract_z
Si Si1 0.899763 0.299686 0.341976
Si Si2 0.576105 0.749596 0.914946
Si Si3 0.800066 0.488228 0.160334
Si Si4 0.766344 0.066984 0.823456
Si Si5 0.107932 0.274939 0.332305
Si Si6 0.402933 0.537656 0.663966
Si Si7 0.233097 0.133075 0.916257
Si Si8 0.547397 0.887706 0.674095
O O1 0.863443 0.414427 0.372893
O O2 0.904276 0.305995 0.253332
O O3 0.827599 0.207376 0.362635
O O4 0.004652 0.269207 0.371863
O O5 0.601641 0.663432 0.851297
O O6 0.656989 0.838530 0.909780
O O7 0.477073 0.805845 0.892885
O O8 0.568832 0.703423 0.000000
O O9 0.795882 0.500000 0.250000
O O10 0.838729 0.375502 0.130680
O O11 0.693024 0.491508 0.127790
O O12 0.835738 0.165047 0.840533
O O13 0.659570 0.108103 0.814142
O O14 0.797098 0.000000 0.750000
O O15 0.776825 0.990023 0.894387
O O16 0.500000 0.500000 0.623049
O O17 0.407960 0.500000 0.750000
O O18 0.194435 0.148237 0.000000
O O19 0.500000 0.843062 0.750000
O O20 0.500000 0.000000 0.654396
#
# Coordination Sequence:
#
# PCOD8203414 Si02
#       8
#     8   8   8   8   8   8   8   8
#     4  10  19  39  60  89 120 154 211 254 313 370
#     4  11  24  41  63  91 126 168 213 255 312 384
#     4   9  18  34  60  89 123 153 198 258 309 364
#     4  12  22  39  60  92 130 158 210 265 311 371
#     4  10  22  34  62  93 119 156 198 269 315 357
#     4  10  22  36  60  96 122 162 201 256 311 372
#     4  11  23  40  64  88 123 170 206 252 313 379
#     4  11  22  36  61  90 120 165 209 257 310 370
#
# _framework density 20.222739000000001
#
# number of rings (size 3 to 8) (size 9 to 14) (size 15 to 20)
#    0.000    1.500    5.000    0.375    3.500    3.000 
#    0.000    1.250    0.000    3.000    0.000    0.000 
#    0.000    0.000    0.000    0.000    0.000    0.000 
#
# Total GULP energy -793223.720960 kJ/mol
# GULP energy per Si atom -12394.120640 kJ/mol
# Density = 2.017671 g / cm^3
# Si number density = 20.222739 Si / 1000 Ang^3
#
#
#
# Elastic Constant Matrix: (Units=GPa)
#
#
# Indices 1 2 3 4 5 6 
#
# 1 146.3048 64.0554 16.6818 0.0000 0.0000 0.0000
# 2 64.0554 134.1369 27.4855 0.0000 0.0000 0.0000
# 3 16.6818 27.4855 49.1702 0.0000 0.0000 0.0000
# 4 0.0000 0.0000 0.0000 17.4294 0.0000 0.0000
# 5 0.0000 0.0000 0.0000 0.0000 11.1998 0.0000
# 6 0.0000 0.0000 0.0000 0.0000 0.0000 34.3806
#
#
#
# Elastic Compliance Matrix: (Units=1/GPa)
#
#
# Indices 1 2 3 4 5 6 
#
# 1 0.008664 -0.003992 -0.000708 0.000000 0.000000 0.000000
# 2 -0.003992 0.010259 -0.004380 0.000000 0.000000 0.000000
# 3 -0.000708 -0.004380 0.023026 0.000000 0.000000 0.000000
# 4 0.000000 0.000000 0.000000 0.057374 0.000000 0.000000
# 5 0.000000 0.000000 0.000000 0.000000 0.089287 0.000000
# 6 0.000000 0.000000 0.000000 0.000000 0.000000 0.029086
#
#
# Mechanical properties :
#
#
# Convention : Reuss Voigt Hill
#
# Bulk Modulus (GPa) = 42.03714 60.67305 51.35510
# Shear Modulus (GPa) = 20.50978 27.36125 23.93552
#
# Velocity S-wave (km/s) = 3.18810 3.68230 3.44407
# Velocity P-wave (km/s) = 5.86380 6.93878 6.42381
#
# Compressibility (1/GPa) = 0.02378849
#
# Stress axis : x y z
#
# Youngs Moduli (GPa) = 115.42544 97.47519 43.42898
#
# Poissons Ratio (x) = 0.38914 0.03073
# Poissons Ratio (y) = 0.46080 0.19023
# Poissons Ratio (z) = 0.08169 0.42696
#
# Static dielectric constant tensor:
#      x y z
#    x 4.044240 0.000000 0.000000 
#    y 0.000000 3.675420 0.000000 
#    z 0.000000 0.000000 3.307350 
# 
# 
# High freq. dielectric constant tensor:
#      x y z
#    x 1.801410 0.000000 0.000000 
#    y 0.000000 1.794510 0.000000 
#    z 0.000000 0.000000 1.742360 
# 
# From -- ./inp_files/17988.got.cif
#   From: 2010.03.12/outbox.cif.g09.slc.cpg/sg49_9_cif.got.tgz:17988.got - 2010.04.14 03:58:27.
