data_PCOD8203027
_publ_section_title
;
Structure prediction by ZEFSAII (Michael W. Deem and Ramdas Pophale) SiO2 
 PCOD8203027
Probable space group: P C C M
;
_chemical_formula_sum "Si O2"
_cell_formula_units_Z 48
_cell_length_a 28.982113
_cell_length_b 9.357618
_cell_length_c 9.683442
_cell_angle_alpha 90.000000
_cell_angle_beta 90.000000
_cell_angle_gamma 90.000000
_cell_volume 2626.183772
_symmetry_space_group_name_H-M "P C C M"
_symmetry_group_IT_number 49
_symmetry_cell_setting 'orthorhombic'
loop_
_space_group_symop_operation_xyz
x,y,z
-x,-y,z
x,-y,1/2-z
-x,y,1/2-z
-x,-y,-z
x,y,-z
-x,y,1/2+z
x,-y,1/2+z
loop_
_atom_site_type_symbol
_atom_site_label
_atom_site_fract_x
_atom_site_fract_y
_atom_site_fract_z
Si Si1 0.545977 0.862329 0.165843
Si Si2 0.626587 0.639826 0.158573
Si Si3 0.953066 0.665820 0.000000
Si Si4 0.888636 0.331482 0.741378
Si Si5 0.297655 0.135601 0.159356
Si Si6 0.055892 0.673570 0.000000
Si Si7 0.808300 0.864071 0.160155
O O1 0.500000 0.817415 0.250000
O O2 0.581324 0.733844 0.182773
O O3 0.565646 0.000000 0.250000
O O4 0.537574 0.893523 0.000000
O O5 0.623207 0.500000 0.250000
O O6 0.671513 0.729824 0.203606
O O7 0.630656 0.591981 0.000000
O O8 0.925198 0.721390 0.870045
O O9 0.952888 0.494994 0.000000
O O10 0.004015 0.736775 0.000000
O O11 0.881406 0.500000 0.750000
O O12 0.912870 0.270861 0.876339
O O13 0.838415 0.268109 0.712757
O O14 0.244714 0.178563 0.185898
O O15 0.312167 0.000000 0.250000
O O16 0.306876 0.094826 0.000000
O O17 0.822573 0.000000 0.250000
O O18 0.817532 0.898244 0.000000
#
# Coordination Sequence:
#
# PCOD8203027 Si02
#       7
#     8   8   4   8   8   4   8
#     4  10  20  35  56  83 111 148 191 233 272 318
#     4  10  22  37  55  81 114 146 180 223 276 326
#     4   9  16  32  49  75 107 135 171 215 262 301
#     4  10  19  32  53  79 104 135 171 217 264 307
#     4   9  19  37  58  79 102 136 180 222 264 317
#     4   9  18  28  51  79 103 133 175 215 254 315
#     4  10  21  37  56  77 106 140 174 215 264 318
#
# _framework density 18.277470999999998
#
# number of rings (size 3 to 8) (size 9 to 14) (size 15 to 20)
#    0.000    2.333    0.833    2.000    1.167    5.000 
#    0.000    1.667    0.000    3.000    0.000    0.000 
#    0.000    0.000    0.000    0.000    0.000    0.000 
#
# Total GULP energy -594918.410224 kJ/mol
# GULP energy per Si atom -12394.133546 kJ/mol
# Density = 1.823587 g / cm^3
# Si number density = 18.277471 Si / 1000 Ang^3
#
#
#
# Elastic Constant Matrix: (Units=GPa)
#
#
# Indices 1 2 3 4 5 6 
#
# 1 108.8306 67.9280 65.5804 0.0000 0.0000 0.0000
# 2 67.9280 98.1015 64.0011 0.0000 0.0000 0.0000
# 3 65.5804 64.0011 144.1231 0.0000 0.0000 0.0000
# 4 0.0000 0.0000 0.0000 35.4369 0.0000 0.0000
# 5 0.0000 0.0000 0.0000 0.0000 30.9251 0.0000
# 6 0.0000 0.0000 0.0000 0.0000 0.0000 25.9765
#
#
#
# Elastic Compliance Matrix: (Units=1/GPa)
#
#
# Indices 1 2 3 4 5 6 
#
# 1 0.017428 -0.009706 -0.003620 0.000000 0.000000 0.000000
# 2 -0.009706 0.019757 -0.004357 0.000000 0.000000 0.000000
# 3 -0.003620 -0.004357 0.010521 0.000000 0.000000 0.000000
# 4 0.000000 0.000000 0.000000 0.028219 0.000000 0.000000
# 5 0.000000 0.000000 0.000000 0.000000 0.032336 0.000000
# 6 0.000000 0.000000 0.000000 0.000000 0.000000 0.038496
#
#
# Mechanical properties :
#
#
# Convention : Reuss Voigt Hill
#
# Bulk Modulus (GPa) = 81.04164 82.89715 81.96939
# Shear Modulus (GPa) = 26.84766 28.70409 27.77587
#
# Velocity S-wave (km/s) = 3.83677 3.96721 3.90253
# Velocity P-wave (km/s) = 8.00398 8.15097 8.07781
#
# Compressibility (1/GPa) = 0.01233934
#
# Stress axis : x y z
#
# Youngs Moduli (GPa) = 57.37838 50.61619 95.05175
#
# Poissons Ratio (x) = 0.49128 0.34411
# Poissons Ratio (y) = 0.55691 0.41413
# Poissons Ratio (z) = 0.20772 0.22053
#
# Static dielectric constant tensor:
#      x y z
#    x 3.517290 0.000000 0.000000 
#    y 0.000000 3.748440 0.000000 
#    z 0.000000 0.000000 3.623150 
# 
# 
# High freq. dielectric constant tensor:
#      x y z
#    x 1.723220 0.000000 0.000000 
#    y 0.000000 1.677560 0.000000 
#    z 0.000000 0.000000 1.724160 
# 
# From -- ./inp_files/6912.got.cif
#   From: 2010.03.12/outbox.cif.g09.slc.cpg/sg49_4_cif.got.tgz:6912.got - 2010.04.14 03:58:27.
