data_PCOD8203980
_publ_section_title
;
Structure prediction by ZEFSAII (Michael W. Deem and Ramdas Pophale) SiO2 
 PCOD8203980
Probable space group: P C C M
;
_chemical_formula_sum "Si O2"
_cell_formula_units_Z 64
_cell_length_a 18.468136
_cell_length_b 20.534823
_cell_length_c 8.832806
_cell_angle_alpha 90.000000
_cell_angle_beta 90.000000
_cell_angle_gamma 90.000000
_cell_volume 3349.752499
_symmetry_space_group_name_H-M "P C C M"
_symmetry_group_IT_number 49
_symmetry_cell_setting 'orthorhombic'
loop_
_space_group_symop_operation_xyz
x,y,z
-x,-y,z
x,-y,1/2-z
-x,y,1/2-z
-x,-y,-z
x,y,-z
-x,y,1/2+z
x,-y,1/2+z
loop_
_atom_site_type_symbol
_atom_site_label
_atom_site_fract_x
_atom_site_fract_y
_atom_site_fract_z
Si Si1 0.075548 0.188190 0.680067
Si Si2 0.345010 0.695388 0.179139
Si Si3 0.175895 0.435597 0.829643
Si Si4 0.692207 0.931746 0.320005
Si Si5 0.348372 0.564301 0.670626
Si Si6 0.154834 0.930375 0.681299
Si Si7 0.819455 0.304812 0.822595
Si Si8 0.423584 0.176381 0.678062
O O1 0.070563 0.178611 0.500000
O O2 0.096116 0.120840 0.760611
O O3 0.134016 0.242620 0.725498
O O4 0.000000 0.211707 0.750000
O O5 0.377598 0.628953 0.246997
O O6 0.262583 0.707373 0.233887
O O7 0.393499 0.754903 0.239924
O O8 0.347732 0.690337 0.000000
O O9 0.143760 0.500000 0.750000
O O10 0.262179 0.437008 0.819898
O O11 0.147004 0.369849 0.751496
O O12 0.147495 0.435908 0.000000
O O13 0.703377 0.937769 0.500000
O O14 0.767032 0.908891 0.244611
O O15 0.632034 0.879670 0.275034
O O16 0.666660 0.000000 0.250000
O O17 0.380687 0.500000 0.750000
O O18 0.376728 0.565216 0.500000
O O19 0.155870 0.933757 0.500000
O O20 0.132925 0.000000 0.750000
O O21 0.821342 0.316539 0.000000
O O22 0.500000 0.159417 0.750000
O O23 0.433052 0.179318 0.500000
#
# Coordination Sequence:
#
# PCOD8203980 Si02
#       8
#     8   8   8   8   8   8   8   8
#     4  11  23  39  57  80 111 146 182 222 267 318
#     4   9  17  32  52  74 100 135 174 215 262 313
#     4   9  16  26  44  72 105 135 170 214 263 315
#     4  10  20  37  59  84 111 141 177 219 266 316
#     4   9  16  26  43  71 102 132 165 209 259 310
#     4  11  22  38  61  87 112 141 177 219 266 318
#     4   9  18  33  54  76 103 138 176 218 266 316
#     4  10  22  37  54  76 107 144 181 220 266 316
#
# _framework density 19.105889000000001
#
# number of rings (size 3 to 8) (size 9 to 14) (size 15 to 20)
#    0.000    2.250    0.000    4.125    0.000    8.000 
#    0.000    5.000    0.000    0.750    0.000    5.250 
#    0.000    0.000    0.000    0.000    0.000    0.000 
#
# Total GULP energy -793685.107049 kJ/mol
# GULP energy per Si atom -12401.329798 kJ/mol
# Density = 1.906240 g / cm^3
# Si number density = 19.105889 Si / 1000 Ang^3
#
#
#
# Elastic Constant Matrix: (Units=GPa)
#
#
# Indices 1 2 3 4 5 6 
#
# 1 38.7410 22.7338 19.3006 0.0000 0.0000 0.0000
# 2 22.7338 107.4409 39.4800 0.0000 0.0000 0.0000
# 3 19.3006 39.4800 80.9605 0.0000 0.0000 0.0000
# 4 0.0000 0.0000 0.0000 34.0982 0.0000 0.0000
# 5 0.0000 0.0000 0.0000 0.0000 24.8976 0.0000
# 6 0.0000 0.0000 0.0000 0.0000 0.0000 4.7958
#
#
#
# Elastic Compliance Matrix: (Units=1/GPa)
#
#
# Indices 1 2 3 4 5 6 
#
# 1 0.031126 -0.004702 -0.005127 0.000000 0.000000 0.000000
# 2 -0.004702 0.012050 -0.004755 0.000000 0.000000 0.000000
# 3 -0.005127 -0.004755 0.015893 0.000000 0.000000 0.000000
# 4 0.000000 0.000000 0.000000 0.029327 0.000000 0.000000
# 5 0.000000 0.000000 0.000000 0.000000 0.040165 0.000000
# 6 0.000000 0.000000 0.000000 0.000000 0.000000 0.208514
#
#
# Mechanical properties :
#
#
# Convention : Reuss Voigt Hill
#
# Bulk Modulus (GPa) = 33.44512 43.35233 38.39872
# Shear Modulus (GPa) = 13.29047 22.46687 17.87867
#
# Velocity S-wave (km/s) = 2.64032 3.43288 3.06235
# Velocity P-wave (km/s) = 5.18056 6.20102 5.71362
#
# Compressibility (1/GPa) = 0.02989973
#
# Stress axis : x y z
#
# Youngs Moduli (GPa) = 32.12738 82.99024 62.92150
#
# Poissons Ratio (x) = 0.39022 0.32263
# Poissons Ratio (y) = 0.15106 0.29919
# Poissons Ratio (z) = 0.16473 0.39462
#
# Static dielectric constant tensor:
#      x y z
#    x 3.220520 0.000000 0.000000 
#    y 0.000000 3.712910 0.000000 
#    z 0.000000 0.000000 3.504350 
# 
# 
# High freq. dielectric constant tensor:
#      x y z
#    x 1.706720 0.000000 0.000000 
#    y 0.000000 1.760060 0.000000 
#    z 0.000000 0.000000 1.747670 
# 
# From -- ./inp_files/5267.got.cif
#   From: 2010.03.12/outbox.cif.g09.slc.cpg/sg49_3_cif.got.tgz:5267.got - 2010.04.14 03:58:27.
