data_PCOD8203755
_publ_section_title
;
Structure prediction by ZEFSAII (Michael W. Deem and Ramdas Pophale) SiO2 
 PCOD8203755
Probable space group: P C C M
;
_chemical_formula_sum "Si O2"
_cell_formula_units_Z 64
_cell_length_a 16.777830
_cell_length_b 12.660054
_cell_length_c 15.296227
_cell_angle_alpha 90.000000
_cell_angle_beta 90.000000
_cell_angle_gamma 90.000000
_cell_volume 3249.044561
_symmetry_space_group_name_H-M "P C C M"
_symmetry_group_IT_number 49
_symmetry_cell_setting 'orthorhombic'
loop_
_space_group_symop_operation_xyz
x,y,z
-x,-y,z
x,-y,1/2-z
-x,y,1/2-z
-x,-y,-z
x,y,-z
-x,y,1/2+z
x,-y,1/2+z
loop_
_atom_site_type_symbol
_atom_site_label
_atom_site_fract_x
_atom_site_fract_y
_atom_site_fract_z
Si Si1 0.333704 0.120383 0.750001
Si Si2 0.673302 0.715437 0.397427
Si Si3 0.145017 0.741629 0.596092
Si Si4 0.145493 0.114086 0.750001
Si Si5 0.854983 0.741629 0.403908
Si Si6 0.999999 0.622093 0.153501
Si Si7 0.326700 0.284563 0.897427
Si Si8 0.589637 0.500001 0.396552
O O1 0.358653 0.186705 0.662449
O O2 0.240048 0.106774 0.750009
O O3 0.358658 0.186708 0.837551
O O4 0.371265 0.000000 0.750000
O O5 0.654407 0.739568 0.500000
O O6 0.767375 0.697395 0.380993
O O7 0.632855 0.606877 0.364255
O O8 0.146526 0.792735 0.500000
O O9 0.115509 0.829953 0.662767
O O10 0.232626 0.697400 0.619008
O O11 0.079911 0.649469 0.600076
O O12 0.115515 0.170043 0.662765
O O13 0.105505 0.000000 0.750000
O O14 0.853473 0.792734 0.500000
O O15 0.920090 0.649472 0.399923
O O16 0.000000 0.500000 0.166454
O O17 0.000000 0.675979 0.250000
O O18 0.367144 0.393125 0.864255
O O19 0.345594 0.260433 0.000000
O O20 0.500000 0.500000 0.359085
O O21 0.589914 0.500002 0.500000
#
# Coordination Sequence:
#
# PCOD8203755 Si02
#       8
#     8   8   8   8   8   8   8   8
#     4   9  18  33  54  81 109 144 185 227 272 317
#     4   9  19  34  55  83 111 144 182 223 270 325
#     4  10  20  35  54  78 107 138 179 220 265 317
#     4   9  18  35  55  76 106 137 176 226 271 311
#     4  10  20  35  54  78 107 138 179 220 265 317
#     4  11  23  37  53  75 105 142 181 218 266 320
#     4   9  19  34  55  83 111 144 182 223 270 325
#     4   9  18  35  59  86 116 146 178 219 270 329
#
# _framework density 19.698098000000002
#
# number of rings (size 3 to 8) (size 9 to 14) (size 15 to 20)
#    0.000    2.500    1.250    0.375    1.750    2.500 
#    0.000    7.500    0.000    3.000    0.000    3.500 
#    0.000    0.000    0.000    0.000    0.000    0.000 
#
# Total GULP energy -793138.929280 kJ/mol
# GULP energy per Si atom -12392.795770 kJ/mol
# Density = 1.965326 g / cm^3
# Si number density = 19.698098 Si / 1000 Ang^3
#
#
#
# Elastic Constant Matrix: (Units=GPa)
#
#
# Indices 1 2 3 4 5 6 
#
# 1 82.6296 51.9515 31.1297 0.0000 0.0000 0.0000
# 2 51.9515 156.7642 66.7620 0.0000 0.0000 0.0000
# 3 31.1297 66.7620 121.0937 0.0000 0.0000 0.0000
# 4 0.0000 0.0000 0.0000 20.2562 0.0000 0.0000
# 5 0.0000 0.0000 0.0000 0.0000 15.6282 0.0000
# 6 0.0000 0.0000 0.0000 0.0000 0.0000 9.0209
#
#
#
# Elastic Compliance Matrix: (Units=1/GPa)
#
#
# Indices 1 2 3 4 5 6 
#
# 1 0.015495 -0.004494 -0.001506 0.000000 0.000000 0.000000
# 2 -0.004494 0.009640 -0.004159 0.000000 0.000000 0.000000
# 3 -0.001506 -0.004159 0.010938 0.000000 0.000000 0.000000
# 4 0.000000 0.000000 0.000000 0.049368 0.000000 0.000000
# 5 0.000000 0.000000 0.000000 0.000000 0.063987 0.000000
# 6 0.000000 0.000000 0.000000 0.000000 0.000000 0.110853
#
#
# Mechanical properties :
#
#
# Convention : Reuss Voigt Hill
#
# Bulk Modulus (GPa) = 63.47171 73.35266 68.41219
# Shear Modulus (GPa) = 17.49170 23.02401 20.25786
#
# Velocity S-wave (km/s) = 2.98315 3.42255 3.21037
# Velocity P-wave (km/s) = 6.64513 7.27583 6.96762
#
# Compressibility (1/GPa) = 0.01575505
#
# Stress axis : x y z
#
# Youngs Moduli (GPa) = 64.53788 103.73906 91.42179
#
# Poissons Ratio (x) = 0.46617 0.13766
# Poissons Ratio (y) = 0.29001 0.38025
# Poissons Ratio (z) = 0.09718 0.43149
#
# Static dielectric constant tensor:
#      x y z
#    x 3.423750 0.000000 0.000000 
#    y 0.000000 3.718950 0.000000 
#    z 0.000000 0.000000 3.830650 
# 
# 
# High freq. dielectric constant tensor:
#      x y z
#    x 1.745750 0.000000 0.000000 
#    y 0.000000 1.755040 0.000000 
#    z 0.000000 0.000000 1.775890 
# 
# From -- ./inp_files/14202.got.cif
#   From: 2010.03.12/outbox.cif.g09.slc.cpg/sg49_8_cif.got.tgz:14202.got - 2010.04.14 03:58:27.
