data_PCOD8203944
_publ_section_title
;
Structure prediction by ZEFSAII (Michael W. Deem and Ramdas Pophale) SiO2 
 PCOD8203944
Probable space group: P C C M
;
_chemical_formula_sum "Si O2"
_cell_formula_units_Z 64
_cell_length_a 15.001712
_cell_length_b 24.975713
_cell_length_c 8.457634
_cell_angle_alpha 90.000000
_cell_angle_beta 90.000000
_cell_angle_gamma 90.000000
_cell_volume 3168.893227
_symmetry_space_group_name_H-M "P C C M"
_symmetry_group_IT_number 49
_symmetry_cell_setting 'orthorhombic'
loop_
_space_group_symop_operation_xyz
x,y,z
-x,-y,z
x,-y,1/2-z
-x,y,1/2-z
-x,-y,-z
x,y,-z
-x,y,1/2+z
x,-y,1/2+z
loop_
_atom_site_type_symbol
_atom_site_label
_atom_site_fract_x
_atom_site_fract_y
_atom_site_fract_z
Si Si1 0.277760 0.056101 0.815197
Si Si2 0.271131 0.650294 0.686079
Si Si3 0.315979 0.165539 0.683579
Si Si4 0.091784 0.310083 0.685865
Si Si5 0.403720 0.558180 0.687003
Si Si6 0.909159 0.085769 0.183310
Si Si7 0.409065 0.740715 0.685752
Si Si8 0.132971 0.194848 0.182941
O O1 0.332227 0.103701 0.729808
O O2 0.172636 0.060813 0.779686
O O3 0.314923 0.000000 0.750000
O O4 0.294812 0.059796 0.000000
O O5 0.254174 0.648278 0.500000
O O6 0.175457 0.652018 0.771612
O O7 0.326609 0.598634 0.744335
O O8 0.327275 0.702631 0.733596
O O9 0.290330 0.168813 0.500000
O O10 0.400881 0.201977 0.725147
O O11 0.238476 0.191001 0.790784
O O12 0.087503 0.301980 0.500000
O O13 0.098777 0.252909 0.770416
O O14 0.000000 0.336909 0.750000
O O15 0.377382 0.500000 0.750000
O O16 0.500000 0.576935 0.750000
O O17 0.410050 0.557203 0.500000
O O18 0.913949 0.149811 0.209541
O O19 0.000000 0.059652 0.250000
O O20 0.896700 0.072214 0.000000
O O21 0.500000 0.714102 0.750000
O O22 0.414650 0.749101 0.500000
O O23 0.111093 0.183744 0.000000
#
# Coordination Sequence:
#
# PCOD8203944 Si02
#       8
#     8   8   8   8   8   8   8   8
#     4  11  22  38  57  78 102 137 181 230 285 344
#     4  10  22  39  59  86 124 163 203 249 300 350
#     4  11  21  36  57  83 112 147 188 231 285 347
#     4  12  24  37  56  81 114 157 203 249 298 351
#     4  10  20  36  60  91 126 166 207 252 298 354
#     4  11  21  34  50  73 102 136 179 229 285 345
#     4  11  22  37  59  88 123 159 193 237 291 354
#     4  11  20  34  53  76 108 146 189 236 286 342
#
# _framework density 20.196325000000002
#
# number of rings (size 3 to 8) (size 9 to 14) (size 15 to 20)
#    0.000    1.125    1.250    9.000    0.000    1.750 
#    0.000    1.250    0.000    0.750    0.000    5.250 
#    0.000    0.000    0.000    0.000    0.000    0.000 
#
# Total GULP energy -793765.672272 kJ/mol
# GULP energy per Si atom -12402.588629 kJ/mol
# Density = 2.015036 g / cm^3
# Si number density = 20.196325 Si / 1000 Ang^3
#
#
#
# Elastic Constant Matrix: (Units=GPa)
#
#
# Indices 1 2 3 4 5 6 
#
# 1 99.4248 45.1163 30.0138 0.0000 0.0000 0.0000
# 2 45.1163 107.1141 31.4853 0.0000 0.0000 0.0000
# 3 30.0138 31.4853 112.1079 0.0000 0.0000 0.0000
# 4 0.0000 0.0000 0.0000 27.5960 0.0000 0.0000
# 5 0.0000 0.0000 0.0000 0.0000 32.0101 0.0000
# 6 0.0000 0.0000 0.0000 0.0000 0.0000 5.1753
#
#
#
# Elastic Compliance Matrix: (Units=1/GPa)
#
#
# Indices 1 2 3 4 5 6 
#
# 1 0.012871 -0.004805 -0.002096 0.000000 0.000000 0.000000
# 2 -0.004805 0.011970 -0.002075 0.000000 0.000000 0.000000
# 3 -0.002096 -0.002075 0.010064 0.000000 0.000000 0.000000
# 4 0.000000 0.000000 0.000000 0.036237 0.000000 0.000000
# 5 0.000000 0.000000 0.000000 0.000000 0.031240 0.000000
# 6 0.000000 0.000000 0.000000 0.000000 0.000000 0.193226
#
#
# Mechanical properties :
#
#
# Convention : Reuss Voigt Hill
#
# Bulk Modulus (GPa) = 58.99192 59.09750 59.04471
# Shear Modulus (GPa) = 15.66359 27.09172 21.37765
#
# Velocity S-wave (km/s) = 2.78792 3.66651 3.25698
# Velocity P-wave (km/s) = 6.29571 6.87382 6.59111
#
# Compressibility (1/GPa) = 0.01695147
#
# Stress axis : x y z
#
# Youngs Moduli (GPa) = 77.69339 83.54410 99.36348
#
# Poissons Ratio (x) = 0.40144 0.20831
# Poissons Ratio (y) = 0.37332 0.20620
# Poissons Ratio (z) = 0.16288 0.17337
#
# Static dielectric constant tensor:
#      x y z
#    x 3.743030 0.000000 0.000000 
#    y 0.000000 3.804910 0.000000 
#    z 0.000000 0.000000 3.665700 
# 
# 
# High freq. dielectric constant tensor:
#      x y z
#    x 1.776510 0.000000 0.000000 
#    y 0.000000 1.771670 0.000000 
#    z 0.000000 0.000000 1.801440 
# 
# From -- ./inp_files/4423.got.cif
#   From: 2010.03.12/outbox.cif.g09.slc.cpg/sg49_3_cif.got.tgz:4423.got - 2010.04.14 03:58:27.
