data_PCOD8203404
_publ_section_title
;
Structure prediction by ZEFSAII (Michael W. Deem and Ramdas Pophale) SiO2 
 PCOD8203404
Probable space group: P C C M
;
_chemical_formula_sum "Si O2"
_cell_formula_units_Z 48
_cell_length_a 9.757603
_cell_length_b 9.164218
_cell_length_c 28.030501
_cell_angle_alpha 90.000000
_cell_angle_beta 90.000000
_cell_angle_gamma 90.000000
_cell_volume 2506.509853
_symmetry_space_group_name_H-M "P C C M"
_symmetry_group_IT_number 49
_symmetry_cell_setting 'orthorhombic'
loop_
_space_group_symop_operation_xyz
x,y,z
-x,-y,z
x,-y,1/2-z
-x,y,1/2-z
-x,-y,-z
x,y,-z
-x,y,1/2+z
x,-y,1/2+z
loop_
_atom_site_type_symbol
_atom_site_label
_atom_site_fract_x
_atom_site_fract_y
_atom_site_fract_z
Si Si1 0.995434 0.836768 0.912077
Si Si2 0.270963 0.839574 0.355430
Si Si3 0.150989 0.172200 0.754528
Si Si4 0.088047 0.644679 0.000000
Si Si5 0.244492 0.174154 0.345422
Si Si6 0.524546 0.672132 0.397656
Si Si7 0.587198 0.354860 0.000000
O O1 0.089929 0.824929 0.865253
O O2 0.842100 0.799506 0.895208
O O3 0.047024 0.730595 0.952803
O O4 0.000000 0.000000 0.933093
O O5 0.223186 0.781317 0.303699
O O6 0.406609 0.756469 0.370358
O O7 0.304833 0.011595 0.353048
O O8 0.243293 0.222942 0.709862
O O9 0.000000 0.243922 0.750000
O O10 0.134710 0.000000 0.750000
O O11 0.250039 0.611394 0.000000
O O12 0.000000 0.500000 0.000000
O O13 0.333310 0.295269 0.371702
O O14 0.500000 0.500000 0.396681
O O15 0.542711 0.731476 0.452111
O O16 0.500000 0.500000 0.000000
#
# Coordination Sequence:
#
# PCOD8203404 Si02
#       7
#     8   8   8   4   8   8   4
#     4  10  21  37  61  91 123 146 189 251 300 338
#     4  10  21  36  62  93 117 153 195 236 297 351
#     4   9  16  32  61  92 119 150 190 240 294 348
#     4  12  25  39  65  88 114 158 206 244 291 359
#     4  10  19  38  62  89 120 152 192 244 291 350
#     4  11  24  41  60  79 120 160 200 241 289 354
#     4  10  24  43  58  79 115 157 200 243 291 342
#
# _framework density 19.150134000000001
#
# number of rings (size 3 to 8) (size 9 to 14) (size 15 to 20)
#    0.000    1.833    3.333    0.750    4.667    0.667 
#    0.000    6.667    0.000    1.000    0.000    0.000 
#    0.000    0.000    0.000    0.000    0.000    0.000 
#
# Total GULP energy -595113.877993 kJ/mol
# GULP energy per Si atom -12398.205792 kJ/mol
# Density = 1.910655 g / cm^3
# Si number density = 19.150134 Si / 1000 Ang^3
#
#
#
# Elastic Constant Matrix: (Units=GPa)
#
#
# Indices 1 2 3 4 5 6 
#
# 1 91.1333 29.1759 41.0725 0.0000 0.0000 0.0000
# 2 29.1759 61.7596 37.3413 0.0000 0.0000 0.0000
# 3 41.0725 37.3413 145.9069 0.0000 0.0000 0.0000
# 4 0.0000 0.0000 0.0000 19.0355 0.0000 0.0000
# 5 0.0000 0.0000 0.0000 0.0000 23.7408 0.0000
# 6 0.0000 0.0000 0.0000 0.0000 0.0000 30.1008
#
#
#
# Elastic Compliance Matrix: (Units=1/GPa)
#
#
# Indices 1 2 3 4 5 6 
#
# 1 0.013718 -0.004905 -0.002606 0.000000 0.000000 0.000000
# 2 -0.004905 0.020910 -0.003971 0.000000 0.000000 0.000000
# 3 -0.002606 -0.003971 0.008604 0.000000 0.000000 0.000000
# 4 0.000000 0.000000 0.000000 0.052533 0.000000 0.000000
# 5 0.000000 0.000000 0.000000 0.000000 0.042121 0.000000
# 6 0.000000 0.000000 0.000000 0.000000 0.000000 0.033222
#
#
# Mechanical properties :
#
#
# Convention : Reuss Voigt Hill
#
# Bulk Modulus (GPa) = 49.33948 57.10880 53.22414
# Shear Modulus (GPa) = 24.89711 27.32277 26.10994
#
# Velocity S-wave (km/s) = 3.60960 3.78135 3.69648
# Velocity P-wave (km/s) = 6.57212 6.99651 6.78764
#
# Compressibility (1/GPa) = 0.02026774
#
# Stress axis : x y z
#
# Youngs Moduli (GPa) = 72.89827 47.82501 116.23109
#
# Poissons Ratio (x) = 0.23456 0.30293
# Poissons Ratio (y) = 0.35754 0.46151
# Poissons Ratio (z) = 0.19000 0.18990
#
# Static dielectric constant tensor:
#      x y z
#    x 3.519920 0.000000 0.000000 
#    y 0.000000 3.076380 0.000000 
#    z 0.000000 0.000000 3.938310 
# 
# 
# High freq. dielectric constant tensor:
#      x y z
#    x 1.752480 0.000000 0.000000 
#    y 0.000000 1.709670 0.000000 
#    z 0.000000 0.000000 1.763750 
# 
# From -- ./inp_files/26320.got.cif
#   From: 2010.03.12/outbox.cif.g09.slc.cpg/sg49_14_cif.got.tgz:26320.got - 2010.04.14 03:58:27.
