data_PCOD8203145
_publ_section_title
;
Structure prediction by ZEFSAII (Michael W. Deem and Ramdas Pophale) SiO2 
 PCOD8203145
Probable space group: P C C M
;
_chemical_formula_sum "Si O2"
_cell_formula_units_Z 64
_cell_length_a 22.415822
_cell_length_b 15.793638
_cell_length_c 8.944557
_cell_angle_alpha 90.000000
_cell_angle_beta 90.000000
_cell_angle_gamma 90.000000
_cell_volume 3166.618063
_symmetry_space_group_name_H-M "P C C M"
_symmetry_group_IT_number 49
_symmetry_cell_setting 'orthorhombic'
loop_
_space_group_symop_operation_xyz
x,y,z
-x,-y,z
x,-y,1/2-z
-x,y,1/2-z
-x,-y,-z
x,y,-z
-x,y,1/2+z
x,-y,1/2+z
loop_
_atom_site_type_symbol
_atom_site_label
_atom_site_fract_x
_atom_site_fract_y
_atom_site_fract_z
Si Si1 0.147969 0.411007 0.178521
Si Si2 0.234031 0.082732 0.325138
Si Si3 0.061673 0.273291 0.679101
Si Si4 0.902434 0.085326 0.174937
Si Si5 0.715326 0.387466 0.664035
Si Si6 0.399665 0.420536 0.672997
Si Si7 0.438874 0.236157 0.677710
Si Si8 0.322651 0.196550 0.164937
O O1 0.125662 0.500000 0.250000
O O2 0.113200 0.332001 0.251545
O O3 0.217212 0.398165 0.221729
O O4 0.137670 0.411569 0.000000
O O5 0.240694 0.075663 0.500000
O O6 0.165940 0.093586 0.274801
O O7 0.270195 0.161439 0.266117
O O8 0.262272 0.000000 0.250000
O O9 0.062259 0.282959 0.500000
O O10 0.068293 0.174112 0.726461
O O11 0.000000 0.305939 0.750000
O O12 0.930646 0.000000 0.250000
O O13 0.909877 0.072306 0.000000
O O14 0.708273 0.430696 0.500000
O O15 0.670504 0.426896 0.784792
O O16 0.696142 0.291832 0.645442
O O17 0.433121 0.500000 0.750000
O O18 0.407012 0.431629 0.500000
O O19 0.430002 0.333784 0.726621
O O20 0.500000 0.202752 0.750000
O O21 0.439402 0.223998 0.500000
O O22 0.385085 0.182551 0.748859
O O23 0.327201 0.154088 0.000000
#
# Coordination Sequence:
#
# PCOD8203145 Si02
#       8
#     8   8   8   8   8   8   8   8
#     4  11  23  39  59  84 112 147 189 237 288 339
#     4  10  19  33  54  83 115 145 176 213 260 317
#     4  11  24  42  61  84 113 149 192 237 281 331
#     4   9  20  37  60  89 121 153 185 224 275 333
#     4   9  19  34  54  80 109 139 175 218 271 329
#     4  10  20  32  49  73 103 136 172 215 266 319
#     4  10  21  36  52  72  98 135 180 224 266 313
#     4  10  19  33  54  80 109 142 177 219 268 321
#
# _framework density 20.210837000000001
#
# number of rings (size 3 to 8) (size 9 to 14) (size 15 to 20)
#    0.000    2.000    0.000    3.375    0.000    6.250 
#    0.000    3.750    0.000    0.375    0.000    2.625 
#    0.000    0.000    0.000    0.000    0.000    0.000 
#
# Total GULP energy -793366.229375 kJ/mol
# GULP energy per Si atom -12396.347334 kJ/mol
# Density = 2.016484 g / cm^3
# Si number density = 20.210837 Si / 1000 Ang^3
#
#
#
# Elastic Constant Matrix: (Units=GPa)
#
#
# Indices 1 2 3 4 5 6 
#
# 1 72.0651 15.3050 32.3831 0.0000 0.0000 0.0000
# 2 15.3050 54.0094 23.8266 0.0000 0.0000 0.0000
# 3 32.3831 23.8266 79.4292 0.0000 0.0000 0.0000
# 4 0.0000 0.0000 0.0000 35.2887 0.0000 0.0000
# 5 0.0000 0.0000 0.0000 0.0000 22.1115 0.0000
# 6 0.0000 0.0000 0.0000 0.0000 0.0000 8.9794
#
#
#
# Elastic Compliance Matrix: (Units=1/GPa)
#
#
# Indices 1 2 3 4 5 6 
#
# 1 0.017183 -0.002050 -0.006391 0.000000 0.000000 0.000000
# 2 -0.002050 0.021584 -0.005639 0.000000 0.000000 0.000000
# 3 -0.006391 -0.005639 0.016887 0.000000 0.000000 0.000000
# 4 0.000000 0.000000 0.000000 0.028338 0.000000 0.000000
# 5 0.000000 0.000000 0.000000 0.000000 0.045225 0.000000
# 6 0.000000 0.000000 0.000000 0.000000 0.000000 0.111366
#
#
# Mechanical properties :
#
#
# Convention : Reuss Voigt Hill
#
# Bulk Modulus (GPa) = 36.37024 38.72589 37.54806
# Shear Modulus (GPa) = 17.99160 22.20851 20.10005
#
# Velocity S-wave (km/s) = 2.98685 3.31847 3.15702
# Velocity P-wave (km/s) = 5.47079 5.82113 5.64868
#
# Compressibility (1/GPa) = 0.02749501
#
# Stress axis : x y z
#
# Youngs Moduli (GPa) = 58.19552 46.33098 59.21793
#
# Poissons Ratio (x) = 0.09498 0.37844
# Poissons Ratio (y) = 0.11931 0.33392
# Poissons Ratio (z) = 0.37191 0.26125
#
# Static dielectric constant tensor:
#      x y z
#    x 3.617000 0.000000 0.000000 
#    y 0.000000 3.730370 0.000000 
#    z 0.000000 0.000000 3.465640 
# 
# 
# High freq. dielectric constant tensor:
#      x y z
#    x 1.783880 0.000000 0.000000 
#    y 0.000000 1.780430 0.000000 
#    z 0.000000 0.000000 1.798810 
# 
# From -- ./inp_files/6521.got.cif
#   From: 2010.03.12/outbox.cif.g09.slc.cpg/sg49_4_cif.got.tgz:6521.got - 2010.04.14 03:58:27.
