data_PCOD8203554
_publ_section_title
;
Structure prediction by ZEFSAII (Michael W. Deem and Ramdas Pophale) SiO2 
 PCOD8203554
Probable space group: P C C M
;
_chemical_formula_sum "Si O2"
_cell_formula_units_Z 56
_cell_length_a 22.611662
_cell_length_b 14.858935
_cell_length_c 8.703286
_cell_angle_alpha 90.000000
_cell_angle_beta 90.000000
_cell_angle_gamma 90.000000
_cell_volume 2924.175426
_symmetry_space_group_name_H-M "P C C M"
_symmetry_group_IT_number 49
_symmetry_cell_setting 'orthorhombic'
loop_
_space_group_symop_operation_xyz
x,y,z
-x,-y,z
x,-y,1/2-z
-x,y,1/2-z
-x,-y,-z
x,y,-z
-x,y,1/2+z
x,-y,1/2+z
loop_
_atom_site_type_symbol
_atom_site_label
_atom_site_fract_x
_atom_site_fract_y
_atom_site_fract_z
Si Si1 0.659223 0.592965 0.682015
Si Si2 0.256755 0.094553 0.179310
Si Si3 0.560589 0.271039 0.181428
Si Si4 0.605456 0.906007 0.178537
Si Si5 0.936369 0.094778 0.318097
Si Si6 0.161684 0.217438 0.319320
Si Si7 0.207506 0.592461 0.819699
O O1 0.634943 0.500000 0.750000
O O2 0.657570 0.588107 0.500000
O O3 0.616078 0.671144 0.743256
O O4 0.725947 0.610865 0.742778
O O5 0.325497 0.111184 0.209097
O O6 0.223143 0.172715 0.269559
O O7 0.236102 0.000000 0.250000
O O8 0.239991 0.095784 0.000000
O O9 0.500000 0.311330 0.250000
O O10 0.567753 0.169416 0.237422
O O11 0.556814 0.273846 0.000000
O O12 0.585318 0.000000 0.250000
O O13 0.590230 0.905565 0.000000
O O14 0.940869 0.085843 0.500000
O O15 0.892257 0.174612 0.273820
O O16 0.000000 0.119301 0.250000
O O17 0.913181 0.000000 0.250000
O O18 0.151763 0.203517 0.500000
O O19 0.165771 0.323262 0.275793
O O20 0.181281 0.500000 0.750000
O O21 0.209913 0.579694 0.000000
#
# Coordination Sequence:
#
# PCOD8203554 Si02
#       7
#     8   8   8   8   8   8   8
#     4   9  19  36  57  80 106 138 172 213 265 321
#     4  10  20  33  51  78 109 140 174 216 265 320
#     4  11  23  38  55  76 103 134 174 219 265 317
#     4  10  21  37  56  77 103 136 174 216 266 319
#     4  11  22  38  58  82 114 152 192 231 271 316
#     4  11  21  34  54  81 113 148 184 224 269 317
#     4   9  19  35  56  81 109 140 176 218 267 320
#
# _framework density 19.150698999999999
#
# number of rings (size 3 to 8) (size 9 to 14) (size 15 to 20)
#    0.000    1.857    0.000    4.714    0.000    5.714 
#    0.000    5.714    0.000    0.429    0.000    3.000 
#    0.000    0.000    0.000    0.000    0.000    0.000 
#
# Total GULP energy -694581.313135 kJ/mol
# GULP energy per Si atom -12403.237735 kJ/mol
# Density = 1.910711 g / cm^3
# Si number density = 19.150699 Si / 1000 Ang^3
#
#
#
# Elastic Constant Matrix: (Units=GPa)
#
#
# Indices 1 2 3 4 5 6 
#
# 1 73.1204 51.4727 32.9509 0.0000 0.0000 0.0000
# 2 51.4727 131.5701 42.4183 0.0000 0.0000 0.0000
# 3 32.9509 42.4183 84.5773 0.0000 0.0000 0.0000
# 4 0.0000 0.0000 0.0000 33.6138 0.0000 0.0000
# 5 0.0000 0.0000 0.0000 0.0000 23.9319 0.0000
# 6 0.0000 0.0000 0.0000 0.0000 0.0000 23.5445
#
#
#
# Elastic Compliance Matrix: (Units=1/GPa)
#
#
# Indices 1 2 3 4 5 6 
#
# 1 0.020321 -0.006439 -0.004688 0.000000 0.000000 0.000000
# 2 -0.006439 0.011107 -0.003062 0.000000 0.000000 0.000000
# 3 -0.004688 -0.003062 0.015185 0.000000 0.000000 0.000000
# 4 0.000000 0.000000 0.000000 0.029750 0.000000 0.000000
# 5 0.000000 0.000000 0.000000 0.000000 0.041785 0.000000
# 6 0.000000 0.000000 0.000000 0.000000 0.000000 0.042473
#
#
# Mechanical properties :
#
#
# Convention : Reuss Voigt Hill
#
# Bulk Modulus (GPa) = 54.83504 60.32797 57.58150
# Shear Modulus (GPa) = 25.63103 27.04643 26.33873
#
# Velocity S-wave (km/s) = 3.66236 3.76213 3.71258
# Velocity P-wave (km/s) = 6.82492 7.10222 6.96495
#
# Compressibility (1/GPa) = 0.01823652
#
# Stress axis : x y z
#
# Youngs Moduli (GPa) = 49.21013 90.03679 65.85244
#
# Poissons Ratio (x) = 0.57971 0.30870
# Poissons Ratio (y) = 0.31685 0.20163
# Poissons Ratio (z) = 0.23069 0.27568
#
# Static dielectric constant tensor:
#      x y z
#    x 3.466000 0.000000 0.000000 
#    y 0.000000 3.553070 0.000000 
#    z 0.000000 0.000000 3.497350 
# 
# 
# High freq. dielectric constant tensor:
#      x y z
#    x 1.731960 0.000000 0.000000 
#    y 0.000000 1.745540 0.000000 
#    z 0.000000 0.000000 1.752190 
# 
# From -- ./inp_files/4049.got.cif
#   From: 2010.03.12/outbox.cif.g09.slc.cpg/sg49_3_cif.got.tgz:4049.got - 2010.04.14 03:58:27.
