data_PCOD8203942
_publ_section_title
;
Structure prediction by ZEFSAII (Michael W. Deem and Ramdas Pophale) SiO2 
 PCOD8203942
Probable space group: P C C M
;
_chemical_formula_sum "Si O2"
_cell_formula_units_Z 40
_cell_length_a 10.144000
_cell_length_b 11.006681
_cell_length_c 16.833246
_cell_angle_alpha 90.000000
_cell_angle_beta 90.000000
_cell_angle_gamma 90.000000
_cell_volume 1879.461745
_symmetry_space_group_name_H-M "P C C M"
_symmetry_group_IT_number 49
_symmetry_cell_setting 'orthorhombic'
loop_
_space_group_symop_operation_xyz
x,y,z
-x,-y,z
x,-y,1/2-z
-x,y,1/2-z
-x,-y,-z
x,y,-z
-x,y,1/2+z
x,-y,1/2+z
loop_
_atom_site_type_symbol
_atom_site_label
_atom_site_fract_x
_atom_site_fract_y
_atom_site_fract_z
Si Si1 0.106265 0.296951 0.814300
Si Si2 0.072225 0.874725 0.086390
Si Si3 0.459569 0.339492 0.335446
Si Si4 0.701839 0.453715 0.593046
Si Si5 0.706809 0.127928 0.787357
O O1 0.169608 0.412211 0.858425
O O2 0.222135 0.214744 0.776581
O O3 0.000000 0.343218 0.750000
O O4 0.030008 0.221290 0.879944
O O5 0.195531 0.900101 0.141639
O O6 0.120570 0.828477 0.000000
O O7 0.000000 0.000000 0.077058
O O8 0.500000 0.394539 0.250000
O O9 0.336648 0.414811 0.371281
O O10 0.582916 0.356404 0.395003
O O11 0.419890 0.198229 0.324039
O O12 0.734114 0.464459 0.500000
O O13 0.660992 0.000000 0.750000
#
# Coordination Sequence:
#
# PCOD8203942 Si02
#       5
#     8   8   8   8   8
#     4  10  21  38  66  96 129 170 215 265 322 392
#     4  10  20  36  60  90 131 171 212 265 330 392
#     4  11  23  41  67  92 124 175 223 262 323 386
#     4  11  23  43  69  97 131 169 216 274 331 385
#     4  11  22  39  64  92 130 169 222 268 316 390
#
# _framework density 21.282689999999999
#
# number of rings (size 3 to 8) (size 9 to 14) (size 15 to 20)
#    0.000    1.400    4.000    3.000    0.000    2.000 
#    0.000    7.000    0.000    7.200    0.000    0.000 
#    0.000    0.000    0.000    0.000    0.000    0.000 
#
# Total GULP energy -495928.734570 kJ/mol
# GULP energy per Si atom -12398.218364 kJ/mol
# Density = 2.123425 g / cm^3
# Si number density = 21.282690 Si / 1000 Ang^3
#
#
#
# Elastic Constant Matrix: (Units=GPa)
#
#
# Indices 1 2 3 4 5 6 
#
# 1 51.2339 47.8054 18.3191 0.0000 0.0000 0.0000
# 2 47.8054 108.1182 48.1225 0.0000 0.0000 0.0000
# 3 18.3191 48.1225 140.3811 0.0000 0.0000 0.0000
# 4 0.0000 0.0000 0.0000 26.2747 0.0000 0.0000
# 5 0.0000 0.0000 0.0000 0.0000 32.2469 0.0000
# 6 0.0000 0.0000 0.0000 0.0000 0.0000 37.6355
#
#
#
# Elastic Compliance Matrix: (Units=1/GPa)
#
#
# Indices 1 2 3 4 5 6 
#
# 1 0.033308 -0.015096 0.000828 0.000000 0.000000 0.000000
# 2 -0.015096 0.017756 -0.004117 0.000000 0.000000 0.000000
# 3 0.000828 -0.004117 0.008427 0.000000 0.000000 0.000000
# 4 0.000000 0.000000 0.000000 0.038059 0.000000 0.000000
# 5 0.000000 0.000000 0.000000 0.000000 0.031011 0.000000
# 6 0.000000 0.000000 0.000000 0.000000 0.000000 0.026571
#
#
# Mechanical properties :
#
#
# Convention : Reuss Voigt Hill
#
# Bulk Modulus (GPa) = 44.01057 58.69191 51.35124
# Shear Modulus (GPa) = 25.06576 31.59718 28.33147
#
# Velocity S-wave (km/s) = 3.43556 3.85729 3.65252
# Velocity P-wave (km/s) = 6.03833 6.89024 6.47830
#
# Compressibility (1/GPa) = 0.02272181
#
# Stress axis : x y z
#
# Youngs Moduli (GPa) = 30.02269 56.31757 118.67131
#
# Poissons Ratio (x) = 0.85018 -0.09831
# Poissons Ratio (y) = 0.45323 0.48856
# Poissons Ratio (z) = -0.02487 0.23185
#
# Static dielectric constant tensor:
#      x y z
#    x 3.835650 0.000000 0.000000 
#    y 0.000000 3.688970 0.000000 
#    z 0.000000 0.000000 4.320650 
# 
# 
# High freq. dielectric constant tensor:
#      x y z
#    x 1.831100 0.000000 0.000000 
#    y 0.000000 1.826450 0.000000 
#    z 0.000000 0.000000 1.840000 
# 
# From -- ./inp_files/12588.got.cif
#   From: 2010.03.12/outbox.cif.g09.slc.cpg/sg49_7_cif.got.tgz:12588.got - 2010.04.14 03:58:27.
