data_PCOD8203350
_publ_section_title
;
Structure prediction by ZEFSAII (Michael W. Deem and Ramdas Pophale) SiO2 
 PCOD8203350
Probable space group: P C C M
;
_chemical_formula_sum "Si O2"
_cell_formula_units_Z 64
_cell_length_a 20.828603
_cell_length_b 8.897836
_cell_length_c 16.555979
_cell_angle_alpha 90.000000
_cell_angle_beta 90.000000
_cell_angle_gamma 90.000000
_cell_volume 3068.311204
_symmetry_space_group_name_H-M "P C C M"
_symmetry_group_IT_number 49
_symmetry_cell_setting 'orthorhombic'
loop_
_space_group_symop_operation_xyz
x,y,z
-x,-y,z
x,-y,1/2-z
-x,y,1/2-z
-x,-y,-z
x,y,-z
-x,y,1/2+z
x,-y,1/2+z
loop_
_atom_site_type_symbol
_atom_site_label
_atom_site_fract_x
_atom_site_fract_y
_atom_site_fract_z
Si Si1 0.743412 0.066818 0.335530
Si Si2 0.096912 0.855088 0.094127
Si Si3 0.394087 0.838805 0.717869
Si Si4 0.658250 0.402860 0.826760
Si Si5 0.015470 0.663548 0.656523
Si Si6 0.866135 0.181250 0.596091
Si Si7 0.440596 0.393456 0.906496
Si Si8 0.769264 0.762474 0.407753
O O1 0.673859 0.141957 0.327667
O O2 0.794071 0.191289 0.367654
O O3 0.766407 0.000000 0.250000
O O4 0.740849 0.931158 0.399887
O O5 0.157584 0.758155 0.127499
O O6 0.028151 0.786719 0.112753
O O7 0.101909 0.025027 0.126105
O O8 0.107903 0.865335 0.000000
O O9 0.385061 0.739156 0.798699
O O10 0.440469 0.752953 0.653361
O O11 0.421526 0.000000 0.750000
O O12 0.674802 0.500000 0.750000
O O13 0.621913 0.503026 0.893246
O O14 0.726956 0.354290 0.859064
O O15 0.090049 0.691296 0.636979
O O16 0.000000 0.500000 0.621109
O O17 0.000000 0.672277 0.750000
O O18 0.864549 0.203095 0.500000
O O19 0.500000 0.500000 0.883525
O O20 0.443518 0.340093 0.000000
O O21 0.766322 0.712859 0.500000
#
# Coordination Sequence:
#
# PCOD8203350 Si02
#       8
#     8   8   8   8   8   8   8   8
#     4  10  19  35  62  95 124 154 198 268 316 370
#     4   9  20  38  59  82 109 146 196 249 309 373
#     4  10  20  39  65  97 130 165 213 265 320 370
#     4  10  20  37  61  90 127 170 212 253 311 384
#     4  11  25  40  53  79 114 155 201 255 312 376
#     4  10  22  38  61  88 113 152 203 252 315 384
#     4  10  23  43  65  93 134 178 218 260 309 376
#     4  10  19  35  60  88 121 159 201 256 318 379
#
# _framework density 20.858381000000001
#
# number of rings (size 3 to 8) (size 9 to 14) (size 15 to 20)
#    0.000    2.000    2.500    2.250    3.500    5.750 
#    6.750    1.250    0.000    1.500    0.000    0.000 
#    0.000    0.000    0.000    0.000    0.000    0.000 
#
# Total GULP energy -793373.239295 kJ/mol
# GULP energy per Si atom -12396.456864 kJ/mol
# Density = 2.081091 g / cm^3
# Si number density = 20.858381 Si / 1000 Ang^3
#
#
#
# Elastic Constant Matrix: (Units=GPa)
#
#
# Indices 1 2 3 4 5 6 
#
# 1 95.3536 32.5285 28.8022 0.0000 0.0000 0.0000
# 2 32.5285 96.1098 28.7973 0.0000 0.0000 0.0000
# 3 28.8022 28.7973 78.7986 0.0000 0.0000 0.0000
# 4 0.0000 0.0000 0.0000 18.0827 0.0000 0.0000
# 5 0.0000 0.0000 0.0000 0.0000 32.7656 0.0000
# 6 0.0000 0.0000 0.0000 0.0000 0.0000 41.1960
#
#
#
# Elastic Compliance Matrix: (Units=1/GPa)
#
#
# Indices 1 2 3 4 5 6 
#
# 1 0.012631 -0.003247 -0.003430 0.000000 0.000000 0.000000
# 2 -0.003247 0.012519 -0.003388 0.000000 0.000000 0.000000
# 3 -0.003430 -0.003388 0.015183 0.000000 0.000000 0.000000
# 4 0.000000 0.000000 0.000000 0.055302 0.000000 0.000000
# 5 0.000000 0.000000 0.000000 0.000000 0.030520 0.000000
# 6 0.000000 0.000000 0.000000 0.000000 0.000000 0.024274
#
#
# Mechanical properties :
#
#
# Convention : Reuss Voigt Hill
#
# Bulk Modulus (GPa) = 49.50129 50.05757 49.77943
# Shear Modulus (GPa) = 28.20182 30.41777 29.30980
#
# Velocity S-wave (km/s) = 3.68103 3.82291 3.75264
# Velocity P-wave (km/s) = 6.46918 6.59826 6.53404
#
# Compressibility (1/GPa) = 0.02020149
#
# Stress axis : x y z
#
# Youngs Moduli (GPa) = 79.16945 79.87847 65.86483
#
# Poissons Ratio (x) = 0.25939 0.22593
# Poissons Ratio (y) = 0.25708 0.22316
# Poissons Ratio (z) = 0.27156 0.27065
#
# Static dielectric constant tensor:
#      x y z
#    x 4.148870 0.000000 0.000000 
#    y 0.000000 3.907040 0.000000 
#    z 0.000000 0.000000 3.724900 
# 
# 
# High freq. dielectric constant tensor:
#      x y z
#    x 1.813020 0.000000 0.000000 
#    y 0.000000 1.807310 0.000000 
#    z 0.000000 0.000000 1.813020 
# 
# From -- ./inp_files/18291.got.cif
#   From: 2010.03.12/outbox.cif.g09.slc.cpg/sg49_10_cif.got.tgz:18291.got - 2010.04.14 03:58:27.
