data_PCOD8203383
_publ_section_title
;
Structure prediction by ZEFSAII (Michael W. Deem and Ramdas Pophale) SiO2 
 PCOD8203383
Probable space group: P C C M
;
_chemical_formula_sum "Si O2"
_cell_formula_units_Z 48
_cell_length_a 8.933488
_cell_length_b 13.634521
_cell_length_c 18.973789
_cell_angle_alpha 90.000000
_cell_angle_beta 90.000000
_cell_angle_gamma 90.000000
_cell_volume 2311.080165
_symmetry_space_group_name_H-M "P C C M"
_symmetry_group_IT_number 49
_symmetry_cell_setting 'orthorhombic'
loop_
_space_group_symop_operation_xyz
x,y,z
-x,-y,z
x,-y,1/2-z
-x,y,1/2-z
-x,-y,-z
x,y,-z
-x,y,1/2+z
x,-y,1/2+z
loop_
_atom_site_type_symbol
_atom_site_label
_atom_site_fract_x
_atom_site_fract_y
_atom_site_fract_z
Si Si1 0.918642 0.247756 0.576082
Si Si2 0.667998 0.969270 0.827583
Si Si3 0.815742 0.125722 0.083331
Si Si4 0.338747 0.697490 0.840540
Si Si5 0.125356 0.573213 0.922376
Si Si6 0.326617 0.738401 0.680730
O O1 0.839308 0.229920 0.500000
O O2 0.805109 0.299073 0.630209
O O3 0.008779 0.150067 0.601431
O O4 0.054438 0.321633 0.565673
O O5 0.672935 0.853396 0.834619
O O6 0.500000 0.000000 0.843816
O O7 0.719652 0.000000 0.750000
O O8 0.778211 0.019822 0.883719
O O9 0.703072 0.206285 0.115566
O O10 0.789926 0.120927 0.000000
O O11 0.267196 0.595480 0.870866
O O12 0.283060 0.713378 0.760544
O O13 0.518424 0.687156 0.841174
O O14 0.000000 0.500000 0.889218
O O15 0.177271 0.532636 0.000000
#
# Coordination Sequence:
#
# PCOD8203383 Si02
#       6
#     8   8   8   8   8   8
#     4   9  21  38  55  82 119 149 187 245 305 357
#     4  11  19  36  54  78 114 158 209 249 286 343
#     4  10  20  35  53  79 114 154 203 253 293 346
#     4  10  19  37  57  85 114 150 194 243 295 361
#     4   9  19  39  65  87 111 147 190 239 296 366
#     4  11  21  35  58  82 117 158 197 243 297 353
#
# _framework density 20.769508999999999
#
# number of rings (size 3 to 8) (size 9 to 14) (size 15 to 20)
#    0.000    2.000    3.333    2.500    0.000    5.667 
#    0.000    5.000    0.000    5.000    0.000    0.000 
#    0.000    0.000    0.000    0.000    0.000    0.000 
#
# Total GULP energy -594816.467408 kJ/mol
# GULP energy per Si atom -12392.009738 kJ/mol
# Density = 2.072224 g / cm^3
# Si number density = 20.769509 Si / 1000 Ang^3
#
#
#
# Elastic Constant Matrix: (Units=GPa)
#
#
# Indices 1 2 3 4 5 6 
#
# 1 96.1499 25.1457 79.1718 0.0000 0.0000 0.0000
# 2 25.1457 59.5517 24.5832 0.0000 0.0000 0.0000
# 3 79.1718 24.5832 136.1925 0.0000 0.0000 0.0000
# 4 0.0000 0.0000 0.0000 7.7697 0.0000 0.0000
# 5 0.0000 0.0000 0.0000 0.0000 -27.1350 0.0000
# 6 0.0000 0.0000 0.0000 0.0000 0.0000 17.6612
#
#
#
# Elastic Compliance Matrix: (Units=1/GPa)
#
#
# Indices 1 2 3 4 5 6 
#
# 1 0.020839 -0.004104 -0.011373 0.000000 0.000000 0.000000
# 2 -0.004104 0.018952 -0.001035 0.000000 0.000000 0.000000
# 3 -0.011373 -0.001035 0.014141 0.000000 0.000000 0.000000
# 4 0.000000 0.000000 0.000000 0.128705 0.000000 0.000000
# 5 0.000000 0.000000 0.000000 0.000000 -0.036853 0.000000
# 6 0.000000 0.000000 0.000000 0.000000 0.000000 0.056621
#
#
# Mechanical properties :
#
#
# Convention : Reuss Voigt Hill
#
# Bulk Modulus (GPa) = 47.83091 61.07729 54.45410
# Shear Modulus (GPa) = 20.62708 10.52540 15.57624
#
# Velocity S-wave (km/s) = 3.15484 2.25360 2.74151
# Velocity P-wave (km/s) = 6.02910 6.02019 6.02464
#
# Compressibility (1/GPa) = 0.02090698
#
# Stress axis : x y z
#
# Youngs Moduli (GPa) = 47.98768 52.76371 70.71700
#
# Poissons Ratio (x) = 0.21655 0.80428
# Poissons Ratio (y) = 0.19695 0.07320
# Poissons Ratio (z) = 0.54577 0.05462
#
# Static dielectric constant tensor:
#      x y z
#    x -0.984920 0.000000 0.000000 
#    y 0.000000 3.697740 0.000000 
#    z 0.000000 0.000000 3.696270 
# 
# 
# High freq. dielectric constant tensor:
#      x y z
#    x 1.803410 0.000000 0.000000 
#    y 0.000000 1.797690 0.000000 
#    z 0.000000 0.000000 1.815010 
# 
# From -- ./inp_files/16309.got.cif
#   From: 2010.03.12/outbox.cif.g09.slc.cpg/sg49_9_cif.got.tgz:16309.got - 2010.04.14 03:58:27.
