data_PCOD8203387
_publ_section_title
;
Structure prediction by ZEFSAII (Michael W. Deem and Ramdas Pophale) SiO2 
 PCOD8203387
Probable space group: P C C M
;
_chemical_formula_sum "Si O2"
_cell_formula_units_Z 56
_cell_length_a 9.671435
_cell_length_b 16.561248
_cell_length_c 18.436075
_cell_angle_alpha 90.000000
_cell_angle_beta 90.000000
_cell_angle_gamma 90.000000
_cell_volume 2952.925187
_symmetry_space_group_name_H-M "P C C M"
_symmetry_group_IT_number 49
_symmetry_cell_setting 'orthorhombic'
loop_
_space_group_symop_operation_xyz
x,y,z
-x,-y,z
x,-y,1/2-z
-x,y,1/2-z
-x,-y,-z
x,y,-z
-x,y,1/2+z
x,-y,1/2+z
loop_
_atom_site_type_symbol
_atom_site_label
_atom_site_fract_x
_atom_site_fract_y
_atom_site_fract_z
Si Si1 0.780226 0.331798 0.173255
Si Si2 0.990842 0.248479 0.585210
Si Si3 0.093609 0.073150 0.586005
Si Si4 0.518534 0.774011 0.669284
Si Si5 0.654308 0.499121 0.836191
Si Si6 0.408446 0.925319 0.085728
Si Si7 0.251529 0.670212 0.660034
O O1 0.916241 0.310726 0.129161
O O2 0.665716 0.265926 0.155177
O O3 0.735147 0.418552 0.141935
O O4 0.811824 0.329913 0.259031
O O5 0.016677 0.258180 0.500000
O O6 0.021971 0.156844 0.610227
O O7 0.835461 0.273791 0.605592
O O8 0.098462 0.066234 0.500000
O O9 0.251066 0.068183 0.616561
O O10 0.000000 0.000000 0.617916
O O11 0.500000 0.809393 0.750000
O O12 0.508944 0.847511 0.613756
O O13 0.405408 0.705218 0.657410
O O14 0.500000 0.500000 0.869847
O O15 0.641460 0.500000 0.750000
O O16 0.738408 0.577010 0.865779
O O17 0.500000 0.000000 0.112729
O O18 0.403482 0.919824 0.000000
#
# Coordination Sequence:
#
# PCOD8203387 Si02
#       7
#     8   8   8   8   8   8   8
#     4  10  19  37  61  82 112 148 185 231 279 330
#     4  11  23  38  57  81 114 152 185 226 278 336
#     4   9  19  36  56  78 105 141 184 228 271 319
#     4  10  20  35  58  86 115 144 178 232 289 330
#     4   9  16  32  59  86 109 141 191 236 273 323
#     4  10  21  36  58  84 109 144 190 231 270 330
#     4  10  21  35  58  88 112 144 188 235 275 327
#
# _framework density 18.964247
#
# number of rings (size 3 to 8) (size 9 to 14) (size 15 to 20)
#    0.000    2.143    2.857    0.429    2.000    1.429 
#    0.000    3.571    0.000    2.571    0.000    0.000 
#    0.000    0.000    0.000    0.000    0.000    0.000 
#
# Total GULP energy -694340.723009 kJ/mol
# GULP energy per Si atom -12398.941482 kJ/mol
# Density = 1.892108 g / cm^3
# Si number density = 18.964247 Si / 1000 Ang^3
#
#
#
# Elastic Constant Matrix: (Units=GPa)
#
#
# Indices 1 2 3 4 5 6 
#
# 1 63.9032 29.1319 16.6953 0.0000 0.0000 0.0000
# 2 29.1319 140.1549 26.6760 0.0000 0.0000 0.0000
# 3 16.6953 26.6760 27.0125 0.0000 0.0000 0.0000
# 4 0.0000 0.0000 0.0000 23.4505 0.0000 0.0000
# 5 0.0000 0.0000 0.0000 0.0000 24.8823 0.0000
# 6 0.0000 0.0000 0.0000 0.0000 0.0000 21.0689
#
#
#
# Elastic Compliance Matrix: (Units=1/GPa)
#
#
# Indices 1 2 3 4 5 6 
#
# 1 0.019165 -0.002129 -0.009742 0.000000 0.000000 0.000000
# 2 -0.002129 0.009023 -0.007595 0.000000 0.000000 0.000000
# 3 -0.009742 -0.007595 0.050541 0.000000 0.000000 0.000000
# 4 0.000000 0.000000 0.000000 0.042643 0.000000 0.000000
# 5 0.000000 0.000000 0.000000 0.000000 0.040189 0.000000
# 6 0.000000 0.000000 0.000000 0.000000 0.000000 0.047463
#
#
# Mechanical properties :
#
#
# Convention : Reuss Voigt Hill
#
# Bulk Modulus (GPa) = 25.12771 41.78636 33.45703
# Shear Modulus (GPa) = 19.14082 24.45149 21.79616
#
# Velocity S-wave (km/s) = 3.18041 3.59464 3.39385
# Velocity P-wave (km/s) = 5.17354 6.26983 5.74788
#
# Compressibility (1/GPa) = 0.03979671
#
# Stress axis : x y z
#
# Youngs Moduli (GPa) = 52.17974 110.82736 19.78588
#
# Poissons Ratio (x) = 0.23597 0.19276
# Poissons Ratio (y) = 0.11110 0.15027
# Poissons Ratio (z) = 0.50834 0.84170
#
# Static dielectric constant tensor:
#      x y z
#    x 3.539650 0.000000 0.000000 
#    y 0.000000 3.636150 0.000000 
#    z 0.000000 0.000000 3.114750 
# 
# 
# High freq. dielectric constant tensor:
#      x y z
#    x 1.743400 0.000000 0.000000 
#    y 0.000000 1.750440 0.000000 
#    z 0.000000 0.000000 1.694960 
# 
# From -- ./inp_files/19871.got.cif
#   From: 2010.03.12/outbox.cif.g09.slc.cpg/sg49_10_cif.got.tgz:19871.got - 2010.04.14 03:58:27.
