data_PCOD8203550
_publ_section_title
;
Structure prediction by ZEFSAII (Michael W. Deem and Ramdas Pophale) SiO2 
 PCOD8203550
Probable space group: P C C M
;
_chemical_formula_sum "Si O2"
_cell_formula_units_Z 40
_cell_length_a 10.060255
_cell_length_b 24.805359
_cell_length_c 8.771810
_cell_angle_alpha 90.000000
_cell_angle_beta 90.000000
_cell_angle_gamma 90.000000
_cell_volume 2188.989720
_symmetry_space_group_name_H-M "P C C M"
_symmetry_group_IT_number 49
_symmetry_cell_setting 'orthorhombic'
loop_
_space_group_symop_operation_xyz
x,y,z
-x,-y,z
x,-y,1/2-z
-x,y,1/2-z
-x,-y,-z
x,y,-z
-x,y,1/2+z
x,-y,1/2+z
loop_
_atom_site_type_symbol
_atom_site_label
_atom_site_fract_x
_atom_site_fract_y
_atom_site_fract_z
Si Si1 0.644467 0.830004 0.821876
Si Si2 0.355738 0.051327 0.177080
Si Si3 0.861621 0.630095 0.323146
Si Si4 0.136999 0.243244 0.675135
Si Si5 0.357791 0.556819 0.681460
O O1 0.500000 0.823276 0.750000
O O2 0.707455 0.889752 0.789869
O O3 0.740455 0.785638 0.753760
O O4 0.628885 0.819749 0.000000
O O5 0.500000 0.052557 0.250000
O O6 0.275523 0.000000 0.250000
O O7 0.368167 0.040305 0.000000
O O8 0.857961 0.613009 0.500000
O O9 0.842099 0.693487 0.302194
O O10 0.744717 0.602518 0.229375
O O11 0.000000 0.610946 0.250000
O O12 0.132184 0.226531 0.500000
O O13 0.000000 0.223752 0.750000
O O14 0.309282 0.500000 0.750000
O O15 0.500000 0.572904 0.750000
O O16 0.367934 0.552653 0.500000
#
# Coordination Sequence:
#
# PCOD8203550 Si02
#       5
#     8   8   8   8   8
#     4  10  20  33  51  77 107 137 175 218 262 311
#     4   9  16  26  43  68  98 132 167 209 257 307
#     4  10  21  38  58  82 108 138 178 220 262 311
#     4  10  21  37  57  78 105 140 176 216 264 315
#     4  11  22  38  59  83 112 145 178 216 262 312
#
# _framework density 18.27327
#
# number of rings (size 3 to 8) (size 9 to 14) (size 15 to 20)
#    0.000    2.000    0.000    5.400    0.000    6.000 
#    0.000    2.000    0.000    0.600    0.000    4.200 
#    0.000    0.000    0.000    0.000    0.000    0.000 
#
# Total GULP energy -495904.915130 kJ/mol
# GULP energy per Si atom -12397.622878 kJ/mol
# Density = 1.823168 g / cm^3
# Si number density = 18.273270 Si / 1000 Ang^3
#
#
#
# Elastic Constant Matrix: (Units=GPa)
#
#
# Indices 1 2 3 4 5 6 
#
# 1 97.2811 53.1185 59.5308 0.0000 0.0000 0.0000
# 2 53.1185 62.7959 54.1651 0.0000 0.0000 0.0000
# 3 59.5308 54.1651 155.5804 0.0000 0.0000 0.0000
# 4 0.0000 0.0000 0.0000 33.7336 0.0000 0.0000
# 5 0.0000 0.0000 0.0000 0.0000 32.3010 0.0000
# 6 0.0000 0.0000 0.0000 0.0000 0.0000 -14.3854
#
#
#
# Elastic Compliance Matrix: (Units=1/GPa)
#
#
# Indices 1 2 3 4 5 6 
#
# 1 0.019755 -0.014564 -0.002488 0.000000 0.000000 0.000000
# 2 -0.014564 0.033496 -0.006089 0.000000 0.000000 0.000000
# 3 -0.002488 -0.006089 0.009500 0.000000 0.000000 0.000000
# 4 0.000000 0.000000 0.000000 0.029644 0.000000 0.000000
# 5 0.000000 0.000000 0.000000 0.000000 0.030959 0.000000
# 6 0.000000 0.000000 0.000000 0.000000 0.000000 -0.069515
#
#
# Mechanical properties :
#
#
# Convention : Reuss Voigt Hill
#
# Bulk Modulus (GPa) = 60.72459 72.14292 66.43375
# Shear Modulus (GPa) = 47.34406 20.25271 33.79838
#
# Velocity S-wave (km/s) = 5.09560 3.33276 4.30537
# Velocity P-wave (km/s) = 8.24159 7.37397 7.81982
#
# Compressibility (1/GPa) = 0.01646779
#
# Stress axis : x y z
#
# Youngs Moduli (GPa) = 50.62118 29.85423 105.26766
#
# Poissons Ratio (x) = 0.43479 0.26195
# Poissons Ratio (y) = 0.73724 0.64097
# Poissons Ratio (z) = 0.12597 0.18178
#
# Static dielectric constant tensor:
#      x y z
#    x 3.136170 0.000000 0.000000 
#    y 0.000000 3.888720 0.000000 
#    z 0.000000 0.000000 3.605510 
# 
# 
# High freq. dielectric constant tensor:
#      x y z
#    x 1.681260 0.000000 0.000000 
#    y 0.000000 1.719080 0.000000 
#    z 0.000000 0.000000 1.732450 
# 
# From -- ./inp_files/1688.got.cif
#   From: 2010.03.12/outbox.cif.g09.slc.cpg/sg49_1_cif.got.tgz:1688.got - 2010.04.14 03:58:27.
