data_PCOD8203633
_publ_section_title
;
Structure prediction by ZEFSAII (Michael W. Deem and Ramdas Pophale) SiO2 
 PCOD8203633
Probable space group: P C C M
;
_chemical_formula_sum "Si O2"
_cell_formula_units_Z 64
_cell_length_a 15.333238
_cell_length_b 24.501852
_cell_length_c 8.659542
_cell_angle_alpha 90.000000
_cell_angle_beta 90.000000
_cell_angle_gamma 90.000000
_cell_volume 3253.326959
_symmetry_space_group_name_H-M "P C C M"
_symmetry_group_IT_number 49
_symmetry_cell_setting 'orthorhombic'
loop_
_space_group_symop_operation_xyz
x,y,z
-x,-y,z
x,-y,1/2-z
-x,y,1/2-z
-x,-y,-z
x,y,-z
-x,y,1/2+z
x,-y,1/2+z
loop_
_atom_site_type_symbol
_atom_site_label
_atom_site_fract_x
_atom_site_fract_y
_atom_site_fract_z
Si Si1 0.873316 0.711609 0.673761
Si Si2 0.910022 0.165641 0.817588
Si Si3 0.272778 0.142643 0.182070
Si Si4 0.590388 0.354398 0.682955
Si Si5 0.408835 0.940343 0.183336
Si Si6 0.731409 0.557650 0.816844
Si Si7 0.679959 0.255607 0.176509
Si Si8 0.087262 0.398057 0.820925
O O1 0.902996 0.697092 0.500000
O O2 0.909009 0.770393 0.724680
O O3 0.769350 0.710993 0.686327
O O4 0.911712 0.666768 0.788819
O O5 0.827113 0.136797 0.739082
O O6 0.000000 0.140606 0.750000
O O7 0.903873 0.156157 0.000000
O O8 0.328572 0.096839 0.266599
O O9 0.314003 0.200923 0.223792
O O10 0.276186 0.133788 0.000000
O O11 0.500000 0.376924 0.750000
O O12 0.587125 0.349830 0.500000
O O13 0.663864 0.396600 0.739455
O O14 0.606067 0.294390 0.753399
O O15 0.500000 0.916739 0.250000
O O16 0.391180 0.000000 0.250000
O O17 0.415254 0.942896 0.000000
O O18 0.701017 0.500000 0.750000
O O19 0.826992 0.573205 0.749634
O O20 0.733092 0.554708 0.000000
O O21 0.657733 0.239786 0.000000
O O22 0.000000 0.424669 0.750000
O O23 0.084811 0.408585 0.000000
#
# Coordination Sequence:
#
# PCOD8203633 Si02
#       8
#     8   8   8   8   8   8   8   8
#     4   9  18  32  53  80 111 148 188 229 279 336
#     4  10  20  34  52  82 120 161 206 249 296 350
#     4  11  22  37  59  89 124 165 205 250 300 351
#     4  11  23  41  62  88 115 146 186 231 286 349
#     4  11  22  40  64  92 124 160 205 255 304 359
#     4  10  24  43  62  82 109 143 184 233 286 343
#     4  10  20  36  58  86 118 154 192 235 288 346
#     4  11  22  36  55  82 111 143 183 228 278 338
#
# _framework density 19.672169
#
# number of rings (size 3 to 8) (size 9 to 14) (size 15 to 20)
#    0.000    1.625    1.250    5.250    0.000    6.500 
#    0.000    5.000    0.000    0.375    0.000    2.625 
#    0.000    0.000    0.000    0.000    0.000    0.000 
#
# Total GULP energy -793784.125937 kJ/mol
# GULP energy per Si atom -12402.876968 kJ/mol
# Density = 1.962739 g / cm^3
# Si number density = 19.672169 Si / 1000 Ang^3
#
#
#
# Elastic Constant Matrix: (Units=GPa)
#
#
# Indices 1 2 3 4 5 6 
#
# 1 142.4859 53.4144 47.7749 0.0000 0.0000 0.0000
# 2 53.4144 73.4357 31.5844 0.0000 0.0000 0.0000
# 3 47.7749 31.5844 104.7020 0.0000 0.0000 0.0000
# 4 0.0000 0.0000 0.0000 31.0753 0.0000 0.0000
# 5 0.0000 0.0000 0.0000 0.0000 35.3215 0.0000
# 6 0.0000 0.0000 0.0000 0.0000 0.0000 13.8019
#
#
#
# Elastic Compliance Matrix: (Units=1/GPa)
#
#
# Indices 1 2 3 4 5 6 
#
# 1 0.010322 -0.006299 -0.002809 0.000000 0.000000 0.000000
# 2 -0.006299 0.019492 -0.003006 0.000000 0.000000 0.000000
# 3 -0.002809 -0.003006 0.011740 0.000000 0.000000 0.000000
# 4 0.000000 0.000000 0.000000 0.032180 0.000000 0.000000
# 5 0.000000 0.000000 0.000000 0.000000 0.028311 0.000000
# 6 0.000000 0.000000 0.000000 0.000000 0.000000 0.072454
#
#
# Mechanical properties :
#
#
# Convention : Reuss Voigt Hill
#
# Bulk Modulus (GPa) = 57.72205 65.13013 61.42609
# Shear Modulus (GPa) = 24.44965 28.56305 26.50635
#
# Velocity S-wave (km/s) = 3.52924 3.81458 3.67468
# Velocity P-wave (km/s) = 6.78329 7.25128 7.02118
#
# Compressibility (1/GPa) = 0.01732440
#
# Stress axis : x y z
#
# Youngs Moduli (GPa) = 96.88337 51.30335 85.18214
#
# Poissons Ratio (x) = 0.32317 0.23932
# Poissons Ratio (y) = 0.61029 0.25602
# Poissons Ratio (z) = 0.27219 0.15420
#
# Static dielectric constant tensor:
#      x y z
#    x 3.874120 0.000000 0.000000 
#    y 0.000000 3.345830 0.000000 
#    z 0.000000 0.000000 3.553340 
# 
# 
# High freq. dielectric constant tensor:
#      x y z
#    x 1.778660 0.000000 0.000000 
#    y 0.000000 1.741310 0.000000 
#    z 0.000000 0.000000 1.774430 
# 
# From -- ./inp_files/4400.got.cif
#   From: 2010.03.12/outbox.cif.g09.slc.cpg/sg49_3_cif.got.tgz:4400.got - 2010.04.14 03:58:27.
