data_PCOD8203803
_publ_section_title
;
Structure prediction by ZEFSAII (Michael W. Deem and Ramdas Pophale) SiO2 
 PCOD8203803
Probable space group: P C C M
;
_chemical_formula_sum "Si O2"
_cell_formula_units_Z 64
_cell_length_a 20.349725
_cell_length_b 18.435770
_cell_length_c 8.767855
_cell_angle_alpha 90.000000
_cell_angle_beta 90.000000
_cell_angle_gamma 90.000000
_cell_volume 3289.373467
_symmetry_space_group_name_H-M "P C C M"
_symmetry_group_IT_number 49
_symmetry_cell_setting 'orthorhombic'
loop_
_space_group_symop_operation_xyz
x,y,z
-x,-y,z
x,-y,1/2-z
-x,y,1/2-z
-x,-y,-z
x,y,-z
-x,y,1/2+z
x,-y,1/2+z
loop_
_atom_site_type_symbol
_atom_site_label
_atom_site_fract_x
_atom_site_fract_y
_atom_site_fract_z
Si Si1 0.430368 0.076790 0.680433
Si Si2 0.567929 0.424246 0.322314
Si Si3 0.068568 0.164269 0.680408
Si Si4 0.067927 0.329633 0.320029
Si Si5 0.317613 0.833326 0.322961
Si Si6 0.809174 0.578818 0.679416
Si Si7 0.693967 0.666676 0.823735
Si Si8 0.812238 0.077862 0.321055
O O1 0.500000 0.101080 0.750000
O O2 0.437159 0.068936 0.500000
O O3 0.376735 0.136891 0.720979
O O4 0.407684 0.000000 0.750000
O O5 0.591173 0.500000 0.250000
O O6 0.500000 0.396583 0.250000
O O7 0.557046 0.437042 0.500000
O O8 0.621875 0.363676 0.288135
O O9 0.065747 0.156523 0.500000
O O10 0.082054 0.247112 0.732050
O O11 0.125007 0.113889 0.745032
O O12 0.000000 0.136908 0.750000
O O13 0.062144 0.334396 0.500000
O O14 0.126376 0.380046 0.257062
O O15 0.000000 0.358571 0.250000
O O16 0.336661 0.841877 0.500000
O O17 0.305804 0.750385 0.277774
O O18 0.251242 0.874858 0.282018
O O19 0.804120 0.500000 0.750000
O O20 0.813123 0.570337 0.500000
O O21 0.745678 0.625281 0.719992
O O22 0.713171 0.655050 0.000000
O O23 0.824562 0.071171 0.500000
O O24 0.799683 0.000000 0.250000
#
# Coordination Sequence:
#
# PCOD8203803 Si02
#       8
#     8   8   8   8   8   8   8   8
#     4  11  22  38  61  87 117 153 193 236 285 339
#     4  10  20  35  56  81 110 144 183 225 272 326
#     4  10  20  37  60  85 114 146 185 230 279 336
#     4   9  20  37  58  84 113 147 185 228 277 333
#     4  10  22  40  60  85 117 150 188 234 286 343
#     4  11  23  38  57  83 114 149 191 235 282 335
#     4  10  22  39  59  84 114 148 186 232 283 336
#     4  11  23  38  58  83 113 149 187 230 279 332
#
# _framework density 19.456593999999999
#
# number of rings (size 3 to 8) (size 9 to 14) (size 15 to 20)
#    0.000    1.750    0.000    4.875    0.000    7.000 
#    0.000    3.750    0.000    0.000    0.000    0.000 
#    0.000    0.000    0.000    0.000    0.000    0.000 
#
# Total GULP energy -793940.662215 kJ/mol
# GULP energy per Si atom -12405.322847 kJ/mol
# Density = 1.941231 g / cm^3
# Si number density = 19.456594 Si / 1000 Ang^3
#
#
#
# Elastic Constant Matrix: (Units=GPa)
#
#
# Indices 1 2 3 4 5 6 
#
# 1 130.3720 84.4226 56.9895 0.0000 0.0000 0.0000
# 2 84.4226 140.3592 51.7594 0.0000 0.0000 0.0000
# 3 56.9895 51.7594 94.6260 0.0000 0.0000 0.0000
# 4 0.0000 0.0000 0.0000 -2.4166 0.0000 0.0000
# 5 0.0000 0.0000 0.0000 0.0000 30.5457 0.0000
# 6 0.0000 0.0000 0.0000 0.0000 0.0000 36.6271
#
#
#
# Elastic Compliance Matrix: (Units=1/GPa)
#
#
# Indices 1 2 3 4 5 6 
#
# 1 0.014136 -0.006718 -0.004839 0.000000 0.000000 0.000000
# 2 -0.006718 0.012117 -0.002582 0.000000 0.000000 0.000000
# 3 -0.004839 -0.002582 0.014895 0.000000 0.000000 0.000000
# 4 0.000000 0.000000 0.000000 -0.413805 0.000000 0.000000
# 5 0.000000 0.000000 0.000000 0.000000 0.032738 0.000000
# 6 0.000000 0.000000 0.000000 0.000000 0.000000 0.027302
#
#
# Mechanical properties :
#
#
# Convention : Reuss Voigt Hill
#
# Bulk Modulus (GPa) = 77.70009 83.52226 80.61117
# Shear Modulus (GPa) = -17.85399 24.43028 3.28814
#
# Velocity S-wave (km/s) = -3.03253 3.54733 1.30141
# Velocity P-wave (km/s) = 5.26879 7.73297 6.61660
#
# Compressibility (1/GPa) = 0.01287000
#
# Stress axis : x y z
#
# Youngs Moduli (GPa) = 70.74268 82.52548 67.13870
#
# Poissons Ratio (x) = 0.55440 0.32487
# Poissons Ratio (y) = 0.47525 0.17336
# Poissons Ratio (z) = 0.34231 0.21310
#
# Static dielectric constant tensor:
#      x y z
#    x 3.668590 0.000000 0.000000 
#    y 0.000000 3.613290 0.000000 
#    z 0.000000 0.000000 4.426180 
# 
# 
# High freq. dielectric constant tensor:
#      x y z
#    x 1.771300 0.000000 0.000000 
#    y 0.000000 1.760700 0.000000 
#    z 0.000000 0.000000 1.763460 
# 
# From -- ./inp_files/5978.got.cif
#   From: 2010.03.12/outbox.cif.g09.slc.cpg/sg49_3_cif.got.tgz:5978.got - 2010.04.14 03:58:27.
