data_PCOD8203413
_publ_section_title
;
Structure prediction by ZEFSAII (Michael W. Deem and Ramdas Pophale) SiO2 
 PCOD8203413
Probable space group: P C C M
;
_chemical_formula_sum "Si O2"
_cell_formula_units_Z 36
_cell_length_a 7.192538
_cell_length_b 17.539238
_cell_length_c 14.796939
_cell_angle_alpha 90.000000
_cell_angle_beta 90.000000
_cell_angle_gamma 90.000000
_cell_volume 1866.658060
_symmetry_space_group_name_H-M "P C C M"
_symmetry_group_IT_number 49
_symmetry_cell_setting 'orthorhombic'
loop_
_space_group_symop_operation_xyz
x,y,z
-x,-y,z
x,-y,1/2-z
-x,y,1/2-z
-x,-y,-z
x,y,-z
-x,y,1/2+z
x,-y,1/2+z
loop_
_atom_site_type_symbol
_atom_site_label
_atom_site_fract_x
_atom_site_fract_y
_atom_site_fract_z
Si Si1 0.788256 0.119021 0.000000
Si Si2 0.219374 0.999806 0.647885
Si Si3 0.499174 0.624477 0.650561
Si Si4 0.487943 0.251616 0.500000
Si Si5 0.210167 0.500986 0.394337
Si Si6 0.773178 0.119775 0.500000
O O1 0.721345 0.074098 0.909799
O O2 0.007416 0.132222 0.000000
O O3 0.695352 0.200812 0.000000
O O4 0.305639 0.000000 0.750000
O O5 0.286652 0.926063 0.590860
O O6 0.000000 0.000000 0.655225
O O7 0.500000 0.659404 0.750000
O O8 0.521527 0.696196 0.587198
O O9 0.673532 0.567186 0.649101
O O10 0.307285 0.581341 0.627172
O O11 0.674192 0.201220 0.500000
O O12 0.209635 0.486006 0.500000
O O13 0.000000 0.500000 0.355621
#
# Coordination Sequence:
#
# PCOD8203413 Si02
#       6
#     4   8   8   4   8   4
#     4   9  20  36  55  78 108 145 180 226 278 323
#     4   8  15  33  59  82 103 134 184 236 275 317
#     4  11  23  39  57  82 118 149 182 233 278 324
#     4  12  24  38  50  80 120 150 184 218 268 344
#     4  10  19  38  67  87 105 142 189 236 281 324
#     4   9  20  36  55  78 108 145 180 226 278 323
#
# _framework density 19.285803999999999
#
# number of rings (size 3 to 8) (size 9 to 14) (size 15 to 20)
#    0.000    2.222    2.222    3.333    0.000    7.111 
#    0.000    1.111    0.000    0.000    0.000    0.000 
#    0.000    0.000    0.000    0.000    0.000    0.000 
#
# Total GULP energy -446264.617625 kJ/mol
# GULP energy per Si atom -12396.239378 kJ/mol
# Density = 1.924191 g / cm^3
# Si number density = 19.285804 Si / 1000 Ang^3
#
#
#
# Elastic Constant Matrix: (Units=GPa)
#
#
# Indices 1 2 3 4 5 6 
#
# 1 111.9273 41.1404 18.1262 0.0000 0.0000 0.0000
# 2 41.1404 135.8598 57.5999 0.0000 0.0000 0.0000
# 3 18.1262 57.5999 161.5602 0.0000 0.0000 0.0000
# 4 0.0000 0.0000 0.0000 78.2122 0.0000 0.0000
# 5 0.0000 0.0000 0.0000 0.0000 132.8933 0.0000
# 6 0.0000 0.0000 0.0000 0.0000 0.0000 15.1301
#
#
#
# Elastic Compliance Matrix: (Units=1/GPa)
#
#
# Indices 1 2 3 4 5 6 
#
# 1 0.010054 -0.003023 -0.000050 0.000000 0.000000 0.000000
# 2 -0.003023 0.009580 -0.003076 0.000000 0.000000 0.000000
# 3 -0.000050 -0.003076 0.007292 0.000000 0.000000 0.000000
# 4 0.000000 0.000000 0.000000 0.012786 0.000000 0.000000
# 5 0.000000 0.000000 0.000000 0.000000 0.007525 0.000000
# 6 0.000000 0.000000 0.000000 0.000000 0.000000 0.066093
#
#
# Mechanical properties :
#
#
# Convention : Reuss Voigt Hill
#
# Bulk Modulus (GPa) = 68.36841 71.45337 69.91089
# Shear Modulus (GPa) = 38.31271 64.74586 51.52928
#
# Velocity S-wave (km/s) = 4.46194 5.80040 5.17463
# Velocity P-wave (km/s) = 7.87859 9.05482 8.48711
#
# Compressibility (1/GPa) = 0.01462664
#
# Stress axis : x y z
#
# Youngs Moduli (GPa) = 99.46597 104.38116 137.13513
#
# Poissons Ratio (x) = 0.31556 0.00688
# Poissons Ratio (y) = 0.30070 0.42188
# Poissons Ratio (z) = 0.00499 0.32112
#
# Static dielectric constant tensor:
#      x y z
#    x 3.596020 0.000000 0.000000 
#    y 0.000000 3.358990 0.000000 
#    z 0.000000 0.000000 3.961980 
# 
# 
# High freq. dielectric constant tensor:
#      x y z
#    x 1.753860 0.000000 0.000000 
#    y 0.000000 1.730580 0.000000 
#    z 0.000000 0.000000 1.765400 
# 
# From -- ./inp_files/11495.got.cif
#   From: 2010.03.12/outbox.cif.g09.slc.cpg/sg49_6_cif.got.tgz:11495.got - 2010.04.14 03:58:27.
