data_PCOD8203840
_publ_section_title
;
Structure prediction by ZEFSAII (Michael W. Deem and Ramdas Pophale) SiO2 
 PCOD8203840
Probable space group: P C C M
;
_chemical_formula_sum "Si O2"
_cell_formula_units_Z 48
_cell_length_a 8.751877
_cell_length_b 19.520714
_cell_length_c 14.560925
_cell_angle_alpha 90.000000
_cell_angle_beta 90.000000
_cell_angle_gamma 90.000000
_cell_volume 2487.630477
_symmetry_space_group_name_H-M "P C C M"
_symmetry_group_IT_number 49
_symmetry_cell_setting 'orthorhombic'
loop_
_space_group_symop_operation_xyz
x,y,z
-x,-y,z
x,-y,1/2-z
-x,y,1/2-z
-x,-y,-z
x,y,-z
-x,y,1/2+z
x,-y,1/2+z
loop_
_atom_site_type_symbol
_atom_site_label
_atom_site_fract_x
_atom_site_fract_y
_atom_site_fract_z
Si Si1 0.817010 0.399095 0.750000
Si Si2 0.819315 0.138096 0.896634
Si Si3 0.181033 0.755461 0.750000
Si Si4 0.819315 0.861903 0.896634
Si Si5 0.681585 0.500000 0.607540
Si Si6 0.672432 1.000000 0.891063
O O1 0.754730 0.321403 0.750001
O O2 0.752039 0.433579 0.657480
O O3 0.752040 0.433580 0.842521
O O4 0.000000 0.404757 0.750000
O O5 0.760820 0.203550 0.839489
O O6 0.000000 0.131399 0.892408
O O7 0.752874 0.068339 0.852850
O O8 0.759948 0.149259 0.000000
O O9 0.239179 0.796449 0.660511
O O10 0.000000 0.751804 0.750000
O O11 0.752872 0.931660 0.852849
O O12 0.759948 0.850740 0.000000
O O13 0.500000 0.500000 0.619928
O O14 0.727767 0.499999 0.500000
O O15 0.500000 0.000000 0.855818
O O16 0.686397 0.999999 0.000000
#
# Coordination Sequence:
#
# PCOD8203840 Si02
#       6
#     8   8   8   8   8   8
#     4  10  20  35  57  85 113 137 170 220 266 306
#     4   9  17  31  50  69  93 129 168 204 248 302
#     4   9  19  33  50  76 104 129 162 205 252 302
#     4   9  17  31  50  69  93 129 168 204 248 302
#     4  10  21  38  59  81 108 144 179 209 250 309
#     4   9  17  30  47  68  95 125 164 215 257 290
#
# _framework density 19.295470999999999
#
# number of rings (size 3 to 8) (size 9 to 14) (size 15 to 20)
#    0.000    2.667    0.000    2.500    0.000    5.333 
#    0.000   10.833    0.000    4.000    0.000    0.000 
#    0.000    0.000    0.000    0.000    0.000    0.000 
#
# Total GULP energy -595041.827418 kJ/mol
# GULP energy per Si atom -12396.704738 kJ/mol
# Density = 1.925155 g / cm^3
# Si number density = 19.295471 Si / 1000 Ang^3
#
#
#
# Elastic Constant Matrix: (Units=GPa)
#
#
# Indices 1 2 3 4 5 6 
#
# 1 58.8561 40.9596 34.8194 0.0000 0.0000 0.0000
# 2 40.9596 214.4247 84.5152 0.0000 0.0000 0.0000
# 3 34.8194 84.5152 134.2242 0.0000 0.0000 0.0000
# 4 0.0000 0.0000 0.0000 25.2534 0.0000 0.0000
# 5 0.0000 0.0000 0.0000 0.0000 18.1686 0.0000
# 6 0.0000 0.0000 0.0000 0.0000 0.0000 3.7685
#
#
#
# Elastic Compliance Matrix: (Units=1/GPa)
#
#
# Indices 1 2 3 4 5 6 
#
# 1 0.021019 -0.002482 -0.003890 0.000000 0.000000 0.000000
# 2 -0.002482 0.006496 -0.003447 0.000000 0.000000 0.000000
# 3 -0.003890 -0.003447 0.010629 0.000000 0.000000 0.000000
# 4 0.000000 0.000000 0.000000 0.039599 0.000000 0.000000
# 5 0.000000 0.000000 0.000000 0.000000 0.055040 0.000000
# 6 0.000000 0.000000 0.000000 0.000000 0.000000 0.265357
#
#
# Mechanical properties :
#
#
# Convention : Reuss Voigt Hill
#
# Bulk Modulus (GPa) = 54.03040 80.89925 67.46482
# Shear Modulus (GPa) = 11.79396 25.91883 18.85639
#
# Velocity S-wave (km/s) = 2.47499 3.66903 3.12948
# Velocity P-wave (km/s) = 6.01912 7.74381 6.93529
#
# Compressibility (1/GPa) = 0.01850810
#
# Stress axis : x y z
#
# Youngs Moduli (GPa) = 47.57589 153.93660 94.07846
#
# Poissons Ratio (x) = 0.38205 0.36595
# Poissons Ratio (y) = 0.11808 0.32424
# Poissons Ratio (z) = 0.18506 0.53055
#
# Static dielectric constant tensor:
#      x y z
#    x 3.323720 0.000000 0.000000 
#    y 0.000000 3.832990 0.000000 
#    z 0.000000 0.000000 3.652660 
# 
# 
# High freq. dielectric constant tensor:
#      x y z
#    x 1.733110 0.000000 0.000000 
#    y 0.000000 1.753900 0.000000 
#    z 0.000000 0.000000 1.752810 
# 
# From -- ./inp_files/11803.got.cif
#   From: 2010.03.12/outbox.cif.g09.slc.cpg/sg49_6_cif.got.tgz:11803.got - 2010.04.14 03:58:27.
