data_PCOD8203639
_publ_section_title
;
Structure prediction by ZEFSAII (Michael W. Deem and Ramdas Pophale) SiO2 
 PCOD8203639
Probable space group: P C C M
;
_chemical_formula_sum "Si O2"
_cell_formula_units_Z 56
_cell_length_a 19.614695
_cell_length_b 15.786684
_cell_length_c 9.015064
_cell_angle_alpha 90.000000
_cell_angle_beta 90.000000
_cell_angle_gamma 90.000000
_cell_volume 2791.523508
_symmetry_space_group_name_H-M "P C C M"
_symmetry_group_IT_number 49
_symmetry_cell_setting 'orthorhombic'
loop_
_space_group_symop_operation_xyz
x,y,z
-x,-y,z
x,-y,1/2-z
-x,y,1/2-z
-x,-y,-z
x,y,-z
-x,y,1/2+z
x,-y,1/2+z
loop_
_atom_site_type_symbol
_atom_site_label
_atom_site_fract_x
_atom_site_fract_y
_atom_site_fract_z
Si Si1 0.814548 0.087073 0.172443
Si Si2 0.573254 0.240837 0.677324
Si Si3 0.801852 0.413912 0.325196
Si Si4 0.657830 0.909717 0.324618
Si Si5 0.937257 0.850656 0.162459
Si Si6 0.061338 0.342573 0.840074
Si Si7 0.350210 0.411569 0.825143
O O1 0.736789 0.112988 0.203776
O O2 0.866784 0.152474 0.245791
O O3 0.833290 0.000000 0.250000
O O4 0.829471 0.079591 0.000000
O O5 0.500000 0.233538 0.750000
O O6 0.570179 0.230479 0.500000
O O7 0.617116 0.164651 0.744878
O O8 0.603066 0.332541 0.723564
O O9 0.823826 0.500000 0.250000
O O10 0.797949 0.424708 0.500000
O O11 0.861877 0.350112 0.272497
O O12 0.726280 0.386461 0.271079
O O13 0.640918 0.914338 0.500000
O O14 0.639191 0.000000 0.250000
O O15 0.958304 0.754345 0.139047
O O16 0.000000 0.896228 0.250000
O O17 0.927911 0.893743 0.000000
O O18 0.000000 0.387377 0.750000
O O19 0.062529 0.388232 0.000000
O O20 0.374367 0.500000 0.750000
O O21 0.354712 0.426138 0.000000
#
# Coordination Sequence:
#
# PCOD8203639 Si02
#       7
#     8   8   8   8   8   8   8
#     4  10  21  37  57  83 112 144 186 233 283 341
#     4  11  24  41  64  93 124 159 199 242 292 356
#     4   9  18  34  53  77 105 140 185 230 280 335
#     4  10  22  41  64  92 125 159 198 246 296 353
#     4  10  20  34  53  76 107 147 188 237 288 341
#     4   9  19  33  50  72 104 142 183 230 280 335
#     4   9  20  38  61  87 119 157 198 245 295 350
#
# _framework density 20.060728999999998
#
# number of rings (size 3 to 8) (size 9 to 14) (size 15 to 20)
#    0.000    2.286    0.000    1.714    2.000    5.143 
#    0.000    5.714    0.000    0.000    0.000    0.000 
#    0.000    0.000    0.000    0.000    0.000    0.000 
#
# Total GULP energy -693935.923729 kJ/mol
# GULP energy per Si atom -12391.712924 kJ/mol
# Density = 2.001507 g / cm^3
# Si number density = 20.060729 Si / 1000 Ang^3
#
#
#
# Elastic Constant Matrix: (Units=GPa)
#
#
# Indices 1 2 3 4 5 6 
#
# 1 126.7499 57.1829 66.9273 0.0000 0.0000 0.0000
# 2 57.1829 92.2940 51.3371 0.0000 0.0000 0.0000
# 3 66.9273 51.3371 108.1960 0.0000 0.0000 0.0000
# 4 0.0000 0.0000 0.0000 29.8308 0.0000 0.0000
# 5 0.0000 0.0000 0.0000 0.0000 32.1191 0.0000
# 6 0.0000 0.0000 0.0000 0.0000 0.0000 14.5643
#
#
#
# Elastic Compliance Matrix: (Units=1/GPa)
#
#
# Indices 1 2 3 4 5 6 
#
# 1 0.013187 -0.004936 -0.005815 0.000000 0.000000 0.000000
# 2 -0.004936 0.016567 -0.004808 0.000000 0.000000 0.000000
# 3 -0.005815 -0.004808 0.015121 0.000000 0.000000 0.000000
# 4 0.000000 0.000000 0.000000 0.033522 0.000000 0.000000
# 5 0.000000 0.000000 0.000000 0.000000 0.031134 0.000000
# 6 0.000000 0.000000 0.000000 0.000000 0.000000 0.068661
#
#
# Mechanical properties :
#
#
# Convention : Reuss Voigt Hill
#
# Bulk Modulus (GPa) = 72.68675 75.34828 74.01751
# Shear Modulus (GPa) = 23.37593 25.42235 24.39914
#
# Velocity S-wave (km/s) = 3.41729 3.56374 3.49128
# Velocity P-wave (km/s) = 7.20295 7.38751 7.29581
#
# Compressibility (1/GPa) = 0.01375767
#
# Stress axis : x y z
#
# Youngs Moduli (GPa) = 75.83348 60.36043 66.13404
#
# Poissons Ratio (x) = 0.29791 0.38458
# Poissons Ratio (y) = 0.37428 0.31796
# Poissons Ratio (z) = 0.44098 0.29020
#
# Static dielectric constant tensor:
#      x y z
#    x 3.833630 0.000000 0.000000 
#    y 0.000000 3.441510 0.000000 
#    z 0.000000 0.000000 3.955920 
# 
# 
# High freq. dielectric constant tensor:
#      x y z
#    x 1.792500 0.000000 0.000000 
#    y 0.000000 1.766310 0.000000 
#    z 0.000000 0.000000 1.789180 
# 
# From -- ./inp_files/4094.got.cif
#   From: 2010.03.12/outbox.cif.g09.slc.cpg/sg49_3_cif.got.tgz:4094.got - 2010.04.14 03:58:27.
