data_PCOD8203438
_publ_section_title
;
Structure prediction by ZEFSAII (Michael W. Deem and Ramdas Pophale) SiO2 
 PCOD8203438
Probable space group: P C C M
;
_chemical_formula_sum "Si O2"
_cell_formula_units_Z 30
_cell_length_a 14.061860
_cell_length_b 5.366281
_cell_length_c 19.666718
_cell_angle_alpha 90.000000
_cell_angle_beta 90.000000
_cell_angle_gamma 90.000000
_cell_volume 1484.048419
_symmetry_space_group_name_H-M "P C C M"
_symmetry_group_IT_number 49
_symmetry_cell_setting 'orthorhombic'
loop_
_space_group_symop_operation_xyz
x,y,z
-x,-y,z
x,-y,1/2-z
-x,y,1/2-z
-x,-y,-z
x,y,-z
-x,y,1/2+z
x,-y,1/2+z
loop_
_atom_site_type_symbol
_atom_site_label
_atom_site_fract_x
_atom_site_fract_y
_atom_site_fract_z
Si Si1 0.095352 0.845448 0.355673
Si Si2 0.060023 0.746879 0.500000
Si Si3 0.702154 0.003904 0.827763
Si Si4 0.391234 0.497446 0.830975
Si Si5 0.000000 0.500000 0.750000
O O1 0.183699 0.015126 0.333555
O O2 0.121317 0.732911 0.430175
O O3 0.074603 0.646362 0.297035
O O4 0.000000 0.000000 0.363012
O O5 0.000000 0.500000 0.500000
O O6 0.000000 0.000000 0.500000
O O7 0.659904 0.750319 0.861256
O O8 0.669564 0.000000 0.750000
O O9 0.659583 0.254901 0.861650
O O10 0.500000 0.500000 0.855052
O O11 0.382175 0.500000 0.750000
#
# Coordination Sequence:
#
# PCOD8203438 Si02
#       5
#     8   4   8   8   2
#     4  11  24  37  56  85 118 158 196 238 289 347
#     4  10  22  42  58  76 113 160 205 238 278 340
#     4  10  20  31  52  79 112 143 188 230 286 345
#     4   9  18  32  50  76 110 146 182 229 291 347
#     4  12  22  34  60  78 130 150 198 236 302 338
#
# _framework density 20.214974000000002
#
# number of rings (size 3 to 8) (size 9 to 14) (size 15 to 20)
#    0.000    1.867    1.333    2.800    9.333    3.200 
#    0.000    0.000    0.000    0.000    0.000    5.600 
#    0.000    0.000    0.000    0.000    0.000    0.000 
#
# Total GULP energy -371760.074888 kJ/mol
# GULP energy per Si atom -12392.002496 kJ/mol
# Density = 2.016896 g / cm^3
# Si number density = 20.214974 Si / 1000 Ang^3
#
#
#
# Elastic Constant Matrix: (Units=GPa)
#
#
# Indices 1 2 3 4 5 6 
#
# 1 145.5626 76.0243 8.0301 0.0000 0.0000 0.0000
# 2 76.0243 175.7355 27.5825 0.0000 0.0000 0.0000
# 3 8.0301 27.5825 91.5885 0.0000 0.0000 0.0000
# 4 0.0000 0.0000 0.0000 18.0392 0.0000 0.0000
# 5 0.0000 0.0000 0.0000 0.0000 -5.4910 0.0000
# 6 0.0000 0.0000 0.0000 0.0000 0.0000 44.1453
#
#
#
# Elastic Compliance Matrix: (Units=1/GPa)
#
#
# Indices 1 2 3 4 5 6 
#
# 1 0.008889 -0.003908 0.000398 0.000000 0.000000 0.000000
# 2 -0.003908 0.007691 -0.001973 0.000000 0.000000 0.000000
# 3 0.000398 -0.001973 0.011478 0.000000 0.000000 0.000000
# 4 0.000000 0.000000 0.000000 0.055435 0.000000 0.000000
# 5 0.000000 0.000000 0.000000 0.000000 -0.182116 0.000000
# 6 0.000000 0.000000 0.000000 0.000000 0.000000 0.022652
#
#
# Mechanical properties :
#
#
# Convention : Reuss Voigt Hill
#
# Bulk Modulus (GPa) = 58.51395 70.68449 64.59922
# Shear Modulus (GPa) = -84.30724 31.42202 -26.44261
#
# Velocity S-wave (km/s) = -6.46497 3.94686 -3.62065
# Velocity P-wave (km/s) = 5.16906 7.47078 3.81401
#
# Compressibility (1/GPa) = 0.01708994
#
# Stress axis : x y z
#
# Youngs Moduli (GPa) = 112.49955 130.02797 87.12412
#
# Poissons Ratio (x) = 0.50812 -0.03463
# Poissons Ratio (y) = 0.43963 0.17194
# Poissons Ratio (z) = -0.04472 0.25661
#
# Static dielectric constant tensor:
#      x y z
#    x 3.494130 0.000000 0.000000 
#    y 0.000000 4.098640 0.000000 
#    z 0.000000 0.000000 -2.880820 
# 
# 
# High freq. dielectric constant tensor:
#      x y z
#    x 1.779870 0.000000 0.000000 
#    y 0.000000 1.806960 0.000000 
#    z 0.000000 0.000000 1.740140 
# 
# From -- ./inp_files/15097.got.cif
#   From: 2010.03.12/outbox.cif.g09.slc.cpg/sg49_8_cif.got.tgz:15097.got - 2010.04.14 03:58:27.
