data_PCOD8203224
_publ_section_title
;
Structure prediction by ZEFSAII (Michael W. Deem and Ramdas Pophale) SiO2 
 PCOD8203224
Probable space group: P C C M
;
_chemical_formula_sum "Si O2"
_cell_formula_units_Z 64
_cell_length_a 9.294115
_cell_length_b 11.671217
_cell_length_c 30.367289
_cell_angle_alpha 90.000000
_cell_angle_beta 90.000000
_cell_angle_gamma 90.000000
_cell_volume 3294.050162
_symmetry_space_group_name_H-M "P C C M"
_symmetry_group_IT_number 49
_symmetry_cell_setting 'orthorhombic'
loop_
_space_group_symop_operation_xyz
x,y,z
-x,-y,z
x,-y,1/2-z
-x,y,1/2-z
-x,-y,-z
x,y,-z
-x,y,1/2+z
x,-y,1/2+z
loop_
_atom_site_type_symbol
_atom_site_label
_atom_site_fract_x
_atom_site_fract_y
_atom_site_fract_z
Si Si1 0.153381 0.716306 0.690264
Si Si2 0.355957 0.647315 0.087308
Si Si3 0.347586 0.278957 0.948228
Si Si4 0.828913 0.281053 0.791645
Si Si5 0.151491 0.520328 0.550316
Si Si6 0.671415 0.120457 0.369116
Si Si7 0.339609 0.489518 0.323011
Si Si8 0.344716 0.139843 0.357446
O O1 0.166413 0.753642 0.740891
O O2 0.205658 0.821165 0.660113
O O3 0.250103 0.607378 0.676727
O O4 0.982124 0.697895 0.683845
O O5 0.505465 0.654332 0.061778
O O6 0.242069 0.596460 0.053247
O O7 0.359669 0.559484 0.128011
O O8 0.306687 0.773235 0.102948
O O9 0.227085 0.366768 0.930400
O O10 0.329937 0.164057 0.919652
O O11 0.337564 0.248440 0.000000
O O12 0.746081 0.401224 0.792793
O O13 0.741190 0.178326 0.814278
O O14 0.122449 0.549155 0.500000
O O15 0.000000 0.500000 0.575354
O O16 0.515691 0.145419 0.347270
O O17 0.704882 0.985994 0.371643
O O18 0.500000 0.500000 0.302744
#
# Coordination Sequence:
#
# PCOD8203224 Si02
#       8
#     8   8   8   8   8   8   8   8
#     4  11  22  37  57  81 113 149 186 229 278 337
#     4  10  19  34  54  78 108 142 180 221 274 328
#     4  10  20  36  58  83 112 145 183 230 284 340
#     4  10  23  38  54  82 114 147 186 229 280 332
#     4  10  20  32  49  77 109 138 173 218 267 324
#     4  10  21  39  59  80 108 144 188 233 282 331
#     4  11  21  34  55  83 114 146 183 226 274 331
#     4   9  21  39  56  79 109 141 185 235 273 330
#
# _framework density 19.428968000000001
#
# number of rings (size 3 to 8) (size 9 to 14) (size 15 to 20)
#    0.000    1.875    0.000    5.250    0.000    9.500 
#    0.000    8.125    0.000    0.000    0.000    4.375 
#    0.000    0.000    0.000    0.000    0.000    0.000 
#
# Total GULP energy -793436.926275 kJ/mol
# GULP energy per Si atom -12397.451973 kJ/mol
# Density = 1.938475 g / cm^3
# Si number density = 19.428968 Si / 1000 Ang^3
#
#
#
# Elastic Constant Matrix: (Units=GPa)
#
#
# Indices 1 2 3 4 5 6 
#
# 1 131.8878 65.7728 39.6371 0.0000 0.0000 0.0000
# 2 65.7728 142.9213 40.2180 0.0000 0.0000 0.0000
# 3 39.6371 40.2180 77.4574 0.0000 0.0000 0.0000
# 4 0.0000 0.0000 0.0000 18.8069 0.0000 0.0000
# 5 0.0000 0.0000 0.0000 0.0000 24.7245 0.0000
# 6 0.0000 0.0000 0.0000 0.0000 0.0000 19.4821
#
#
#
# Elastic Compliance Matrix: (Units=1/GPa)
#
#
# Indices 1 2 3 4 5 6 
#
# 1 0.010541 -0.003903 -0.003367 0.000000 0.000000 0.000000
# 2 -0.003903 0.009640 -0.003008 0.000000 0.000000 0.000000
# 3 -0.003367 -0.003008 0.016195 0.000000 0.000000 0.000000
# 4 0.000000 0.000000 0.000000 0.053172 0.000000 0.000000
# 5 0.000000 0.000000 0.000000 0.000000 0.040446 0.000000
# 6 0.000000 0.000000 0.000000 0.000000 0.000000 0.051329
#
#
# Mechanical properties :
#
#
# Convention : Reuss Voigt Hill
#
# Bulk Modulus (GPa) = 63.21570 71.50249 67.35909
# Shear Modulus (GPa) = 24.13689 26.37861 25.25775
#
# Velocity S-wave (km/s) = 3.52847 3.68869 3.60947
# Velocity P-wave (km/s) = 7.01481 7.41780 7.21912
#
# Compressibility (1/GPa) = 0.01581886
#
# Stress axis : x y z
#
# Youngs Moduli (GPa) = 94.86932 103.73929 61.74695
#
# Poissons Ratio (x) = 0.40493 0.20792
# Poissons Ratio (y) = 0.37031 0.18571
# Poissons Ratio (z) = 0.31945 0.31201
#
# Static dielectric constant tensor:
#      x y z
#    x 3.895090 0.000000 0.000000 
#    y 0.000000 3.536790 0.000000 
#    z 0.000000 0.000000 3.426170 
# 
# 
# High freq. dielectric constant tensor:
#      x y z
#    x 1.764950 0.000000 0.000000 
#    y 0.000000 1.749700 0.000000 
#    z 0.000000 0.000000 1.750500 
# 
# From -- ./inp_files/26451.got.cif
#   From: 2010.03.12/outbox.cif.g09.slc.cpg/sg49_14_cif.got.tgz:26451.got - 2010.04.14 03:58:27.
