data_PCOD8203305
_publ_section_title
;
Structure prediction by ZEFSAII (Michael W. Deem and Ramdas Pophale) SiO2 
 PCOD8203305
Probable space group: P C C M
;
_chemical_formula_sum "Si O2"
_cell_formula_units_Z 56
_cell_length_a 21.502087
_cell_length_b 4.985574
_cell_length_c 27.652954
_cell_angle_alpha 90.000000
_cell_angle_beta 90.000000
_cell_angle_gamma 90.000000
_cell_volume 2964.403468
_symmetry_space_group_name_H-M "P C C M"
_symmetry_group_IT_number 49
_symmetry_cell_setting 'orthorhombic'
loop_
_space_group_symop_operation_xyz
x,y,z
-x,-y,z
x,-y,1/2-z
-x,y,1/2-z
-x,-y,-z
x,y,-z
-x,y,1/2+z
x,-y,1/2+z
loop_
_atom_site_type_symbol
_atom_site_label
_atom_site_fract_x
_atom_site_fract_y
_atom_site_fract_z
Si Si1 0.458482 0.742712 0.946232
Si Si2 0.721671 0.041947 0.197105
Si Si3 0.137582 0.482622 0.901901
Si Si4 0.270733 0.544155 0.556845
Si Si5 0.665107 0.951257 0.401444
Si Si6 0.926366 0.004009 0.445117
Si Si7 0.805125 0.539327 0.196997
O O1 0.500000 0.500000 0.924092
O O2 0.401406 0.819043 0.912029
O O3 0.500000 0.000000 0.951201
O O4 0.433981 0.658902 0.000000
O O5 0.669851 0.996246 0.156028
O O6 0.745954 0.344433 0.192625
O O7 0.690765 0.000000 0.250000
O O8 0.779976 0.841234 0.190085
O O9 0.202153 0.380600 0.925440
O O10 0.108022 0.737664 0.927613
O O11 0.144955 0.530178 0.844411
O O12 0.090635 0.240877 0.909118
O O13 0.273163 0.508453 0.500000
O O14 0.283132 0.258119 0.581414
O O15 0.322125 0.766983 0.571643
O O16 0.904220 0.060386 0.500000
O O17 0.000000 0.000000 0.442950
O O18 0.836531 0.500000 0.250000
#
# Coordination Sequence:
#
# PCOD8203305 Si02
#       7
#     8   8   8   8   8   8   8
#     4  10  21  36  53  74 106 153 196 223 258 318
#     4  10  19  35  56  82 112 144 180 224 280 347
#     4  12  21  38  59  83 114 147 186 233 285 340
#     4  12  23  33  53  86 118 147 173 227 297 344
#     4  12  21  37  55  82 116 146 185 236 281 337
#     4  11  24  40  58  80 111 155 198 229 266 330
#     4  10  20  36  57  83 113 143 180 223 281 345
#
# _framework density 18.890816000000001
#
# number of rings (size 3 to 8) (size 9 to 14) (size 15 to 20)
#    0.000    1.000    2.857    5.571    0.000    2.286 
#    0.000    0.000    0.000    3.000    0.000    1.000 
#    0.000    0.000    0.000    0.000    0.000    0.000 
#
# Total GULP energy -694431.273813 kJ/mol
# GULP energy per Si atom -12400.558461 kJ/mol
# Density = 1.884782 g / cm^3
# Si number density = 18.890816 Si / 1000 Ang^3
#
#
#
# Elastic Constant Matrix: (Units=GPa)
#
#
# Indices 1 2 3 4 5 6 
#
# 1 76.0570 17.7817 44.8237 0.0000 0.0000 0.0000
# 2 17.7817 93.1750 27.5033 0.0000 0.0000 0.0000
# 3 44.8237 27.5033 173.9552 0.0000 0.0000 0.0000
# 4 0.0000 0.0000 0.0000 27.1904 0.0000 0.0000
# 5 0.0000 0.0000 0.0000 0.0000 28.2605 0.0000
# 6 0.0000 0.0000 0.0000 0.0000 0.0000 31.1745
#
#
#
# Elastic Compliance Matrix: (Units=1/GPa)
#
#
# Indices 1 2 3 4 5 6 
#
# 1 0.015818 -0.001904 -0.003775 0.000000 0.000000 0.000000
# 2 -0.001904 0.011487 -0.001325 0.000000 0.000000 0.000000
# 3 -0.003775 -0.001325 0.006931 0.000000 0.000000 0.000000
# 4 0.000000 0.000000 0.000000 0.036778 0.000000 0.000000
# 5 0.000000 0.000000 0.000000 0.000000 0.035385 0.000000
# 6 0.000000 0.000000 0.000000 0.000000 0.000000 0.032078
#
#
# Mechanical properties :
#
#
# Convention : Reuss Voigt Hill
#
# Bulk Modulus (GPa) = 49.43998 58.15606 53.79802
# Shear Modulus (GPa) = 31.40154 34.19697 32.79925
#
# Velocity S-wave (km/s) = 4.08151 4.25931 4.17136
# Velocity P-wave (km/s) = 6.95988 7.41897 7.19309
#
# Compressibility (1/GPa) = 0.02022655
#
# Stress axis : x y z
#
# Youngs Moduli (GPa) = 63.21939 87.05346 144.28301
#
# Poissons Ratio (x) = 0.16579 0.54463
# Poissons Ratio (y) = 0.12040 0.19124
# Poissons Ratio (z) = 0.23864 0.11539
#
# Static dielectric constant tensor:
#      x y z
#    x 3.158260 0.000000 0.000000 
#    y 0.000000 3.607570 0.000000 
#    z 0.000000 0.000000 3.731890 
# 
# 
# High freq. dielectric constant tensor:
#      x y z
#    x 1.700890 0.000000 0.000000 
#    y 0.000000 1.757710 0.000000 
#    z 0.000000 0.000000 1.738210 
# 
# From -- ./inp_files/25215.got.cif
#   From: 2010.03.12/outbox.cif.g09.slc.cpg/sg49_13_cif.got.tgz:25215.got - 2010.04.14 03:58:27.
