data_PCOD8203807
_publ_section_title
;
Structure prediction by ZEFSAII (Michael W. Deem and Ramdas Pophale) SiO2 
 PCOD8203807
Probable space group: P C C M
;
_chemical_formula_sum "Si O2"
_cell_formula_units_Z 58
_cell_length_a 19.279424
_cell_length_b 19.325676
_cell_length_c 8.302619
_cell_angle_alpha 90.000000
_cell_angle_beta 90.000000
_cell_angle_gamma 90.000000
_cell_volume 3093.455392
_symmetry_space_group_name_H-M "P C C M"
_symmetry_group_IT_number 49
_symmetry_cell_setting 'orthorhombic'
loop_
_space_group_symop_operation_xyz
x,y,z
-x,-y,z
x,-y,1/2-z
-x,y,1/2-z
-x,-y,-z
x,y,-z
-x,y,1/2+z
x,-y,1/2+z
loop_
_atom_site_type_symbol
_atom_site_label
_atom_site_fract_x
_atom_site_fract_y
_atom_site_fract_z
Si Si1 0.797456 0.817249 0.813607
Si Si2 0.254716 0.571444 0.186840
Si Si3 0.072780 0.248889 0.313921
Si Si4 0.312837 0.715235 0.814049
Si Si5 0.313654 0.077206 0.189630
Si Si6 0.577347 0.188477 0.309725
Si Si7 0.000000 0.500000 0.250000
Si Si8 0.105324 0.397551 0.812389
O O1 0.868120 0.808872 0.713270
O O2 0.746306 0.752291 0.790677
O O3 0.757889 0.886584 0.752073
O O4 0.817277 0.822620 0.000000
O O5 0.288662 0.500000 0.250000
O O6 0.309333 0.633075 0.219762
O O7 0.184971 0.585111 0.285574
O O8 0.235710 0.566773 0.000000
O O9 0.067854 0.267952 0.500000
O O10 0.092630 0.316916 0.214555
O O11 0.000000 0.218767 0.250000
O O12 0.388971 0.742014 0.764365
O O13 0.297617 0.731744 0.000000
O O14 0.378970 0.122050 0.252783
O O15 0.319424 0.000000 0.250000
O O16 0.315241 0.077369 0.000000
O O17 0.500000 0.179330 0.250000
O O18 0.579410 0.194881 0.500000
O O19 0.943050 0.556852 0.312450
O O20 0.085399 0.415954 0.000000
#
# Coordination Sequence:
#
# PCOD8203807 Si02
#       8
#     8   8   8   8   8   8   2   8
#     4  10  20  36  57  81 110 146 189 233 279 331
#     4  11  23  36  53  77 106 139 186 234 285 338
#     4  12  24  37  54  77 105 140 185 234 288 339
#     4  10  20  35  56  81 110 145 188 234 279 333
#     4   9  20  36  57  87 120 154 188 222 266 324
#     4  10  21  37  58  87 120 154 190 225 270 326
#     4  12  26  36  52  70 106 148 190 220 294 352
#     4  12  24  36  52  71 101 140 183 233 282 340
#
# _framework density 18.749258999999999
#
# number of rings (size 3 to 8) (size 9 to 14) (size 15 to 20)
#    0.000    1.379    2.759    4.345    0.000    6.345 
#    0.000    1.379    0.000    0.828    0.000    5.793 
#    0.000    0.000    0.000    0.000    0.000    0.000 
#
# Total GULP energy -718660.594260 kJ/mol
# GULP energy per Si atom -12390.699901 kJ/mol
# Density = 1.870659 g / cm^3
# Si number density = 18.749259 Si / 1000 Ang^3
#
#
#
# Elastic Constant Matrix: (Units=GPa)
#
#
# Indices 1 2 3 4 5 6 
#
# 1 121.6049 78.7846 24.5153 0.0000 0.0000 0.0000
# 2 78.7846 132.1818 33.1052 0.0000 0.0000 0.0000
# 3 24.5153 33.1052 65.5289 0.0000 0.0000 0.0000
# 4 0.0000 0.0000 0.0000 24.8052 0.0000 0.0000
# 5 0.0000 0.0000 0.0000 0.0000 24.5094 0.0000
# 6 0.0000 0.0000 0.0000 0.0000 0.0000 24.3337
#
#
#
# Elastic Compliance Matrix: (Units=1/GPa)
#
#
# Indices 1 2 3 4 5 6 
#
# 1 0.013469 -0.007746 -0.001126 0.000000 0.000000 0.000000
# 2 -0.007746 0.013116 -0.003728 0.000000 0.000000 0.000000
# 3 -0.001126 -0.003728 0.017565 0.000000 0.000000 0.000000
# 4 0.000000 0.000000 0.000000 0.040314 0.000000 0.000000
# 5 0.000000 0.000000 0.000000 0.000000 0.040801 0.000000
# 6 0.000000 0.000000 0.000000 0.000000 0.000000 0.041095
#
#
# Mechanical properties :
#
#
# Convention : Reuss Voigt Hill
#
# Bulk Modulus (GPa) = 52.77027 65.79177 59.28102
# Shear Modulus (GPa) = 25.26838 26.92368 26.09603
#
# Velocity S-wave (km/s) = 3.67509 3.79355 3.73479
# Velocity P-wave (km/s) = 6.79814 7.37255 7.09117
#
# Compressibility (1/GPa) = 0.01895006
#
# Stress axis : x y z
#
# Youngs Moduli (GPa) = 74.24701 76.24373 56.93113
#
# Poissons Ratio (x) = 0.59057 0.06408
# Poissons Ratio (y) = 0.57510 0.21226
# Poissons Ratio (z) = 0.08357 0.28426
#
# Static dielectric constant tensor:
#      x y z
#    x 3.418150 0.000000 0.000000 
#    y 0.000000 3.184900 0.000000 
#    z 0.000000 0.000000 3.464810 
# 
# 
# High freq. dielectric constant tensor:
#      x y z
#    x 1.716150 0.000000 0.000000 
#    y 0.000000 1.717090 0.000000 
#    z 0.000000 0.000000 1.730660 
# 
# From -- ./inp_files/5106.got.cif
#   From: 2010.03.12/outbox.cif.g09.slc.cpg/sg49_3_cif.got.tgz:5106.got - 2010.04.14 03:58:27.
