data_PCOD8203260
_publ_section_title
;
Structure prediction by ZEFSAII (Michael W. Deem and Ramdas Pophale) SiO2 
 PCOD8203260
Probable space group: P C C M
;
_chemical_formula_sum "Si O2"
_cell_formula_units_Z 40
_cell_length_a 8.774851
_cell_length_b 14.541820
_cell_length_c 14.880683
_cell_angle_alpha 90.000000
_cell_angle_beta 90.000000
_cell_angle_gamma 90.000000
_cell_volume 1898.809432
_symmetry_space_group_name_H-M "P C C M"
_symmetry_group_IT_number 49
_symmetry_cell_setting 'orthorhombic'
loop_
_space_group_symop_operation_xyz
x,y,z
-x,-y,z
x,-y,1/2-z
-x,y,1/2-z
-x,-y,-z
x,y,-z
-x,y,1/2+z
x,-y,1/2+z
loop_
_atom_site_type_symbol
_atom_site_label
_atom_site_fract_x
_atom_site_fract_y
_atom_site_fract_z
Si Si1 0.813832 0.581407 0.402482
Si Si2 0.331419 0.767848 0.895642
Si Si3 0.823643 0.108060 0.748833
Si Si4 0.114748 0.395302 0.165538
Si Si5 0.690901 0.770660 0.895887
O O1 0.742617 0.558648 0.500000
O O2 0.726387 0.668720 0.359882
O O3 0.795832 0.493582 0.336219
O O4 0.993655 0.606064 0.416424
O O5 0.258437 0.847588 0.835231
O O6 0.511237 0.768419 0.884456
O O7 0.283389 0.783084 0.000000
O O8 0.752539 0.139559 0.654232
O O9 0.000000 0.136303 0.750000
O O10 0.798836 0.000000 0.750000
O O11 0.238345 0.316102 0.156158
O O12 0.000000 0.383920 0.250000
O O13 0.739880 0.773094 0.000000
#
# Coordination Sequence:
#
# PCOD8203260 Si02
#       5
#     8   8   8   8   8
#     4  10  19  34  56  84 118 159 202 249 299 355
#     4  10  23  41  64  93 126 162 204 254 313 374
#     4  11  25  44  66  91 120 158 205 257 312 372
#     4  11  21  34  56  86 121 162 207 250 296 353
#     4  11  23  40  63  93 126 164 205 252 311 375
#
# _framework density 21.065830999999999
#
# number of rings (size 3 to 8) (size 9 to 14) (size 15 to 20)
#    0.000    1.400    0.000    7.200    0.000    6.400 
#    0.000    7.000    0.000    7.200    0.000    0.000 
#    0.000    0.000    0.000    0.000    0.000    0.000 
#
# Total GULP energy -495757.678871 kJ/mol
# GULP energy per Si atom -12393.941972 kJ/mol
# Density = 2.101788 g / cm^3
# Si number density = 21.065831 Si / 1000 Ang^3
#
#
#
# Elastic Constant Matrix: (Units=GPa)
#
#
# Indices 1 2 3 4 5 6 
#
# 1 105.5136 67.3959 52.4646 0.0000 0.0000 0.0000
# 2 67.3959 132.4391 68.3545 0.0000 0.0000 0.0000
# 3 52.4646 68.3545 146.0264 0.0000 0.0000 0.0000
# 4 0.0000 0.0000 0.0000 29.7416 0.0000 0.0000
# 5 0.0000 0.0000 0.0000 0.0000 34.0120 0.0000
# 6 0.0000 0.0000 0.0000 0.0000 0.0000 8.7549
#
#
#
# Elastic Compliance Matrix: (Units=1/GPa)
#
#
# Indices 1 2 3 4 5 6 
#
# 1 0.014621 -0.006236 -0.002334 0.000000 0.000000 0.000000
# 2 -0.006236 0.012615 -0.003665 0.000000 0.000000 0.000000
# 3 -0.002334 -0.003665 0.009402 0.000000 0.000000 0.000000
# 4 0.000000 0.000000 0.000000 0.033623 0.000000 0.000000
# 5 0.000000 0.000000 0.000000 0.000000 0.029401 0.000000
# 6 0.000000 0.000000 0.000000 0.000000 0.000000 0.114222
#
#
# Mechanical properties :
#
#
# Convention : Reuss Voigt Hill
#
# Bulk Modulus (GPa) = 82.17449 84.48990 83.33219
# Shear Modulus (GPa) = 20.62612 27.55263 24.08938
#
# Velocity S-wave (km/s) = 3.13250 3.62045 3.38528
# Velocity P-wave (km/s) = 7.22333 7.59418 7.41107
#
# Compressibility (1/GPa) = 0.01216923
#
# Stress axis : x y z
#
# Youngs Moduli (GPa) = 68.39449 79.26843 106.35798
#
# Poissons Ratio (x) = 0.49429 0.24826
# Poissons Ratio (y) = 0.42649 0.38979
# Poissons Ratio (z) = 0.15965 0.29051
#
# Static dielectric constant tensor:
#      x y z
#    x 3.893670 0.000000 0.000000 
#    y 0.000000 3.755790 0.000000 
#    z 0.000000 0.000000 4.083970 
# 
# 
# High freq. dielectric constant tensor:
#      x y z
#    x 1.819320 0.000000 0.000000 
#    y 0.000000 1.822360 0.000000 
#    z 0.000000 0.000000 1.845780 
# 
# From -- ./inp_files/11598.got.cif
#   From: 2010.03.12/outbox.cif.g09.slc.cpg/sg49_6_cif.got.tgz:11598.got - 2010.04.14 03:58:27.
