data_PCOD8203990
_publ_section_title
;
Structure prediction by ZEFSAII (Michael W. Deem and Ramdas Pophale) SiO2 
 PCOD8203990
Probable space group: P C C M
;
_chemical_formula_sum "Si O2"
_cell_formula_units_Z 40
_cell_length_a 11.558063
_cell_length_b 11.088987
_cell_length_c 13.780352
_cell_angle_alpha 90.000000
_cell_angle_beta 90.000000
_cell_angle_gamma 90.000000
_cell_volume 1766.189274
_symmetry_space_group_name_H-M "P C C M"
_symmetry_group_IT_number 49
_symmetry_cell_setting 'orthorhombic'
loop_
_space_group_symop_operation_xyz
x,y,z
-x,-y,z
x,-y,1/2-z
-x,y,1/2-z
-x,-y,-z
x,y,-z
-x,y,1/2+z
x,-y,1/2+z
loop_
_atom_site_type_symbol
_atom_site_label
_atom_site_fract_x
_atom_site_fract_y
_atom_site_fract_z
Si Si1 0.753592 0.667912 0.887708
Si Si2 0.818682 0.933098 0.384410
Si Si3 0.620596 0.561184 0.612741
Si Si4 0.628872 0.804942 0.269071
Si Si5 0.051139 0.830177 0.612485
O O1 0.722796 0.531753 0.855470
O O2 0.678813 0.770658 0.835541
O O3 0.889738 0.699378 0.868494
O O4 0.721091 0.683761 0.000000
O O5 0.794684 0.923709 0.500000
O O6 0.700957 0.906677 0.326217
O O7 0.919743 0.838447 0.346534
O O8 0.863102 0.064313 0.349963
O O9 0.500000 0.500000 0.641837
O O10 0.626710 0.591764 0.500000
O O11 0.635446 0.684268 0.667938
O O12 0.500000 0.853791 0.250000
O O13 0.035350 0.858217 0.500000
#
# Coordination Sequence:
#
# PCOD8203990 Si02
#       5
#     8   8   8   8   8
#     4  10  21  36  57  84 115 157 204 250 300 356
#     4   9  19  38  65  91 119 159 202 250 308 369
#     4  10  20  37  60  82 113 158 202 248 308 368
#     4  12  23  34  57  88 123 157 202 249 299 367
#     4   8  17  39  65  88 117 155 202 253 309 366
#
# _framework density 22.647631000000001
#
# number of rings (size 3 to 8) (size 9 to 14) (size 15 to 20)
#    0.000    2.200    2.000    2.400    0.000    2.400 
#    0.000    5.000    0.000   10.800    0.000    0.000 
#    0.000    0.000    0.000    0.000    0.000    0.000 
#
# Total GULP energy -495747.859872 kJ/mol
# GULP energy per Si atom -12393.696497 kJ/mol
# Density = 2.259608 g / cm^3
# Si number density = 22.647631 Si / 1000 Ang^3
#
#
#
# Elastic Constant Matrix: (Units=GPa)
#
#
# Indices 1 2 3 4 5 6 
#
# 1 154.2034 50.5101 36.4493 0.0000 0.0000 0.0000
# 2 50.5101 65.8536 20.6883 0.0000 0.0000 0.0000
# 3 36.4493 20.6883 54.6812 0.0000 0.0000 0.0000
# 4 0.0000 0.0000 0.0000 26.3541 0.0000 0.0000
# 5 0.0000 0.0000 0.0000 0.0000 28.3380 0.0000
# 6 0.0000 0.0000 0.0000 0.0000 0.0000 43.7933
#
#
#
# Elastic Compliance Matrix: (Units=1/GPa)
#
#
# Indices 1 2 3 4 5 6 
#
# 1 0.009375 -0.005932 -0.004004 0.000000 0.000000 0.000000
# 2 -0.005932 0.020988 -0.003986 0.000000 0.000000 0.000000
# 3 -0.004004 -0.003986 0.022465 0.000000 0.000000 0.000000
# 4 0.000000 0.000000 0.000000 0.037945 0.000000 0.000000
# 5 0.000000 0.000000 0.000000 0.000000 0.035288 0.000000
# 6 0.000000 0.000000 0.000000 0.000000 0.000000 0.022835
#
#
# Mechanical properties :
#
#
# Convention : Reuss Voigt Hill
#
# Bulk Modulus (GPa) = 40.02952 54.44818 47.23885
# Shear Modulus (GPa) = 27.01704 30.83645 28.92675
#
# Velocity S-wave (km/s) = 3.45763 3.69396 3.57774
# Velocity P-wave (km/s) = 5.80117 6.50288 6.16202
#
# Compressibility (1/GPa) = 0.02498156
#
# Stress axis : x y z
#
# Youngs Moduli (GPa) = 106.67038 47.64701 44.51319
#
# Poissons Ratio (x) = 0.28266 0.17825
# Poissons Ratio (y) = 0.63281 0.17744
# Poissons Ratio (z) = 0.42716 0.18993
#
# Static dielectric constant tensor:
#      x y z
#    x 4.293570 0.000000 0.000000 
#    y 0.000000 4.005080 0.000000 
#    z 0.000000 0.000000 4.207880 
# 
# 
# High freq. dielectric constant tensor:
#      x y z
#    x 1.884280 0.000000 0.000000 
#    y 0.000000 1.869280 0.000000 
#    z 0.000000 0.000000 1.912260 
# 
# From -- ./inp_files/12603.got.cif
#   From: 2010.03.12/outbox.cif.g09.slc.cpg/sg49_7_cif.got.tgz:12603.got - 2010.04.14 03:58:27.
