data_PCOD8203927
_publ_section_title
;
Structure prediction by ZEFSAII (Michael W. Deem and Ramdas Pophale) SiO2 
 PCOD8203927
Probable space group: P C C M
;
_chemical_formula_sum "Si O2"
_cell_formula_units_Z 64
_cell_length_a 21.867023
_cell_length_b 8.881033
_cell_length_c 17.085145
_cell_angle_alpha 90.000000
_cell_angle_beta 90.000000
_cell_angle_gamma 90.000000
_cell_volume 3317.965107
_symmetry_space_group_name_H-M "P C C M"
_symmetry_group_IT_number 49
_symmetry_cell_setting 'orthorhombic'
loop_
_space_group_symop_operation_xyz
x,y,z
-x,-y,z
x,-y,1/2-z
-x,y,1/2-z
-x,-y,-z
x,y,-z
-x,y,1/2+z
x,-y,1/2+z
loop_
_atom_site_type_symbol
_atom_site_label
_atom_site_fract_x
_atom_site_fract_y
_atom_site_fract_z
Si Si1 0.249672 0.362625 0.591997
Si Si2 0.383771 0.330536 0.592666
Si Si3 0.157800 0.899618 0.322884
Si Si4 0.129600 0.812666 0.091908
Si Si5 0.070775 0.672896 0.235239
Si Si6 0.607839 0.336028 0.408436
Si Si7 0.495364 0.824127 0.835839
Si Si8 0.743548 0.701631 0.092854
O O1 0.255502 0.373498 0.500000
O O2 0.314601 0.298618 0.623212
O O3 0.196300 0.249888 0.617236
O O4 0.237207 0.533415 0.620776
O O5 0.388397 0.316570 0.500000
O O6 0.403113 0.495698 0.623887
O O7 0.429458 0.210665 0.628785
O O8 0.108329 0.777333 0.295076
O O9 0.215975 0.820475 0.360712
O O10 0.180153 0.000000 0.250000
O O11 0.126895 0.010063 0.387458
O O12 0.081997 0.718395 0.144493
O O13 0.115184 0.787256 0.000000
O O14 0.089426 0.500000 0.250000
O O15 0.000000 0.700820 0.250000
O O16 0.612991 0.351921 0.500000
O O17 0.551264 0.232461 0.387679
O O18 0.673205 0.269299 0.380618
O O19 0.500000 0.750931 0.750000
O O20 0.500000 0.000000 0.831126
O O21 0.753299 0.724803 0.000000
#
# Coordination Sequence:
#
# PCOD8203927 Si02
#       8
#     8   8   8   8   8   8   8   8
#     4   8  16  32  57  85 109 136 178 234 279 321
#     4   9  18  35  59  81 100 131 180 227 274 326
#     4  10  21  35  54  85 119 155 184 228 283 340
#     4  10  20  36  59  89 122 155 192 233 285 345
#     4  10  22  42  63  84 117 157 199 240 284 332
#     4   9  19  36  58  79 100 133 180 231 275 325
#     4  11  24  38  47  70 107 144 177 222 274 332
#     4   9  17  34  57  82 110 142 187 234 274 326
#
# _framework density 19.288931000000002
#
# number of rings (size 3 to 8) (size 9 to 14) (size 15 to 20)
#    0.000    2.500    0.000    3.375    0.000    6.250 
#    6.750    6.250    0.000    0.000    0.000    0.000 
#    0.000    0.000    0.000    0.000    0.000    0.000 
#
# Total GULP energy -793350.118554 kJ/mol
# GULP energy per Si atom -12396.095602 kJ/mol
# Density = 1.924503 g / cm^3
# Si number density = 19.288931 Si / 1000 Ang^3
#
#
#
# Elastic Constant Matrix: (Units=GPa)
#
#
# Indices 1 2 3 4 5 6 
#
# 1 120.7450 62.8242 50.0083 0.0000 0.0000 0.0000
# 2 62.8242 107.6552 41.3083 0.0000 0.0000 0.0000
# 3 50.0083 41.3083 67.8862 0.0000 0.0000 0.0000
# 4 0.0000 0.0000 0.0000 -97.7275 0.0000 0.0000
# 5 0.0000 0.0000 0.0000 0.0000 28.1408 0.0000
# 6 0.0000 0.0000 0.0000 0.0000 0.0000 38.9114
#
#
#
# Elastic Compliance Matrix: (Units=1/GPa)
#
#
# Indices 1 2 3 4 5 6 
#
# 1 0.014047 -0.005514 -0.006992 0.000000 0.000000 0.000000
# 2 -0.005514 0.014283 -0.004629 0.000000 0.000000 0.000000
# 3 -0.006992 -0.004629 0.022698 0.000000 0.000000 0.000000
# 4 0.000000 0.000000 0.000000 -0.010233 0.000000 0.000000
# 5 0.000000 0.000000 0.000000 0.000000 0.035536 0.000000
# 6 0.000000 0.000000 0.000000 0.000000 0.000000 0.025699
#
#
# Mechanical properties :
#
#
# Convention : Reuss Voigt Hill
#
# Bulk Modulus (GPa) = 59.67683 67.17421 63.42552
# Shear Modulus (GPa) = 35.23915 3.34134 19.29025
#
# Velocity S-wave (km/s) = 4.27887 1.31758 3.16582
# Velocity P-wave (km/s) = 7.44428 6.10046 6.80561
#
# Compressibility (1/GPa) = 0.01675692
#
# Stress axis : x y z
#
# Youngs Moduli (GPa) = 71.18948 70.01251 44.05659
#
# Poissons Ratio (x) = 0.38608 0.30805
# Poissons Ratio (y) = 0.39257 0.20394
# Poissons Ratio (z) = 0.49777 0.32409
#
# Static dielectric constant tensor:
#      x y z
#    x 3.889840 0.000000 0.000000 
#    y 0.000000 3.677300 0.000000 
#    z 0.000000 0.000000 3.457880 
# 
# 
# High freq. dielectric constant tensor:
#      x y z
#    x 1.750630 0.000000 0.000000 
#    y 0.000000 1.753730 0.000000 
#    z 0.000000 0.000000 1.740240 
# 
# From -- ./inp_files/18333.got.cif
#   From: 2010.03.12/outbox.cif.g09.slc.cpg/sg49_10_cif.got.tgz:18333.got - 2010.04.14 03:58:27.
