data_PCOD8203484
_publ_section_title
;
Structure prediction by ZEFSAII (Michael W. Deem and Ramdas Pophale) SiO2 
 PCOD8203484
Probable space group: P C C M
;
_chemical_formula_sum "Si O2"
_cell_formula_units_Z 56
_cell_length_a 12.573301
_cell_length_b 9.586898
_cell_length_c 20.949148
_cell_angle_alpha 90.000000
_cell_angle_beta 90.000000
_cell_angle_gamma 90.000000
_cell_volume 2525.188392
_symmetry_space_group_name_H-M "P C C M"
_symmetry_group_IT_number 49
_symmetry_cell_setting 'orthorhombic'
loop_
_space_group_symop_operation_xyz
x,y,z
-x,-y,z
x,-y,1/2-z
-x,y,1/2-z
-x,-y,-z
x,y,-z
-x,y,1/2+z
x,-y,1/2+z
loop_
_atom_site_type_symbol
_atom_site_label
_atom_site_fract_x
_atom_site_fract_y
_atom_site_fract_z
Si Si1 0.078805 0.287672 0.571375
Si Si2 0.737129 0.505740 0.569568
Si Si3 0.884138 0.662391 0.753448
Si Si4 0.386844 0.926618 0.811665
Si Si5 0.849873 0.254995 0.612512
Si Si6 0.227756 0.963353 0.925451
Si Si7 0.324965 0.377406 0.303650
O O1 0.038941 0.258086 0.500000
O O2 0.145931 0.428262 0.576307
O O3 0.972708 0.304813 0.612522
O O4 0.151689 0.161475 0.594779
O O5 0.686167 0.542646 0.500000
O O6 0.764032 0.342059 0.571724
O O7 0.658153 0.554961 0.625983
O O8 0.906582 0.500000 0.750000
O O9 0.818349 0.718641 0.814166
O O10 0.796689 0.685649 0.697503
O O11 0.000000 0.739521 0.750000
O O12 0.400490 0.758897 0.798416
O O13 0.500000 0.000000 0.819114
O O14 0.329682 0.000000 0.750000
O O15 0.328122 0.957287 0.878343
O O16 0.841845 0.099499 0.587458
O O17 0.263953 0.953061 0.000000
O O18 0.345477 0.500000 0.250000
#
# Coordination Sequence:
#
# PCOD8203484 Si02
#       7
#     8   8   8   8   8   8   8
#     4  10  21  36  56  89 134 181 220 262 318 386
#     4  11  21  35  60  94 132 177 224 269 321 385
#     4  10  20  32  55  90 134 178 220 266 320 383
#     4  11  26  48  73  97 126 166 219 276 338 415
#     4  12  21  35  59  93 136 180 230 270 317 387
#     4  11  24  43  67  96 134 176 222 279 337 396
#     4  11  21  42  67  96 133 171 215 277 334 391
#
# _framework density 22.176563999999999
#
# number of rings (size 3 to 8) (size 9 to 14) (size 15 to 20)
#    0.000    1.143    4.286    3.857    2.000    2.571 
#    0.000    1.429    0.000    0.000    0.000    2.000 
#    0.000    0.000    0.000    0.000    0.000    0.000 
#
# Total GULP energy -693786.654575 kJ/mol
# GULP energy per Si atom -12389.047403 kJ/mol
# Density = 2.212609 g / cm^3
# Si number density = 22.176564 Si / 1000 Ang^3
#
#
#
# Elastic Constant Matrix: (Units=GPa)
#
#
# Indices 1 2 3 4 5 6 
#
# 1 46.5410 33.4295 15.2993 0.0000 0.0000 0.0000
# 2 33.4295 88.7025 39.4860 0.0000 0.0000 0.0000
# 3 15.2993 39.4860 165.4933 0.0000 0.0000 0.0000
# 4 0.0000 0.0000 0.0000 29.3378 0.0000 0.0000
# 5 0.0000 0.0000 0.0000 0.0000 28.9059 0.0000
# 6 0.0000 0.0000 0.0000 0.0000 0.0000 24.3137
#
#
#
# Elastic Compliance Matrix: (Units=1/GPa)
#
#
# Indices 1 2 3 4 5 6 
#
# 1 0.029463 -0.011067 -0.000083 0.000000 0.000000 0.000000
# 2 -0.011067 0.016770 -0.002978 0.000000 0.000000 0.000000
# 3 -0.000083 -0.002978 0.006761 0.000000 0.000000 0.000000
# 4 0.000000 0.000000 0.000000 0.034086 0.000000 0.000000
# 5 0.000000 0.000000 0.000000 0.000000 0.034595 0.000000
# 6 0.000000 0.000000 0.000000 0.000000 0.000000 0.041129
#
#
# Mechanical properties :
#
#
# Convention : Reuss Voigt Hill
#
# Bulk Modulus (GPa) = 40.42450 53.01849 46.72149
# Shear Modulus (GPa) = 25.08710 30.67961 27.88335
#
# Velocity S-wave (km/s) = 3.36705 3.72348 3.54974
# Velocity P-wave (km/s) = 5.77789 6.51499 6.15748
#
# Compressibility (1/GPa) = 0.02473747
#
# Stress axis : x y z
#
# Youngs Moduli (GPa) = 33.94111 59.62992 147.91094
#
# Poissons Ratio (x) = 0.65990 0.01232
# Poissons Ratio (y) = 0.37561 0.44051
# Poissons Ratio (z) = 0.00283 0.17759
#
# Static dielectric constant tensor:
#      x y z
#    x 3.596840 0.000000 0.000000 
#    y 0.000000 3.995480 0.000000 
#    z 0.000000 0.000000 4.447510 
# 
# 
# High freq. dielectric constant tensor:
#      x y z
#    x 1.824570 0.000000 0.000000 
#    y 0.000000 1.873750 0.000000 
#    z 0.000000 0.000000 1.895580 
# 
# From -- ./inp_files/20852.got.cif
#   From: 2010.03.12/outbox.cif.g09.slc.cpg/sg49_11_cif.got.tgz:20852.got - 2010.04.14 03:58:27.
