data_PCOD8203192
_publ_section_title
;
Structure prediction by ZEFSAII (Michael W. Deem and Ramdas Pophale) SiO2 
 PCOD8203192
Probable space group: P C C M
;
_chemical_formula_sum "Si O2"
_cell_formula_units_Z 56
_cell_length_a 12.744400
_cell_length_b 12.111734
_cell_length_c 18.430196
_cell_angle_alpha 90.000000
_cell_angle_beta 90.000000
_cell_angle_gamma 90.000000
_cell_volume 2844.825761
_symmetry_space_group_name_H-M "P C C M"
_symmetry_group_IT_number 49
_symmetry_cell_setting 'orthorhombic'
loop_
_space_group_symop_operation_xyz
x,y,z
-x,-y,z
x,-y,1/2-z
-x,y,1/2-z
-x,-y,-z
x,y,-z
-x,y,1/2+z
x,-y,1/2+z
loop_
_atom_site_type_symbol
_atom_site_label
_atom_site_fract_x
_atom_site_fract_y
_atom_site_fract_z
Si Si1 0.472125 0.295312 0.169875
Si Si2 0.808896 0.974962 0.085328
Si Si3 0.704305 0.585157 0.084183
Si Si4 0.110101 0.742027 0.413765
Si Si5 0.395229 0.950139 0.328971
Si Si6 0.317673 0.328907 0.415786
Si Si7 0.114716 0.792135 0.085776
O O1 0.500000 0.338779 0.250000
O O2 0.396319 0.381061 0.130412
O O3 0.408588 0.181255 0.174874
O O4 0.579624 0.287747 0.125452
O O5 0.885128 0.077336 0.105845
O O6 0.853874 0.860803 0.116484
O O7 0.695587 0.992114 0.119309
O O8 0.793235 0.968163 0.000000
O O9 0.811294 0.645153 0.112798
O O10 0.714229 0.455582 0.095495
O O11 0.684686 0.616569 0.000000
O O12 0.108462 0.743444 0.500000
O O13 0.990221 0.730194 0.384328
O O14 0.500000 0.000000 0.363629
O O15 0.374667 0.000000 0.250000
O O16 0.336542 0.302191 0.500000
O O17 0.219222 0.262955 0.381808
O O18 0.117434 0.776853 0.000000
#
# Coordination Sequence:
#
# PCOD8203192 Si02
#       7
#     8   8   8   8   8   8   8
#     4  12  23  38  60  81 111 153 192 232 285 346
#     4  10  19  33  57  85 112 145 188 233 282 345
#     4  10  21  38  60  87 116 149 193 239 281 332
#     4   9  17  32  56  86 117 148 184 230 284 340
#     4  11  22  37  54  79 113 149 184 231 287 335
#     4  10  22  38  58  87 118 149 191 240 283 330
#     4   9  18  32  54  86 119 148 182 231 286 337
#
# _framework density 19.68486
#
# number of rings (size 3 to 8) (size 9 to 14) (size 15 to 20)
#    0.000    1.857    2.857    2.143    0.000    5.429 
#    0.000    2.857    0.000    4.286    0.000    2.000 
#    0.000    0.000    0.000    0.000    0.000    0.000 
#
# Total GULP energy -694176.041908 kJ/mol
# GULP energy per Si atom -12396.000748 kJ/mol
# Density = 1.964006 g / cm^3
# Si number density = 19.684860 Si / 1000 Ang^3
#
#
#
# Elastic Constant Matrix: (Units=GPa)
#
#
# Indices 1 2 3 4 5 6 
#
# 1 131.6721 21.6779 31.7835 0.0000 0.0000 0.0000
# 2 21.6779 73.9042 24.5723 0.0000 0.0000 0.0000
# 3 31.7835 24.5723 44.6633 0.0000 0.0000 0.0000
# 4 0.0000 0.0000 0.0000 11.1172 0.0000 0.0000
# 5 0.0000 0.0000 0.0000 0.0000 1.0371 0.0000
# 6 0.0000 0.0000 0.0000 0.0000 0.0000 26.5068
#
#
#
# Elastic Compliance Matrix: (Units=1/GPa)
#
#
# Indices 1 2 3 4 5 6 
#
# 1 0.009194 -0.000638 -0.006192 0.000000 0.000000 0.000000
# 2 -0.000638 0.016605 -0.008681 0.000000 0.000000 0.000000
# 3 -0.006192 -0.008681 0.031572 0.000000 0.000000 0.000000
# 4 0.000000 0.000000 0.000000 0.089951 0.000000 0.000000
# 5 0.000000 0.000000 0.000000 0.000000 0.964242 0.000000
# 6 0.000000 0.000000 0.000000 0.000000 0.000000 0.037726
#
#
# Mechanical properties :
#
#
# Convention : Reuss Voigt Hill
#
# Bulk Modulus (GPa) = 37.95254 45.14522 41.54888
# Shear Modulus (GPa) = 4.20488 19.21261 11.70874
#
# Velocity S-wave (km/s) = 1.46312 3.12750 2.44152
# Velocity P-wave (km/s) = 4.70916 6.00212 5.39452
#
# Compressibility (1/GPa) = 0.02634870
#
# Stress axis : x y z
#
# Youngs Moduli (GPa) = 108.76317 60.22423 31.67365
#
# Poissons Ratio (x) = 0.03844 0.19612
# Poissons Ratio (y) = 0.06942 0.27496
# Poissons Ratio (z) = 0.67343 0.52281
#
# Static dielectric constant tensor:
#      x y z
#    x 3.921980 0.000000 0.000000 
#    y 0.000000 3.739060 0.000000 
#    z 0.000000 0.000000 3.266950 
# 
# 
# High freq. dielectric constant tensor:
#      x y z
#    x 1.782320 0.000000 0.000000 
#    y 0.000000 1.775380 0.000000 
#    z 0.000000 0.000000 1.722680 
# 
# From -- ./inp_files/20512.got.cif
#   From: 2010.03.12/outbox.cif.g09.slc.cpg/sg49_11_cif.got.tgz:20512.got - 2010.04.14 03:58:27.
