data_PCOD8203810
_publ_section_title
;
Structure prediction by ZEFSAII (Michael W. Deem and Ramdas Pophale) SiO2 
 PCOD8203810
Probable space group: P C C M
;
_chemical_formula_sum "Si O2"
_cell_formula_units_Z 34
_cell_length_a 6.585281
_cell_length_b 15.033674
_cell_length_c 18.605641
_cell_angle_alpha 90.000000
_cell_angle_beta 90.000000
_cell_angle_gamma 90.000000
_cell_volume 1841.976465
_symmetry_space_group_name_H-M "P C C M"
_symmetry_group_IT_number 49
_symmetry_cell_setting 'orthorhombic'
loop_
_space_group_symop_operation_xyz
x,y,z
-x,-y,z
x,-y,1/2-z
-x,y,1/2-z
-x,-y,-z
x,y,-z
-x,y,1/2+z
x,-y,1/2+z
loop_
_atom_site_type_symbol
_atom_site_label
_atom_site_fract_x
_atom_site_fract_y
_atom_site_fract_z
Si Si1 0.824482 0.757045 0.420480
Si Si2 0.000000 0.500000 0.750000
Si Si3 0.868632 0.917725 0.919441
Si Si4 0.104136 0.330783 0.181002
Si Si5 0.561728 0.188865 0.669179
O O1 0.753456 0.727872 0.500000
O O2 0.635363 0.793294 0.377060
O O3 0.988174 0.833877 0.424403
O O4 0.939199 0.674132 0.383273
O O5 0.140914 0.435522 0.799902
O O6 0.683801 0.894352 0.865482
O O7 0.785406 0.940548 0.000000
O O8 0.000000 0.000000 0.888491
O O9 0.313598 0.281222 0.164956
O O10 0.000000 0.282162 0.250000
O O11 0.500000 0.163099 0.750000
#
# Coordination Sequence:
#
# PCOD8203810 Si02
#       5
#     8   2   8   8   8
#     4  10  20  35  56  82 109 142 180 222 267 318
#     4   8  16  36  60  80 102 142 178 212 270 324
#     4   9  20  37  55  76 108 147 185 224 267 316
#     4   9  18  35  58  80 103 139 178 217 265 324
#     4  11  19  33  57  78 107 143 180 225 269 319
#
# _framework density 18.458435000000001
#
# number of rings (size 3 to 8) (size 9 to 14) (size 15 to 20)
#    0.706    1.647    2.353    0.706    0.000    1.882 
#    0.000   12.941    0.000    1.412    0.000    0.000 
#    0.000    0.000    0.000    0.000    0.000    0.000 
#
# Total GULP energy -421296.082152 kJ/mol
# GULP energy per Si atom -12391.061240 kJ/mol
# Density = 1.841642 g / cm^3
# Si number density = 18.458435 Si / 1000 Ang^3
#
#
#
# Elastic Constant Matrix: (Units=GPa)
#
#
# Indices 1 2 3 4 5 6 
#
# 1 84.4024 17.5093 61.2339 0.0000 0.0000 0.0000
# 2 17.5093 85.4884 32.3695 0.0000 0.0000 0.0000
# 3 61.2339 32.3695 151.4570 0.0000 0.0000 0.0000
# 4 0.0000 0.0000 0.0000 29.0204 0.0000 0.0000
# 5 0.0000 0.0000 0.0000 0.0000 26.7315 0.0000
# 6 0.0000 0.0000 0.0000 0.0000 0.0000 5.0238
#
#
#
# Elastic Compliance Matrix: (Units=1/GPa)
#
#
# Indices 1 2 3 4 5 6 
#
# 1 0.016836 -0.000948 -0.006604 0.000000 0.000000 0.000000
# 2 -0.000948 0.012781 -0.002348 0.000000 0.000000 0.000000
# 3 -0.006604 -0.002348 0.009775 0.000000 0.000000 0.000000
# 4 0.000000 0.000000 0.000000 0.034459 0.000000 0.000000
# 5 0.000000 0.000000 0.000000 0.000000 0.037409 0.000000
# 6 0.000000 0.000000 0.000000 0.000000 0.000000 0.199053
#
#
# Mechanical properties :
#
#
# Convention : Reuss Voigt Hill
#
# Bulk Modulus (GPa) = 51.04449 60.39704 55.72076
# Shear Modulus (GPa) = 14.85255 26.17082 20.51168
#
# Velocity S-wave (km/s) = 2.83971 3.76949 3.33714
# Velocity P-wave (km/s) = 6.20207 7.19284 6.71575
#
# Compressibility (1/GPa) = 0.01959075
#
# Stress axis : x y z
#
# Youngs Moduli (GPa) = 59.39675 78.24251 102.30690
#
# Poissons Ratio (x) = 0.07414 0.67566
# Poissons Ratio (y) = 0.05629 0.24026
# Poissons Ratio (z) = 0.39227 0.18374
#
# Static dielectric constant tensor:
#      x y z
#    x 3.376020 0.000000 0.000000 
#    y 0.000000 3.167890 0.000000 
#    z 0.000000 0.000000 3.915120 
# 
# 
# High freq. dielectric constant tensor:
#      x y z
#    x 1.711180 0.000000 0.000000 
#    y 0.000000 1.689860 0.000000 
#    z 0.000000 0.000000 1.724850 
# 
# From -- ./inp_files/15228.got.cif
#   From: 2010.03.12/outbox.cif.g09.slc.cpg/sg49_8_cif.got.tgz:15228.got - 2010.04.14 03:58:27.
