data_PCOD8203235
_publ_section_title
;
Structure prediction by ZEFSAII (Michael W. Deem and Ramdas Pophale) SiO2 
 PCOD8203235
Probable space group: P C C M
;
_chemical_formula_sum "Si O2"
_cell_formula_units_Z 56
_cell_length_a 13.248333
_cell_length_b 12.342704
_cell_length_c 18.099068
_cell_angle_alpha 90.000000
_cell_angle_beta 90.000000
_cell_angle_gamma 90.000000
_cell_volume 2959.564173
_symmetry_space_group_name_H-M "P C C M"
_symmetry_group_IT_number 49
_symmetry_cell_setting 'orthorhombic'
loop_
_space_group_symop_operation_xyz
x,y,z
-x,-y,z
x,-y,1/2-z
-x,y,1/2-z
-x,-y,-z
x,y,-z
-x,y,1/2+z
x,-y,1/2+z
loop_
_atom_site_type_symbol
_atom_site_label
_atom_site_fract_x
_atom_site_fract_y
_atom_site_fract_z
Si Si1 0.190164 0.028180 0.584723
Si Si2 0.682826 0.722545 0.848921
Si Si3 0.261244 0.608285 0.206945
Si Si4 0.595502 0.929892 0.913947
Si Si5 0.383183 0.496512 0.915574
Si Si6 0.110279 0.782289 0.830210
Si Si7 0.888132 0.168667 0.665567
O O1 0.162348 0.012482 0.500000
O O2 0.171393 0.151667 0.608139
O O3 0.306792 0.003066 0.600450
O O4 0.115107 0.950277 0.630080
O O5 0.676214 0.686461 0.762866
O O6 0.604470 0.820041 0.865554
O O7 0.658901 0.623573 0.902912
O O8 0.797013 0.759737 0.867675
O O9 0.228942 0.500000 0.250000
O O10 0.330381 0.584359 0.136632
O O11 0.158344 0.663237 0.178145
O O12 0.500000 0.000000 0.886828
O O13 0.584489 0.897632 0.000000
O O14 0.500000 0.500000 0.895051
O O15 0.363622 0.530617 0.000000
O O16 0.121844 0.846579 0.753298
O O17 0.993219 0.771256 0.853794
#
# Coordination Sequence:
#
# PCOD8203235 Si02
#       7
#     8   8   8   8   8   8   8
#     4  10  20  32  50  79 112 142 177 218 257 311
#     4   9  18  35  56  78 105 138 176 217 263 316
#     4   9  20  37  56  80 107 135 177 230 269 305
#     4   9  18  33  53  79 111 145 177 211 260 321
#     4  10  21  37  57  78 102 138 178 216 265 321
#     4  10  19  34  55  77 105 141 178 218 262 308
#     4   9  19  35  54  76 103 143 180 207 258 325
#
# _framework density 18.921704999999999
#
# number of rings (size 3 to 8) (size 9 to 14) (size 15 to 20)
#    0.000    2.571    0.000    1.286    0.000    7.143 
#    0.000   16.429    0.000   11.143    0.000    0.000 
#    0.000    0.571    0.000    0.000    0.000    0.000 
#
# Total GULP energy -694449.685681 kJ/mol
# GULP energy per Si atom -12400.887244 kJ/mol
# Density = 1.887864 g / cm^3
# Si number density = 18.921705 Si / 1000 Ang^3
#
#
#
# Elastic Constant Matrix: (Units=GPa)
#
#
# Indices 1 2 3 4 5 6 
#
# 1 121.3247 64.2118 58.2411 0.0000 0.0000 0.0000
# 2 64.2118 110.2445 51.9424 0.0000 0.0000 0.0000
# 3 58.2411 51.9424 78.1758 0.0000 0.0000 0.0000
# 4 0.0000 0.0000 0.0000 28.0061 0.0000 0.0000
# 5 0.0000 0.0000 0.0000 0.0000 26.1029 0.0000
# 6 0.0000 0.0000 0.0000 0.0000 0.0000 30.2600
#
#
#
# Elastic Compliance Matrix: (Units=1/GPa)
#
#
# Indices 1 2 3 4 5 6 
#
# 1 0.014422 -0.004859 -0.007516 0.000000 0.000000 0.000000
# 2 -0.004859 0.014841 -0.006241 0.000000 0.000000 0.000000
# 3 -0.007516 -0.006241 0.022538 0.000000 0.000000 0.000000
# 4 0.000000 0.000000 0.000000 0.035706 0.000000 0.000000
# 5 0.000000 0.000000 0.000000 0.000000 0.038310 0.000000
# 6 0.000000 0.000000 0.000000 0.000000 0.000000 0.033047
#
#
# Mechanical properties :
#
#
# Convention : Reuss Voigt Hill
#
# Bulk Modulus (GPa) = 68.63817 73.17062 70.90440
# Shear Modulus (GPa) = 24.88144 25.89712 25.38928
#
# Velocity S-wave (km/s) = 3.63018 3.70354 3.66704
# Velocity P-wave (km/s) = 7.34333 7.55264 7.44872
#
# Compressibility (1/GPa) = 0.01456915
#
# Stress axis : x y z
#
# Youngs Moduli (GPa) = 69.33898 67.37928 44.36953
#
# Poissons Ratio (x) = 0.32738 0.33348
# Poissons Ratio (y) = 0.33690 0.27692
# Poissons Ratio (z) = 0.52115 0.42053
#
# Static dielectric constant tensor:
#      x y z
#    x 3.495720 0.000000 0.000000 
#    y 0.000000 3.434800 0.000000 
#    z 0.000000 0.000000 3.448360 
# 
# 
# High freq. dielectric constant tensor:
#      x y z
#    x 1.733990 0.000000 0.000000 
#    y 0.000000 1.728390 0.000000 
#    z 0.000000 0.000000 1.731070 
# 
# From -- ./inp_files/20501.got.cif
#   From: 2010.03.12/outbox.cif.g09.slc.cpg/sg49_11_cif.got.tgz:20501.got - 2010.04.14 03:58:27.
