data_PCOD8203193
_publ_section_title
;
Structure prediction by ZEFSAII (Michael W. Deem and Ramdas Pophale) SiO2 
 PCOD8203193
Probable space group: P C C M
;
_chemical_formula_sum "Si O2"
_cell_formula_units_Z 64
_cell_length_a 12.824453
_cell_length_b 13.945297
_cell_length_c 17.347835
_cell_angle_alpha 90.000000
_cell_angle_beta 90.000000
_cell_angle_gamma 90.000000
_cell_volume 3102.500793
_symmetry_space_group_name_H-M "P C C M"
_symmetry_group_IT_number 49
_symmetry_cell_setting 'orthorhombic'
loop_
_space_group_symop_operation_xyz
x,y,z
-x,-y,z
x,-y,1/2-z
-x,y,1/2-z
-x,-y,-z
x,y,-z
-x,y,1/2+z
x,-y,1/2+z
loop_
_atom_site_type_symbol
_atom_site_label
_atom_site_fract_x
_atom_site_fract_y
_atom_site_fract_z
Si Si1 0.943193 0.097158 0.908902
Si Si2 0.379573 0.396166 0.736402
Si Si3 0.261453 0.167581 0.347186
Si Si4 0.690905 0.785901 0.178134
Si Si5 0.108321 0.464415 0.908636
Si Si6 0.267463 0.632151 0.090163
Si Si7 0.489783 0.892345 0.158225
Si Si8 0.888244 0.750969 0.091010
O O1 0.827313 0.092354 0.871823
O O2 0.011755 0.188494 0.878709
O O3 0.930051 0.101792 0.000000
O O4 0.000000 0.000000 0.883045
O O5 0.329781 0.500000 0.750000
O O6 0.500000 0.393561 0.750000
O O7 0.325415 0.324053 0.795785
O O8 0.367963 0.370732 0.645812
O O9 0.271192 0.160057 0.255119
O O10 0.216592 0.265850 0.386308
O O11 0.380052 0.146552 0.376427
O O12 0.588529 0.827066 0.134000
O O13 0.781626 0.801054 0.116439
O O14 0.195640 0.542151 0.885586
O O15 0.120246 0.357151 0.874872
O O16 0.000000 0.500000 0.873660
O O17 0.103687 0.458519 0.000000
O O18 0.297942 0.628983 0.000000
O O19 0.500000 0.888747 0.250000
O O20 0.500000 0.000000 0.126635
O O21 0.893633 0.749240 0.000000
#
# Coordination Sequence:
#
# PCOD8203193 Si02
#       8
#     8   8   8   8   8   8   8   8
#     4  10  22  39  58  80 114 155 190 234 297 354
#     4  10  20  36  56  81 117 156 188 234 299 351
#     4  10  20  36  60  85 113 148 189 240 294 351
#     4  10  20  36  58  84 115 148 192 241 292 351
#     4   9  17  31  54  82 110 145 190 232 275 334
#     4  10  19  33  57  85 113 149 195 237 283 352
#     4   9  19  36  59  83 110 145 192 241 296 345
#     4  10  21  37  56  80 116 155 189 236 292 346
#
# _framework density 20.628520000000002
#
# number of rings (size 3 to 8) (size 9 to 14) (size 15 to 20)
#    0.000    2.250    0.000    3.750    1.750    2.500 
#    0.000    5.000    0.000    6.750    0.000    0.000 
#    0.000    0.000    0.000    0.000    0.000    0.000 
#
# Total GULP energy -792842.511471 kJ/mol
# GULP energy per Si atom -12388.164242 kJ/mol
# Density = 2.058157 g / cm^3
# Si number density = 20.628520 Si / 1000 Ang^3
#
#
#
# Elastic Constant Matrix: (Units=GPa)
#
#
# Indices 1 2 3 4 5 6 
#
# 1 158.2766 66.6592 29.8220 0.0000 0.0000 0.0000
# 2 66.6592 117.3560 27.8273 0.0000 0.0000 0.0000
# 3 29.8220 27.8273 22.5714 0.0000 0.0000 0.0000
# 4 0.0000 0.0000 0.0000 17.0772 0.0000 0.0000
# 5 0.0000 0.0000 0.0000 0.0000 18.1572 0.0000
# 6 0.0000 0.0000 0.0000 0.0000 0.0000 34.6065
#
#
#
# Elastic Compliance Matrix: (Units=1/GPa)
#
#
# Indices 1 2 3 4 5 6 
#
# 1 0.009249 -0.003329 -0.008116 0.000000 0.000000 0.000000
# 2 -0.003329 0.013239 -0.011924 0.000000 0.000000 0.000000
# 3 -0.008116 -0.011924 0.069727 0.000000 0.000000 0.000000
# 4 0.000000 0.000000 0.000000 0.058558 0.000000 0.000000
# 5 0.000000 0.000000 0.000000 0.000000 0.055075 0.000000
# 6 0.000000 0.000000 0.000000 0.000000 0.000000 0.028896
#
#
# Mechanical properties :
#
#
# Convention : Reuss Voigt Hill
#
# Bulk Modulus (GPa) = 21.98859 60.75789 41.37324
# Shear Modulus (GPa) = 16.85534 25.56121 21.20828
#
# Velocity S-wave (km/s) = 2.86158 3.52393 3.20989
# Velocity P-wave (km/s) = 4.64765 6.78784 5.81702
#
# Compressibility (1/GPa) = 0.04547813
#
# Stress axis : x y z
#
# Youngs Moduli (GPa) = 108.11510 75.53188 14.34161
#
# Poissons Ratio (x) = 0.25147 0.11640
# Poissons Ratio (y) = 0.35994 0.17100
# Poissons Ratio (z) = 0.87747 0.90061
#
# Static dielectric constant tensor:
#      x y z
#    x 3.832540 0.000000 0.000000 
#    y 0.000000 4.371600 0.000000 
#    z 0.000000 0.000000 3.297760 
# 
# 
# High freq. dielectric constant tensor:
#      x y z
#    x 1.810810 0.000000 0.000000 
#    y 0.000000 1.820600 0.000000 
#    z 0.000000 0.000000 1.769080 
# 
# From -- ./inp_files/17322.got.cif
#   From: 2010.03.12/outbox.cif.g09.slc.cpg/sg49_9_cif.got.tgz:17322.got - 2010.04.14 03:58:27.
