data_PCOD8203652
_publ_section_title
;
Structure prediction by ZEFSAII (Michael W. Deem and Ramdas Pophale) SiO2 
 PCOD8203652
Probable space group: P C C M
;
_chemical_formula_sum "Si O2"
_cell_formula_units_Z 56
_cell_length_a 14.743634
_cell_length_b 22.736623
_cell_length_c 8.732742
_cell_angle_alpha 90.000000
_cell_angle_beta 90.000000
_cell_angle_gamma 90.000000
_cell_volume 2927.393685
_symmetry_space_group_name_H-M "P C C M"
_symmetry_group_IT_number 49
_symmetry_cell_setting 'orthorhombic'
loop_
_space_group_symop_operation_xyz
x,y,z
-x,-y,z
x,-y,1/2-z
-x,y,1/2-z
-x,-y,-z
x,y,-z
-x,y,1/2+z
x,-y,1/2+z
loop_
_atom_site_type_symbol
_atom_site_label
_atom_site_fract_x
_atom_site_fract_y
_atom_site_fract_z
Si Si1 0.595453 0.663073 0.681363
Si Si2 0.727679 0.440411 0.819022
Si Si3 0.405678 0.211881 0.820476
Si Si4 0.779989 0.157338 0.322174
Si Si5 0.094748 0.606045 0.681776
Si Si6 0.092196 0.738710 0.321186
Si Si7 0.094464 0.936597 0.819232
O O1 0.500000 0.642696 0.750000
O O2 0.587864 0.667467 0.500000
O O3 0.668545 0.615172 0.734843
O O4 0.623882 0.726376 0.746837
O O5 0.684275 0.500000 0.750000
O O6 0.827993 0.434689 0.751364
O O7 0.731341 0.445221 0.000000
O O8 0.500000 0.188233 0.750000
O O9 0.327322 0.163750 0.788034
O O10 0.418768 0.222323 0.000000
O O11 0.798110 0.143197 0.500000
O O12 0.825671 0.218969 0.274012
O O13 0.821569 0.105400 0.221201
O O14 0.094001 0.600414 0.500000
O O15 0.112851 0.673030 0.738577
O O16 0.000000 0.583405 0.750000
O O17 0.076833 0.737198 0.500000
O O18 0.000000 0.764201 0.250000
O O19 0.000000 0.911764 0.750000
O O20 0.116505 0.000000 0.750000
O O21 0.083913 0.941742 0.000000
#
# Coordination Sequence:
#
# PCOD8203652 Si02
#       7
#     8   8   8   8   8   8   8
#     4  10  21  37  58  82 109 139 174 216 267 325
#     4  11  24  39  55  77 102 133 174 220 266 318
#     4  10  20  35  57  83 113 145 179 221 269 321
#     4  10  20  34  53  80 112 146 183 223 268 317
#     4  10  20  36  56  77 104 138 174 215 263 317
#     4   9  18  31  49  75 106 137 169 208 259 314
#     4  11  22  37  57  81 113 152 191 230 269 314
#
# _framework density 19.129645
#
# number of rings (size 3 to 8) (size 9 to 14) (size 15 to 20)
#    0.000    1.857    0.000    5.571    0.000    7.429 
#    0.000    2.857    0.000    0.429    0.000    3.000 
#    0.000    0.000    0.000    0.000    0.000    0.000 
#
# Total GULP energy -694555.897288 kJ/mol
# GULP energy per Si atom -12402.783880 kJ/mol
# Density = 1.908611 g / cm^3
# Si number density = 19.129645 Si / 1000 Ang^3
#
#
#
# Elastic Constant Matrix: (Units=GPa)
#
#
# Indices 1 2 3 4 5 6 
#
# 1 114.5152 51.0066 46.0509 0.0000 0.0000 0.0000
# 2 51.0066 75.4557 40.4237 0.0000 0.0000 0.0000
# 3 46.0509 40.4237 96.9634 0.0000 0.0000 0.0000
# 4 0.0000 0.0000 0.0000 29.0067 0.0000 0.0000
# 5 0.0000 0.0000 0.0000 0.0000 28.1156 0.0000
# 6 0.0000 0.0000 0.0000 0.0000 0.0000 27.7966
#
#
#
# Elastic Compliance Matrix: (Units=1/GPa)
#
#
# Indices 1 2 3 4 5 6 
#
# 1 0.013266 -0.007201 -0.003299 0.000000 0.000000 0.000000
# 2 -0.007201 0.020972 -0.005323 0.000000 0.000000 0.000000
# 3 -0.003299 -0.005323 0.014099 0.000000 0.000000 0.000000
# 4 0.000000 0.000000 0.000000 0.034475 0.000000 0.000000
# 5 0.000000 0.000000 0.000000 0.000000 0.035567 0.000000
# 6 0.000000 0.000000 0.000000 0.000000 0.000000 0.035976
#
#
# Mechanical properties :
#
#
# Convention : Reuss Voigt Hill
#
# Bulk Modulus (GPa) = 59.90823 62.43299 61.17061
# Shear Modulus (GPa) = 26.10084 26.94731 26.52408
#
# Velocity S-wave (km/s) = 3.69781 3.75729 3.72767
# Velocity P-wave (km/s) = 7.04391 7.17848 7.11152
#
# Compressibility (1/GPa) = 0.01669220
#
# Stress axis : x y z
#
# Youngs Moduli (GPa) = 75.37959 47.68232 70.92635
#
# Poissons Ratio (x) = 0.34334 0.23396
# Poissons Ratio (y) = 0.54277 0.37757
# Poissons Ratio (z) = 0.24865 0.25384
#
# Static dielectric constant tensor:
#      x y z
#    x 3.808950 0.000000 0.000000 
#    y 0.000000 3.448730 0.000000 
#    z 0.000000 0.000000 3.497650 
# 
# 
# High freq. dielectric constant tensor:
#      x y z
#    x 1.744200 0.000000 0.000000 
#    y 0.000000 1.730190 0.000000 
#    z 0.000000 0.000000 1.752190 
# 
# From -- ./inp_files/4047.got.cif
#   From: 2010.03.12/outbox.cif.g09.slc.cpg/sg49_3_cif.got.tgz:4047.got - 2010.04.14 03:58:27.
