data_PCOD8203890
_publ_section_title
;
Structure prediction by ZEFSAII (Michael W. Deem and Ramdas Pophale) SiO2 
 PCOD8203890
Probable space group: P C C M
;
_chemical_formula_sum "Si O2"
_cell_formula_units_Z 40
_cell_length_a 25.547170
_cell_length_b 9.173914
_cell_length_c 8.738282
_cell_angle_alpha 90.000000
_cell_angle_beta 90.000000
_cell_angle_gamma 90.000000
_cell_volume 2047.969661
_symmetry_space_group_name_H-M "P C C M"
_symmetry_group_IT_number 49
_symmetry_cell_setting 'orthorhombic'
loop_
_space_group_symop_operation_xyz
x,y,z
-x,-y,z
x,-y,1/2-z
-x,y,1/2-z
-x,-y,-z
x,y,-z
-x,y,1/2+z
x,-y,1/2+z
loop_
_atom_site_type_symbol
_atom_site_label
_atom_site_fract_x
_atom_site_fract_y
_atom_site_fract_z
Si Si1 0.554691 0.653130 0.678851
Si Si2 0.654141 0.841223 0.679396
Si Si3 0.846707 0.842017 0.180213
Si Si4 0.945609 0.342782 0.681781
Si Si5 0.252921 0.340900 0.181425
O O1 0.573294 0.500000 0.750000
O O2 0.500000 0.706161 0.750000
O O3 0.547131 0.628441 0.500000
O O4 0.596949 0.777126 0.714830
O O5 0.665770 0.849335 0.500000
O O6 0.695667 0.736652 0.757541
O O7 0.658392 0.000000 0.750000
O O8 0.900330 0.766869 0.234988
O O9 0.797856 0.747231 0.238146
O O10 0.842210 0.000000 0.250000
O O11 0.845532 0.857091 0.000000
O O12 0.932223 0.500000 0.750000
O O13 0.949858 0.355722 0.500000
O O14 0.000000 0.282509 0.750000
O O15 0.248957 0.500000 0.250000
O O16 0.255787 0.351395 0.000000
#
# Coordination Sequence:
#
# PCOD8203890 Si02
#       5
#     8   8   8   8   8
#     4  10  21  37  59  85 114 149 191 235 282 334
#     4  11  24  40  59  86 118 153 190 235 287 340
#     4  10  23  39  57  83 115 149 187 231 282 336
#     4  10  20  36  57  83 112 146 188 232 278 331
#     4  11  23  40  62  87 114 149 191 235 283 339
#
# _framework density 19.53154
#
# number of rings (size 3 to 8) (size 9 to 14) (size 15 to 20)
#    0.000    1.600    0.000    5.400    0.000   10.400 
#    0.000    4.000    0.000    0.000    0.000    0.000 
#    0.000    0.000    0.000    0.000    0.000    0.000 
#
# Total GULP energy -496178.732779 kJ/mol
# GULP energy per Si atom -12404.468319 kJ/mol
# Density = 1.948708 g / cm^3
# Si number density = 19.531540 Si / 1000 Ang^3
#
#
#
# Elastic Constant Matrix: (Units=GPa)
#
#
# Indices 1 2 3 4 5 6 
#
# 1 143.1022 89.4450 61.9641 0.0000 0.0000 0.0000
# 2 89.4450 157.9435 55.1921 0.0000 0.0000 0.0000
# 3 61.9641 55.1921 92.3053 0.0000 0.0000 0.0000
# 4 0.0000 0.0000 0.0000 33.9698 0.0000 0.0000
# 5 0.0000 0.0000 0.0000 0.0000 32.3127 0.0000
# 6 0.0000 0.0000 0.0000 0.0000 0.0000 65.2875
#
#
#
# Elastic Compliance Matrix: (Units=1/GPa)
#
#
# Indices 1 2 3 4 5 6 
#
# 1 0.012573 -0.005273 -0.005288 0.000000 0.000000 0.000000
# 2 -0.005273 0.010215 -0.002568 0.000000 0.000000 0.000000
# 3 -0.005288 -0.002568 0.015919 0.000000 0.000000 0.000000
# 4 0.000000 0.000000 0.000000 0.029438 0.000000 0.000000
# 5 0.000000 0.000000 0.000000 0.000000 0.030948 0.000000
# 6 0.000000 0.000000 0.000000 0.000000 0.000000 0.015317
#
#
# Mechanical properties :
#
#
# Convention : Reuss Voigt Hill
#
# Bulk Modulus (GPa) = 80.32288 89.61705 84.96997
# Shear Modulus (GPa) = 34.52654 38.76400 36.64527
#
# Velocity S-wave (km/s) = 4.20900 4.45982 4.33622
# Velocity P-wave (km/s) = 8.05201 8.51486 8.28667
#
# Compressibility (1/GPa) = 0.01244975
#
# Stress axis : x y z
#
# Youngs Moduli (GPa) = 79.53416 97.89757 62.81856
#
# Poissons Ratio (x) = 0.51617 0.33217
# Poissons Ratio (y) = 0.41935 0.16133
# Poissons Ratio (z) = 0.42055 0.25143
#
# Static dielectric constant tensor:
#      x y z
#    x 3.945340 0.000000 0.000000 
#    y 0.000000 3.538260 0.000000 
#    z 0.000000 0.000000 3.693640 
# 
# 
# High freq. dielectric constant tensor:
#      x y z
#    x 1.779370 0.000000 0.000000 
#    y 0.000000 1.766090 0.000000 
#    z 0.000000 0.000000 1.772600 
# 
# From -- ./inp_files/1668.got.cif
#   From: 2010.03.12/outbox.cif.g09.slc.cpg/sg49_1_cif.got.tgz:1668.got - 2010.04.14 03:58:27.
