data_PCOD8203274
_publ_section_title
;
Structure prediction by ZEFSAII (Michael W. Deem and Ramdas Pophale) SiO2 
 PCOD8203274
Probable space group: P C C M
;
_chemical_formula_sum "Si O2"
_cell_formula_units_Z 48
_cell_length_a 8.848088
_cell_length_b 18.432230
_cell_length_c 15.370998
_cell_angle_alpha 90.000000
_cell_angle_beta 90.000000
_cell_angle_gamma 90.000000
_cell_volume 2506.855957
_symmetry_space_group_name_H-M "P C C M"
_symmetry_group_IT_number 49
_symmetry_cell_setting 'orthorhombic'
loop_
_space_group_symop_operation_xyz
x,y,z
-x,-y,z
x,-y,1/2-z
-x,y,1/2-z
-x,-y,-z
x,y,-z
-x,y,1/2+z
x,-y,1/2+z
loop_
_atom_site_type_symbol
_atom_site_label
_atom_site_fract_x
_atom_site_fract_y
_atom_site_fract_z
Si Si1 0.100122 0.569523 0.597579
Si Si2 0.175685 0.335049 0.596853
Si Si3 0.666407 0.415669 0.251747
Si Si4 0.332272 0.084419 0.762772
Si Si5 0.103369 0.817374 0.168145
Si Si6 0.096466 0.932308 0.403028
O O1 0.163003 0.551047 0.500000
O O2 0.233852 0.596313 0.661416
O O3 0.000000 0.500000 0.631446
O O4 0.997559 0.640658 0.592520
O O5 0.248911 0.341851 0.500000
O O6 0.256658 0.388214 0.664033
O O7 0.183475 0.252456 0.627875
O O8 0.642104 0.500000 0.250000
O O9 0.500000 0.378079 0.250000
O O10 0.500000 0.117743 0.750000
O O11 0.232793 0.126145 0.693006
O O12 0.253147 0.090225 0.856862
O O13 0.339125 0.000000 0.750000
O O14 0.000000 0.794592 0.250000
O O15 0.004143 0.859480 0.096964
O O16 0.140450 0.955031 0.500000
O O17 0.000000 0.000000 0.360263
#
# Coordination Sequence:
#
# PCOD8203274 Si02
#       6
#     8   8   8   8   8   8
#     4  10  20  37  62  87 115 153 199 244 289 341
#     4  11  23  39  60  90 119 154 198 248 295 346
#     4  11  23  37  59  88 122 160 196 238 292 355
#     4  10  20  36  57  85 118 156 194 233 284 352
#     4  10  20  35  61  85 115 155 197 239 291 345
#     4  10  19  34  57  85 114 147 192 242 285 337
#
# _framework density 19.147490000000001
#
# number of rings (size 3 to 8) (size 9 to 14) (size 15 to 20)
#    0.000    1.667    3.333    2.000    0.000    1.333 
#    0.000    5.000    0.000    0.000    0.000    0.000 
#    0.000    0.000    0.000    0.000    0.000    0.000 
#
# Total GULP energy -594642.933579 kJ/mol
# GULP energy per Si atom -12388.394450 kJ/mol
# Density = 1.910391 g / cm^3
# Si number density = 19.147490 Si / 1000 Ang^3
#
#
#
# Elastic Constant Matrix: (Units=GPa)
#
#
# Indices 1 2 3 4 5 6 
#
# 1 123.4842 19.3813 67.4043 0.0000 0.0000 0.0000
# 2 19.3813 75.6149 28.6372 0.0000 0.0000 0.0000
# 3 67.4043 28.6372 130.2867 0.0000 0.0000 0.0000
# 4 0.0000 0.0000 0.0000 26.7014 0.0000 0.0000
# 5 0.0000 0.0000 0.0000 0.0000 11.8671 0.0000
# 6 0.0000 0.0000 0.0000 0.0000 0.0000 25.4875
#
#
#
# Elastic Compliance Matrix: (Units=1/GPa)
#
#
# Indices 1 2 3 4 5 6 
#
# 1 0.011324 -0.000746 -0.005694 0.000000 0.000000 0.000000
# 2 -0.000746 0.014475 -0.002796 0.000000 0.000000 0.000000
# 3 -0.005694 -0.002796 0.011236 0.000000 0.000000 0.000000
# 4 0.000000 0.000000 0.000000 0.037451 0.000000 0.000000
# 5 0.000000 0.000000 0.000000 0.000000 0.084267 0.000000
# 6 0.000000 0.000000 0.000000 0.000000 0.000000 0.039235
#
#
# Mechanical properties :
#
#
# Convention : Reuss Voigt Hill
#
# Bulk Modulus (GPa) = 53.87210 62.24795 58.06002
# Shear Modulus (GPa) = 22.45713 27.07539 24.76626
#
# Velocity S-wave (km/s) = 3.42840 3.76446 3.60035
# Velocity P-wave (km/s) = 6.62332 7.17462 6.90447
#
# Compressibility (1/GPa) = 0.01856249
#
# Stress axis : x y z
#
# Youngs Moduli (GPa) = 88.31161 69.08516 89.00065
#
# Poissons Ratio (x) = 0.05153 0.50680
# Poissons Ratio (y) = 0.06587 0.24882
# Poissons Ratio (z) = 0.50288 0.19314
#
# Static dielectric constant tensor:
#      x y z
#    x 3.990410 0.000000 0.000000 
#    y 0.000000 3.397190 0.000000 
#    z 0.000000 0.000000 3.606110 
# 
# 
# High freq. dielectric constant tensor:
#      x y z
#    x 1.729850 0.000000 0.000000 
#    y 0.000000 1.742680 0.000000 
#    z 0.000000 0.000000 1.744530 
# 
# From -- ./inp_files/11760.got.cif
#   From: 2010.03.12/outbox.cif.g09.slc.cpg/sg49_6_cif.got.tgz:11760.got - 2010.04.14 03:58:27.
