data_PCOD8203140
_publ_section_title
;
Structure prediction by ZEFSAII (Michael W. Deem and Ramdas Pophale) SiO2 
 PCOD8203140
Probable space group: P C C M
;
_chemical_formula_sum "Si O2"
_cell_formula_units_Z 64
_cell_length_a 17.836086
_cell_length_b 20.390137
_cell_length_c 8.980811
_cell_angle_alpha 90.000000
_cell_angle_beta 90.000000
_cell_angle_gamma 90.000000
_cell_volume 3266.143474
_symmetry_space_group_name_H-M "P C C M"
_symmetry_group_IT_number 49
_symmetry_cell_setting 'orthorhombic'
loop_
_space_group_symop_operation_xyz
x,y,z
-x,-y,z
x,-y,1/2-z
-x,y,1/2-z
-x,-y,-z
x,y,-z
-x,y,1/2+z
x,-y,1/2+z
loop_
_atom_site_type_symbol
_atom_site_label
_atom_site_fract_x
_atom_site_fract_y
_atom_site_fract_z
Si Si1 0.141578 0.435092 0.672978
Si Si2 0.422523 0.667667 0.675147
Si Si3 0.813157 0.196512 0.324416
Si Si4 0.685788 0.566858 0.676246
Si Si5 0.365579 0.936351 0.166525
Si Si6 0.359542 0.807745 0.328806
Si Si7 0.922506 0.297310 0.823366
Si Si8 0.813072 0.064490 0.830801
O O1 0.108422 0.500000 0.750000
O O2 0.135398 0.447907 0.500000
O O3 0.227583 0.423191 0.719351
O O4 0.093197 0.372510 0.722179
O O5 0.500000 0.646066 0.750000
O O6 0.424249 0.652406 0.500000
O O7 0.356489 0.627728 0.751968
O O8 0.408798 0.744215 0.707199
O O9 0.828470 0.199008 0.500000
O O10 0.726182 0.206724 0.283874
O O11 0.855963 0.254334 0.242182
O O12 0.842365 0.127290 0.260215
O O13 0.655079 0.500000 0.750000
O O14 0.672129 0.564708 0.500000
O O15 0.394341 0.868840 0.239391
O O16 0.276235 0.937798 0.172026
O O17 0.398531 0.000000 0.250000
O O18 0.396595 0.938563 0.000000
O O19 0.362826 0.828028 0.500000
O O20 0.000000 0.274580 0.750000
O O21 0.925720 0.287878 0.000000
O O22 0.845801 0.000000 0.750000
O O23 0.843028 0.067477 0.000000
#
# Coordination Sequence:
#
# PCOD8203140 Si02
#       8
#     8   8   8   8   8   8   8   8
#     4   9  20  37  59  84 110 139 174 216 263 313
#     4  11  23  38  55  78 108 143 179 219 264 314
#     4  10  19  33  54  79 105 138 177 220 267 316
#     4  10  20  37  60  85 110 138 173 216 263 314
#     4   9  16  26  45  73 105 137 172 215 265 314
#     4   9  19  34  53  77 106 138 176 219 266 317
#     4  11  23  38  54  77 108 143 180 219 262 311
#     4   9  16  27  45  73 106 138 172 216 264 313
#
# _framework density 19.594975000000002
#
# number of rings (size 3 to 8) (size 9 to 14) (size 15 to 20)
#    0.000    2.250    0.000    3.000    0.000    6.500 
#    0.000    2.500    0.000    0.750    0.000    5.250 
#    0.000    0.000    0.000    0.000    0.000    0.000 
#
# Total GULP energy -793772.917558 kJ/mol
# GULP energy per Si atom -12402.701837 kJ/mol
# Density = 1.955038 g / cm^3
# Si number density = 19.594975 Si / 1000 Ang^3
#
#
#
# Elastic Constant Matrix: (Units=GPa)
#
#
# Indices 1 2 3 4 5 6 
#
# 1 27.8615 3.0497 17.7885 0.0000 0.0000 0.0000
# 2 3.0497 71.3806 40.6738 0.0000 0.0000 0.0000
# 3 17.7885 40.6738 105.2269 0.0000 0.0000 0.0000
# 4 0.0000 0.0000 0.0000 43.2331 0.0000 0.0000
# 5 0.0000 0.0000 0.0000 0.0000 20.2397 0.0000
# 6 0.0000 0.0000 0.0000 0.0000 0.0000 2.9484
#
#
#
# Elastic Compliance Matrix: (Units=1/GPa)
#
#
# Indices 1 2 3 4 5 6 
#
# 1 0.040665 0.002795 -0.007955 0.000000 0.000000 0.000000
# 2 0.002795 0.018159 -0.007492 0.000000 0.000000 0.000000
# 3 -0.007955 -0.007492 0.013744 0.000000 0.000000 0.000000
# 4 0.000000 0.000000 0.000000 0.023130 0.000000 0.000000
# 5 0.000000 0.000000 0.000000 0.000000 0.049408 0.000000
# 6 0.000000 0.000000 0.000000 0.000000 0.000000 0.339164
#
#
# Mechanical properties :
#
#
# Convention : Reuss Voigt Hill
#
# Bulk Modulus (GPa) = 21.15715 36.38812 28.77263
# Shear Modulus (GPa) = 9.51788 22.81470 16.16629
#
# Velocity S-wave (km/s) = 2.20632 3.41591 2.87544
# Velocity P-wave (km/s) = 4.16067 5.84537 5.07343
#
# Compressibility (1/GPa) = 0.04726534
#
# Stress axis : x y z
#
# Youngs Moduli (GPa) = 24.59129 55.06979 72.76014
#
# Poissons Ratio (x) = -0.15394 0.57880
# Poissons Ratio (y) = -0.06874 0.54509
# Poissons Ratio (z) = 0.19562 0.41256
#
# Static dielectric constant tensor:
#      x y z
#    x 3.201060 0.000000 0.000000 
#    y 0.000000 3.729220 0.000000 
#    z 0.000000 0.000000 3.658310 
# 
# 
# High freq. dielectric constant tensor:
#      x y z
#    x 1.728050 0.000000 0.000000 
#    y 0.000000 1.776720 0.000000 
#    z 0.000000 0.000000 1.774640 
# 
# From -- ./inp_files/5299.got.cif
#   From: 2010.03.12/outbox.cif.g09.slc.cpg/sg49_3_cif.got.tgz:5299.got - 2010.04.14 03:58:27.
