data_PCOD8203126
_publ_section_title
;
Structure prediction by ZEFSAII (Michael W. Deem and Ramdas Pophale) SiO2 
 PCOD8203126
Probable space group: P C C M
;
_chemical_formula_sum "Si O2"
_cell_formula_units_Z 64
_cell_length_a 18.527781
_cell_length_b 20.613653
_cell_length_c 8.693485
_cell_angle_alpha 90.000000
_cell_angle_beta 90.000000
_cell_angle_gamma 90.000000
_cell_volume 3320.261418
_symmetry_space_group_name_H-M "P C C M"
_symmetry_group_IT_number 49
_symmetry_cell_setting 'orthorhombic'
loop_
_space_group_symop_operation_xyz
x,y,z
-x,-y,z
x,-y,1/2-z
-x,y,1/2-z
-x,-y,-z
x,y,-z
-x,y,1/2+z
x,-y,1/2+z
loop_
_atom_site_type_symbol
_atom_site_label
_atom_site_fract_x
_atom_site_fract_y
_atom_site_fract_z
Si Si1 0.669973 0.810913 0.817969
Si Si2 0.076752 0.930676 0.817694
Si Si3 0.831956 0.567274 0.182171
Si Si4 0.331987 0.433119 0.181792
Si Si5 0.420823 0.310123 0.816988
Si Si6 0.078943 0.309923 0.818116
Si Si7 0.166393 0.816706 0.682427
Si Si8 0.422297 0.932013 0.317292
O O1 0.624911 0.750423 0.751530
O O2 0.751887 0.807222 0.759552
O O3 0.633969 0.877727 0.761797
O O4 0.668871 0.806857 0.000000
O O5 0.136403 0.879016 0.769849
O O6 0.000000 0.908220 0.750000
O O7 0.099969 0.000000 0.750000
O O8 0.070569 0.935773 0.000000
O O9 0.862593 0.500000 0.250000
O O10 0.749943 0.578876 0.238736
O O11 0.880297 0.626345 0.245548
O O12 0.835685 0.563695 0.000000
O O13 0.362748 0.500000 0.250000
O O14 0.381961 0.375168 0.243127
O O15 0.334534 0.437224 0.000000
O O16 0.500000 0.306361 0.750000
O O17 0.424660 0.308728 0.000000
O O18 0.122484 0.246548 0.765092
O O19 0.000000 0.306610 0.750000
O O20 0.073910 0.312728 0.000000
O O21 0.161720 0.828058 0.500000
O O22 0.500000 0.913620 0.250000
O O23 0.428210 0.936746 0.500000
O O24 0.394295 0.000000 0.250000
#
# Coordination Sequence:
#
# PCOD8203126 Si02
#       8
#     8   8   8   8   8   8   8   8
#     4   9  19  35  56  78 103 137 177 216 261 312
#     4  11  22  38  59  84 112 144 180 219 263 315
#     4   9  18  34  54  77 102 136 176 216 261 313
#     4   9  18  33  54  76 102 134 172 213 258 310
#     4  10  20  35  54  77 104 138 177 219 263 314
#     4  10  21  35  54  77 105 138 174 214 261 314
#     4  10  20  37  58  80 107 141 178 221 268 318
#     4  10  19  33  53  77 104 136 171 210 254 306
#
# _framework density 19.275590000000001
#
# number of rings (size 3 to 8) (size 9 to 14) (size 15 to 20)
#    0.000    2.250    0.000    3.750    0.000    6.500 
#    0.000    6.250    0.000    3.000    0.000    0.000 
#    0.000    0.000    0.000    0.000    0.000    0.000 
#
# Total GULP energy -793733.302220 kJ/mol
# GULP energy per Si atom -12402.082847 kJ/mol
# Density = 1.923172 g / cm^3
# Si number density = 19.275590 Si / 1000 Ang^3
#
#
#
# Elastic Constant Matrix: (Units=GPa)
#
#
# Indices 1 2 3 4 5 6 
#
# 1 159.1325 112.3132 31.9499 0.0000 0.0000 0.0000
# 2 112.3132 181.8869 39.5436 0.0000 0.0000 0.0000
# 3 31.9499 39.5436 49.7635 0.0000 0.0000 0.0000
# 4 0.0000 0.0000 0.0000 27.7113 0.0000 0.0000
# 5 0.0000 0.0000 0.0000 0.0000 27.8735 0.0000
# 6 0.0000 0.0000 0.0000 0.0000 0.0000 43.4026
#
#
#
# Elastic Compliance Matrix: (Units=1/GPa)
#
#
# Indices 1 2 3 4 5 6 
#
# 1 0.011312 -0.006535 -0.002070 0.000000 0.000000 0.000000
# 2 -0.006535 0.010421 -0.004085 0.000000 0.000000 0.000000
# 3 -0.002070 -0.004085 0.024670 0.000000 0.000000 0.000000
# 4 0.000000 0.000000 0.000000 0.036086 0.000000 0.000000
# 5 0.000000 0.000000 0.000000 0.000000 0.035876 0.000000
# 6 0.000000 0.000000 0.000000 0.000000 0.000000 0.023040
#
#
# Mechanical properties :
#
#
# Convention : Reuss Voigt Hill
#
# Bulk Modulus (GPa) = 47.56637 84.26627 65.91632
# Shear Modulus (GPa) = 28.76956 33.59589 31.18272
#
# Velocity S-wave (km/s) = 3.86753 4.17936 4.02647
# Velocity P-wave (km/s) = 6.68388 8.19151 7.47580
#
# Compressibility (1/GPa) = 0.02102326
#
# Stress axis : x y z
#
# Youngs Moduli (GPa) = 88.40212 95.95594 40.53446
#
# Poissons Ratio (x) = 0.62707 0.08390
# Poissons Ratio (y) = 0.57771 0.16560
# Poissons Ratio (z) = 0.18297 0.39203
#
# Static dielectric constant tensor:
#      x y z
#    x 3.518490 0.000000 0.000000 
#    y 0.000000 3.811520 0.000000 
#    z 0.000000 0.000000 3.310160 
# 
# 
# High freq. dielectric constant tensor:
#      x y z
#    x 1.752140 0.000000 0.000000 
#    y 0.000000 1.767940 0.000000 
#    z 0.000000 0.000000 1.729380 
# 
# From -- ./inp_files/5303.got.cif
#   From: 2010.03.12/outbox.cif.g09.slc.cpg/sg49_3_cif.got.tgz:5303.got - 2010.04.14 03:58:27.
