data_PCOD8203329
_publ_section_title
;
Structure prediction by ZEFSAII (Michael W. Deem and Ramdas Pophale) SiO2 
 PCOD8203329
Probable space group: P C C M
;
_chemical_formula_sum "Si O2"
_cell_formula_units_Z 48
_cell_length_a 15.781508
_cell_length_b 8.693239
_cell_length_c 15.649069
_cell_angle_alpha 90.000000
_cell_angle_beta 90.000000
_cell_angle_gamma 90.000000
_cell_volume 2146.933660
_symmetry_space_group_name_H-M "P C C M"
_symmetry_group_IT_number 49
_symmetry_cell_setting 'orthorhombic'
loop_
_space_group_symop_operation_xyz
x,y,z
-x,-y,z
x,-y,1/2-z
-x,y,1/2-z
-x,-y,-z
x,y,-z
-x,y,1/2+z
x,-y,1/2+z
loop_
_atom_site_type_symbol
_atom_site_label
_atom_site_fract_x
_atom_site_fract_y
_atom_site_fract_z
Si Si1 0.421587 0.393778 0.096921
Si Si2 0.970574 0.664736 0.898505
Si Si3 0.137698 0.187774 0.600033
Si Si4 0.808896 0.855854 0.102348
Si Si5 0.645121 0.167170 0.716709
Si Si6 0.722466 0.404031 0.168991
O O1 0.500000 0.500000 0.121476
O O2 0.429007 0.247406 0.160985
O O3 0.333257 0.486984 0.107779
O O4 0.427821 0.334624 0.000000
O O5 0.879284 0.729639 0.868030
O O6 0.000000 0.500000 0.860231
O O7 0.042546 0.783160 0.866952
O O8 0.968266 0.653762 0.000000
O O9 0.136927 0.168882 0.500000
O O10 0.196880 0.333580 0.621169
O O11 0.166795 0.024938 0.637922
O O12 0.724086 0.819513 0.152239
O O13 0.794503 0.851593 0.000000
O O14 0.662876 0.263715 0.801767
O O15 0.618412 0.000000 0.750000
O O16 0.755487 0.500000 0.250000
#
# Coordination Sequence:
#
# PCOD8203329 Si02
#       6
#     8   8   8   8   8   8
#     4  10  23  45  71  98 129 167 213 262 317 388
#     4   9  19  32  53  86 118 160 223 281 321 369
#     4  10  19  35  58  83 119 166 218 271 322 376
#     4  10  20  36  60  87 123 171 220 268 319 376
#     4  11  22  40  65  97 133 167 207 258 326 392
#     4  10  22  37  61  89 128 169 211 262 323 396
#
# _framework density 22.357468000000001
#
# number of rings (size 3 to 8) (size 9 to 14) (size 15 to 20)
#    0.000    2.000    1.667    1.500    4.667    5.000 
#    0.000    2.500    0.000    2.000    0.000    0.000 
#    0.000    0.000    0.000    0.000    0.000    0.000 
#
# Total GULP energy -594951.478582 kJ/mol
# GULP energy per Si atom -12394.822470 kJ/mol
# Density = 2.230658 g / cm^3
# Si number density = 22.357468 Si / 1000 Ang^3
#
#
#
# Elastic Constant Matrix: (Units=GPa)
#
#
# Indices 1 2 3 4 5 6 
#
# 1 74.4645 22.1876 23.4678 0.0000 0.0000 0.0000
# 2 22.1876 133.9181 27.3106 0.0000 0.0000 0.0000
# 3 23.4678 27.3106 45.3683 0.0000 0.0000 0.0000
# 4 0.0000 0.0000 0.0000 30.4628 0.0000 0.0000
# 5 0.0000 0.0000 0.0000 0.0000 16.4375 0.0000
# 6 0.0000 0.0000 0.0000 0.0000 0.0000 24.1183
#
#
#
# Elastic Compliance Matrix: (Units=1/GPa)
#
#
# Indices 1 2 3 4 5 6 
#
# 1 0.016188 -0.001111 -0.007705 0.000000 0.000000 0.000000
# 2 -0.001111 0.008588 -0.004595 0.000000 0.000000 0.000000
# 3 -0.007705 -0.004595 0.028794 0.000000 0.000000 0.000000
# 4 0.000000 0.000000 0.000000 0.032827 0.000000 0.000000
# 5 0.000000 0.000000 0.000000 0.000000 0.060836 0.000000
# 6 0.000000 0.000000 0.000000 0.000000 0.000000 0.041462
#
#
# Mechanical properties :
#
#
# Convention : Reuss Voigt Hill
#
# Bulk Modulus (GPa) = 37.38605 44.40919 40.89762
# Shear Modulus (GPa) = 22.27815 26.25607 24.26711
#
# Velocity S-wave (km/s) = 3.16009 3.43063 3.29814
# Velocity P-wave (km/s) = 5.48390 5.96647 5.73026
#
# Compressibility (1/GPa) = 0.02674794
#
# Stress axis : x y z
#
# Youngs Moduli (GPa) = 61.77226 116.43535 34.72964
#
# Poissons Ratio (x) = 0.12933 0.26760
# Poissons Ratio (y) = 0.06861 0.15960
# Poissons Ratio (z) = 0.47597 0.53508
#
# Static dielectric constant tensor:
#      x y z
#    x 3.956640 0.000000 0.000000 
#    y 0.000000 3.912910 0.000000 
#    z 0.000000 0.000000 3.801460 
# 
# 
# High freq. dielectric constant tensor:
#      x y z
#    x 1.872320 0.000000 0.000000 
#    y 0.000000 1.894940 0.000000 
#    z 0.000000 0.000000 1.863600 
# 
# From -- ./inp_files/16300.got.cif
#   From: 2010.03.12/outbox.cif.g09.slc.cpg/sg49_9_cif.got.tgz:16300.got - 2010.04.14 03:58:27.
