data_PCOD8203506
_publ_section_title
;
Structure prediction by ZEFSAII (Michael W. Deem and Ramdas Pophale) SiO2 
 PCOD8203506
Probable space group: P C C M
;
_chemical_formula_sum "Si O2"
_cell_formula_units_Z 56
_cell_length_a 19.918930
_cell_length_b 14.988956
_cell_length_c 8.933248
_cell_angle_alpha 90.000000
_cell_angle_beta 90.000000
_cell_angle_gamma 90.000000
_cell_volume 2667.145946
_symmetry_space_group_name_H-M "P C C M"
_symmetry_group_IT_number 49
_symmetry_cell_setting 'orthorhombic'
loop_
_space_group_symop_operation_xyz
x,y,z
-x,-y,z
x,-y,1/2-z
-x,y,1/2-z
-x,-y,-z
x,y,-z
-x,y,1/2+z
x,-y,1/2+z
loop_
_atom_site_type_symbol
_atom_site_label
_atom_site_fract_x
_atom_site_fract_y
_atom_site_fract_z
Si Si1 0.309706 0.276460 0.175240
Si Si2 0.937913 0.814503 0.838351
Si Si3 0.935313 0.391510 0.666027
Si Si4 0.793096 0.590761 0.679452
Si Si5 0.156850 0.915901 0.163908
Si Si6 0.568751 0.591939 0.825346
Si Si7 0.685336 0.089124 0.831301
O O1 0.247005 0.322670 0.259653
O O2 0.375434 0.334439 0.203903
O O3 0.328860 0.178958 0.238638
O O4 0.291456 0.268320 0.000000
O O5 0.950098 0.711130 0.857987
O O6 0.867856 0.828058 0.750669
O O7 0.000000 0.858776 0.750000
O O8 0.932644 0.860743 0.000000
O O9 0.924885 0.434910 0.500000
O O10 0.870470 0.406830 0.769450
O O11 0.000000 0.434009 0.750000
O O12 0.760962 0.500000 0.750000
O O13 0.787972 0.589128 0.500000
O O14 0.235762 0.921370 0.157907
O O15 0.125794 0.000000 0.250000
O O16 0.125471 0.913198 0.000000
O O17 0.592724 0.500000 0.750000
O O18 0.500000 0.625929 0.750000
O O19 0.556427 0.575165 0.000000
O O20 0.655563 0.000000 0.750000
O O21 0.655082 0.095745 0.000000
#
# Coordination Sequence:
#
# PCOD8203506 Si02
#       7
#     8   8   8   8   8   8   8
#     4  11  23  39  61  91 125 161 201 247 299 355
#     4  10  20  33  50  70  94 125 165 216 274 336
#     4  10  21  38  58  79 105 141 186 237 291 351
#     4  12  25  40  59  85 117 154 197 246 301 359
#     4  10  20  33  49  70  97 129 170 218 275 339
#     4  10  21  37  61  92 128 168 207 247 292 348
#     4  10  21  37  59  86 116 153 194 241 293 348
#
# _framework density 20.996226
#
# number of rings (size 3 to 8) (size 9 to 14) (size 15 to 20)
#    0.000    1.571    0.000    5.571    0.000    9.714 
#    0.000    2.857    0.000    0.429    0.000    3.000 
#    0.000    0.000    0.000    0.000    0.000    0.000 
#
# Total GULP energy -694190.351336 kJ/mol
# GULP energy per Si atom -12396.256274 kJ/mol
# Density = 2.094844 g / cm^3
# Si number density = 20.996226 Si / 1000 Ang^3
#
#
#
# Elastic Constant Matrix: (Units=GPa)
#
#
# Indices 1 2 3 4 5 6 
#
# 1 65.9682 40.6260 52.3462 0.0000 0.0000 0.0000
# 2 40.6260 113.8658 67.2651 0.0000 0.0000 0.0000
# 3 52.3462 67.2651 208.7053 0.0000 0.0000 0.0000
# 4 0.0000 0.0000 0.0000 30.7910 0.0000 0.0000
# 5 0.0000 0.0000 0.0000 0.0000 -0.3875 0.0000
# 6 0.0000 0.0000 0.0000 0.0000 0.0000 22.9397
#
#
#
# Elastic Compliance Matrix: (Units=1/GPa)
#
#
# Indices 1 2 3 4 5 6 
#
# 1 0.021405 -0.005516 -0.003591 0.000000 0.000000 0.000000
# 2 -0.005516 0.012269 -0.002571 0.000000 0.000000 0.000000
# 3 -0.003591 -0.002571 0.006521 0.000000 0.000000 0.000000
# 4 0.000000 0.000000 0.000000 0.032477 0.000000 0.000000
# 5 0.000000 0.000000 0.000000 0.000000 -2.580577 0.000000
# 6 0.000000 0.000000 0.000000 0.000000 0.000000 0.043593
#
#
# Mechanical properties :
#
#
# Convention : Reuss Voigt Hill
#
# Bulk Modulus (GPa) = 59.38383 78.77933 69.08158
# Shear Modulus (GPa) = -2.05310 25.88878 11.91784
#
# Velocity S-wave (km/s) = -0.98993 3.51525 2.38506
# Velocity P-wave (km/s) = 5.19980 7.35378 6.36852
#
# Compressibility (1/GPa) = 0.01683960
#
# Stress axis : x y z
#
# Youngs Moduli (GPa) = 46.71780 81.50692 153.35831
#
# Poissons Ratio (x) = 0.44957 0.55071
# Poissons Ratio (y) = 0.25768 0.39425
# Poissons Ratio (z) = 0.16776 0.20954
#
# Static dielectric constant tensor:
#      x y z
#    x 3.490330 0.000000 0.000000 
#    y 0.000000 3.949720 0.000000 
#    z 0.000000 0.000000 4.342900 
# 
# 
# High freq. dielectric constant tensor:
#      x y z
#    x 1.790510 0.000000 0.000000 
#    y 0.000000 1.828660 0.000000 
#    z 0.000000 0.000000 1.847090 
# 
# From -- ./inp_files/4044.got.cif
#   From: 2010.03.12/outbox.cif.g09.slc.cpg/sg49_3_cif.got.tgz:4044.got - 2010.04.14 03:58:27.
