data_PCOD8203547
_publ_section_title
;
Structure prediction by ZEFSAII (Michael W. Deem and Ramdas Pophale) SiO2 
 PCOD8203547
Probable space group: P C C M
;
_chemical_formula_sum "Si O2"
_cell_formula_units_Z 56
_cell_length_a 20.590162
_cell_length_b 14.911540
_cell_length_c 8.887489
_cell_angle_alpha 90.000000
_cell_angle_beta 90.000000
_cell_angle_gamma 90.000000
_cell_volume 2728.734851
_symmetry_space_group_name_H-M "P C C M"
_symmetry_group_IT_number 49
_symmetry_cell_setting 'orthorhombic'
loop_
_space_group_symop_operation_xyz
x,y,z
-x,-y,z
x,-y,1/2-z
-x,y,1/2-z
-x,-y,-z
x,y,-z
-x,y,1/2+z
x,-y,1/2+z
loop_
_atom_site_type_symbol
_atom_site_label
_atom_site_fract_x
_atom_site_fract_y
_atom_site_fract_z
Si Si1 0.726275 0.912079 0.333035
Si Si2 0.069750 0.916288 0.825376
Si Si3 0.424778 0.914968 0.833965
Si Si4 0.930719 0.280896 0.825235
Si Si5 0.290308 0.724951 0.679269
Si Si6 0.437167 0.732871 0.675149
Si Si7 0.187056 0.597204 0.820487
O O1 0.759146 0.902372 0.500000
O O2 0.651045 0.928942 0.355990
O O3 0.736075 0.820490 0.239511
O O4 0.756491 0.000000 0.250000
O O5 0.100318 0.818245 0.792983
O O6 0.000000 0.913289 0.750000
O O7 0.109446 0.000000 0.750000
O O8 0.062873 0.935926 0.000000
O O9 0.442482 0.836067 0.720517
O O10 0.455236 0.000000 0.750000
O O11 0.455712 0.899555 0.000000
O O12 0.878126 0.351896 0.767209
O O13 0.000000 0.298246 0.750000
O O14 0.944074 0.292580 0.000000
O O15 0.283220 0.725756 0.500000
O O16 0.365048 0.702026 0.727556
O O17 0.249523 0.646065 0.753389
O O18 0.500000 0.681918 0.750000
O O19 0.444835 0.719118 0.500000
O O20 0.183326 0.500000 0.750000
O O21 0.193029 0.593190 0.000000
#
# Coordination Sequence:
#
# PCOD8203547 Si02
#       7
#     8   8   8   8   8   8   8
#     4   9  16  28  49  77 110 150 192 237 286 339
#     4   9  15  26  46  76 113 153 193 230 269 316
#     4   9  16  26  41  64  98 139 184 230 278 330
#     4   9  20  37  59  88 123 159 195 237 284 334
#     4  10  21  38  59  84 114 151 193 238 288 347
#     4  10  20  33  51  76 106 139 181 229 281 339
#     4  11  24  43  65  89 116 149 190 238 293 355
#
# _framework density 20.52233
#
# number of rings (size 3 to 8) (size 9 to 14) (size 15 to 20)
#    0.000    2.429    0.000    3.000    0.000    7.429 
#    0.000    3.571    0.000    2.143    0.000    3.000 
#    0.000    0.000    0.000    0.000    0.000    0.000 
#
# Total GULP energy -693814.885891 kJ/mol
# GULP energy per Si atom -12389.551534 kJ/mol
# Density = 2.047562 g / cm^3
# Si number density = 20.522330 Si / 1000 Ang^3
#
#
#
# Elastic Constant Matrix: (Units=GPa)
#
#
# Indices 1 2 3 4 5 6 
#
# 1 112.9191 64.6746 46.6021 0.0000 0.0000 0.0000
# 2 64.6746 148.6906 59.0870 0.0000 0.0000 0.0000
# 3 46.6021 59.0870 104.3467 0.0000 0.0000 0.0000
# 4 0.0000 0.0000 0.0000 28.0141 0.0000 0.0000
# 5 0.0000 0.0000 0.0000 0.0000 18.6492 0.0000
# 6 0.0000 0.0000 0.0000 0.0000 0.0000 45.4655
#
#
#
# Elastic Compliance Matrix: (Units=1/GPa)
#
#
# Indices 1 2 3 4 5 6 
#
# 1 0.012597 -0.004185 -0.003256 0.000000 0.000000 0.000000
# 2 -0.004185 0.010069 -0.003832 0.000000 0.000000 0.000000
# 3 -0.003256 -0.003832 0.013208 0.000000 0.000000 0.000000
# 4 0.000000 0.000000 0.000000 0.035696 0.000000 0.000000
# 5 0.000000 0.000000 0.000000 0.000000 0.053621 0.000000
# 6 0.000000 0.000000 0.000000 0.000000 0.000000 0.021995
#
#
# Mechanical properties :
#
#
# Convention : Reuss Voigt Hill
#
# Bulk Modulus (GPa) = 75.04033 78.52043 76.78038
# Shear Modulus (GPa) = 28.70686 31.46528 30.08607
#
# Velocity S-wave (km/s) = 3.74413 3.91989 3.83301
# Velocity P-wave (km/s) = 7.43881 7.67016 7.55537
#
# Compressibility (1/GPa) = 0.01332617
#
# Stress axis : x y z
#
# Youngs Moduli (GPa) = 79.38573 99.31783 75.71401
#
# Poissons Ratio (x) = 0.41567 0.24651
# Poissons Ratio (y) = 0.33225 0.29016
# Poissons Ratio (z) = 0.25847 0.38061
#
# Static dielectric constant tensor:
#      x y z
#    x 3.929660 0.000000 0.000000 
#    y 0.000000 4.534380 0.000000 
#    z 0.000000 0.000000 3.951760 
# 
# 
# High freq. dielectric constant tensor:
#      x y z
#    x 1.806440 0.000000 0.000000 
#    y 0.000000 1.773580 0.000000 
#    z 0.000000 0.000000 1.814120 
# 
# From -- ./inp_files/5795.got.cif
#   From: 2010.03.12/outbox.cif.g09.slc.cpg/sg49_3_cif.got.tgz:5795.got - 2010.04.14 03:58:27.
