data_PCOD8203159
_publ_section_title
;
Structure prediction by ZEFSAII (Michael W. Deem and Ramdas Pophale) SiO2 
 PCOD8203159
Probable space group: P C C M
;
_chemical_formula_sum "Si O2"
_cell_formula_units_Z 64
_cell_length_a 9.169168
_cell_length_b 11.651705
_cell_length_c 32.035944
_cell_angle_alpha 90.000000
_cell_angle_beta 90.000000
_cell_angle_gamma 90.000000
_cell_volume 3422.606229
_symmetry_space_group_name_H-M "P C C M"
_symmetry_group_IT_number 49
_symmetry_cell_setting 'orthorhombic'
loop_
_space_group_symop_operation_xyz
x,y,z
-x,-y,z
x,-y,1/2-z
-x,y,1/2-z
-x,-y,-z
x,y,-z
-x,y,1/2+z
x,-y,1/2+z
loop_
_atom_site_type_symbol
_atom_site_label
_atom_site_fract_x
_atom_site_fract_y
_atom_site_fract_z
Si Si1 0.846371 0.816684 0.323740
Si Si2 0.567001 0.380175 0.452775
Si Si3 0.331511 0.017824 0.618352
Si Si4 0.179668 0.177588 0.161028
Si Si5 0.816984 0.387388 0.606640
Si Si6 0.144096 0.359806 0.393108
Si Si7 0.333239 0.864942 0.254515
Si Si8 0.683224 0.198791 0.951854
O O1 0.737708 0.903368 0.346235
O O2 0.840623 0.696451 0.347696
O O3 0.780882 0.803059 0.277194
O O4 0.015153 0.859130 0.325310
O O5 0.500000 0.500000 0.434908
O O6 0.613021 0.404569 0.500000
O O7 0.709723 0.340313 0.428446
O O8 0.466483 0.268408 0.448732
O O9 0.322118 0.076855 0.572549
O O10 0.500000 0.000000 0.630224
O O11 0.238086 0.899832 0.621861
O O12 0.193456 0.310685 0.148220
O O13 0.288099 0.165826 0.199103
O O14 0.773364 0.520090 0.613913
O O15 0.981274 0.379394 0.590901
O O16 0.200746 0.281479 0.430499
O O17 0.500000 0.821893 0.250000
O O18 0.320198 0.000000 0.250000
O O19 0.725006 0.173501 0.000000
#
# Coordination Sequence:
#
# PCOD8203159 Si02
#       8
#     8   8   8   8   8   8   8   8
#     4  10  21  37  59  83 111 146 187 231 275 327
#     4  10  19  33  54  82 111 143 189 236 277 328
#     4  11  21  35  55  80 111 147 184 229 280 332
#     4  11  22  36  59  85 112 146 186 228 277 337
#     4  10  20  37  57  85 113 146 187 230 279 331
#     4   9  20  37  59  83 112 146 188 231 278 330
#     4  11  22  37  57  85 113 144 186 228 273 329
#     4  10  21  37  56  80 111 148 188 231 280 333
#
# _framework density 18.699200999999999
#
# number of rings (size 3 to 8) (size 9 to 14) (size 15 to 20)
#    0.000    1.750    2.500    2.250    0.000    2.250 
#    0.000    2.500    0.000   13.500    0.000    0.000 
#    0.000    0.000    0.000    0.000    0.000    0.000 
#
# Total GULP energy -793183.656851 kJ/mol
# GULP energy per Si atom -12393.494638 kJ/mol
# Density = 1.865664 g / cm^3
# Si number density = 18.699201 Si / 1000 Ang^3
#
#
#
# Elastic Constant Matrix: (Units=GPa)
#
#
# Indices 1 2 3 4 5 6 
#
# 1 119.7584 45.7560 55.5335 0.0000 0.0000 0.0000
# 2 45.7560 62.2235 50.2096 0.0000 0.0000 0.0000
# 3 55.5335 50.2096 111.0473 0.0000 0.0000 0.0000
# 4 0.0000 0.0000 0.0000 21.0000 0.0000 0.0000
# 5 0.0000 0.0000 0.0000 0.0000 31.4393 0.0000
# 6 0.0000 0.0000 0.0000 0.0000 0.0000 15.9614
#
#
#
# Elastic Compliance Matrix: (Units=1/GPa)
#
#
# Indices 1 2 3 4 5 6 
#
# 1 0.012315 -0.006434 -0.003250 0.000000 0.000000 0.000000
# 2 -0.006434 0.028664 -0.009743 0.000000 0.000000 0.000000
# 3 -0.003250 -0.009743 0.015035 0.000000 0.000000 0.000000
# 4 0.000000 0.000000 0.000000 0.047619 0.000000 0.000000
# 5 0.000000 0.000000 0.000000 0.000000 0.031807 0.000000
# 6 0.000000 0.000000 0.000000 0.000000 0.000000 0.062651
#
#
# Mechanical properties :
#
#
# Convention : Reuss Voigt Hill
#
# Bulk Modulus (GPa) = 58.26810 66.22525 62.24667
# Shear Modulus (GPa) = 20.60453 23.11548 21.86001
#
# Velocity S-wave (km/s) = 3.32308 3.51974 3.42282
# Velocity P-wave (km/s) = 6.77881 7.21187 6.99869
#
# Compressibility (1/GPa) = 0.01716205
#
# Stress axis : x y z
#
# Youngs Moduli (GPa) = 81.20053 34.88727 66.50940
#
# Poissons Ratio (x) = 0.22445 0.21614
# Poissons Ratio (y) = 0.52242 0.64799
# Poissons Ratio (z) = 0.26388 0.33990
#
# Static dielectric constant tensor:
#      x y z
#    x 3.579600 0.000000 0.000000 
#    y 0.000000 3.753430 0.000000 
#    z 0.000000 0.000000 3.435620 
# 
# 
# High freq. dielectric constant tensor:
#      x y z
#    x 1.737400 0.000000 0.000000 
#    y 0.000000 1.721560 0.000000 
#    z 0.000000 0.000000 1.714820 
# 
# From -- ./inp_files/26444.got.cif
#   From: 2010.03.12/outbox.cif.g09.slc.cpg/sg49_14_cif.got.tgz:26444.got - 2010.04.14 03:58:27.
