data_PCOD8203034
_publ_section_title
;
Structure prediction by ZEFSAII (Michael W. Deem and Ramdas Pophale) SiO2 
 PCOD8203034
Probable space group: P C C M
;
_chemical_formula_sum "Si O2"
_cell_formula_units_Z 64
_cell_length_a 8.649897
_cell_length_b 15.580289
_cell_length_c 23.662280
_cell_angle_alpha 90.000000
_cell_angle_beta 90.000000
_cell_angle_gamma 90.000000
_cell_volume 3188.915668
_symmetry_space_group_name_H-M "P C C M"
_symmetry_group_IT_number 49
_symmetry_cell_setting 'orthorhombic'
loop_
_space_group_symop_operation_xyz
x,y,z
-x,-y,z
x,-y,1/2-z
-x,y,1/2-z
-x,-y,-z
x,y,-z
-x,y,1/2+z
x,-y,1/2+z
loop_
_atom_site_type_symbol
_atom_site_label
_atom_site_fract_x
_atom_site_fract_y
_atom_site_fract_z
Si Si1 0.331567 0.711358 0.228962
Si Si2 0.665581 0.815947 0.621488
Si Si3 0.799368 0.336680 0.937776
Si Si4 0.144568 0.707943 0.437641
Si Si5 0.143431 0.375275 0.822351
Si Si6 0.639831 0.133545 0.564108
Si Si7 0.802366 0.566622 0.667950
Si Si8 0.166038 0.033167 0.434675
O O1 0.500000 0.732383 0.250000
O O2 0.292617 0.790227 0.186437
O O3 0.212084 0.698413 0.281200
O O4 0.336118 0.621349 0.194865
O O5 0.671858 0.730139 0.583586
O O6 0.492130 0.850520 0.610928
O O7 0.790987 0.885966 0.603666
O O8 0.801095 0.423627 0.900104
O O9 0.959674 0.284002 0.935406
O O10 0.757538 0.368942 0.000000
O O11 0.193878 0.671620 0.500000
O O12 0.193858 0.645847 0.386579
O O13 0.218002 0.801145 0.427928
O O14 0.214900 0.469558 0.811077
O O15 0.960264 0.385256 0.811625
O O16 0.572119 0.140207 0.500000
O O17 0.704579 0.038919 0.574608
O O18 0.158793 0.062100 0.500000
O O19 0.000000 0.000000 0.414173
#
# Coordination Sequence:
#
# PCOD8203034 Si02
#       8
#     8   8   8   8   8   8   8   8
#     4  11  23  37  54  76 103 142 189 232 274 316
#     4  11  21  34  53  80 110 146 186 223 266 316
#     4   9  17  31  51  79 115 146 175 218 275 334
#     4   9  18  32  53  81 111 144 179 221 276 333
#     4  10  19  36  56  78 108 141 184 234 278 327
#     4  10  19  32  53  81 113 147 180 215 259 314
#     4   9  20  34  55  81 105 141 186 231 277 325
#     4  10  20  35  59  90 120 146 174 214 264 321
#
# _framework density 20.069517999999999
#
# number of rings (size 3 to 8) (size 9 to 14) (size 15 to 20)
#    0.000    2.125    0.000    3.750    0.000    5.500 
#    0.000    3.750    0.000    5.250    0.000   10.500 
#    0.000    0.000    0.000    0.000    0.000    0.000 
#
# Total GULP energy -793165.194159 kJ/mol
# GULP energy per Si atom -12393.206159 kJ/mol
# Density = 2.002384 g / cm^3
# Si number density = 20.069518 Si / 1000 Ang^3
#
#
#
# Elastic Constant Matrix: (Units=GPa)
#
#
# Indices 1 2 3 4 5 6 
#
# 1 54.2883 21.3707 30.5462 0.0000 0.0000 0.0000
# 2 21.3707 76.3956 41.8234 0.0000 0.0000 0.0000
# 3 30.5462 41.8234 126.4525 0.0000 0.0000 0.0000
# 4 0.0000 0.0000 0.0000 32.3765 0.0000 0.0000
# 5 0.0000 0.0000 0.0000 0.0000 30.5050 0.0000
# 6 0.0000 0.0000 0.0000 0.0000 0.0000 25.3951
#
#
#
# Elastic Compliance Matrix: (Units=1/GPa)
#
#
# Indices 1 2 3 4 5 6 
#
# 1 0.022282 -0.004013 -0.004055 0.000000 0.000000 0.000000
# 2 -0.004013 0.016707 -0.004556 0.000000 0.000000 0.000000
# 3 -0.004055 -0.004556 0.010395 0.000000 0.000000 0.000000
# 4 0.000000 0.000000 0.000000 0.030887 0.000000 0.000000
# 5 0.000000 0.000000 0.000000 0.000000 0.032782 0.000000
# 6 0.000000 0.000000 0.000000 0.000000 0.000000 0.039378
#
#
# Mechanical properties :
#
#
# Convention : Reuss Voigt Hill
#
# Bulk Modulus (GPa) = 41.43499 49.40191 45.41845
# Shear Modulus (GPa) = 26.92193 28.54839 27.73516
#
# Velocity S-wave (km/s) = 3.66653 3.77566 3.72150
# Velocity P-wave (km/s) = 6.21411 6.60881 6.41450
#
# Compressibility (1/GPa) = 0.02413419
#
# Stress axis : x y z
#
# Youngs Moduli (GPa) = 44.88008 59.85629 96.20350
#
# Poissons Ratio (x) = 0.24020 0.39012
# Poissons Ratio (y) = 0.18010 0.43833
# Poissons Ratio (z) = 0.18200 0.27272
#
# Static dielectric constant tensor:
#      x y z
#    x 3.519230 0.000000 0.000000 
#    y 0.000000 3.445420 0.000000 
#    z 0.000000 0.000000 3.853480 
# 
# 
# High freq. dielectric constant tensor:
#      x y z
#    x 1.772180 0.000000 0.000000 
#    y 0.000000 1.765270 0.000000 
#    z 0.000000 0.000000 1.783940 
# 
# From -- ./inp_files/22569.got.cif
#   From: 2010.03.12/outbox.cif.g09.slc.cpg/sg49_12_cif.got.tgz:22569.got - 2010.04.14 03:58:27.
