data_PCOD8203015
_publ_section_title
;
Structure prediction by ZEFSAII (Michael W. Deem and Ramdas Pophale) SiO2 
 PCOD8203015
Probable space group: P C C M
;
_chemical_formula_sum "Si O2"
_cell_formula_units_Z 64
_cell_length_a 20.331496
_cell_length_b 20.122393
_cell_length_c 8.734365
_cell_angle_alpha 90.000000
_cell_angle_beta 90.000000
_cell_angle_gamma 90.000000
_cell_volume 3573.389021
_symmetry_space_group_name_H-M "P C C M"
_symmetry_group_IT_number 49
_symmetry_cell_setting 'orthorhombic'
loop_
_space_group_symop_operation_xyz
x,y,z
-x,-y,z
x,-y,1/2-z
-x,y,1/2-z
-x,-y,-z
x,y,-z
-x,y,1/2+z
x,-y,1/2+z
loop_
_atom_site_type_symbol
_atom_site_label
_atom_site_fract_x
_atom_site_fract_y
_atom_site_fract_z
Si Si1 0.434837 0.875676 0.818256
Si Si2 0.297228 0.931701 0.819739
Si Si3 0.291074 0.433645 0.320656
Si Si4 0.565431 0.395169 0.180387
Si Si5 0.814323 0.164476 0.180086
Si Si6 0.929358 0.071031 0.183261
Si Si7 0.259136 0.710700 0.180638
Si Si8 0.603856 0.260684 0.680788
O O1 0.500000 0.911589 0.750000
O O2 0.371786 0.918298 0.767414
O O3 0.431859 0.805192 0.735414
O O4 0.438386 0.867056 0.000000
O O5 0.249556 0.874080 0.756112
O O6 0.271786 0.000000 0.750000
O O7 0.291922 0.936345 0.000000
O O8 0.258355 0.500000 0.250000
O O9 0.289110 0.441967 0.500000
O O10 0.366656 0.428772 0.261299
O O11 0.250078 0.367110 0.272338
O O12 0.500000 0.430532 0.250000
O O13 0.565671 0.319694 0.235919
O O14 0.561084 0.398480 0.000000
O O15 0.880646 0.129799 0.243115
O O16 0.804773 0.243285 0.222417
O O17 0.817037 0.156591 0.000000
O O18 0.000000 0.090244 0.250000
O O19 0.905665 0.000000 0.250000
O O20 0.932470 0.065918 0.000000
O O21 0.320192 0.741642 0.269807
O O22 0.275182 0.715292 0.000000
O O23 0.598116 0.269565 0.500000
#
# Coordination Sequence:
#
# PCOD8203015 Si02
#       8
#     8   8   8   8   8   8   8   8
#     4  11  22  36  51  65  88 120 156 203 257 309
#     4  10  21  36  53  70  92 123 158 205 250 296
#     4   9  19  32  49  68  93 126 155 196 247 302
#     4  10  20  33  47  65  88 120 156 196 246 303
#     4   9  17  33  56  77  99 133 173 207 244 288
#     4  10  19  32  52  78 112 149 179 209 243 289
#     4   9  17  34  54  72  96 127 165 202 244 293
#     4  11  20  31  48  71  93 117 152 200 253 303
#
# _framework density 17.910169
#
# number of rings (size 3 to 8) (size 9 to 14) (size 15 to 20)
#    0.000    2.125    1.250    4.125    0.000    4.000 
#    0.000    4.375    0.000    0.000    0.000    0.000 
#    0.000    0.500    0.000    6.250    0.000    0.000 
#
# Total GULP energy -793177.084921 kJ/mol
# GULP energy per Si atom -12393.391952 kJ/mol
# Density = 1.786940 g / cm^3
# Si number density = 17.910169 Si / 1000 Ang^3
#
#
#
# Elastic Constant Matrix: (Units=GPa)
#
#
# Indices 1 2 3 4 5 6 
#
# 1 92.2824 55.6352 18.2677 0.0000 0.0000 0.0000
# 2 55.6352 125.1384 19.7479 0.0000 0.0000 0.0000
# 3 18.2677 19.7479 36.5174 0.0000 0.0000 0.0000
# 4 0.0000 0.0000 0.0000 21.8897 0.0000 0.0000
# 5 0.0000 0.0000 0.0000 0.0000 13.3025 0.0000
# 6 0.0000 0.0000 0.0000 0.0000 0.0000 16.6688
#
#
#
# Elastic Compliance Matrix: (Units=1/GPa)
#
#
# Indices 1 2 3 4 5 6 
#
# 1 0.015420 -0.006164 -0.004380 0.000000 0.000000 0.000000
# 2 -0.006164 0.011201 -0.002974 0.000000 0.000000 0.000000
# 3 -0.004380 -0.002974 0.031183 0.000000 0.000000 0.000000
# 4 0.000000 0.000000 0.000000 0.045684 0.000000 0.000000
# 5 0.000000 0.000000 0.000000 0.000000 0.075174 0.000000
# 6 0.000000 0.000000 0.000000 0.000000 0.000000 0.059992
#
#
# Mechanical properties :
#
#
# Convention : Reuss Voigt Hill
#
# Bulk Modulus (GPa) = 32.50120 49.02663 40.76392
# Shear Modulus (GPa) = 18.11952 21.05804 19.58878
#
# Velocity S-wave (km/s) = 3.18416 3.43265 3.31074
# Velocity P-wave (km/s) = 5.63069 6.56840 6.11754
#
# Compressibility (1/GPa) = 0.03076810
#
# Stress axis : x y z
#
# Youngs Moduli (GPa) = 64.85243 89.27823 32.06828
#
# Poissons Ratio (x) = 0.55033 0.14046
# Poissons Ratio (y) = 0.39976 0.09536
# Poissons Ratio (z) = 0.28406 0.26548
#
# Static dielectric constant tensor:
#      x y z
#    x 3.159850 0.000000 0.000000 
#    y 0.000000 1.979870 0.000000 
#    z 0.000000 0.000000 3.167310 
# 
# 
# High freq. dielectric constant tensor:
#      x y z
#    x 1.656850 0.000000 0.000000 
#    y 0.000000 1.692990 0.000000 
#    z 0.000000 0.000000 1.684640 
# 
# From -- ./inp_files/6069.got.cif
#   From: 2010.03.12/outbox.cif.g09.slc.cpg/sg49_4_cif.got.tgz:6069.got - 2010.04.14 03:58:27.
