data_PCOD8203502
_publ_section_title
;
Structure prediction by ZEFSAII (Michael W. Deem and Ramdas Pophale) SiO2 
 PCOD8203502
Probable space group: P C C M
;
_chemical_formula_sum "Si O2"
_cell_formula_units_Z 58
_cell_length_a 21.577230
_cell_length_b 15.434406
_cell_length_c 9.052888
_cell_angle_alpha 90.000000
_cell_angle_beta 90.000000
_cell_angle_gamma 90.000000
_cell_volume 3014.898936
_symmetry_space_group_name_H-M "P C C M"
_symmetry_group_IT_number 49
_symmetry_cell_setting 'orthorhombic'
loop_
_space_group_symop_operation_xyz
x,y,z
-x,-y,z
x,-y,1/2-z
-x,y,1/2-z
-x,-y,-z
x,y,-z
-x,y,1/2+z
x,-y,1/2+z
loop_
_atom_site_type_symbol
_atom_site_label
_atom_site_fract_x
_atom_site_fract_y
_atom_site_fract_z
Si Si1 0.764769 0.085133 0.827690
Si Si2 0.310782 0.588359 0.173787
Si Si3 0.433318 0.911556 0.321879
Si Si4 0.657793 0.217553 0.827117
Si Si5 0.899467 0.124611 0.163340
Si Si6 0.828896 0.417083 0.828281
Si Si7 0.000000 0.000000 0.250000
Si Si8 0.940667 0.698281 0.327118
O O1 0.724288 0.171583 0.796788
O O2 0.834529 0.097419 0.759884
O O3 0.735370 0.000000 0.750000
O O4 0.767013 0.063726 0.000000
O O5 0.338371 0.500000 0.250000
O O6 0.343314 0.679904 0.216894
O O7 0.240346 0.602511 0.228059
O O8 0.316136 0.573063 0.000000
O O9 0.500000 0.895516 0.250000
O O10 0.437133 0.919524 0.500000
O O11 0.392001 0.829549 0.276265
O O12 0.405502 0.000000 0.250000
O O13 0.640576 0.207221 0.000000
O O14 0.932478 0.205685 0.241753
O O15 0.879549 0.155468 0.000000
O O16 0.952381 0.052348 0.147880
O O17 0.857136 0.500000 0.750000
O O18 0.875109 0.341800 0.783380
O O19 0.827600 0.434974 0.000000
O O20 0.953884 0.694101 0.500000
O O21 0.000000 0.653623 0.250000
#
# Coordination Sequence:
#
# PCOD8203502 Si02
#       8
#     8   8   8   8   8   8   2   8
#     4  10  20  34  51  74 105 140 177 221 272 329
#     4   9  18  34  56  80 107 142 182 227 277 332
#     4  11  22  38  61  89 124 162 200 234 269 316
#     4  10  20  35  57  84 116 151 187 229 282 333
#     4  10  20  33  49  68  94 129 170 214 265 322
#     4   9  18  33  53  73  97 129 167 210 263 323
#     4  12  18  32  52  66  90 124 176 216 266 312
#     4  10  20  34  49  67  91 122 160 206 261 321
#
# _framework density 19.237793
#
# number of rings (size 3 to 8) (size 9 to 14) (size 15 to 20)
#    0.000    2.069    1.379    3.103    0.000    6.345 
#    0.000    2.069    0.000    3.724    0.000    2.897 
#    0.000    0.000    0.000    0.000    0.000    0.000 
#
# Total GULP energy -718598.253093 kJ/mol
# GULP energy per Si atom -12389.625053 kJ/mol
# Density = 1.919401 g / cm^3
# Si number density = 19.237793 Si / 1000 Ang^3
#
#
#
# Elastic Constant Matrix: (Units=GPa)
#
#
# Indices 1 2 3 4 5 6 
#
# 1 80.5900 48.5343 35.2273 0.0000 0.0000 0.0000
# 2 48.5343 140.3281 47.3814 0.0000 0.0000 0.0000
# 3 35.2273 47.3814 61.6122 0.0000 0.0000 0.0000
# 4 0.0000 0.0000 0.0000 29.5625 0.0000 0.0000
# 5 0.0000 0.0000 0.0000 0.0000 23.7968 0.0000
# 6 0.0000 0.0000 0.0000 0.0000 0.0000 24.3259
#
#
#
# Elastic Compliance Matrix: (Units=1/GPa)
#
#
# Indices 1 2 3 4 5 6 
#
# 1 0.017850 -0.003684 -0.007373 0.000000 0.000000 0.000000
# 2 -0.003684 0.010386 -0.005881 0.000000 0.000000 0.000000
# 3 -0.007373 -0.005881 0.024968 0.000000 0.000000 0.000000
# 4 0.000000 0.000000 0.000000 0.033827 0.000000 0.000000
# 5 0.000000 0.000000 0.000000 0.000000 0.042022 0.000000
# 6 0.000000 0.000000 0.000000 0.000000 0.000000 0.041109
#
#
# Mechanical properties :
#
#
# Convention : Reuss Voigt Hill
#
# Bulk Modulus (GPa) = 51.73491 60.53515 56.13503
# Shear Modulus (GPa) = 23.75527 25.62953 24.69240
#
# Velocity S-wave (km/s) = 3.51782 3.65396 3.58653
# Velocity P-wave (km/s) = 6.59172 7.02403 6.81130
#
# Compressibility (1/GPa) = 0.01932931
#
# Stress axis : x y z
#
# Youngs Moduli (GPa) = 56.02240 96.28363 40.05101
#
# Poissons Ratio (x) = 0.35474 0.29528
# Poissons Ratio (y) = 0.20641 0.23552
# Poissons Ratio (z) = 0.41303 0.56620
#
# Static dielectric constant tensor:
#      x y z
#    x 3.477660 0.000000 0.000000 
#    y 0.000000 3.539480 0.000000 
#    z 0.000000 0.000000 3.288750 
# 
# 
# High freq. dielectric constant tensor:
#      x y z
#    x 1.738020 0.000000 0.000000 
#    y 0.000000 1.752790 0.000000 
#    z 0.000000 0.000000 1.727400 
# 
# From -- ./inp_files/6440.got.cif
#   From: 2010.03.12/outbox.cif.g09.slc.cpg/sg49_4_cif.got.tgz:6440.got - 2010.04.14 03:58:27.
