data_PCOD8203963
_publ_section_title
;
Structure prediction by ZEFSAII (Michael W. Deem and Ramdas Pophale) SiO2 
 PCOD8203963
Probable space group: P C C M
;
_chemical_formula_sum "Si O2"
_cell_formula_units_Z 56
_cell_length_a 15.501652
_cell_length_b 12.422846
_cell_length_c 15.713526
_cell_angle_alpha 90.000000
_cell_angle_beta 90.000000
_cell_angle_gamma 90.000000
_cell_volume 3026.026543
_symmetry_space_group_name_H-M "P C C M"
_symmetry_group_IT_number 49
_symmetry_cell_setting 'orthorhombic'
loop_
_space_group_symop_operation_xyz
x,y,z
-x,-y,z
x,-y,1/2-z
-x,y,1/2-z
-x,-y,-z
x,y,-z
-x,y,1/2+z
x,-y,1/2+z
loop_
_atom_site_type_symbol
_atom_site_label
_atom_site_fract_x
_atom_site_fract_y
_atom_site_fract_z
Si Si1 0.825925 0.762943 0.096229
Si Si2 0.353102 0.133305 0.092634
Si Si3 0.228983 0.374997 0.748382
Si Si4 0.319021 0.074070 0.669109
Si Si5 0.405012 0.734327 0.741981
Si Si6 0.175321 0.777542 0.098425
Si Si7 0.998316 0.874423 0.149911
O O1 0.748254 0.846561 0.110503
O O2 0.818065 0.671199 0.167902
O O3 0.913064 0.827634 0.108036
O O4 0.822441 0.713867 0.000000
O O5 0.410153 0.208706 0.151099
O O6 0.368624 0.005471 0.104729
O O7 0.382444 0.167930 0.000000
O O8 0.208086 0.500000 0.750000
O O9 0.332389 0.357520 0.753511
O O10 0.192901 0.323359 0.661075
O O11 0.383827 0.171573 0.690223
O O12 0.232673 0.121238 0.627712
O O13 0.293053 0.000000 0.750000
O O14 0.500000 0.682138 0.750000
O O15 0.076912 0.813495 0.105295
O O16 0.195675 0.745678 0.000000
O O17 0.000000 0.851845 0.250000
O O18 0.000000 0.000000 0.128766
#
# Coordination Sequence:
#
# PCOD8203963 Si02
#       7
#     8   8   8   8   8   8   8
#     4  10  20  37  57  80 108 145 189 230 267 313
#     4   9  17  30  51  76 106 144 183 211 251 316
#     4  10  22  41  61  79 101 137 183 235 288 332
#     4   9  18  30  51  75 112 152 183 211 258 317
#     4   9  19  35  53  77 106 134 170 221 274 328
#     4  11  22  36  54  82 116 148 187 230 271 318
#     4  11  22  33  56  85 121 153 181 214 256 308
#
# _framework density 18.506115999999999
#
# number of rings (size 3 to 8) (size 9 to 14) (size 15 to 20)
#    0.000    2.143    1.429    2.571    2.000    5.714 
#    0.000    5.714    0.000    1.714    0.000    8.000 
#    0.000    0.000    0.000    0.000    0.000    0.000 
#
# Total GULP energy -694178.837498 kJ/mol
# GULP energy per Si atom -12396.050670 kJ/mol
# Density = 1.846400 g / cm^3
# Si number density = 18.506116 Si / 1000 Ang^3
#
#
#
# Elastic Constant Matrix: (Units=GPa)
#
#
# Indices 1 2 3 4 5 6 
#
# 1 90.3059 14.2667 31.3843 0.0000 0.0000 0.0000
# 2 14.2667 91.5575 44.8337 0.0000 0.0000 0.0000
# 3 31.3843 44.8337 101.9722 0.0000 0.0000 0.0000
# 4 0.0000 0.0000 0.0000 7.6091 0.0000 0.0000
# 5 0.0000 0.0000 0.0000 0.0000 -24.0904 0.0000
# 6 0.0000 0.0000 0.0000 0.0000 0.0000 11.9018
#
#
#
# Elastic Compliance Matrix: (Units=1/GPa)
#
#
# Indices 1 2 3 4 5 6 
#
# 1 0.012400 -0.000081 -0.003781 0.000000 0.000000 0.000000
# 2 -0.000081 0.013919 -0.006095 0.000000 0.000000 0.000000
# 3 -0.003781 -0.006095 0.013650 0.000000 0.000000 0.000000
# 4 0.000000 0.000000 0.000000 0.131422 0.000000 0.000000
# 5 0.000000 0.000000 0.000000 0.000000 -0.041510 0.000000
# 6 0.000000 0.000000 0.000000 0.000000 0.000000 0.084021
#
#
# Mechanical properties :
#
#
# Convention : Reuss Voigt Hill
#
# Bulk Modulus (GPa) = 49.86005 51.64499 50.75252
# Shear Modulus (GPa) = 20.78997 11.97415 16.38206
#
# Velocity S-wave (km/s) = 3.35537 2.54645 2.97850
# Velocity P-wave (km/s) = 6.48169 6.05091 6.27000
#
# Compressibility (1/GPa) = 0.02005614
#
# Stress axis : x y z
#
# Youngs Moduli (GPa) = 80.64356 71.84296 73.25998
#
# Poissons Ratio (x) = 0.00580 0.27699
# Poissons Ratio (y) = 0.00651 0.44652
# Poissons Ratio (z) = 0.30491 0.43788
#
# Static dielectric constant tensor:
#      x y z
#    x 3.271930 0.000000 0.000000 
#    y 0.000000 3.101820 0.000000 
#    z 0.000000 0.000000 3.712750 
# 
# 
# High freq. dielectric constant tensor:
#      x y z
#    x 1.713190 0.000000 0.000000 
#    y 0.000000 1.687340 0.000000 
#    z 0.000000 0.000000 1.730080 
# 
# From -- ./inp_files/13585.got.cif
#   From: 2010.03.12/outbox.cif.g09.slc.cpg/sg49_7_cif.got.tgz:13585.got - 2010.04.14 03:58:27.
