data_PCOD8203667
_publ_section_title
;
Structure prediction by ZEFSAII (Michael W. Deem and Ramdas Pophale) SiO2 
 PCOD8203667
Probable space group: P C C M
;
_chemical_formula_sum "Si O2"
_cell_formula_units_Z 56
_cell_length_a 15.927073
_cell_length_b 19.370494
_cell_length_c 8.921808
_cell_angle_alpha 90.000000
_cell_angle_beta 90.000000
_cell_angle_gamma 90.000000
_cell_volume 2752.514022
_symmetry_space_group_name_H-M "P C C M"
_symmetry_group_IT_number 49
_symmetry_cell_setting 'orthorhombic'
loop_
_space_group_symop_operation_xyz
x,y,z
-x,-y,z
x,-y,1/2-z
-x,y,1/2-z
-x,-y,-z
x,y,-z
-x,y,1/2+z
x,-y,1/2+z
loop_
_atom_site_type_symbol
_atom_site_label
_atom_site_fract_x
_atom_site_fract_y
_atom_site_fract_z
Si Si1 0.415499 0.659233 0.176993
Si Si2 0.909941 0.932074 0.676900
Si Si3 0.410042 0.932217 0.676294
Si Si4 0.341665 0.214847 0.174186
Si Si5 0.914468 0.347938 0.172213
Si Si6 0.172586 0.210842 0.672221
Si Si7 0.251846 0.574358 0.177942
O O1 0.500000 0.627226 0.250000
O O2 0.406252 0.737950 0.233714
O O3 0.334331 0.616114 0.230794
O O4 0.425493 0.658446 0.000000
O O5 0.919490 0.941932 0.500000
O O6 0.856059 0.865326 0.718221
O O7 0.000000 0.921787 0.750000
O O8 0.866519 0.000000 0.750000
O O9 0.500000 0.921220 0.750000
O O10 0.420116 0.943815 0.500000
O O11 0.355020 0.865362 0.714254
O O12 0.366461 0.000000 0.750000
O O13 0.247753 0.234145 0.221489
O O14 0.355631 0.229920 0.000000
O O15 0.902252 0.265702 0.196541
O O16 0.832668 0.387719 0.236172
O O17 0.000000 0.372753 0.250000
O O18 0.925426 0.366764 0.000000
O O19 0.203616 0.213732 0.500000
O O20 0.256189 0.500000 0.250000
O O21 0.250981 0.568438 0.000000
#
# Coordination Sequence:
#
# PCOD8203667 Si02
#       7
#     8   8   8   8   8   8   8
#     4  11  23  42  66  93 127 165 205 252 301 362
#     4  10  20  34  54  78 110 152 197 251 308 365
#     4  10  21  36  54  79 110 148 195 246 299 357
#     4  11  23  37  58  88 118 154 203 253 303 362
#     4  10  21  40  63  91 123 161 205 249 302 359
#     4  10  21  38  58  81 116 157 199 250 307 359
#     4  10  23  43  66  92 129 164 200 248 300 360
#
# _framework density 20.345037999999999
#
# number of rings (size 3 to 8) (size 9 to 14) (size 15 to 20)
#    0.000    1.714    1.429    3.429    0.000    8.000 
#    0.000    5.714    0.000    0.000    0.000    0.000 
#    0.000    0.000    0.000    0.000    0.000    0.000 
#
# Total GULP energy -694465.893798 kJ/mol
# GULP energy per Si atom -12401.176675 kJ/mol
# Density = 2.029873 g / cm^3
# Si number density = 20.345038 Si / 1000 Ang^3
#
#
#
# Elastic Constant Matrix: (Units=GPa)
#
#
# Indices 1 2 3 4 5 6 
#
# 1 138.7183 55.6447 46.5443 0.0000 0.0000 0.0000
# 2 55.6447 122.8190 46.0429 0.0000 0.0000 0.0000
# 3 46.5443 46.0429 73.5623 0.0000 0.0000 0.0000
# 4 0.0000 0.0000 0.0000 34.9366 0.0000 0.0000
# 5 0.0000 0.0000 0.0000 0.0000 32.2833 0.0000
# 6 0.0000 0.0000 0.0000 0.0000 0.0000 25.7734
#
#
#
# Elastic Compliance Matrix: (Units=1/GPa)
#
#
# Indices 1 2 3 4 5 6 
#
# 1 0.009824 -0.002771 -0.004482 0.000000 0.000000 0.000000
# 2 -0.002771 0.011420 -0.005395 0.000000 0.000000 0.000000
# 3 -0.004482 -0.005395 0.019806 0.000000 0.000000 0.000000
# 4 0.000000 0.000000 0.000000 0.028623 0.000000 0.000000
# 5 0.000000 0.000000 0.000000 0.000000 0.030976 0.000000
# 6 0.000000 0.000000 0.000000 0.000000 0.000000 0.038800
#
#
# Mechanical properties :
#
#
# Convention : Reuss Voigt Hill
#
# Bulk Modulus (GPa) = 63.46834 70.17372 66.82103
# Shear Modulus (GPa) = 29.41277 31.05651 30.23464
#
# Velocity S-wave (km/s) = 3.80636 3.91127 3.85917
# Velocity P-wave (km/s) = 7.11207 7.41378 7.26449
#
# Compressibility (1/GPa) = 0.01575589
#
# Stress axis : x y z
#
# Youngs Moduli (GPa) = 101.79115 87.56768 50.48992
#
# Poissons Ratio (x) = 0.24264 0.22627
# Poissons Ratio (y) = 0.28205 0.27237
# Poissons Ratio (z) = 0.45618 0.47238
#
# Static dielectric constant tensor:
#      x y z
#    x 3.657980 0.000000 0.000000 
#    y 0.000000 3.917490 0.000000 
#    z 0.000000 0.000000 3.616500 
# 
# 
# High freq. dielectric constant tensor:
#      x y z
#    x 1.792610 0.000000 0.000000 
#    y 0.000000 1.801050 0.000000 
#    z 0.000000 0.000000 1.793380 
# 
# From -- ./inp_files/4091.got.cif
#   From: 2010.03.12/outbox.cif.g09.slc.cpg/sg49_3_cif.got.tgz:4091.got - 2010.04.14 03:58:27.
