data_PCOD8203018
_publ_section_title
;
Structure prediction by ZEFSAII (Michael W. Deem and Ramdas Pophale) SiO2 
 PCOD8203018
Probable space group: P C C M
;
_chemical_formula_sum "Si O2"
_cell_formula_units_Z 58
_cell_length_a 18.093615
_cell_length_b 16.253784
_cell_length_c 9.242021
_cell_angle_alpha 90.000000
_cell_angle_beta 90.000000
_cell_angle_gamma 90.000000
_cell_volume 2717.983276
_symmetry_space_group_name_H-M "P C C M"
_symmetry_group_IT_number 49
_symmetry_cell_setting 'orthorhombic'
loop_
_space_group_symop_operation_xyz
x,y,z
-x,-y,z
x,-y,1/2-z
-x,y,1/2-z
-x,-y,-z
x,y,-z
-x,y,1/2+z
x,-y,1/2+z
loop_
_atom_site_type_symbol
_atom_site_label
_atom_site_fract_x
_atom_site_fract_y
_atom_site_fract_z
Si Si1 0.289020 0.307158 0.667324
Si Si2 0.430788 0.303284 0.837202
Si Si3 0.071375 0.271939 0.840891
Si Si4 0.862439 0.106744 0.337062
Si Si5 0.720283 0.113228 0.167848
Si Si6 0.175104 0.583032 0.335989
Si Si7 0.427480 0.107854 0.164325
Si Si8 0.000000 0.000000 0.750000
O O1 0.294132 0.331339 0.500000
O O2 0.362153 0.336496 0.747816
O O3 0.275200 0.210888 0.687751
O O4 0.227333 0.359615 0.743824
O O5 0.500000 0.338469 0.750000
O O6 0.431794 0.205379 0.841564
O O7 0.429842 0.338815 0.000000
O O8 0.126586 0.201068 0.783212
O O9 0.100708 0.364593 0.843284
O O10 0.000000 0.272809 0.750000
O O11 0.048587 0.242734 0.000000
O O12 0.831521 0.103535 0.500000
O O13 0.795987 0.073231 0.233852
O O14 0.941436 0.058019 0.335304
O O15 0.647326 0.079709 0.251620
O O16 0.714290 0.087933 0.000000
O O17 0.159528 0.500000 0.250000
O O18 0.204104 0.565588 0.500000
O O19 0.500000 0.074214 0.250000
O O20 0.426591 0.072710 0.000000
#
# Coordination Sequence:
#
# PCOD8203018 Si02
#       8
#     8   8   8   8   8   8   8   2
#     4  10  19  32  52  79 110 149 196 245 297 354
#     4   9  16  26  43  70 106 148 193 245 298 351
#     4  10  22  40  63  87 115 153 194 239 295 357
#     4  11  23  41  63  90 124 161 203 249 301 361
#     4  10  20  33  55  85 118 159 205 251 302 362
#     4  11  23  39  58  83 113 149 194 246 300 356
#     4   9  16  27  46  76 117 158 200 251 304 356
#     4  12  26  44  68  98 126 160 204 250 302 360
#
# _framework density 21.339351000000001
#
# number of rings (size 3 to 8) (size 9 to 14) (size 15 to 20)
#    0.000    1.931    2.069    2.276    0.000    7.448 
#    0.000    1.379    0.000    0.414    0.000    3.379 
#    0.000    3.310    0.000    0.000    0.000    0.000 
#
# Total GULP energy -718721.578683 kJ/mol
# GULP energy per Si atom -12391.751357 kJ/mol
# Density = 2.129078 g / cm^3
# Si number density = 21.339351 Si / 1000 Ang^3
#
#
#
# Elastic Constant Matrix: (Units=GPa)
#
#
# Indices 1 2 3 4 5 6 
#
# 1 -62.0199 -150.6006 250.1657 0.0000 0.0000 0.0000
# 2 -150.6006 -41.8611 157.6339 0.0000 0.0000 0.0000
# 3 250.1657 157.6339 53.5773 0.0000 0.0000 0.0000
# 4 0.0000 0.0000 0.0000 -20.2233 0.0000 0.0000
# 5 0.0000 0.0000 0.0000 0.0000 43.6347 0.0000
# 6 0.0000 0.0000 0.0000 0.0000 0.0000 10.4604
#
#
#
# Elastic Compliance Matrix: (Units=1/GPa)
#
#
# Indices 1 2 3 4 5 6 
#
# 1 0.003081 -0.005402 0.001509 0.000000 0.000000 0.000000
# 2 -0.005402 0.007495 0.003173 0.000000 0.000000 0.000000
# 3 0.001509 0.003173 0.002284 0.000000 0.000000 0.000000
# 4 0.000000 0.000000 0.000000 -0.049448 0.000000 0.000000
# 5 0.000000 0.000000 0.000000 0.000000 0.022918 0.000000
# 6 0.000000 0.000000 0.000000 0.000000 0.000000 0.095599
#
#
# Mechanical properties :
#
#
# Convention : Reuss Voigt Hill
#
# Bulk Modulus (GPa) = 87.57283 51.56602 69.56943
# Shear Modulus (GPa) = 57.35463 -13.72583 21.81440
#
# Velocity S-wave (km/s) = 5.18997 -2.53892 3.20075
# Velocity P-wave (km/s) = 8.77733 3.95252 6.80676
#
# Compressibility (1/GPa) = 0.01141907
#
# Stress axis : x y z
#
# Youngs Moduli (GPa) = 324.56722 133.41676 437.80039
#
# Poissons Ratio (x) = 0.72078 -0.66059
# Poissons Ratio (y) = 1.75346 -1.38908
# Poissons Ratio (z) = -0.48974 -0.42331
#
# Static dielectric constant tensor:
#      x y z
#    x 2.312940 0.000000 0.000000 
#    y 0.000000 3.120410 0.000000 
#    z 0.000000 0.000000 4.035960 
# 
# 
# High freq. dielectric constant tensor:
#      x y z
#    x 1.840330 0.000000 0.000000 
#    y 0.000000 1.816250 0.000000 
#    z 0.000000 0.000000 1.848040 
# 
# From -- ./inp_files/5077.got.cif
#   From: 2010.03.12/outbox.cif.g09.slc.cpg/sg49_3_cif.got.tgz:5077.got - 2010.04.14 03:58:27.
