data_PCOD8203732
_publ_section_title
;
Structure prediction by ZEFSAII (Michael W. Deem and Ramdas Pophale) SiO2 
 PCOD8203732
Probable space group: P C C M
;
_chemical_formula_sum "Si O2"
_cell_formula_units_Z 56
_cell_length_a 21.710089
_cell_length_b 8.730047
_cell_length_c 15.066027
_cell_angle_alpha 90.000000
_cell_angle_beta 90.000000
_cell_angle_gamma 90.000000
_cell_volume 2855.465564
_symmetry_space_group_name_H-M "P C C M"
_symmetry_group_IT_number 49
_symmetry_cell_setting 'orthorhombic'
loop_
_space_group_symop_operation_xyz
x,y,z
-x,-y,z
x,-y,1/2-z
-x,y,1/2-z
-x,-y,-z
x,y,-z
-x,y,1/2+z
x,-y,1/2+z
loop_
_atom_site_type_symbol
_atom_site_label
_atom_site_fract_x
_atom_site_fract_y
_atom_site_fract_z
Si Si1 0.996511 0.181939 0.398504
Si Si2 0.092267 0.181337 0.254075
Si Si3 0.305536 0.309861 0.902611
Si Si4 0.438390 0.194489 0.605076
Si Si5 0.327807 0.387969 0.333527
Si Si6 0.426176 0.150348 0.105296
Si Si7 0.231710 0.818091 0.250298
O O1 0.995062 0.249946 0.500000
O O2 0.055466 0.240805 0.341303
O O3 0.937202 0.237514 0.340191
O O4 0.000000 0.000000 0.405863
O O5 0.162082 0.237542 0.266191
O O6 0.088856 0.000000 0.250000
O O7 0.308568 0.495006 0.911807
O O8 0.369112 0.248154 0.856717
O O9 0.248622 0.247875 0.846517
O O10 0.297547 0.238956 0.000000
O O11 0.431257 0.211858 0.500000
O O12 0.394755 0.316539 0.652017
O O13 0.508791 0.222828 0.637056
O O14 0.419066 0.024767 0.636893
O O15 0.328725 0.500000 0.250000
O O16 0.276324 0.255287 0.324279
O O17 0.426602 0.155426 0.000000
O O18 0.238747 0.000000 0.250000
#
# Coordination Sequence:
#
# PCOD8203732 Si02
#       7
#     8   8   8   8   8   8   8
#     4   8  13  24  44  71 104 136 163 198 250 306
#     4   8  15  27  44  70 104 137 167 204 250 301
#     4  10  20  35  52  72  99 134 176 216 256 309
#     4   9  16  31  53  74  95 123 162 209 262 315
#     4  10  21  34  48  68  98 134 172 212 256 305
#     4   8  16  30  52  77  96 119 158 211 266 314
#     4  10  20  35  52  73 105 140 172 210 257 302
#
# _framework density 19.611512999999999
#
# number of rings (size 3 to 8) (size 9 to 14) (size 15 to 20)
#    0.000    3.000    0.000    3.000    0.000    1.143 
#    0.000   11.429    0.000    7.714    0.000   18.000 
#    0.000   14.857    0.000    0.000    0.000    0.000 
#
# Total GULP energy -693850.984567 kJ/mol
# GULP energy per Si atom -12390.196153 kJ/mol
# Density = 1.956688 g / cm^3
# Si number density = 19.611513 Si / 1000 Ang^3
#
#
#
# Elastic Constant Matrix: (Units=GPa)
#
#
# Indices 1 2 3 4 5 6 
#
# 1 133.7458 42.8965 36.7736 0.0000 0.0000 0.0000
# 2 42.8965 69.1882 10.7188 0.0000 0.0000 0.0000
# 3 36.7736 10.7188 88.0071 0.0000 0.0000 0.0000
# 4 0.0000 0.0000 0.0000 15.6783 0.0000 0.0000
# 5 0.0000 0.0000 0.0000 0.0000 25.8822 0.0000
# 6 0.0000 0.0000 0.0000 0.0000 0.0000 7.4621
#
#
#
# Elastic Compliance Matrix: (Units=1/GPa)
#
#
# Indices 1 2 3 4 5 6 
#
# 1 0.010348 -0.005856 -0.003611 0.000000 0.000000 0.000000
# 2 -0.005856 0.018046 0.000249 0.000000 0.000000 0.000000
# 3 -0.003611 0.000249 0.012841 0.000000 0.000000 0.000000
# 4 0.000000 0.000000 0.000000 0.063782 0.000000 0.000000
# 5 0.000000 0.000000 0.000000 0.000000 0.038637 0.000000
# 6 0.000000 0.000000 0.000000 0.000000 0.000000 0.134010
#
#
# Mechanical properties :
#
#
# Convention : Reuss Voigt Hill
#
# Bulk Modulus (GPa) = 43.86129 52.41322 48.13726
# Shear Modulus (GPa) = 16.46368 23.17468 19.81918
#
# Velocity S-wave (km/s) = 2.90054 3.44130 3.18243
# Velocity P-wave (km/s) = 5.79924 6.52486 6.17272
#
# Compressibility (1/GPa) = 0.02279915
#
# Stress axis : x y z
#
# Youngs Moduli (GPa) = 96.63787 55.41512 77.87523
#
# Poissons Ratio (x) = 0.32453 0.28118
# Poissons Ratio (y) = 0.56594 -0.01941
# Poissons Ratio (z) = 0.34892 -0.01381
#
# Static dielectric constant tensor:
#      x y z
#    x 3.865900 0.000000 0.000000 
#    y 0.000000 3.618340 0.000000 
#    z 0.000000 0.000000 3.699940 
# 
# 
# High freq. dielectric constant tensor:
#      x y z
#    x 1.760750 0.000000 0.000000 
#    y 0.000000 1.736200 0.000000 
#    z 0.000000 0.000000 1.760010 
# 
# From -- ./inp_files/18283.got.cif
#   From: 2010.03.12/outbox.cif.g09.slc.cpg/sg49_10_cif.got.tgz:18283.got - 2010.04.14 03:58:27.
