data_PCOD8203738
_publ_section_title
;
Structure prediction by ZEFSAII (Michael W. Deem and Ramdas Pophale) SiO2 
 PCOD8203738
Probable space group: P C C M
;
_chemical_formula_sum "Si O2"
_cell_formula_units_Z 56
_cell_length_a 11.217977
_cell_length_b 14.865417
_cell_length_c 17.547059
_cell_angle_alpha 90.000000
_cell_angle_beta 90.000000
_cell_angle_gamma 90.000000
_cell_volume 2926.145909
_symmetry_space_group_name_H-M "P C C M"
_symmetry_group_IT_number 49
_symmetry_cell_setting 'orthorhombic'
loop_
_space_group_symop_operation_xyz
x,y,z
-x,-y,z
x,-y,1/2-z
-x,y,1/2-z
-x,-y,-z
x,y,-z
-x,y,1/2+z
x,-y,1/2+z
loop_
_atom_site_type_symbol
_atom_site_label
_atom_site_fract_x
_atom_site_fract_y
_atom_site_fract_z
Si Si1 0.934184 0.163875 0.087900
Si Si2 0.275500 0.018930 0.414883
Si Si3 0.659054 0.712657 0.085869
Si Si4 0.816867 0.849335 0.841921
Si Si5 0.228744 0.747652 0.808603
Si Si6 0.575305 0.180651 0.086265
Si Si7 0.368212 0.396980 0.771873
O O1 0.832912 0.088606 0.095082
O O2 0.882066 0.252899 0.131637
O O3 0.048937 0.127675 0.132865
O O4 0.963808 0.186364 0.000000
O O5 0.272378 0.977370 0.500000
O O6 0.399618 0.073601 0.401598
O O7 0.264224 0.937350 0.355920
O O8 0.780594 0.763390 0.106884
O O9 0.560899 0.791236 0.099224
O O10 0.640906 0.624115 0.137827
O O11 0.660601 0.676413 0.000000
O O12 0.801973 0.824827 0.753378
O O13 0.350535 0.764853 0.852596
O O14 0.256761 0.652752 0.768846
O O15 0.616245 0.206100 0.000000
O O16 0.352405 0.500000 0.750000
O O17 0.500000 0.362383 0.750000
#
# Coordination Sequence:
#
# PCOD8203738 Si02
#       7
#     8   8   8   8   8   8   8
#     4  10  20  35  53  75 105 144 190 233 267 310
#     4   9  18  32  50  74 106 145 186 234 271 305
#     4  10  20  35  56  80 112 148 180 220 267 332
#     4  11  21  31  52  78 109 146 191 228 268 309
#     4  10  20  35  55  77 106 141 175 218 281 330
#     4   9  18  33  51  74 107 144 183 219 267 325
#     4  10  20  37  60  85 111 135 165 223 283 336
#
# _framework density 19.137801
#
# number of rings (size 3 to 8) (size 9 to 14) (size 15 to 20)
#    0.000    2.143    1.429    3.429    0.000    4.000 
#    0.000    7.857    0.000   10.286    0.000    5.000 
#    0.000    0.000    0.000    0.000    0.000    0.000 
#
# Total GULP energy -693950.054285 kJ/mol
# GULP energy per Si atom -12391.965255 kJ/mol
# Density = 1.909424 g / cm^3
# Si number density = 19.137801 Si / 1000 Ang^3
#
#
#
# Elastic Constant Matrix: (Units=GPa)
#
#
# Indices 1 2 3 4 5 6 
#
# 1 25.5082 19.9113 20.3762 0.0000 0.0000 0.0000
# 2 19.9113 82.9156 42.2229 0.0000 0.0000 0.0000
# 3 20.3762 42.2229 108.3309 0.0000 0.0000 0.0000
# 4 0.0000 0.0000 0.0000 23.7733 0.0000 0.0000
# 5 0.0000 0.0000 0.0000 0.0000 28.0378 0.0000
# 6 0.0000 0.0000 0.0000 0.0000 0.0000 20.2434
#
#
#
# Elastic Compliance Matrix: (Units=1/GPa)
#
#
# Indices 1 2 3 4 5 6 
#
# 1 0.051230 -0.009227 -0.006040 0.000000 0.000000 0.000000
# 2 -0.009227 0.016709 -0.004777 0.000000 0.000000 0.000000
# 3 -0.006040 -0.004777 0.012229 0.000000 0.000000 0.000000
# 4 0.000000 0.000000 0.000000 0.042064 0.000000 0.000000
# 5 0.000000 0.000000 0.000000 0.000000 0.035666 0.000000
# 6 0.000000 0.000000 0.000000 0.000000 0.000000 0.049399
#
#
# Mechanical properties :
#
#
# Convention : Reuss Voigt Hill
#
# Bulk Modulus (GPa) = 24.94963 42.41950 33.68456
# Shear Modulus (GPa) = 19.17596 23.36053 21.26825
#
# Velocity S-wave (km/s) = 3.16886 3.49757 3.33727
# Velocity P-wave (km/s) = 5.14335 6.20678 5.69992
#
# Compressibility (1/GPa) = 0.04008076
#
# Stress axis : x y z
#
# Youngs Moduli (GPa) = 19.51983 59.84918 81.77383
#
# Poissons Ratio (x) = 0.55221 0.49390
# Poissons Ratio (y) = 0.18010 0.39062
# Poissons Ratio (z) = 0.11790 0.28589
#
# Static dielectric constant tensor:
#      x y z
#    x 3.529760 0.000000 0.000000 
#    y 0.000000 3.115000 0.000000 
#    z 0.000000 0.000000 3.724060 
# 
# 
# High freq. dielectric constant tensor:
#      x y z
#    x 1.742510 0.000000 0.000000 
#    y 0.000000 1.701510 0.000000 
#    z 0.000000 0.000000 1.759410 
# 
# From -- ./inp_files/12908.got.cif
#   From: 2010.03.12/outbox.cif.g09.slc.cpg/sg49_7_cif.got.tgz:12908.got - 2010.04.14 03:58:27.
