data_PCOD8203696
_publ_section_title
;
Structure prediction by ZEFSAII (Michael W. Deem and Ramdas Pophale) SiO2 
 PCOD8203696
Probable space group: P C C M
;
_chemical_formula_sum "Si O2"
_cell_formula_units_Z 64
_cell_length_a 24.664236
_cell_length_b 15.168358
_cell_length_c 8.823545
_cell_angle_alpha 90.000000
_cell_angle_beta 90.000000
_cell_angle_gamma 90.000000
_cell_volume 3301.029021
_symmetry_space_group_name_H-M "P C C M"
_symmetry_group_IT_number 49
_symmetry_cell_setting 'orthorhombic'
loop_
_space_group_symop_operation_xyz
x,y,z
-x,-y,z
x,-y,1/2-z
-x,y,1/2-z
-x,-y,-z
x,y,-z
-x,y,1/2+z
x,-y,1/2+z
loop_
_atom_site_type_symbol
_atom_site_label
_atom_site_fract_x
_atom_site_fract_y
_atom_site_fract_z
Si Si1 0.712601 0.645331 0.327475
Si Si2 0.144660 0.217402 0.320645
Si Si3 0.638330 0.908224 0.823709
Si Si4 0.404789 0.412626 0.324682
Si Si5 0.443963 0.224901 0.319936
Si Si6 0.058568 0.091569 0.180818
Si Si7 0.253575 0.183649 0.826733
Si Si8 0.830171 0.413060 0.171373
O O1 0.709340 0.682591 0.500000
O O2 0.659277 0.590318 0.287027
O O3 0.716068 0.725706 0.211445
O O4 0.765199 0.583707 0.310359
O O5 0.135069 0.209563 0.500000
O O6 0.096803 0.171687 0.228720
O O7 0.201438 0.169540 0.280499
O O8 0.147159 0.319681 0.265118
O O9 0.605641 0.832335 0.739272
O O10 0.702809 0.893812 0.800644
O O11 0.621354 0.000000 0.750000
O O12 0.622657 0.907893 0.000000
O O13 0.429985 0.500000 0.250000
O O14 0.415925 0.421162 0.500000
O O15 0.434125 0.325001 0.262833
O O16 0.500000 0.189706 0.250000
O O17 0.445780 0.218242 0.500000
O O18 0.000000 0.111659 0.250000
O O19 0.081347 0.000000 0.250000
O O20 0.055113 0.084026 0.000000
O O21 0.233535 0.186026 0.000000
O O22 0.855188 0.500000 0.250000
O O23 0.848927 0.420011 0.000000
#
# Coordination Sequence:
#
# PCOD8203696 Si02
#       8
#     8   8   8   8   8   8   8   8
#     4   9  17  32  51  76 110 149 188 228 281 337
#     4  10  21  37  57  85 122 162 201 244 291 343
#     4  11  24  41  63  89 115 146 186 231 286 347
#     4  10  21  35  56  83 112 147 185 229 282 340
#     4  11  24  43  64  84 111 145 185 235 287 341
#     4  11  22  39  63  90 120 156 199 247 298 349
#     4  10  20  34  55  85 117 151 190 233 283 341
#     4   9  18  30  49  77 114 155 195 238 284 336
#
# _framework density 19.387892999999998
#
# number of rings (size 3 to 8) (size 9 to 14) (size 15 to 20)
#    0.000    1.875    1.250    4.125    0.000    6.500 
#    0.000    3.750    0.000    0.375    0.000    2.625 
#    0.000    0.000    0.000    0.000    0.000    0.000 
#
# Total GULP energy -793569.222096 kJ/mol
# GULP energy per Si atom -12399.519095 kJ/mol
# Density = 1.934377 g / cm^3
# Si number density = 19.387893 Si / 1000 Ang^3
#
#
#
# Elastic Constant Matrix: (Units=GPa)
#
#
# Indices 1 2 3 4 5 6 
#
# 1 75.0575 43.6998 38.6890 0.0000 0.0000 0.0000
# 2 43.6998 102.0177 48.6926 0.0000 0.0000 0.0000
# 3 38.6890 48.6926 96.7667 0.0000 0.0000 0.0000
# 4 0.0000 0.0000 0.0000 33.5714 0.0000 0.0000
# 5 0.0000 0.0000 0.0000 0.0000 27.8358 0.0000
# 6 0.0000 0.0000 0.0000 0.0000 0.0000 17.3156
#
#
#
# Elastic Compliance Matrix: (Units=1/GPa)
#
#
# Indices 1 2 3 4 5 6 
#
# 1 0.019226 -0.006010 -0.004663 0.000000 0.000000 0.000000
# 2 -0.006010 0.014779 -0.005034 0.000000 0.000000 0.000000
# 3 -0.004663 -0.005034 0.014731 0.000000 0.000000 0.000000
# 4 0.000000 0.000000 0.000000 0.029787 0.000000 0.000000
# 5 0.000000 0.000000 0.000000 0.000000 0.035925 0.000000
# 6 0.000000 0.000000 0.000000 0.000000 0.000000 0.057751
#
#
# Mechanical properties :
#
#
# Convention : Reuss Voigt Hill
#
# Bulk Modulus (GPa) = 57.72577 59.55606 58.64092
# Shear Modulus (GPa) = 23.87920 25.26193 24.57056
#
# Velocity S-wave (km/s) = 3.51330 3.61359 3.56380
# Velocity P-wave (km/s) = 6.80415 6.94230 6.87357
#
# Compressibility (1/GPa) = 0.01732329
#
# Stress axis : x y z
#
# Youngs Moduli (GPa) = 52.01405 67.66206 67.88238
#
# Poissons Ratio (x) = 0.40665 0.31650
# Poissons Ratio (y) = 0.31260 0.34172
# Poissons Ratio (z) = 0.24252 0.34061
#
# Static dielectric constant tensor:
#      x y z
#    x 3.398010 0.000000 0.000000 
#    y 0.000000 3.556350 0.000000 
#    z 0.000000 0.000000 3.536080 
# 
# 
# High freq. dielectric constant tensor:
#      x y z
#    x 1.737260 0.000000 0.000000 
#    y 0.000000 1.752380 0.000000 
#    z 0.000000 0.000000 1.760030 
# 
# From -- ./inp_files/6550.got.cif
#   From: 2010.03.12/outbox.cif.g09.slc.cpg/sg49_4_cif.got.tgz:6550.got - 2010.04.14 03:58:27.
