data_PCOD8203389
_publ_section_title
;
Structure prediction by ZEFSAII (Michael W. Deem and Ramdas Pophale) SiO2 
 PCOD8203389
Probable space group: P C C M
;
_chemical_formula_sum "Si O2"
_cell_formula_units_Z 48
_cell_length_a 13.766735
_cell_length_b 10.037672
_cell_length_c 17.649531
_cell_angle_alpha 90.000000
_cell_angle_beta 90.000000
_cell_angle_gamma 90.000000
_cell_volume 2438.917569
_symmetry_space_group_name_H-M "P C C M"
_symmetry_group_IT_number 49
_symmetry_cell_setting 'orthorhombic'
loop_
_space_group_symop_operation_xyz
x,y,z
-x,-y,z
x,-y,1/2-z
-x,y,1/2-z
-x,-y,-z
x,y,-z
-x,y,1/2+z
x,-y,1/2+z
loop_
_atom_site_type_symbol
_atom_site_label
_atom_site_fract_x
_atom_site_fract_y
_atom_site_fract_z
Si Si1 0.914710 0.598512 0.911371
Si Si2 0.292814 0.037825 0.909847
Si Si3 0.582563 0.713656 0.089507
Si Si4 0.360319 0.751090 0.910522
Si Si5 0.281833 0.502616 0.339341
Si Si6 0.079953 0.099542 0.910779
O O1 0.818215 0.567986 0.865378
O O2 0.948772 0.748413 0.892132
O O3 0.000000 0.500000 0.885321
O O4 0.890875 0.582205 0.000000
O O5 0.331533 0.896732 0.879835
O O6 0.364136 0.153574 0.880594
O O7 0.185460 0.064553 0.876545
O O8 0.292277 0.039319 0.000000
O O9 0.470690 0.722584 0.112913
O O10 0.627125 0.585094 0.129366
O O11 0.595755 0.696171 0.000000
O O12 0.288564 0.646935 0.870936
O O13 0.345227 0.740889 0.000000
O O14 0.285810 0.500000 0.250000
O O15 0.084274 0.076183 0.000000
O O16 0.000000 0.000000 0.874610
#
# Coordination Sequence:
#
# PCOD8203389 Si02
#       6
#     8   8   8   8   8   8
#     4  10  21  38  63  89 114 147 191 240 289 341
#     4   9  17  32  57  87 118 144 183 244 302 347
#     4  10  19  37  61  85 115 152 196 244 295 341
#     4  10  21  35  59  90 115 147 196 248 290 341
#     4  12  25  39  56  82 120 162 195 232 285 348
#     4   9  17  30  54  89 118 139 173 233 296 346
#
# _framework density 19.680862000000001
#
# number of rings (size 3 to 8) (size 9 to 14) (size 15 to 20)
#    0.000    2.000    1.667    2.500    2.333    5.000 
#    0.000    0.833    0.000    2.000    0.000    0.000 
#    0.000    0.000    0.000    0.000    0.000    0.000 
#
# Total GULP energy -595337.170599 kJ/mol
# GULP energy per Si atom -12402.857721 kJ/mol
# Density = 1.963607 g / cm^3
# Si number density = 19.680862 Si / 1000 Ang^3
#
#
#
# Elastic Constant Matrix: (Units=GPa)
#
#
# Indices 1 2 3 4 5 6 
#
# 1 99.9515 42.4939 23.9076 0.0000 0.0000 0.0000
# 2 42.4939 132.7460 24.3774 0.0000 0.0000 0.0000
# 3 23.9076 24.3774 35.3490 0.0000 0.0000 0.0000
# 4 0.0000 0.0000 0.0000 -0.0783 0.0000 0.0000
# 5 0.0000 0.0000 0.0000 0.0000 17.2170 0.0000
# 6 0.0000 0.0000 0.0000 0.0000 0.0000 47.2559
#
#
#
# Elastic Compliance Matrix: (Units=1/GPa)
#
#
# Indices 1 2 3 4 5 6 
#
# 1 0.012829 -0.002878 -0.006692 0.000000 0.000000 0.000000
# 2 -0.002878 0.009271 -0.004447 0.000000 0.000000 0.000000
# 3 -0.006692 -0.004447 0.035882 0.000000 0.000000 0.000000
# 4 0.000000 0.000000 0.000000-12.776117 0.000000 0.000000
# 5 0.000000 0.000000 0.000000 0.000000 0.058082 0.000000
# 6 0.000000 0.000000 0.000000 0.000000 0.000000 0.021161
#
#
# Mechanical properties :
#
#
# Convention : Reuss Voigt Hill
#
# Bulk Modulus (GPa) = 33.39091 49.95605 41.67348
# Shear Modulus (GPa) = -0.39680 24.69674 12.14997
#
# Velocity S-wave (km/s) = -0.44950 3.54624 2.48735
# Velocity P-wave (km/s) = 4.09067 6.49661 5.42861
#
# Compressibility (1/GPa) = 0.02994827
#
# Stress axis : x y z
#
# Youngs Moduli (GPa) = 77.94818 107.86208 27.86890
#
# Poissons Ratio (x) = 0.31041 0.18650
# Poissons Ratio (y) = 0.22432 0.12394
# Poissons Ratio (z) = 0.52163 0.47968
#
# Static dielectric constant tensor:
#      x y z
#    x 3.748380 0.000000 0.000000 
#    y 0.000000 3.866090 0.000000 
#    z 0.000000 0.000000 3.042130 
# 
# 
# High freq. dielectric constant tensor:
#      x y z
#    x 1.777850 0.000000 0.000000 
#    y 0.000000 1.788070 0.000000 
#    z 0.000000 0.000000 1.709900 
# 
# From -- ./inp_files/16244.got.cif
#   From: 2010.03.12/outbox.cif.g09.slc.cpg/sg49_9_cif.got.tgz:16244.got - 2010.04.14 03:58:27.
