data_PCOD8203605
_publ_section_title
;
Structure prediction by ZEFSAII (Michael W. Deem and Ramdas Pophale) SiO2 
 PCOD8203605
Probable space group: P C C M
;
_chemical_formula_sum "Si O2"
_cell_formula_units_Z 40
_cell_length_a 17.530065
_cell_length_b 12.451685
_cell_length_c 9.858508
_cell_angle_alpha 90.000000
_cell_angle_beta 90.000000
_cell_angle_gamma 90.000000
_cell_volume 2151.903763
_symmetry_space_group_name_H-M "P C C M"
_symmetry_group_IT_number 49
_symmetry_cell_setting 'orthorhombic'
loop_
_space_group_symop_operation_xyz
x,y,z
-x,-y,z
x,-y,1/2-z
-x,y,1/2-z
-x,-y,-z
x,y,-z
-x,y,1/2+z
x,-y,1/2+z
loop_
_atom_site_type_symbol
_atom_site_label
_atom_site_fract_x
_atom_site_fract_y
_atom_site_fract_z
Si Si1 0.076330 0.397871 0.334531
Si Si2 0.213325 0.252354 0.733099
Si Si3 0.252873 0.140479 0.000000
Si Si4 0.589649 0.250288 0.500000
Si Si5 0.725720 0.890624 0.500000
Si Si6 0.364128 0.374038 0.255463
Si Si7 0.420673 0.237971 0.500000
O O1 0.110002 0.500000 0.250000
O O2 0.064000 0.418846 0.500000
O O3 0.133066 0.298788 0.316554
O O4 0.000000 0.368160 0.250000
O O5 0.207520 0.192921 0.876034
O O6 0.238674 0.160238 0.632303
O O7 0.273918 0.349286 0.737728
O O8 0.343353 0.162949 0.000000
O O9 0.249583 0.013260 0.000000
O O10 0.595696 0.328056 0.374720
O O11 0.507031 0.192206 0.500000
O O12 0.634553 0.866503 0.500000
O O13 0.376197 0.500000 0.250000
O O14 0.407558 0.317193 0.376233
#
# Coordination Sequence:
#
# PCOD8203605 Si02
#       7
#     8   8   4   4   4   8   4
#     4  11  23  39  63  95 129 159 188 222 275 338
#     4  10  21  38  59  84 116 149 193 245 282 340
#     4  10  22  36  62  81 109 148 203 247 297 346
#     4  10  21  35  48  82 107 144 192 242 291 348
#     4  10  20  40  58  83 105 152 197 247 305 338
#     4  10  20  34  51  77 110 150 189 228 285 347
#     4  10  21  33  54  74 113 144 188 244 293 348
#
# _framework density 18.588191999999999
#
# number of rings (size 3 to 8) (size 9 to 14) (size 15 to 20)
#    0.000    1.800    1.000    3.600    2.800    2.800 
#    3.600    0.000    0.000   10.800    0.000    0.000 
#    0.000    0.000    0.000    0.000    0.000    0.000 
#
# Total GULP energy -495667.604843 kJ/mol
# GULP energy per Si atom -12391.690121 kJ/mol
# Density = 1.854588 g / cm^3
# Si number density = 18.588192 Si / 1000 Ang^3
#
#
#
# Elastic Constant Matrix: (Units=GPa)
#
#
# Indices 1 2 3 4 5 6 
#
# 1 84.2638 36.2245 37.0940 0.0000 0.0000 0.0000
# 2 36.2245 74.3572 28.7919 0.0000 0.0000 0.0000
# 3 37.0940 28.7919 163.4563 0.0000 0.0000 0.0000
# 4 0.0000 0.0000 0.0000 83.0587 0.0000 0.0000
# 5 0.0000 0.0000 0.0000 0.0000 39.0086 0.0000
# 6 0.0000 0.0000 0.0000 0.0000 0.0000 18.7673
#
#
#
# Elastic Compliance Matrix: (Units=1/GPa)
#
#
# Indices 1 2 3 4 5 6 
#
# 1 0.015842 -0.006789 -0.002399 0.000000 0.000000 0.000000
# 2 -0.006789 0.017342 -0.001514 0.000000 0.000000 0.000000
# 3 -0.002399 -0.001514 0.006929 0.000000 0.000000 0.000000
# 4 0.000000 0.000000 0.000000 0.012040 0.000000 0.000000
# 5 0.000000 0.000000 0.000000 0.000000 0.025635 0.000000
# 6 0.000000 0.000000 0.000000 0.000000 0.000000 0.053284
#
#
# Mechanical properties :
#
#
# Convention : Reuss Voigt Hill
#
# Bulk Modulus (GPa) = 53.45042 58.47756 55.96399
# Shear Modulus (GPa) = 31.50333 42.83138 37.16735
#
# Velocity S-wave (km/s) = 4.12127 4.80544 4.47644
# Velocity P-wave (km/s) = 7.17383 7.89414 7.54259
#
# Compressibility (1/GPa) = 0.01870893
#
# Stress axis : x y z
#
# Youngs Moduli (GPa) = 63.12274 57.66302 144.32013
#
# Poissons Ratio (x) = 0.39146 0.34627
# Poissons Ratio (y) = 0.42852 0.21852
# Poissons Ratio (z) = 0.15145 0.08731
#
# Static dielectric constant tensor:
#      x y z
#    x 3.398910 0.000000 0.000000 
#    y 0.000000 3.411300 0.000000 
#    z 0.000000 0.000000 3.085260 
# 
# 
# High freq. dielectric constant tensor:
#      x y z
#    x 1.714790 0.000000 0.000000 
#    y 0.000000 1.706070 0.000000 
#    z 0.000000 0.000000 1.750150 
# 
# From -- ./inp_files/4695.got.cif
#   From: 2010.03.12/outbox.cif.g09.slc.cpg/sg49_3_cif.got.tgz:4695.got - 2010.04.14 03:58:27.
