data_PCOD8203083
_publ_section_title
;
Structure prediction by ZEFSAII (Michael W. Deem and Ramdas Pophale) SiO2 
 PCOD8203083
Probable space group: P C C M
;
_chemical_formula_sum "Si O2"
_cell_formula_units_Z 48
_cell_length_a 15.491061
_cell_length_b 19.872694
_cell_length_c 8.886363
_cell_angle_alpha 90.000000
_cell_angle_beta 90.000000
_cell_angle_gamma 90.000000
_cell_volume 2735.658985
_symmetry_space_group_name_H-M "P C C M"
_symmetry_group_IT_number 49
_symmetry_cell_setting 'orthorhombic'
loop_
_space_group_symop_operation_xyz
x,y,z
-x,-y,z
x,-y,1/2-z
-x,y,1/2-z
-x,-y,-z
x,y,-z
-x,y,1/2+z
x,-y,1/2+z
loop_
_atom_site_type_symbol
_atom_site_label
_atom_site_fract_x
_atom_site_fract_y
_atom_site_fract_z
Si Si1 0.731310 0.321895 0.678409
Si Si2 0.918101 0.831489 0.835441
Si Si3 0.591207 0.570547 0.180029
Si Si4 0.918037 0.328139 0.665422
Si Si5 0.273668 0.169690 0.179485
Si Si6 0.409568 0.928580 0.820380
O O1 0.741440 0.322576 0.500000
O O2 0.658983 0.373478 0.734150
O O3 0.825392 0.343898 0.744825
O O4 0.705788 0.246557 0.727429
O O5 0.927823 0.751704 0.843635
O O6 0.823886 0.849291 0.767550
O O7 0.000000 0.863610 0.750000
O O8 0.922516 0.863394 0.000000
O O9 0.621783 0.500000 0.250000
O O10 0.500000 0.592005 0.250000
O O11 0.584118 0.564986 0.000000
O O12 0.920151 0.360186 0.500000
O O13 0.000000 0.360383 0.750000
O O14 0.337226 0.124399 0.275652
O O15 0.285406 0.159339 0.000000
O O16 0.500000 0.904074 0.750000
O O17 0.383313 0.000000 0.750000
O O18 0.417642 0.934367 0.000000
#
# Coordination Sequence:
#
# PCOD8203083 Si02
#       6
#     8   8   8   8   8   8
#     4   8  16  30  49  70  97 128 157 191 238 284
#     4   8  14  24  42  66  96 128 157 189 230 277
#     4  10  19  33  50  68  90 122 159 196 236 285
#     4   8  13  24  41  64  91 122 154 187 227 274
#     4   9  17  32  51  74 101 129 159 197 241 284
#     4  11  22  37  55  74  96 127 162 198 237 286
#
# _framework density 17.546047000000002
#
# number of rings (size 3 to 8) (size 9 to 14) (size 15 to 20)
#    0.000    3.000    0.000    5.000    0.000    1.333 
#    0.000    7.500    0.000    1.000    0.000    7.000 
#    0.000    0.000    0.000    0.000    0.000    0.000 
#
# Total GULP energy -594755.435876 kJ/mol
# GULP energy per Si atom -12390.738247 kJ/mol
# Density = 1.750611 g / cm^3
# Si number density = 17.546047 Si / 1000 Ang^3
#
#
#
# Elastic Constant Matrix: (Units=GPa)
#
#
# Indices 1 2 3 4 5 6 
#
# 1 164.7926 82.4056 58.6134 0.0000 0.0000 0.0000
# 2 82.4056 71.6112 35.7989 0.0000 0.0000 0.0000
# 3 58.6134 35.7989 83.4452 0.0000 0.0000 0.0000
# 4 0.0000 0.0000 0.0000 10.7152 0.0000 0.0000
# 5 0.0000 0.0000 0.0000 0.0000 29.5892 0.0000
# 6 0.0000 0.0000 0.0000 0.0000 0.0000 -3.2849
#
#
#
# Elastic Compliance Matrix: (Units=1/GPa)
#
#
# Indices 1 2 3 4 5 6 
#
# 1 0.015305 -0.015579 -0.004067 0.000000 0.000000 0.000000
# 2 -0.015579 0.033635 -0.003487 0.000000 0.000000 0.000000
# 3 -0.004067 -0.003487 0.016336 0.000000 0.000000 0.000000
# 4 0.000000 0.000000 0.000000 0.093326 0.000000 0.000000
# 5 0.000000 0.000000 0.000000 0.000000 0.033796 0.000000
# 6 0.000000 0.000000 0.000000 0.000000 0.000000 -0.304422
#
#
# Mechanical properties :
#
#
# Convention : Reuss Voigt Hill
#
# Bulk Modulus (GPa) = 52.60151 74.83165 63.71658
# Shear Modulus (GPa) = -84.14480 16.93928 -33.60276
#
# Velocity S-wave (km/s) = -6.93258 3.11049 -4.38095
# Velocity P-wave (km/s) = 5.83410 7.45932 3.28670
#
# Compressibility (1/GPa) = 0.01901086
#
# Stress axis : x y z
#
# Youngs Moduli (GPa) = 65.33698 29.73114 61.21264
#
# Poissons Ratio (x) = 0.46319 0.24896
# Poissons Ratio (y) = 1.01790 0.21342
# Poissons Ratio (z) = 0.26573 0.10366
#
# Static dielectric constant tensor:
#      x y z
#    x 3.614820 0.000000 0.000000 
#    y 0.000000 2.966640 0.000000 
#    z 0.000000 0.000000 3.269280 
# 
# 
# High freq. dielectric constant tensor:
#      x y z
#    x 1.696770 0.000000 0.000000 
#    y 0.000000 1.636310 0.000000 
#    z 0.000000 0.000000 1.663810 
# 
# From -- ./inp_files/3850.got.cif
#   From: 2010.03.12/outbox.cif.g09.slc.cpg/sg49_2_cif.got.tgz:3850.got - 2010.04.14 03:58:27.
