data_PCOD8203303
_publ_section_title
;
Structure prediction by ZEFSAII (Michael W. Deem and Ramdas Pophale) SiO2 
 PCOD8203303
Probable space group: P C C M
;
_chemical_formula_sum "Si O2"
_cell_formula_units_Z 64
_cell_length_a 20.465484
_cell_length_b 19.744018
_cell_length_c 8.847378
_cell_angle_alpha 90.000000
_cell_angle_beta 90.000000
_cell_angle_gamma 90.000000
_cell_volume 3574.967854
_symmetry_space_group_name_H-M "P C C M"
_symmetry_group_IT_number 49
_symmetry_cell_setting 'orthorhombic'
loop_
_space_group_symop_operation_xyz
x,y,z
-x,-y,z
x,-y,1/2-z
-x,y,1/2-z
-x,-y,-z
x,y,-z
-x,y,1/2+z
x,-y,1/2+z
loop_
_atom_site_type_symbol
_atom_site_label
_atom_site_fract_x
_atom_site_fract_y
_atom_site_fract_z
Si Si1 0.378984 0.206264 0.320906
Si Si2 0.312665 0.573132 0.322037
Si Si3 0.433951 0.336262 0.179749
Si Si4 0.618277 0.933375 0.169733
Si Si5 0.226189 0.935568 0.665533
Si Si6 0.818315 0.350596 0.325061
Si Si7 0.068715 0.428788 0.679117
Si Si8 0.240738 0.790280 0.676964
O O1 0.384670 0.208741 0.500000
O O2 0.426333 0.261319 0.247057
O O3 0.402285 0.132795 0.263482
O O4 0.305457 0.224120 0.271853
O O5 0.315400 0.500000 0.250000
O O6 0.314490 0.564909 0.500000
O O7 0.374262 0.616674 0.265801
O O8 0.246816 0.611013 0.271034
O O9 0.500000 0.367900 0.250000
O O10 0.438275 0.332491 0.000000
O O11 0.696009 0.939765 0.165448
O O12 0.588473 0.000000 0.250000
O O13 0.590246 0.928209 0.000000
O O14 0.196287 0.941298 0.500000
O O15 0.207518 0.861198 0.732574
O O16 0.195144 0.000000 0.750000
O O17 0.833708 0.366796 0.500000
O O18 0.877929 0.372739 0.219986
O O19 0.810036 0.270338 0.299060
O O20 0.091521 0.500000 0.750000
O O21 0.061706 0.436180 0.500000
O O22 0.000000 0.405985 0.750000
O O23 0.261409 0.796450 0.500000
#
# Coordination Sequence:
#
# PCOD8203303 Si02
#       8
#     8   8   8   8   8   8   8   8
#     4  11  20  31  50  75 101 133 171 213 260 316
#     4  10  22  38  58  79 105 134 168 211 265 319
#     4  11  23  41  58  76  99 132 171 217 269 321
#     4   9  16  27  44  68  98 131 167 210 256 308
#     4   8  14  23  38  61  93 133 169 206 250 299
#     4  10  19  35  56  80 109 143 177 219 266 312
#     4  11  22  37  56  80 109 145 183 220 259 309
#     4   9  17  31  49  70 102 140 175 214 264 310
#
# _framework density 17.902259999999998
#
# number of rings (size 3 to 8) (size 9 to 14) (size 15 to 20)
#    0.000    2.125    1.250    4.500    0.000    6.250 
#    0.000    1.250    0.000    0.375    0.000    2.625 
#    0.000    0.500    0.000    5.750    0.000    1.875 
#
# Total GULP energy -793512.969538 kJ/mol
# GULP energy per Si atom -12398.640149 kJ/mol
# Density = 1.786151 g / cm^3
# Si number density = 17.902260 Si / 1000 Ang^3
#
#
#
# Elastic Constant Matrix: (Units=GPa)
#
#
# Indices 1 2 3 4 5 6 
#
# 1 75.8862 49.2797 35.1337 0.0000 0.0000 0.0000
# 2 49.2797 135.3110 44.4976 0.0000 0.0000 0.0000
# 3 35.1337 44.4976 96.9720 0.0000 0.0000 0.0000
# 4 0.0000 0.0000 0.0000 32.2300 0.0000 0.0000
# 5 0.0000 0.0000 0.0000 0.0000 22.2003 0.0000
# 6 0.0000 0.0000 0.0000 0.0000 0.0000 17.1371
#
#
#
# Elastic Compliance Matrix: (Units=1/GPa)
#
#
# Indices 1 2 3 4 5 6 
#
# 1 0.018661 -0.005386 -0.004290 0.000000 0.000000 0.000000
# 2 -0.005386 0.010258 -0.002756 0.000000 0.000000 0.000000
# 3 -0.004290 -0.002756 0.013131 0.000000 0.000000 0.000000
# 4 0.000000 0.000000 0.000000 0.031027 0.000000 0.000000
# 5 0.000000 0.000000 0.000000 0.000000 0.045044 0.000000
# 6 0.000000 0.000000 0.000000 0.000000 0.000000 0.058353
#
#
# Mechanical properties :
#
#
# Convention : Reuss Voigt Hill
#
# Bulk Modulus (GPa) = 58.18103 62.88791 60.53447
# Shear Modulus (GPa) = 24.14685 26.26401 25.20543
#
# Velocity S-wave (km/s) = 3.67661 3.83440 3.75633
# Velocity P-wave (km/s) = 7.11288 7.40326 7.25952
#
# Compressibility (1/GPa) = 0.01718773
#
# Stress axis : x y z
#
# Youngs Moduli (GPa) = 53.58760 97.48419 76.15530
#
# Poissons Ratio (x) = 0.52501 0.32669
# Poissons Ratio (y) = 0.28860 0.20988
# Poissons Ratio (z) = 0.22988 0.26866
#
# Static dielectric constant tensor:
#      x y z
#    x 2.962290 0.000000 0.000000 
#    y 0.000000 3.498670 0.000000 
#    z 0.000000 0.000000 3.350760 
# 
# 
# High freq. dielectric constant tensor:
#      x y z
#    x 1.645010 0.000000 0.000000 
#    y 0.000000 1.706640 0.000000 
#    z 0.000000 0.000000 1.695910 
# 
# From -- ./inp_files/6047.got.cif
#   From: 2010.03.12/outbox.cif.g09.slc.cpg/sg49_4_cif.got.tgz:6047.got - 2010.04.14 03:58:27.
