data_PCOD8203149
_publ_section_title
;
Structure prediction by ZEFSAII (Michael W. Deem and Ramdas Pophale) SiO2 
 PCOD8203149
Probable space group: P C C M
;
_chemical_formula_sum "Si O2"
_cell_formula_units_Z 64
_cell_length_a 15.264165
_cell_length_b 24.833374
_cell_length_c 8.796447
_cell_angle_alpha 90.000000
_cell_angle_beta 90.000000
_cell_angle_gamma 90.000000
_cell_volume 3334.387518
_symmetry_space_group_name_H-M "P C C M"
_symmetry_group_IT_number 49
_symmetry_cell_setting 'orthorhombic'
loop_
_space_group_symop_operation_xyz
x,y,z
-x,-y,z
x,-y,1/2-z
-x,y,1/2-z
-x,-y,-z
x,y,-z
-x,y,1/2+z
x,-y,1/2+z
loop_
_atom_site_type_symbol
_atom_site_label
_atom_site_fract_x
_atom_site_fract_y
_atom_site_fract_z
Si Si1 0.768854 0.943677 0.179853
Si Si2 0.232906 0.353922 0.320669
Si Si3 0.823004 0.761961 0.670915
Si Si4 0.588976 0.671929 0.180262
Si Si5 0.090361 0.857343 0.321629
Si Si6 0.091135 0.557462 0.820113
Si Si7 0.413809 0.103332 0.819921
Si Si8 0.625152 0.785268 0.673404
O O1 0.834632 0.897596 0.238552
O O2 0.671331 0.928985 0.236820
O O3 0.798699 0.000000 0.250000
O O4 0.772101 0.948107 0.000000
O O5 0.251471 0.350039 0.500000
O O6 0.185472 0.298941 0.266074
O O7 0.326331 0.361416 0.238312
O O8 0.169787 0.402791 0.275822
O O9 0.860784 0.761521 0.500000
O O10 0.888962 0.795911 0.774599
O O11 0.729378 0.790641 0.676555
O O12 0.500000 0.646037 0.250000
O O13 0.594066 0.733263 0.235194
O O14 0.585455 0.668883 0.000000
O O15 0.081728 0.859924 0.500000
O O16 0.000000 0.877045 0.250000
O O17 0.115550 0.500000 0.750000
O O18 0.000000 0.579150 0.750000
O O19 0.079784 0.552411 0.000000
O O20 0.500000 0.074301 0.750000
O O21 0.414380 0.163662 0.756786
O O22 0.418732 0.104924 0.000000
O O23 0.590886 0.781512 0.500000
#
# Coordination Sequence:
#
# PCOD8203149 Si02
#       8
#     8   8   8   8   8   8   8   8
#     4  10  24  43  62  81 108 140 180 229 278 334
#     4   9  20  37  56  84 119 154 195 239 285 337
#     4   9  18  34  56  82 113 148 183 222 275 331
#     4  11  21  33  52  79 115 156 195 237 282 334
#     4  11  23  40  60  85 112 142 180 225 276 334
#     4  10  20  36  59  85 118 154 196 247 291 343
#     4  11  22  37  56  83 112 142 182 225 273 331
#     4  10  19  33  54  80 111 148 186 226 273 328
#
# _framework density 19.193929000000001
#
# number of rings (size 3 to 8) (size 9 to 14) (size 15 to 20)
#    0.000    1.875    1.250    4.125    0.000    6.000 
#    0.000    3.750    0.000    0.375    0.000    2.625 
#    0.000    0.000    0.000    0.000    0.000    0.000 
#
# Total GULP energy -793708.005854 kJ/mol
# GULP energy per Si atom -12401.687591 kJ/mol
# Density = 1.915024 g / cm^3
# Si number density = 19.193929 Si / 1000 Ang^3
#
#
#
# Elastic Constant Matrix: (Units=GPa)
#
#
# Indices 1 2 3 4 5 6 
#
# 1 142.9282 64.9287 59.2591 0.0000 0.0000 0.0000
# 2 64.9287 88.7373 38.0138 0.0000 0.0000 0.0000
# 3 59.2591 38.0138 94.6143 0.0000 0.0000 0.0000
# 4 0.0000 0.0000 0.0000 26.3028 0.0000 0.0000
# 5 0.0000 0.0000 0.0000 0.0000 33.6745 0.0000
# 6 0.0000 0.0000 0.0000 0.0000 0.0000 15.5211
#
#
#
# Elastic Compliance Matrix: (Units=1/GPa)
#
#
# Indices 1 2 3 4 5 6 
#
# 1 0.012078 -0.006760 -0.004848 0.000000 0.000000 0.000000
# 2 -0.006760 0.017396 -0.002755 0.000000 0.000000 0.000000
# 3 -0.004848 -0.002755 0.014713 0.000000 0.000000 0.000000
# 4 0.000000 0.000000 0.000000 0.038019 0.000000 0.000000
# 5 0.000000 0.000000 0.000000 0.000000 0.029696 0.000000
# 6 0.000000 0.000000 0.000000 0.000000 0.000000 0.064428
#
#
# Mechanical properties :
#
#
# Convention : Reuss Voigt Hill
#
# Bulk Modulus (GPa) = 64.68805 72.29811 68.49308
# Shear Modulus (GPa) = 23.78569 26.03823 24.91196
#
# Velocity S-wave (km/s) = 3.52409 3.68718 3.60656
# Velocity P-wave (km/s) = 7.09468 7.47503 7.28733
#
# Compressibility (1/GPa) = 0.01545881
#
# Stress axis : x y z
#
# Youngs Moduli (GPa) = 82.79713 57.48482 67.96758
#
# Poissons Ratio (x) = 0.38861 0.32954
# Poissons Ratio (y) = 0.55972 0.18726
# Poissons Ratio (z) = 0.40144 0.15838
#
# Static dielectric constant tensor:
#      x y z
#    x 3.763950 0.000000 0.000000 
#    y 0.000000 3.331750 0.000000 
#    z 0.000000 0.000000 3.465610 
# 
# 
# High freq. dielectric constant tensor:
#      x y z
#    x 1.757420 0.000000 0.000000 
#    y 0.000000 1.722500 0.000000 
#    z 0.000000 0.000000 1.750150 
# 
# From -- ./inp_files/4334.got.cif
#   From: 2010.03.12/outbox.cif.g09.slc.cpg/sg49_3_cif.got.tgz:4334.got - 2010.04.14 03:58:27.
