data_PCOD8203361
_publ_section_title
;
Structure prediction by ZEFSAII (Michael W. Deem and Ramdas Pophale) SiO2 
 PCOD8203361
Probable space group: P C C M
;
_chemical_formula_sum "Si O2"
_cell_formula_units_Z 48
_cell_length_a 14.436995
_cell_length_b 20.382966
_cell_length_c 8.684579
_cell_angle_alpha 90.000000
_cell_angle_beta 90.000000
_cell_angle_gamma 90.000000
_cell_volume 2555.600452
_symmetry_space_group_name_H-M "P C C M"
_symmetry_group_IT_number 49
_symmetry_cell_setting 'orthorhombic'
loop_
_space_group_symop_operation_xyz
x,y,z
-x,-y,z
x,-y,1/2-z
-x,y,1/2-z
-x,-y,-z
x,y,-z
-x,y,1/2+z
x,-y,1/2+z
loop_
_atom_site_type_symbol
_atom_site_label
_atom_site_fract_x
_atom_site_fract_y
_atom_site_fract_z
Si Si1 0.596143 0.384895 0.816972
Si Si2 0.211776 0.182643 0.679623
Si Si3 0.216807 0.567554 0.682490
Si Si4 0.406280 0.764610 0.180542
Si Si5 0.898968 0.314230 0.818945
Si Si6 0.902118 0.930567 0.819170
O O1 0.500000 0.413201 0.750000
O O2 0.679037 0.425847 0.744261
O O3 0.608054 0.309719 0.761294
O O4 0.598816 0.391962 0.000000
O O5 0.202686 0.165319 0.500000
O O6 0.318348 0.192208 0.730368
O O7 0.156199 0.248247 0.719230
O O8 0.174857 0.122891 0.780285
O O9 0.175416 0.500000 0.750000
O O10 0.216675 0.565450 0.500000
O O11 0.152230 0.625913 0.739090
O O12 0.500000 0.795653 0.250000
O O13 0.417077 0.763978 0.000000
O O14 0.000000 0.306136 0.750000
O O15 0.903469 0.327636 0.000000
O O16 0.000000 0.907378 0.750000
O O17 0.870725 0.000000 0.750000
O O18 0.913417 0.938079 0.000000
#
# Coordination Sequence:
#
# PCOD8203361 Si02
#       6
#     8   8   8   8   8   8
#     4  10  19  36  58  85 115 148 186 233 288 344
#     4  10  20  37  60  87 120 154 189 234 283 333
#     4  12  25  41  60  82 110 149 191 238 292 349
#     4   9  18  33  55  84 117 151 185 230 280 333
#     4  11  23  41  61  85 115 147 189 238 288 342
#     4  11  22  37  58  86 120 158 196 236 283 338
#
# _framework density 18.782278999999999
#
# number of rings (size 3 to 8) (size 9 to 14) (size 15 to 20)
#    0.000    1.500    1.667    5.000    0.000    4.667 
#    0.000    3.333    0.000    0.500    0.000    3.500 
#    0.000    0.000    0.000    0.000    0.000    0.000 
#
# Total GULP energy -595397.889455 kJ/mol
# GULP energy per Si atom -12404.122697 kJ/mol
# Density = 1.873953 g / cm^3
# Si number density = 18.782279 Si / 1000 Ang^3
#
#
#
# Elastic Constant Matrix: (Units=GPa)
#
#
# Indices 1 2 3 4 5 6 
#
# 1 128.3670 52.5645 53.9572 0.0000 0.0000 0.0000
# 2 52.5645 95.1677 52.0855 0.0000 0.0000 0.0000
# 3 53.9572 52.0855 120.3439 0.0000 0.0000 0.0000
# 4 0.0000 0.0000 0.0000 29.2728 0.0000 0.0000
# 5 0.0000 0.0000 0.0000 0.0000 36.2221 0.0000
# 6 0.0000 0.0000 0.0000 0.0000 0.0000 29.4558
#
#
#
# Elastic Compliance Matrix: (Units=1/GPa)
#
#
# Indices 1 2 3 4 5 6 
#
# 1 0.010820 -0.004352 -0.002968 0.000000 0.000000 0.000000
# 2 -0.004352 0.015520 -0.004766 0.000000 0.000000 0.000000
# 3 -0.002968 -0.004766 0.011703 0.000000 0.000000 0.000000
# 4 0.000000 0.000000 0.000000 0.034161 0.000000 0.000000
# 5 0.000000 0.000000 0.000000 0.000000 0.027607 0.000000
# 6 0.000000 0.000000 0.000000 0.000000 0.000000 0.033949
#
#
# Mechanical properties :
#
#
# Convention : Reuss Voigt Hill
#
# Bulk Modulus (GPa) = 72.08989 73.45478 72.77234
# Shear Modulus (GPa) = 30.75892 31.34158 31.05025
#
# Velocity S-wave (km/s) = 4.05119 4.08938 4.07033
# Velocity P-wave (km/s) = 7.76840 7.84161 7.80509
#
# Compressibility (1/GPa) = 0.01387157
#
# Stress axis : x y z
#
# Youngs Moduli (GPa) = 92.42527 64.43370 85.45023
#
# Poissons Ratio (x) = 0.28041 0.25358
# Poissons Ratio (y) = 0.40222 0.40724
# Poissons Ratio (z) = 0.27427 0.30708
#
# Static dielectric constant tensor:
#      x y z
#    x 3.636090 0.000000 0.000000 
#    y 0.000000 3.373620 0.000000 
#    z 0.000000 0.000000 3.497220 
# 
# 
# High freq. dielectric constant tensor:
#      x y z
#    x 1.735750 0.000000 0.000000 
#    y 0.000000 1.717580 0.000000 
#    z 0.000000 0.000000 1.738830 
# 
# From -- ./inp_files/3688.got.cif
#   From: 2010.03.12/outbox.cif.g09.slc.cpg/sg49_2_cif.got.tgz:3688.got - 2010.04.14 03:58:27.
