data_PCOD8203063
_publ_section_title
;
Structure prediction by ZEFSAII (Michael W. Deem and Ramdas Pophale) SiO2 
 PCOD8203063
Probable space group: P C C M
;
_chemical_formula_sum "Si O2"
_cell_formula_units_Z 60
_cell_length_a 28.379932
_cell_length_b 5.400228
_cell_length_c 19.187767
_cell_angle_alpha 90.000000
_cell_angle_beta 90.000000
_cell_angle_gamma 90.000000
_cell_volume 2940.680779
_symmetry_space_group_name_H-M "P C C M"
_symmetry_group_IT_number 49
_symmetry_cell_setting 'orthorhombic'
loop_
_space_group_symop_operation_xyz
x,y,z
-x,-y,z
x,-y,1/2-z
-x,y,1/2-z
-x,-y,-z
x,y,-z
-x,y,1/2+z
x,-y,1/2+z
loop_
_atom_site_type_symbol
_atom_site_label
_atom_site_fract_x
_atom_site_fract_y
_atom_site_fract_z
Si Si1 0.154660 0.033677 0.170685
Si Si2 0.552870 0.997854 0.832603
Si Si3 0.000000 0.000000 0.875831
Si Si4 0.088527 0.758465 0.922060
Si Si5 0.244124 0.933269 0.420755
Si Si6 0.935990 0.632760 0.822575
Si Si7 0.301563 0.572411 0.079583
Si Si8 0.394605 0.494422 0.667042
O O1 0.199848 0.119963 0.128163
O O2 0.112591 0.223976 0.169740
O O3 0.171262 0.000000 0.250000
O O4 0.132870 0.796474 0.130194
O O5 0.576372 0.253439 0.858100
O O6 0.500000 0.000000 0.863349
O O7 0.551123 0.000000 0.750000
O O8 0.580278 0.749897 0.858316
O O9 0.985019 0.783275 0.822416
O O10 0.047303 0.966349 0.922198
O O11 0.060449 0.526656 0.892604
O O12 0.108046 0.720329 0.000000
O O13 0.226838 0.971277 0.500000
O O14 0.273547 0.682871 0.413892
O O15 0.272172 0.182361 0.397062
O O16 0.932629 0.500000 0.750000
O O17 0.344517 0.536246 0.131491
O O18 0.318899 0.611131 0.000000
O O19 0.387825 0.500000 0.750000
#
# Coordination Sequence:
#
# PCOD8203063 Si02
#       8
#     8   8   4   8   8   8   8   8
#     4  11  24  43  64  91 123 155 197 251 307 369
#     4   9  17  30  51  82 118 158 204 257 309 360
#     4  10  25  41  62  94 124 156 208 244 292 356
#     4  11  24  42  65  91 124 160 199 244 296 358
#     4  10  23  41  64  91 119 158 207 250 308 379
#     4  11  24  43  64  92 126 161 202 244 307 364
#     4  10  22  40  60  87 122 160 201 252 313 375
#     4  10  19  32  55  83 116 155 206 256 306 365
#
# _framework density 20.403438000000001
#
# number of rings (size 3 to 8) (size 9 to 14) (size 15 to 20)
#    0.000    1.733    1.333    2.200    1.867    8.000 
#    0.000    0.000    0.000    2.400    0.000    0.000 
#    0.000    0.000    0.000    0.000    0.000    0.000 
#
# Total GULP energy -743432.621203 kJ/mol
# GULP energy per Si atom -12390.543687 kJ/mol
# Density = 2.035700 g / cm^3
# Si number density = 20.403438 Si / 1000 Ang^3
#
#
#
# Elastic Constant Matrix: (Units=GPa)
#
#
# Indices 1 2 3 4 5 6 
#
# 1 89.8374 28.5288 53.9037 0.0000 0.0000 0.0000
# 2 28.5288 126.3690 36.6808 0.0000 0.0000 0.0000
# 3 53.9037 36.6808 111.9253 0.0000 0.0000 0.0000
# 4 0.0000 0.0000 0.0000 19.4614 0.0000 0.0000
# 5 0.0000 0.0000 0.0000 0.0000 19.0710 0.0000
# 6 0.0000 0.0000 0.0000 0.0000 0.0000 24.9945
#
#
#
# Elastic Compliance Matrix: (Units=1/GPa)
#
#
# Indices 1 2 3 4 5 6 
#
# 1 0.015912 -0.001512 -0.007168 0.000000 0.000000 0.000000
# 2 -0.001512 0.008889 -0.002185 0.000000 0.000000 0.000000
# 3 -0.007168 -0.002185 0.013103 0.000000 0.000000 0.000000
# 4 0.000000 0.000000 0.000000 0.051384 0.000000 0.000000
# 5 0.000000 0.000000 0.000000 0.000000 0.052436 0.000000
# 6 0.000000 0.000000 0.000000 0.000000 0.000000 0.040009
#
#
# Mechanical properties :
#
#
# Convention : Reuss Voigt Hill
#
# Bulk Modulus (GPa) = 61.82624 62.92870 62.37747
# Shear Modulus (GPa) = 23.94031 26.63994 25.29012
#
# Velocity S-wave (km/s) = 3.42913 3.61731 3.52448
# Velocity P-wave (km/s) = 6.78574 6.95383 6.87030
#
# Compressibility (1/GPa) = 0.01617436
#
# Stress axis : x y z
#
# Youngs Moduli (GPa) = 62.84513 112.50034 76.31986
#
# Poissons Ratio (x) = 0.17006 0.54706
# Poissons Ratio (y) = 0.09500 0.16677
# Poissons Ratio (z) = 0.45047 0.24582
#
# Static dielectric constant tensor:
#      x y z
#    x 3.673200 0.000000 0.000000 
#    y 0.000000 4.149910 0.000000 
#    z 0.000000 0.000000 3.589880 
# 
# 
# High freq. dielectric constant tensor:
#      x y z
#    x 1.796660 0.000000 0.000000 
#    y 0.000000 1.813570 0.000000 
#    z 0.000000 0.000000 1.780780 
# 
# From -- ./inp_files/21246.got.cif
#   From: 2010.03.12/outbox.cif.g09.slc.cpg/sg49_11_cif.got.tgz:21246.got - 2010.04.14 03:58:27.
