data_PCOD8203727
_publ_section_title
;
Structure prediction by ZEFSAII (Michael W. Deem and Ramdas Pophale) SiO2 
 PCOD8203727
Probable space group: P C C M
;
_chemical_formula_sum "Si O2"
_cell_formula_units_Z 52
_cell_length_a 17.485338
_cell_length_b 5.391479
_cell_length_c 30.295416
_cell_angle_alpha 90.000000
_cell_angle_beta 90.000000
_cell_angle_gamma 90.000000
_cell_volume 2856.004387
_symmetry_space_group_name_H-M "P C C M"
_symmetry_group_IT_number 49
_symmetry_cell_setting 'orthorhombic'
loop_
_space_group_symop_operation_xyz
x,y,z
-x,-y,z
x,-y,1/2-z
-x,y,1/2-z
-x,-y,-z
x,y,-z
-x,y,1/2+z
x,-y,1/2+z
loop_
_atom_site_type_symbol
_atom_site_label
_atom_site_fract_x
_atom_site_fract_y
_atom_site_fract_z
Si Si1 0.157682 0.000000 0.750000
Si Si2 0.923085 0.626444 0.303884
Si Si3 0.190559 0.762302 0.663304
Si Si4 0.790287 0.245313 0.948867
Si Si5 0.453969 0.751130 0.448783
Si Si6 0.287806 0.742568 0.584386
Si Si7 0.079626 0.918005 0.890094
O O1 0.101310 0.771883 0.759700
O O2 0.205997 0.948100 0.704999
O O3 0.846310 0.482267 0.317172
O O4 0.947721 0.785781 0.345745
O O5 0.000000 0.500000 0.288684
O O6 0.269392 0.717430 0.636976
O O7 0.132693 0.855668 0.625302
O O8 0.745708 0.501769 0.940477
O O9 0.871251 0.254332 0.922993
O O10 0.741593 0.003782 0.935170
O O11 0.809715 0.224851 0.000000
O O12 0.500000 0.500000 0.438469
O O13 0.430164 0.761625 0.500000
O O14 0.378654 0.741468 0.419199
O O15 0.500000 0.000000 0.435857
O O16 0.000000 0.000000 0.913820
#
# Coordination Sequence:
#
# PCOD8203727 Si02
#       7
#     4   8   8   8   8   8   8
#     4  10  24  35  50  84 107 138 194 240 291 350
#     4  11  20  36  53  74 108 146 187 243 298 350
#     4  10  21  36  54  75 110 146 186 233 288 343
#     4  11  22  36  57  82 110 153 201 238 278 332
#     4  10  20  35  58  90 122 148 178 223 276 335
#     4  11  22  39  60  84 119 154 186 228 284 346
#     4  10  20  35  51  72 106 147 194 243 293 331
#
# _framework density 18.207256000000001
#
# number of rings (size 3 to 8) (size 9 to 14) (size 15 to 20)
#    0.000    1.538    3.077    2.769    0.000    3.385 
#    0.000    0.000    0.000    3.231    0.000    0.538 
#    0.000    0.000    0.000    0.000    0.000    0.000 
#
# Total GULP energy -644460.099300 kJ/mol
# GULP energy per Si atom -12393.463448 kJ/mol
# Density = 1.816582 g / cm^3
# Si number density = 18.207256 Si / 1000 Ang^3
#
#
#
# Elastic Constant Matrix: (Units=GPa)
#
#
# Indices 1 2 3 4 5 6 
#
# 1 127.9752 40.4639 56.5620 0.0000 0.0000 0.0000
# 2 40.4639 105.8509 29.0977 0.0000 0.0000 0.0000
# 3 56.5620 29.0977 107.1977 0.0000 0.0000 0.0000
# 4 0.0000 0.0000 0.0000 23.6189 0.0000 0.0000
# 5 0.0000 0.0000 0.0000 0.0000 12.3124 0.0000
# 6 0.0000 0.0000 0.0000 0.0000 0.0000 24.9219
#
#
#
# Elastic Compliance Matrix: (Units=1/GPa)
#
#
# Indices 1 2 3 4 5 6 
#
# 1 0.010906 -0.002796 -0.004996 0.000000 0.000000 0.000000
# 2 -0.002796 0.010926 -0.001491 0.000000 0.000000 0.000000
# 3 -0.004996 -0.001491 0.012369 0.000000 0.000000 0.000000
# 4 0.000000 0.000000 0.000000 0.042339 0.000000 0.000000
# 5 0.000000 0.000000 0.000000 0.000000 0.081219 0.000000
# 6 0.000000 0.000000 0.000000 0.000000 0.000000 0.040125
#
#
# Mechanical properties :
#
#
# Convention : Reuss Voigt Hill
#
# Bulk Modulus (GPa) = 63.95089 65.91898 64.93494
# Shear Modulus (GPa) = 22.55710 26.49732 24.52721
#
# Velocity S-wave (km/s) = 3.52363 3.81900 3.67428
# Velocity P-wave (km/s) = 7.19408 7.46523 7.33091
#
# Compressibility (1/GPa) = 0.01563700
#
# Stress axis : x y z
#
# Youngs Moduli (GPa) = 91.69348 91.52701 80.84739
#
# Poissons Ratio (x) = 0.25589 0.40387
# Poissons Ratio (y) = 0.25636 0.12050
# Poissons Ratio (z) = 0.45806 0.13642
#
# Static dielectric constant tensor:
#      x y z
#    x 3.212850 0.000000 0.000000 
#    y 0.000000 3.667270 0.000000 
#    z 0.000000 0.000000 3.497690 
# 
# 
# High freq. dielectric constant tensor:
#      x y z
#    x 1.673500 0.000000 0.000000 
#    y 0.000000 1.725170 0.000000 
#    z 0.000000 0.000000 1.703520 
# 
# From -- ./inp_files/25145.got.cif
#   From: 2010.03.12/outbox.cif.g09.slc.cpg/sg49_13_cif.got.tgz:25145.got - 2010.04.14 03:58:27.
