data_PCOD8203729
_publ_section_title
;
Structure prediction by ZEFSAII (Michael W. Deem and Ramdas Pophale) SiO2 
 PCOD8203729
Probable space group: P C C M
;
_chemical_formula_sum "Si O2"
_cell_formula_units_Z 44
_cell_length_a 4.932895
_cell_length_b 14.889367
_cell_length_c 30.365513
_cell_angle_alpha 90.000000
_cell_angle_beta 90.000000
_cell_angle_gamma 90.000000
_cell_volume 2230.276604
_symmetry_space_group_name_H-M "P C C M"
_symmetry_group_IT_number 49
_symmetry_cell_setting 'orthorhombic'
loop_
_space_group_symop_operation_xyz
x,y,z
-x,-y,z
x,-y,1/2-z
-x,y,1/2-z
-x,-y,-z
x,y,-z
-x,y,1/2+z
x,-y,1/2+z
loop_
_atom_site_type_symbol
_atom_site_label
_atom_site_fract_x
_atom_site_fract_y
_atom_site_fract_z
Si Si1 0.201562 0.269053 0.500000
Si Si2 0.531589 0.317502 0.121110
Si Si3 0.973539 0.219362 0.410748
Si Si4 0.042239 0.895819 0.832800
Si Si5 0.500000 0.500000 0.423231
Si Si6 0.445195 0.794446 0.700327
Si Si7 0.723224 0.395068 0.500000
O O1 0.503222 0.312000 0.500000
O O2 0.119646 0.207704 0.458115
O O3 0.023236 0.357893 0.500000
O O4 0.321891 0.268003 0.086806
O O5 0.583023 0.421259 0.110046
O O6 0.433032 0.296784 0.170851
O O7 0.834054 0.280772 0.118721
O O8 0.961949 0.125088 0.384218
O O9 0.346460 0.866815 0.820378
O O10 0.846090 0.841399 0.800318
O O11 0.000000 0.000000 0.824378
O O12 0.720060 0.457382 0.456477
O O13 0.500000 0.765053 0.750000
#
# Coordination Sequence:
#
# PCOD8203729 Si02
#       7
#     4   8   8   8   4   8   4
#     4  12  18  37  49  78 102 146 174 214 257 305
#     4  10  21  35  51  74 108 141 171 213 264 310
#     4  10  20  35  51  74 108 142 171 209 263 310
#     4  10  21  36  57  82 107 134 169 216 265 315
#     4  11  20  36  49  82 106 140 175 224 258 295
#     4  10  21  37  57  80 106 136 171 214 265 317
#     4  11  24  28  54  78 109 126 189 226 250 294
#
# _framework density 19.728494000000001
#
# number of rings (size 3 to 8) (size 9 to 14) (size 15 to 20)
#    0.000    1.636    3.636    1.091    0.000    5.818 
#    0.000    0.909    0.000    0.000    0.000   16.545 
#    0.000    0.000    0.000    0.000    0.000    0.000 
#
# Total GULP energy -545091.332804 kJ/mol
# GULP energy per Si atom -12388.439382 kJ/mol
# Density = 1.968359 g / cm^3
# Si number density = 19.728494 Si / 1000 Ang^3
#
#
#
# Elastic Constant Matrix: (Units=GPa)
#
#
# Indices 1 2 3 4 5 6 
#
# 1 61.3711 0.4240 -0.7834 0.0000 0.0000 0.0000
# 2 0.4240 62.9840 43.2427 0.0000 0.0000 0.0000
# 3 -0.7834 43.2427 132.5837 0.0000 0.0000 0.0000
# 4 0.0000 0.0000 0.0000 16.0731 0.0000 0.0000
# 5 0.0000 0.0000 0.0000 0.0000 22.5303 0.0000
# 6 0.0000 0.0000 0.0000 0.0000 0.0000 17.4962
#
#
#
# Elastic Compliance Matrix: (Units=1/GPa)
#
#
# Indices 1 2 3 4 5 6 
#
# 1 0.016298 -0.000227 0.000170 0.000000 0.000000 0.000000
# 2 -0.000227 0.020461 -0.006675 0.000000 0.000000 0.000000
# 3 0.000170 -0.006675 0.009720 0.000000 0.000000 0.000000
# 4 0.000000 0.000000 0.000000 0.062216 0.000000 0.000000
# 5 0.000000 0.000000 0.000000 0.000000 0.044385 0.000000
# 6 0.000000 0.000000 0.000000 0.000000 0.000000 0.057155
#
#
# Mechanical properties :
#
#
# Convention : Reuss Voigt Hill
#
# Bulk Modulus (GPa) = 30.28715 38.07840 34.18277
# Shear Modulus (GPa) = 21.30345 25.49028 23.39687
#
# Velocity S-wave (km/s) = 3.28964 3.59841 3.44749
# Velocity P-wave (km/s) = 5.46025 6.05045 5.76291
#
# Compressibility (1/GPa) = 0.03301730
#
# Stress axis : x y z
#
# Youngs Moduli (GPa) = 61.35705 48.87271 102.87592
#
# Poissons Ratio (x) = 0.01107 -0.01751
# Poissons Ratio (y) = 0.01390 0.68668
# Poissons Ratio (z) = -0.01044 0.32622
#
# Static dielectric constant tensor:
#      x y z
#    x 3.676310 0.000000 0.000000 
#    y 0.000000 3.432860 0.000000 
#    z 0.000000 0.000000 3.716800 
# 
# 
# High freq. dielectric constant tensor:
#      x y z
#    x 1.783160 0.000000 0.000000 
#    y 0.000000 1.732700 0.000000 
#    z 0.000000 0.000000 1.766620 
# 
# From -- ./inp_files/23911.got.cif
#   From: 2010.03.12/outbox.cif.g09.slc.cpg/sg49_12_cif.got.tgz:23911.got - 2010.04.14 03:58:27.
