data_PCOD8203956
_publ_section_title
;
Structure prediction by ZEFSAII (Michael W. Deem and Ramdas Pophale) SiO2 
 PCOD8203956
Probable space group: P C C M
;
_chemical_formula_sum "Si O2"
_cell_formula_units_Z 64
_cell_length_a 15.365001
_cell_length_b 12.250589
_cell_length_c 16.109195
_cell_angle_alpha 90.000000
_cell_angle_beta 90.000000
_cell_angle_gamma 90.000000
_cell_volume 3032.238805
_symmetry_space_group_name_H-M "P C C M"
_symmetry_group_IT_number 49
_symmetry_cell_setting 'orthorhombic'
loop_
_space_group_symop_operation_xyz
x,y,z
-x,-y,z
x,-y,1/2-z
-x,y,1/2-z
-x,-y,-z
x,y,-z
-x,y,1/2+z
x,-y,1/2+z
loop_
_atom_site_type_symbol
_atom_site_label
_atom_site_fract_x
_atom_site_fract_y
_atom_site_fract_z
Si Si1 0.407150 0.541324 0.156570
Si Si2 0.633137 0.798875 0.904933
Si Si3 0.136662 0.966529 0.901677
Si Si4 0.678009 0.028049 0.156496
Si Si5 0.066313 0.408772 0.099215
Si Si6 0.973615 0.168628 0.401904
Si Si7 0.740950 0.602104 0.095351
Si Si8 0.561175 0.773884 0.598593
O O1 0.500000 0.500000 0.119933
O O2 0.396384 0.500000 0.250000
O O3 0.326924 0.496309 0.103420
O O4 0.400242 0.671481 0.148778
O O5 0.698536 0.710886 0.862098
O O6 0.536548 0.790963 0.866872
O O7 0.669591 0.920004 0.898520
O O8 0.624991 0.764970 0.000000
O O9 0.222719 0.933042 0.851562
O O10 0.064009 0.881707 0.869359
O O11 0.106739 0.089491 0.877475
O O12 0.152819 0.956042 0.000000
O O13 0.614852 0.119324 0.121136
O O14 0.652016 0.000000 0.250000
O O15 0.038437 0.289946 0.134088
O O16 0.164718 0.429703 0.133469
O O17 0.000000 0.500000 0.135448
O O18 0.062479 0.411991 0.000000
O O19 0.978598 0.172474 0.500000
O O20 0.759600 0.628465 0.000000
O O21 0.565435 0.753392 0.500000
#
# Coordination Sequence:
#
# PCOD8203956 Si02
#       8
#     8   8   8   8   8   8   8   8
#     4  11  24  40  63  89 126 164 206 257 315 371
#     4  10  21  39  63  86 116 157 206 252 298 365
#     4   9  17  34  58  82 109 149 202 250 299 360
#     4  12  26  37  56  88 129 162 197 249 315 380
#     4   9  17  29  50  85 120 146 188 250 310 364
#     4   8  15  30  55  81 108 146 195 252 300 353
#     4  10  20  36  63  91 116 158 207 254 306 369
#     4  11  24  42  64  89 120 162 212 260 306 362
#
# _framework density 21.106515999999999
#
# number of rings (size 3 to 8) (size 9 to 14) (size 15 to 20)
#    0.000    2.000    1.250    3.375    1.750    5.500 
#    0.000    3.750    0.000    0.375    0.000    0.000 
#    0.000    0.000    0.000    0.000    0.000    0.000 
#
# Total GULP energy -793464.801602 kJ/mol
# GULP energy per Si atom -12397.887525 kJ/mol
# Density = 2.105848 g / cm^3
# Si number density = 21.106516 Si / 1000 Ang^3
#
#
#
# Elastic Constant Matrix: (Units=GPa)
#
#
# Indices 1 2 3 4 5 6 
#
# 1 175.4021 77.3526 13.8103 0.0000 0.0000 0.0000
# 2 77.3526 121.8026 5.6055 0.0000 0.0000 0.0000
# 3 13.8103 5.6055 37.3967 0.0000 0.0000 0.0000
# 4 0.0000 0.0000 0.0000 19.3556 0.0000 0.0000
# 5 0.0000 0.0000 0.0000 0.0000 12.7988 0.0000
# 6 0.0000 0.0000 0.0000 0.0000 0.0000 32.3708
#
#
#
# Elastic Compliance Matrix: (Units=1/GPa)
#
#
# Indices 1 2 3 4 5 6 
#
# 1 0.008101 -0.005041 -0.002236 0.000000 0.000000 0.000000
# 2 -0.005041 0.011405 0.000152 0.000000 0.000000 0.000000
# 3 -0.002236 0.000152 0.027543 0.000000 0.000000 0.000000
# 4 0.000000 0.000000 0.000000 0.051665 0.000000 0.000000
# 5 0.000000 0.000000 0.000000 0.000000 0.078132 0.000000
# 6 0.000000 0.000000 0.000000 0.000000 0.000000 0.030892
#
#
# Mechanical properties :
#
#
# Convention : Reuss Voigt Hill
#
# Bulk Modulus (GPa) = 30.48926 58.68204 44.58565
# Shear Modulus (GPa) = 21.46661 28.76056 25.11359
#
# Velocity S-wave (km/s) = 3.19260 3.69540 3.45316
# Velocity P-wave (km/s) = 5.29783 6.78757 6.08844
#
# Compressibility (1/GPa) = 0.03279844
#
# Stress axis : x y z
#
# Youngs Moduli (GPa) = 123.44894 87.68348 36.30665
#
# Poissons Ratio (x) = 0.44205 0.08117
# Poissons Ratio (y) = 0.62236 -0.00553
# Poissons Ratio (z) = 0.27600 -0.01335
#
# Static dielectric constant tensor:
#      x y z
#    x 4.082630 0.000000 0.000000 
#    y 0.000000 3.969860 0.000000 
#    z 0.000000 0.000000 3.310660 
# 
# 
# High freq. dielectric constant tensor:
#      x y z
#    x 1.840070 0.000000 0.000000 
#    y 0.000000 1.831020 0.000000 
#    z 0.000000 0.000000 1.783120 
# 
# From -- ./inp_files/17979.got.cif
#   From: 2010.03.12/outbox.cif.g09.slc.cpg/sg49_9_cif.got.tgz:17979.got - 2010.04.14 03:58:27.
