data_PCOD8203574
_publ_section_title
;
Structure prediction by ZEFSAII (Michael W. Deem and Ramdas Pophale) SiO2 
 PCOD8203574
Probable space group: P C C M
;
_chemical_formula_sum "Si O2"
_cell_formula_units_Z 64
_cell_length_a 19.177567
_cell_length_b 9.838192
_cell_length_c 16.817899
_cell_angle_alpha 90.000000
_cell_angle_beta 90.000000
_cell_angle_gamma 90.000000
_cell_volume 3173.076499
_symmetry_space_group_name_H-M "P C C M"
_symmetry_group_IT_number 49
_symmetry_cell_setting 'orthorhombic'
loop_
_space_group_symop_operation_xyz
x,y,z
-x,-y,z
x,-y,1/2-z
-x,y,1/2-z
-x,-y,-z
x,y,-z
-x,y,1/2+z
x,-y,1/2+z
loop_
_atom_site_type_symbol
_atom_site_label
_atom_site_fract_x
_atom_site_fract_y
_atom_site_fract_z
Si Si1 0.840075 0.262108 0.356967
Si Si2 0.920492 0.008237 0.409059
Si Si3 0.075977 0.518176 0.843665
Si Si4 0.305729 0.352131 0.092799
Si Si5 0.840825 0.773154 0.669583
Si Si6 0.423141 0.154895 0.905251
Si Si7 0.421247 0.851274 0.905739
Si Si8 0.297426 0.660241 0.094854
O O1 0.870233 0.409722 0.378394
O O2 0.762013 0.260732 0.390312
O O3 0.838359 0.230865 0.264076
O O4 0.890816 0.159578 0.402579
O O5 0.918921 0.958412 0.500000
O O6 0.867968 0.919442 0.356570
O O7 0.000000 0.000000 0.376256
O O8 0.070545 0.500000 0.750000
O O9 0.103852 0.666346 0.865830
O O10 0.000000 0.500000 0.883010
O O11 0.370735 0.268572 0.130416
O O12 0.300613 0.505247 0.128352
O O13 0.317746 0.368297 0.000000
O O14 0.765452 0.741635 0.634541
O O15 0.501389 0.189305 0.875491
O O16 0.401773 0.003319 0.875133
O O17 0.419387 0.157538 0.000000
O O18 0.366680 0.738656 0.875582
O O19 0.421513 0.853824 0.000000
O O20 0.288599 0.664234 0.000000
#
# Coordination Sequence:
#
# PCOD8203574 Si02
#       8
#     8   8   8   8   8   8   8   8
#     4  11  22  38  59  84 115 151 191 233 279 339
#     4  11  25  43  61  85 116 147 184 235 291 342
#     4   9  18  34  57  81 106 141 186 232 273 319
#     4  10  20  33  52  81 116 150 187 235 286 335
#     4  11  22  38  59  84 115 151 191 233 279 339
#     4   8  15  29  50  77 108 145 190 236 282 332
#     4   8  15  29  50  77 108 145 190 236 282 332
#     4  10  20  33  52  81 116 150 187 235 286 335
#
# _framework density 20.169701
#
# number of rings (size 3 to 8) (size 9 to 14) (size 15 to 20)
#    0.000    2.250    1.250    2.625    1.750    2.500 
#    0.000    2.500    0.000    3.750    0.000    3.500 
#    0.000    0.000    0.000    0.000    0.000    0.000 
#
# Total GULP energy -793479.206871 kJ/mol
# GULP energy per Si atom -12398.112607 kJ/mol
# Density = 2.012379 g / cm^3
# Si number density = 20.169701 Si / 1000 Ang^3
#
#
#
# Elastic Constant Matrix: (Units=GPa)
#
#
# Indices 1 2 3 4 5 6 
#
# 1 155.2643 57.0207 8.8805 0.0000 0.0000 0.0000
# 2 57.0207 97.8189 6.9391 0.0000 0.0000 0.0000
# 3 8.8805 6.9391 23.7693 0.0000 0.0000 0.0000
# 4 0.0000 0.0000 0.0000 19.0993 0.0000 0.0000
# 5 0.0000 0.0000 0.0000 0.0000 11.5972 0.0000
# 6 0.0000 0.0000 0.0000 0.0000 0.0000 44.4779
#
#
#
# Elastic Compliance Matrix: (Units=1/GPa)
#
#
# Indices 1 2 3 4 5 6 
#
# 1 0.008263 -0.004695 -0.001717 0.000000 0.000000 0.000000
# 2 -0.004695 0.013107 -0.002072 0.000000 0.000000 0.000000
# 3 -0.001717 -0.002072 0.043317 0.000000 0.000000 0.000000
# 4 0.000000 0.000000 0.000000 0.052358 0.000000 0.000000
# 5 0.000000 0.000000 0.000000 0.000000 0.086228 0.000000
# 6 0.000000 0.000000 0.000000 0.000000 0.000000 0.022483
#
#
# Mechanical properties :
#
#
# Convention : Reuss Voigt Hill
#
# Bulk Modulus (GPa) = 20.95572 46.94812 33.95192
# Shear Modulus (GPa) = 19.33266 28.63571 23.98418
#
# Velocity S-wave (km/s) = 3.09932 3.77203 3.45210
# Velocity P-wave (km/s) = 4.81871 6.50369 5.72355
#
# Compressibility (1/GPa) = 0.04771968
#
# Stress axis : x y z
#
# Youngs Moduli (GPa) = 121.02123 76.29660 23.08543
#
# Poissons Ratio (x) = 0.35821 0.03963
# Poissons Ratio (y) = 0.56818 0.04784
# Poissons Ratio (z) = 0.20774 0.15811
#
# Static dielectric constant tensor:
#      x y z
#    x 3.918470 0.000000 0.000000 
#    y 0.000000 3.917730 0.000000 
#    z 0.000000 0.000000 3.193910 
# 
# 
# High freq. dielectric constant tensor:
#      x y z
#    x 1.800040 0.000000 0.000000 
#    y 0.000000 1.795130 0.000000 
#    z 0.000000 0.000000 1.745150 
# 
# From -- ./inp_files/18293.got.cif
#   From: 2010.03.12/outbox.cif.g09.slc.cpg/sg49_10_cif.got.tgz:18293.got - 2010.04.14 03:58:27.
