data_PCOD8203906
_publ_section_title
;
Structure prediction by ZEFSAII (Michael W. Deem and Ramdas Pophale) SiO2 
 PCOD8203906
Probable space group: P C C M
;
_chemical_formula_sum "Si O2"
_cell_formula_units_Z 48
_cell_length_a 15.205655
_cell_length_b 18.766416
_cell_length_c 8.673933
_cell_angle_alpha 90.000000
_cell_angle_beta 90.000000
_cell_angle_gamma 90.000000
_cell_volume 2475.155766
_symmetry_space_group_name_H-M "P C C M"
_symmetry_group_IT_number 49
_symmetry_cell_setting 'orthorhombic'
loop_
_space_group_symop_operation_xyz
x,y,z
-x,-y,z
x,-y,1/2-z
-x,y,1/2-z
-x,-y,-z
x,y,-z
-x,y,1/2+z
x,-y,1/2+z
loop_
_atom_site_type_symbol
_atom_site_label
_atom_site_fract_x
_atom_site_fract_y
_atom_site_fract_z
Si Si1 0.249973 0.321069 0.320177
Si Si2 0.907549 0.575474 0.319018
Si Si3 0.094111 0.924858 0.818390
Si Si4 0.591905 0.076305 0.681461
Si Si5 0.242116 0.168842 0.179494
Si Si6 0.407479 0.424391 0.318804
O O1 0.250307 0.300417 0.500000
O O2 0.164143 0.365899 0.275757
O O3 0.250236 0.251616 0.215703
O O4 0.335520 0.366034 0.274634
O O5 0.877779 0.500000 0.250000
O O6 0.917495 0.565648 0.500000
O O7 0.000000 0.601413 0.250000
O O8 0.162860 0.863645 0.777627
O O9 0.000000 0.903085 0.750000
O O10 0.127162 0.000000 0.750000
O O11 0.085188 0.932661 0.000000
O O12 0.500000 0.104508 0.750000
O O13 0.581663 0.068425 0.500000
O O14 0.666923 0.131851 0.728817
O O15 0.617848 0.000000 0.750000
O O16 0.222297 0.156921 0.000000
O O17 0.378056 0.500000 0.250000
O O18 0.500000 0.398460 0.250000
O O19 0.416962 0.433877 0.500000
#
# Coordination Sequence:
#
# PCOD8203906 Si02
#       6
#     8   8   8   8   8   8
#     4  10  23  39  55  79 113 151 186 226 279 335
#     4  10  20  36  58  83 109 141 182 226 274 325
#     4  11  22  39  63  88 116 149 189 235 281 332
#     4  10  21  37  59  85 111 144 186 231 278 329
#     4  11  24  39  57  84 116 152 191 231 282 338
#     4  10  20  36  58  83 110 143 186 233 283 337
#
# _framework density 19.392720000000001
#
# number of rings (size 3 to 8) (size 9 to 14) (size 15 to 20)
#    0.000    1.667    0.000    6.500    0.000    8.000 
#    0.000    5.000    0.000    0.000    0.000    0.000 
#    0.000    0.000    0.000    0.000    0.000    0.000 
#
# Total GULP energy -595453.391941 kJ/mol
# GULP energy per Si atom -12405.278999 kJ/mol
# Density = 1.934858 g / cm^3
# Si number density = 19.392720 Si / 1000 Ang^3
#
#
#
# Elastic Constant Matrix: (Units=GPa)
#
#
# Indices 1 2 3 4 5 6 
#
# 1 137.7629 86.9603 62.7804 0.0000 0.0000 0.0000
# 2 86.9603 124.7782 53.6390 0.0000 0.0000 0.0000
# 3 62.7804 53.6390 116.8396 0.0000 0.0000 0.0000
# 4 0.0000 0.0000 0.0000 33.5142 0.0000 0.0000
# 5 0.0000 0.0000 0.0000 0.0000 23.3933 0.0000
# 6 0.0000 0.0000 0.0000 0.0000 0.0000 27.7529
#
#
#
# Elastic Compliance Matrix: (Units=1/GPa)
#
#
# Indices 1 2 3 4 5 6 
#
# 1 0.014229 -0.008260 -0.003854 0.000000 0.000000 0.000000
# 2 -0.008260 0.014779 -0.002347 0.000000 0.000000 0.000000
# 3 -0.003854 -0.002347 0.011707 0.000000 0.000000 0.000000
# 4 0.000000 0.000000 0.000000 0.029838 0.000000 0.000000
# 5 0.000000 0.000000 0.000000 0.000000 0.042747 0.000000
# 6 0.000000 0.000000 0.000000 0.000000 0.000000 0.036032
#
#
# Mechanical properties :
#
#
# Convention : Reuss Voigt Hill
#
# Bulk Modulus (GPa) = 84.78383 87.34891 86.06637
# Shear Modulus (GPa) = 27.44474 28.66550 28.05512
#
# Velocity S-wave (km/s) = 3.76601 3.84885 3.80765
# Velocity P-wave (km/s) = 7.91989 8.05552 7.98800
#
# Compressibility (1/GPa) = 0.01179470
#
# Stress axis : x y z
#
# Youngs Moduli (GPa) = 70.28010 67.66145 85.42123
#
# Poissons Ratio (x) = 0.55887 0.32917
# Poissons Ratio (y) = 0.58050 0.20047
# Poissons Ratio (z) = 0.27082 0.15879
#
# Static dielectric constant tensor:
#      x y z
#    x 3.897850 0.000000 0.000000 
#    y 0.000000 3.430800 0.000000 
#    z 0.000000 0.000000 3.611040 
# 
# 
# High freq. dielectric constant tensor:
#      x y z
#    x 1.769650 0.000000 0.000000 
#    y 0.000000 1.749610 0.000000 
#    z 0.000000 0.000000 1.768860 
# 
# From -- ./inp_files/3729.got.cif
#   From: 2010.03.12/outbox.cif.g09.slc.cpg/sg49_2_cif.got.tgz:3729.got - 2010.04.14 03:58:27.
