data_PCOD8203138
_publ_section_title
;
Structure prediction by ZEFSAII (Michael W. Deem and Ramdas Pophale) SiO2 
 PCOD8203138
Probable space group: P C C M
;
_chemical_formula_sum "Si O2"
_cell_formula_units_Z 64
_cell_length_a 14.839746
_cell_length_b 24.712426
_cell_length_c 9.083373
_cell_angle_alpha 90.000000
_cell_angle_beta 90.000000
_cell_angle_gamma 90.000000
_cell_volume 3331.110181
_symmetry_space_group_name_H-M "P C C M"
_symmetry_group_IT_number 49
_symmetry_cell_setting 'orthorhombic'
loop_
_space_group_symop_operation_xyz
x,y,z
-x,-y,z
x,-y,1/2-z
-x,y,1/2-z
-x,-y,-z
x,y,-z
-x,y,1/2+z
x,-y,1/2+z
loop_
_atom_site_type_symbol
_atom_site_label
_atom_site_fract_x
_atom_site_fract_y
_atom_site_fract_z
Si Si1 0.651868 0.700807 0.165912
Si Si2 0.584991 0.585816 0.164525
Si Si3 0.217535 0.445752 0.174756
Si Si4 0.591142 0.819625 0.172482
Si Si5 0.180926 0.658451 0.831293
Si Si6 0.767590 0.850415 0.671453
Si Si7 0.911277 0.765792 0.331669
Si Si8 0.091376 0.943697 0.826034
O O1 0.581985 0.651007 0.173633
O O2 0.601698 0.755908 0.207781
O O3 0.729928 0.690024 0.282382
O O4 0.692825 0.703759 0.000000
O O5 0.500000 0.561152 0.250000
O O6 0.679444 0.563416 0.228259
O O7 0.575128 0.564666 0.000000
O O8 0.179635 0.500000 0.250000
O O9 0.160191 0.394484 0.232809
O O10 0.207792 0.449126 0.000000
O O11 0.500000 0.840171 0.250000
O O12 0.675411 0.853107 0.236540
O O13 0.583951 0.831210 0.000000
O O14 0.100091 0.701230 0.811954
O O15 0.192222 0.640241 0.000000
O O16 0.742661 0.845196 0.500000
O O17 0.824229 0.798221 0.727712
O O18 0.826164 0.903485 0.704033
O O19 0.924681 0.782617 0.500000
O O20 0.000000 0.785630 0.250000
O O21 0.000000 0.921090 0.750000
O O22 0.118105 0.000000 0.750000
O O23 0.074422 0.951402 0.000000
#
# Coordination Sequence:
#
# PCOD8203138 Si02
#       8
#     8   8   8   8   8   8   8   8
#     4   9  18  32  48  71 101 138 181 221 267 320
#     4   9  18  30  44  65  94 125 163 210 260 317
#     4  10  21  36  52  71  95 127 172 219 268 330
#     4  11  22  34  53  79 111 153 196 240 285 335
#     4  10  19  33  54  77 104 138 173 216 268 324
#     4  10  21  38  56  82 119 156 194 238 282 331
#     4  10  21  35  55  84 116 148 182 219 272 336
#     4  10  20  35  59  87 121 158 197 242 287 340
#
# _framework density 19.212813000000001
#
# number of rings (size 3 to 8) (size 9 to 14) (size 15 to 20)
#    0.000    2.125    1.250    3.375    0.000    5.750 
#    0.000    1.250    0.000    0.750    0.000    5.250 
#    0.000    0.000    0.000    0.000    0.000    0.000 
#
# Total GULP energy -793551.674460 kJ/mol
# GULP energy per Si atom -12399.244913 kJ/mol
# Density = 1.916908 g / cm^3
# Si number density = 19.212813 Si / 1000 Ang^3
#
#
#
# Elastic Constant Matrix: (Units=GPa)
#
#
# Indices 1 2 3 4 5 6 
#
# 1 98.0340 37.0286 51.3275 0.0000 0.0000 0.0000
# 2 37.0286 88.0683 44.7398 0.0000 0.0000 0.0000
# 3 51.3275 44.7398 100.0659 0.0000 0.0000 0.0000
# 4 0.0000 0.0000 0.0000 25.5463 0.0000 0.0000
# 5 0.0000 0.0000 0.0000 0.0000 31.3336 0.0000
# 6 0.0000 0.0000 0.0000 0.0000 0.0000 14.9117
#
#
#
# Elastic Compliance Matrix: (Units=1/GPa)
#
#
# Indices 1 2 3 4 5 6 
#
# 1 0.014536 -0.003007 -0.006112 0.000000 0.000000 0.000000
# 2 -0.003007 0.015314 -0.005304 0.000000 0.000000 0.000000
# 3 -0.006112 -0.005304 0.015500 0.000000 0.000000 0.000000
# 4 0.000000 0.000000 0.000000 0.039145 0.000000 0.000000
# 5 0.000000 0.000000 0.000000 0.000000 0.031915 0.000000
# 6 0.000000 0.000000 0.000000 0.000000 0.000000 0.067061
#
#
# Mechanical properties :
#
#
# Convention : Reuss Voigt Hill
#
# Bulk Modulus (GPa) = 60.59247 61.37330 60.98289
# Shear Modulus (GPa) = 22.95493 24.56316 23.75904
#
# Velocity S-wave (km/s) = 3.46030 3.57946 3.52038
# Velocity P-wave (km/s) = 6.89716 7.00690 6.95225
#
# Compressibility (1/GPa) = 0.01650370
#
# Stress axis : x y z
#
# Youngs Moduli (GPa) = 68.79369 65.30031 64.51615
#
# Poissons Ratio (x) = 0.19636 0.39431
# Poissons Ratio (y) = 0.20686 0.34223
# Poissons Ratio (z) = 0.42045 0.34638
#
# Static dielectric constant tensor:
#      x y z
#    x 3.230560 0.000000 0.000000 
#    y 0.000000 3.442540 0.000000 
#    z 0.000000 0.000000 3.500970 
# 
# 
# High freq. dielectric constant tensor:
#      x y z
#    x 1.723100 0.000000 0.000000 
#    y 0.000000 1.736450 0.000000 
#    z 0.000000 0.000000 1.752510 
# 
# From -- ./inp_files/4433.got.cif
#   From: 2010.03.12/outbox.cif.g09.slc.cpg/sg49_3_cif.got.tgz:4433.got - 2010.04.14 03:58:27.
