data_PCOD8203626
_publ_section_title
;
Structure prediction by ZEFSAII (Michael W. Deem and Ramdas Pophale) SiO2 
 PCOD8203626
Probable space group: P C C M
;
_chemical_formula_sum "Si O2"
_cell_formula_units_Z 58
_cell_length_a 23.211572
_cell_length_b 15.045462
_cell_length_c 9.140068
_cell_angle_alpha 90.000000
_cell_angle_beta 90.000000
_cell_angle_gamma 90.000000
_cell_volume 3191.975203
_symmetry_space_group_name_H-M "P C C M"
_symmetry_group_IT_number 49
_symmetry_cell_setting 'orthorhombic'
loop_
_space_group_symop_operation_xyz
x,y,z
-x,-y,z
x,-y,1/2-z
-x,y,1/2-z
-x,-y,-z
x,y,-z
-x,y,1/2+z
x,-y,1/2+z
loop_
_atom_site_type_symbol
_atom_site_label
_atom_site_fract_x
_atom_site_fract_y
_atom_site_fract_z
Si Si1 0.176821 0.775401 0.827556
Si Si2 0.000000 0.000000 0.250000
Si Si3 0.223216 0.586762 0.169798
Si Si4 0.947548 0.171463 0.838616
Si Si5 0.442116 0.740236 0.174241
Si Si6 0.742336 0.089727 0.330566
Si Si7 0.645812 0.412581 0.829316
Si Si8 0.607636 0.909431 0.171028
O O1 0.183934 0.671372 0.791568
O O2 0.114283 0.806284 0.768278
O O3 0.225150 0.827831 0.740172
O O4 0.184510 0.794735 0.000000
O O5 0.041767 0.064331 0.345066
O O6 0.197988 0.500000 0.250000
O O7 0.288658 0.606717 0.220735
O O8 0.221537 0.565186 0.000000
O O9 0.000000 0.217664 0.750000
O O10 0.948747 0.212119 0.000000
O O11 0.500000 0.703816 0.250000
O O12 0.391777 0.671919 0.215951
O O13 0.427568 0.833973 0.246572
O O14 0.449666 0.750408 0.000000
O O15 0.758893 0.080465 0.500000
O O16 0.675160 0.108251 0.308110
O O17 0.761886 0.000000 0.250000
O O18 0.621403 0.500000 0.750000
O O19 0.641550 0.431126 0.000000
O O20 0.589385 0.000000 0.250000
O O21 0.590821 0.912982 0.000000
#
# Coordination Sequence:
#
# PCOD8203626 Si02
#       8
#     8   2   8   8   8   8   8   8
#     4  10  20  34  52  78 109 142 177 221 270 317
#     4   8  18  32  50  68 100 136 186 216 260 300
#     4   9  18  34  56  79 106 135 171 215 265 318
#     4   9  19  32  49  72 102 139 178 219 263 307
#     4  11  23  38  56  79 106 137 176 217 264 313
#     4  10  21  34  51  78 109 141 174 214 262 317
#     4   9  19  35  56  80 105 138 170 208 260 318
#     4  10  21  38  57  77 104 138 177 219 265 313
#
# _framework density 18.170567999999999
#
# number of rings (size 3 to 8) (size 9 to 14) (size 15 to 20)
#    0.414    1.931    0.000    2.276    0.966    5.517 
#    0.000    5.517    0.000    0.414    0.000    2.897 
#    0.000    0.000    0.000    0.000    0.000    0.000 
#
# Total GULP energy -719121.824944 kJ/mol
# GULP energy per Si atom -12398.652154 kJ/mol
# Density = 1.812921 g / cm^3
# Si number density = 18.170568 Si / 1000 Ang^3
#
#
#
# Elastic Constant Matrix: (Units=GPa)
#
#
# Indices 1 2 3 4 5 6 
#
# 1 69.6819 44.9199 29.2053 0.0000 0.0000 0.0000
# 2 44.9199 107.4021 38.0094 0.0000 0.0000 0.0000
# 3 29.2053 38.0094 73.8397 0.0000 0.0000 0.0000
# 4 0.0000 0.0000 0.0000 33.1835 0.0000 0.0000
# 5 0.0000 0.0000 0.0000 0.0000 20.1152 0.0000
# 6 0.0000 0.0000 0.0000 0.0000 0.0000 20.6879
#
#
#
# Elastic Compliance Matrix: (Units=1/GPa)
#
#
# Indices 1 2 3 4 5 6 
#
# 1 0.020850 -0.007094 -0.004595 0.000000 0.000000 0.000000
# 2 -0.007094 0.013799 -0.004297 0.000000 0.000000 0.000000
# 3 -0.004595 -0.004297 0.017572 0.000000 0.000000 0.000000
# 4 0.000000 0.000000 0.000000 0.030135 0.000000 0.000000
# 5 0.000000 0.000000 0.000000 0.000000 0.049714 0.000000
# 6 0.000000 0.000000 0.000000 0.000000 0.000000 0.048337
#
#
# Mechanical properties :
#
#
# Convention : Reuss Voigt Hill
#
# Bulk Modulus (GPa) = 49.38615 52.79919 51.09267
# Shear Modulus (GPa) = 22.81763 24.04993 23.43378
#
# Velocity S-wave (km/s) = 3.54750 3.64203 3.59507
# Velocity P-wave (km/s) = 6.63459 6.84152 6.73885
#
# Compressibility (1/GPa) = 0.02024859
#
# Stress axis : x y z
#
# Youngs Moduli (GPa) = 47.96174 72.47127 56.90835
#
# Poissons Ratio (x) = 0.51412 0.26149
# Poissons Ratio (y) = 0.34025 0.24453
# Poissons Ratio (z) = 0.22038 0.31141
#
# Static dielectric constant tensor:
#      x y z
#    x 3.354360 0.000000 0.000000 
#    y 0.000000 3.275550 0.000000 
#    z 0.000000 0.000000 3.348080 
# 
# 
# High freq. dielectric constant tensor:
#      x y z
#    x 1.695890 0.000000 0.000000 
#    y 0.000000 1.697030 0.000000 
#    z 0.000000 0.000000 1.706000 
# 
# From -- ./inp_files/6435.got.cif
#   From: 2010.03.12/outbox.cif.g09.slc.cpg/sg49_4_cif.got.tgz:6435.got - 2010.04.14 03:58:27.
