data_PCOD8203527
_publ_section_title
;
Structure prediction by ZEFSAII (Michael W. Deem and Ramdas Pophale) SiO2 
 PCOD8203527
Probable space group: P C C M
;
_chemical_formula_sum "Si O2"
_cell_formula_units_Z 32
_cell_length_a 11.760362
_cell_length_b 8.589126
_cell_length_c 17.060525
_cell_angle_alpha 90.000000
_cell_angle_beta 90.000000
_cell_angle_gamma 90.000000
_cell_volume 1723.304632
_symmetry_space_group_name_H-M "P C C M"
_symmetry_group_IT_number 49
_symmetry_cell_setting 'orthorhombic'
loop_
_space_group_symop_operation_xyz
x,y,z
-x,-y,z
x,-y,1/2-z
-x,y,1/2-z
-x,-y,-z
x,y,-z
-x,y,1/2+z
x,-y,1/2+z
loop_
_atom_site_type_symbol
_atom_site_label
_atom_site_fract_x
_atom_site_fract_y
_atom_site_fract_z
Si Si1 0.508171 0.179275 0.089388
Si Si2 0.745277 0.661597 0.412475
Si Si3 0.122161 0.317242 0.734801
Si Si4 0.669046 0.618379 0.179431
O O1 0.638512 0.225677 0.098200
O O2 0.435992 0.277736 0.151929
O O3 0.500000 0.000000 0.112684
O O4 0.465423 0.208349 0.000000
O O5 0.794286 0.669171 0.500000
O O6 0.845382 0.718842 0.354991
O O7 0.708846 0.484443 0.394306
O O8 0.109382 0.500000 0.750000
O O9 0.227133 0.267345 0.791910
O O10 0.000000 0.234005 0.750000
O O11 0.633748 0.500000 0.250000
#
# Coordination Sequence:
#
# PCOD8203527 Si02
#       4
#     8   8   8   8
#     4  10  20  33  50  74 104 134 165 204 249 299
#     4   9  17  30  50  72  96 128 164 202 246 296
#     4   8  16  31  47  68  98 125 158 206 250 289
#     4   9  18  31  49  73 100 131 165 204 249 294
#
# _framework density 18.568974000000001
#
# number of rings (size 3 to 8) (size 9 to 14) (size 15 to 20)
#    0.000    3.500    0.000    1.500    0.000   10.000 
#    0.000   21.250    0.000    3.000    0.000    5.250 
#    0.000    0.000    0.000    0.000    0.000    0.000 
#
# Total GULP energy -396476.128892 kJ/mol
# GULP energy per Si atom -12389.879028 kJ/mol
# Density = 1.852671 g / cm^3
# Si number density = 18.568974 Si / 1000 Ang^3
#
#
#
# Elastic Constant Matrix: (Units=GPa)
#
#
# Indices 1 2 3 4 5 6 
#
# 1 105.1817 33.0259 83.6954 0.0000 0.0000 0.0000
# 2 33.0259 51.4128 41.5788 0.0000 0.0000 0.0000
# 3 83.6954 41.5788 132.8687 0.0000 0.0000 0.0000
# 4 0.0000 0.0000 0.0000 18.9237 0.0000 0.0000
# 5 0.0000 0.0000 0.0000 0.0000 28.0271 0.0000
# 6 0.0000 0.0000 0.0000 0.0000 0.0000 3.9409
#
#
#
# Elastic Compliance Matrix: (Units=1/GPa)
#
#
# Indices 1 2 3 4 5 6 
#
# 1 0.019514 -0.003473 -0.011205 0.000000 0.000000 0.000000
# 2 -0.003473 0.026659 -0.006155 0.000000 0.000000 0.000000
# 3 -0.011205 -0.006155 0.016511 0.000000 0.000000 0.000000
# 4 0.000000 0.000000 0.000000 0.052844 0.000000 0.000000
# 5 0.000000 0.000000 0.000000 0.000000 0.035680 0.000000
# 6 0.000000 0.000000 0.000000 0.000000 0.000000 0.253752
#
#
# Mechanical properties :
#
#
# Convention : Reuss Voigt Hill
#
# Bulk Modulus (GPa) = 47.57976 67.34037 57.46007
# Shear Modulus (GPa) = 11.02216 18.92252 14.97234
#
# Velocity S-wave (km/s) = 2.43899 3.19570 2.84264
# Velocity P-wave (km/s) = 5.79745 7.06827 6.46417
#
# Compressibility (1/GPa) = 0.02101734
#
# Stress axis : x y z
#
# Youngs Moduli (GPa) = 51.24455 37.51094 60.56736
#
# Poissons Ratio (x) = 0.13029 0.67868
# Poissons Ratio (y) = 0.17799 0.37276
# Poissons Ratio (z) = 0.57421 0.23086
#
# Static dielectric constant tensor:
#      x y z
#    x 3.993860 0.000000 0.000000 
#    y 0.000000 3.043980 0.000000 
#    z 0.000000 0.000000 3.611630 
# 
# 
# High freq. dielectric constant tensor:
#      x y z
#    x 1.717710 0.000000 0.000000 
#    y 0.000000 1.672530 0.000000 
#    z 0.000000 0.000000 1.728560 
# 
# From -- ./inp_files/11191.got.cif
#   From: 2010.03.12/outbox.cif.g09.slc.cpg/sg49_6_cif.got.tgz:11191.got - 2010.04.14 03:58:27.
