data_PCOD8203724
_publ_section_title
;
Structure prediction by ZEFSAII (Michael W. Deem and Ramdas Pophale) SiO2 
 PCOD8203724
Probable space group: P C C M
;
_chemical_formula_sum "Si O2"
_cell_formula_units_Z 64
_cell_length_a 14.812230
_cell_length_b 11.685036
_cell_length_c 17.201276
_cell_angle_alpha 90.000000
_cell_angle_beta 90.000000
_cell_angle_gamma 90.000000
_cell_volume 2977.221634
_symmetry_space_group_name_H-M "P C C M"
_symmetry_group_IT_number 49
_symmetry_cell_setting 'orthorhombic'
loop_
_space_group_symop_operation_xyz
x,y,z
-x,-y,z
x,-y,1/2-z
-x,y,1/2-z
-x,-y,-z
x,y,-z
-x,y,1/2+z
x,-y,1/2+z
loop_
_atom_site_type_symbol
_atom_site_label
_atom_site_fract_x
_atom_site_fract_y
_atom_site_fract_z
Si Si1 0.656270 0.293443 0.867420
Si Si2 0.512882 0.863711 0.910939
Si Si3 0.930520 0.407593 0.909675
Si Si4 0.243634 0.710108 0.713407
Si Si5 0.082066 0.788962 0.198676
Si Si6 0.678530 0.069684 0.672713
Si Si7 0.738656 0.486067 0.588267
Si Si8 0.212399 0.891041 0.913175
O O1 0.565676 0.219875 0.880318
O O2 0.675871 0.301896 0.775868
O O3 0.654846 0.424640 0.899461
O O4 0.738923 0.232125 0.912498
O O5 0.599992 0.844598 0.857362
O O6 0.500000 0.000000 0.901344
O O7 0.531301 0.830939 0.000000
O O8 0.957284 0.288371 0.870246
O O9 0.829141 0.446047 0.890742
O O10 0.000000 0.500000 0.876417
O O11 0.946205 0.387490 0.000000
O O12 0.144324 0.700573 0.751142
O O13 0.239998 0.843005 0.687274
O O14 0.265511 0.622273 0.644928
O O15 0.136357 0.892436 0.155065
O O16 0.000000 0.839956 0.250000
O O17 0.649586 0.000000 0.750000
O O18 0.710049 0.983264 0.605508
O O19 0.737882 0.439728 0.500000
O O20 0.173234 0.912994 0.000000
#
# Coordination Sequence:
#
# PCOD8203724 Si02
#       8
#     8   8   8   8   8   8   8   8
#     4  11  21  38  66  97 130 173 224 270 334 412
#     4  11  22  37  65 101 130 159 211 280 340 396
#     4  10  20  34  58  92 128 168 218 275 329 387
#     4  11  24  40  62  92 131 181 225 269 335 398
#     4  11  22  37  62  96 130 172 220 284 328 399
#     4  12  23  43  64  97 131 171 218 285 348 403
#     4  11  22  38  61  90 135 182 223 267 331 410
#     4  11  21  40  68  94 126 171 221 275 339 404
#
# _framework density 21.496552999999999
#
# number of rings (size 3 to 8) (size 9 to 14) (size 15 to 20)
#    0.000    1.000    6.250    3.000    0.000    4.000 
#    0.000    2.500    0.000    3.750    0.000    0.000 
#    0.000    0.000    0.000    0.000    0.000    0.000 
#
# Total GULP energy -793179.071727 kJ/mol
# GULP energy per Si atom -12393.422996 kJ/mol
# Density = 2.144763 g / cm^3
# Si number density = 21.496553 Si / 1000 Ang^3
#
#
#
# Elastic Constant Matrix: (Units=GPa)
#
#
# Indices 1 2 3 4 5 6 
#
# 1 101.2598 37.2362 53.2632 0.0000 0.0000 0.0000
# 2 37.2362 72.9219 46.8110 0.0000 0.0000 0.0000
# 3 53.2632 46.8110 143.6712 0.0000 0.0000 0.0000
# 4 0.0000 0.0000 0.0000 30.7787 0.0000 0.0000
# 5 0.0000 0.0000 0.0000 0.0000 30.5381 0.0000
# 6 0.0000 0.0000 0.0000 0.0000 0.0000 28.9570
#
#
#
# Elastic Compliance Matrix: (Units=1/GPa)
#
#
# Indices 1 2 3 4 5 6 
#
# 1 0.013394 -0.004618 -0.003461 0.000000 0.000000 0.000000
# 2 -0.004618 0.018932 -0.004457 0.000000 0.000000 0.000000
# 3 -0.003461 -0.004457 0.009695 0.000000 0.000000 0.000000
# 4 0.000000 0.000000 0.000000 0.032490 0.000000 0.000000
# 5 0.000000 0.000000 0.000000 0.000000 0.032746 0.000000
# 6 0.000000 0.000000 0.000000 0.000000 0.000000 0.034534
#
#
# Mechanical properties :
#
#
# Convention : Reuss Voigt Hill
#
# Bulk Modulus (GPa) = 58.99322 65.83040 62.41181
# Shear Modulus (GPa) = 28.98338 30.09093 29.53716
#
# Velocity S-wave (km/s) = 3.67588 3.74545 3.71083
# Velocity P-wave (km/s) = 6.74676 7.02814 6.88889
#
# Compressibility (1/GPa) = 0.01695110
#
# Stress axis : x y z
#
# Youngs Moduli (GPa) = 74.65920 52.82053 103.14077
#
# Poissons Ratio (x) = 0.24391 0.35698
# Poissons Ratio (y) = 0.34475 0.45965
# Poissons Ratio (z) = 0.25840 0.23540
#
# Static dielectric constant tensor:
#      x y z
#    x 3.868930 0.000000 0.000000 
#    y 0.000000 3.755900 0.000000 
#    z 0.000000 0.000000 3.944630 
# 
# 
# High freq. dielectric constant tensor:
#      x y z
#    x 1.819630 0.000000 0.000000 
#    y 0.000000 1.831430 0.000000 
#    z 0.000000 0.000000 1.856950 
# 
# From -- ./inp_files/17981.got.cif
#   From: 2010.03.12/outbox.cif.g09.slc.cpg/sg49_9_cif.got.tgz:17981.got - 2010.04.14 03:58:27.
