data_PCOD8203686
_publ_section_title
;
Structure prediction by ZEFSAII (Michael W. Deem and Ramdas Pophale) SiO2 
 PCOD8203686
Probable space group: P C C M
;
_chemical_formula_sum "Si O2"
_cell_formula_units_Z 56
_cell_length_a 25.403950
_cell_length_b 14.285587
_cell_length_c 8.563279
_cell_angle_alpha 90.000000
_cell_angle_beta 90.000000
_cell_angle_gamma 90.000000
_cell_volume 3107.702475
_symmetry_space_group_name_H-M "P C C M"
_symmetry_group_IT_number 49
_symmetry_cell_setting 'orthorhombic'
loop_
_space_group_symop_operation_xyz
x,y,z
-x,-y,z
x,-y,1/2-z
-x,y,1/2-z
-x,-y,-z
x,y,-z
-x,y,1/2+z
x,-y,1/2+z
loop_
_atom_site_type_symbol
_atom_site_label
_atom_site_fract_x
_atom_site_fract_y
_atom_site_fract_z
Si Si1 0.657268 0.786494 0.181904
Si Si2 0.149669 0.212822 0.816997
Si Si3 0.444954 0.100478 0.182394
Si Si4 0.189034 0.598974 0.181853
Si Si5 0.312340 0.598577 0.818309
Si Si6 0.056649 0.099486 0.683658
Si Si7 0.752479 0.102449 0.183221
O O1 0.600283 0.826328 0.226520
O O2 0.656122 0.677252 0.223774
O O3 0.700571 0.837222 0.287181
O O4 0.670619 0.801973 0.000000
O O5 0.158265 0.320519 0.772713
O O6 0.097503 0.179436 0.729582
O O7 0.198443 0.149278 0.767525
O O8 0.141083 0.203201 0.000000
O O9 0.500000 0.138167 0.250000
O O10 0.429212 0.000000 0.250000
O O11 0.451637 0.088547 0.000000
O O12 0.169949 0.500000 0.250000
O O13 0.250667 0.613462 0.212400
O O14 0.175377 0.604209 0.000000
O O15 0.331365 0.500000 0.750000
O O16 0.326220 0.604052 0.000000
O O17 0.052426 0.090476 0.500000
O O18 0.000000 0.127794 0.750000
O O19 0.076193 0.000000 0.750000
O O20 0.742808 0.000000 0.250000
O O21 0.764138 0.098573 0.000000
#
# Coordination Sequence:
#
# PCOD8203686 Si02
#       7
#     8   8   8   8   8   8   8
#     4  11  22  36  55  81 111 144 182 225 275 330
#     4  12  23  37  57  82 113 149 185 229 278 328
#     4  10  21  36  56  80 107 143 185 229 272 322
#     4  10  20  35  55  82 112 147 186 227 275 328
#     4  10  20  34  55  80 111 146 183 225 273 327
#     4  11  22  39  60  84 113 147 191 235 277 329
#     4  12  24  37  52  77 111 148 183 222 274 331
#
# _framework density 18.019742999999998
#
# number of rings (size 3 to 8) (size 9 to 14) (size 15 to 20)
#    0.000    1.143    1.429    7.286    0.000    4.571 
#    0.000    0.000    0.000    0.857    0.000    6.000 
#    0.000    0.000    0.000    0.000    0.000    0.000 
#
# Total GULP energy -694753.614593 kJ/mol
# GULP energy per Si atom -12406.314546 kJ/mol
# Density = 1.797873 g / cm^3
# Si number density = 18.019743 Si / 1000 Ang^3
#
#
#
# Elastic Constant Matrix: (Units=GPa)
#
#
# Indices 1 2 3 4 5 6 
#
# 1 90.0157 52.9947 37.3008 0.0000 0.0000 0.0000
# 2 52.9947 122.7094 31.9056 0.0000 0.0000 0.0000
# 3 37.3008 31.9056 106.8289 0.0000 0.0000 0.0000
# 4 0.0000 0.0000 0.0000 30.6556 0.0000 0.0000
# 5 0.0000 0.0000 0.0000 0.0000 14.3581 0.0000
# 6 0.0000 0.0000 0.0000 0.0000 0.0000 18.4495
#
#
#
# Elastic Compliance Matrix: (Units=1/GPa)
#
#
# Indices 1 2 3 4 5 6 
#
# 1 0.016257 -0.006012 -0.003881 0.000000 0.000000 0.000000
# 2 -0.006012 0.011059 -0.001204 0.000000 0.000000 0.000000
# 3 -0.003881 -0.001204 0.011075 0.000000 0.000000 0.000000
# 4 0.000000 0.000000 0.000000 0.032620 0.000000 0.000000
# 5 0.000000 0.000000 0.000000 0.000000 0.069647 0.000000
# 6 0.000000 0.000000 0.000000 0.000000 0.000000 0.054202
#
#
# Mechanical properties :
#
#
# Convention : Reuss Voigt Hill
#
# Bulk Modulus (GPa) = 61.73555 62.66180 62.19868
# Shear Modulus (GPa) = 22.47680 25.84949 24.16315
#
# Velocity S-wave (km/s) = 3.53561 3.79160 3.66584
# Velocity P-wave (km/s) = 7.14155 7.34968 7.24636
#
# Compressibility (1/GPa) = 0.01619812
#
# Stress axis : x y z
#
# Youngs Moduli (GPa) = 61.51371 90.42742 90.29117
#
# Poissons Ratio (x) = 0.54362 0.35040
# Poissons Ratio (y) = 0.36980 0.10868
# Poissons Ratio (z) = 0.23872 0.10885
#
# Static dielectric constant tensor:
#      x y z
#    x 3.329760 0.000000 0.000000 
#    y 0.000000 3.453240 0.000000 
#    z 0.000000 0.000000 3.772280 
# 
# 
# High freq. dielectric constant tensor:
#      x y z
#    x 1.679580 0.000000 0.000000 
#    y 0.000000 1.702220 0.000000 
#    z 0.000000 0.000000 1.720950 
# 
# From -- ./inp_files/5799.got.cif
#   From: 2010.03.12/outbox.cif.g09.slc.cpg/sg49_3_cif.got.tgz:5799.got - 2010.04.14 03:58:27.
