data_PCOD8203064
_publ_section_title
;
Structure prediction by ZEFSAII (Michael W. Deem and Ramdas Pophale) SiO2 
 PCOD8203064
Probable space group: P C C M
;
_chemical_formula_sum "Si O2"
_cell_formula_units_Z 48
_cell_length_a 19.010921
_cell_length_b 8.913225
_cell_length_c 15.054212
_cell_angle_alpha 90.000000
_cell_angle_beta 90.000000
_cell_angle_gamma 90.000000
_cell_volume 2550.915393
_symmetry_space_group_name_H-M "P C C M"
_symmetry_group_IT_number 49
_symmetry_cell_setting 'orthorhombic'
loop_
_space_group_symop_operation_xyz
x,y,z
-x,-y,z
x,-y,1/2-z
-x,y,1/2-z
-x,-y,-z
x,y,-z
-x,y,1/2+z
x,-y,1/2+z
loop_
_atom_site_type_symbol
_atom_site_label
_atom_site_fract_x
_atom_site_fract_y
_atom_site_fract_z
Si Si1 0.827725 0.676304 0.851806
Si Si2 0.316752 0.172612 0.600953
Si Si3 0.316752 0.172612 0.899047
Si Si4 0.827725 0.676303 0.648194
Si Si5 0.082546 0.826303 0.000000
Si Si6 0.082546 0.826303 0.500000
Si Si7 0.577979 0.177559 0.750000
O O1 0.751138 0.727942 0.881828
O O2 0.841670 0.721618 0.750000
O O3 0.832755 0.500000 0.866399
O O4 0.886799 0.753791 0.911101
O O5 0.342159 0.190894 0.500000
O O6 0.248862 0.272058 0.618172
O O7 0.380068 0.231407 0.662677
O O8 0.297830 0.000000 0.623048
O O9 0.380068 0.231407 0.837323
O O10 0.342159 0.190893 0.000000
O O11 0.886799 0.753790 0.588899
O O12 1.000000 0.799000 0.000000
O O13 0.103201 1.000000 0.000000
O O14 0.500000 0.250459 0.750000
O O15 0.570776 0.000000 0.750000
#
# Coordination Sequence:
#
# PCOD8203064 Si02
#       7
#     8   8   8   8   4   4   8
#     4  11  23  38  60  89 119 155 196 240 289 348
#     4  10  19  32  55  84 112 150 197 243 288 341
#     4  10  19  32  55  84 112 150 197 243 288 341
#     4  11  23  38  60  89 119 155 196 240 289 348
#     4  11  25  43  63  89 120 153 192 241 293 346
#     4  11  25  43  63  89 120 153 192 241 293 346
#     4   9  18  32  51  81 120 155 192 243 295 342
#
# _framework density 18.816773999999999
#
# number of rings (size 3 to 8) (size 9 to 14) (size 15 to 20)
#    0.000    1.667    3.333    1.500    0.000    4.667 
#    0.000    6.667    0.000    2.000    0.000    2.333 
#    0.000    0.000    0.000    0.000    0.000    0.000 
#
# Total GULP energy -595343.189895 kJ/mol
# GULP energy per Si atom -12402.983123 kJ/mol
# Density = 1.877395 g / cm^3
# Si number density = 18.816774 Si / 1000 Ang^3
#
#
#
# Elastic Constant Matrix: (Units=GPa)
#
#
# Indices 1 2 3 4 5 6 
#
# 1 99.3533 32.4643 65.9457 0.0000 0.0000 0.0000
# 2 32.4643 55.1523 48.1769 0.0000 0.0000 0.0000
# 3 65.9457 48.1769 168.6432 0.0000 0.0000 0.0000
# 4 0.0000 0.0000 0.0000 26.3599 0.0000 0.0000
# 5 0.0000 0.0000 0.0000 0.0000 38.3264 0.0000
# 6 0.0000 0.0000 0.0000 0.0000 0.0000 -9.6977
#
#
#
# Elastic Compliance Matrix: (Units=1/GPa)
#
#
# Indices 1 2 3 4 5 6 
#
# 1 0.014476 -0.004765 -0.004299 0.000000 0.000000 0.000000
# 2 -0.004765 0.025730 -0.005487 0.000000 0.000000 0.000000
# 3 -0.004299 -0.005487 0.009178 0.000000 0.000000 0.000000
# 4 0.000000 0.000000 0.000000 0.037936 0.000000 0.000000
# 5 0.000000 0.000000 0.000000 0.000000 0.026092 0.000000
# 6 0.000000 0.000000 0.000000 0.000000 0.000000 -0.103117
#
#
# Mechanical properties :
#
#
# Convention : Reuss Voigt Hill
#
# Bulk Modulus (GPa) = 49.30785 68.48028 58.89406
# Shear Modulus (GPa) = 108.32374 22.76851 65.54612
#
# Velocity S-wave (km/s) = 7.59557 3.48230 5.90843
# Velocity P-wave (km/s) = 10.15798 7.25539 8.82681
#
# Compressibility (1/GPa) = 0.02028075
#
# Stress axis : x y z
#
# Youngs Moduli (GPa) = 69.08068 38.86588 108.95305
#
# Poissons Ratio (x) = 0.18521 0.46841
# Poissons Ratio (y) = 0.32920 0.59780
# Poissons Ratio (z) = 0.29699 0.21325
#
# Static dielectric constant tensor:
#      x y z
#    x 3.505960 0.000000 0.000000 
#    y 0.000000 3.363110 0.000000 
#    z 0.000000 0.000000 79.354930 
# 
# 
# High freq. dielectric constant tensor:
#      x y z
#    x 1.727730 0.000000 0.000000 
#    y 0.000000 1.715990 0.000000 
#    z 0.000000 0.000000 1.751960 
# 
# From -- ./inp_files/11875.got.cif
#   From: 2010.03.12/outbox.cif.g09.slc.cpg/sg49_6_cif.got.tgz:11875.got - 2010.04.14 03:58:27.
