data_PCOD8203217
_publ_section_title
;
Structure prediction by ZEFSAII (Michael W. Deem and Ramdas Pophale) SiO2 
 PCOD8203217
Probable space group: P C C M
;
_chemical_formula_sum "Si O2"
_cell_formula_units_Z 48
_cell_length_a 14.740050
_cell_length_b 17.579188
_cell_length_c 9.750923
_cell_angle_alpha 90.000000
_cell_angle_beta 90.000000
_cell_angle_gamma 90.000000
_cell_volume 2526.640739
_symmetry_space_group_name_H-M "P C C M"
_symmetry_group_IT_number 49
_symmetry_cell_setting 'orthorhombic'
loop_
_space_group_symop_operation_xyz
x,y,z
-x,-y,z
x,-y,1/2-z
-x,y,1/2-z
-x,-y,-z
x,y,-z
-x,y,1/2+z
x,-y,1/2+z
loop_
_atom_site_type_symbol
_atom_site_label
_atom_site_fract_x
_atom_site_fract_y
_atom_site_fract_z
Si Si1 0.899041 0.740079 0.755993
Si Si2 0.583029 0.340878 0.159150
Si Si3 0.346676 0.500000 0.250000
Si Si4 0.122669 0.637326 0.000000
Si Si5 0.077158 0.372892 0.000000
Si Si6 0.228485 0.489932 0.000000
Si Si7 0.591752 0.927743 0.666674
Si Si8 0.723576 0.211283 0.158713
O O1 0.870032 0.691211 0.627495
O O2 0.898966 0.680023 0.874918
O O3 0.813984 0.798732 0.757083
O O4 0.000000 0.779263 0.750000
O O5 0.500000 0.309664 0.250000
O O6 0.594971 0.430462 0.191175
O O7 0.671401 0.290234 0.193312
O O8 0.556608 0.331585 0.000000
O O9 0.284282 0.535089 0.368097
O O10 0.207646 0.580013 0.000000
O O11 0.025276 0.595929 0.000000
O O12 0.132941 0.449243 0.000000
O O13 0.500000 0.907715 0.750000
O O14 0.576769 0.941468 0.500000
O O15 0.659582 0.859044 0.692072
O O16 0.632997 0.000000 0.750000
O O17 0.752927 0.209509 0.000000
#
# Coordination Sequence:
#
# PCOD8203217 Si02
#       8
#     8   8   4   4   4   4   8   8
#     4  10  20  36  56  80 110 144 183 231 281 337
#     4  11  24  41  58  78 106 145 194 240 284 335
#     4  12  25  36  55  72 104 150 185 234 288 332
#     4  10  19  34  54  69 104 145 181 235 290 343
#     4  10  21  32  48  79 106 135 183 241 296 327
#     4  12  21  34  51  74 100 136 188 234 286 350
#     4  10  20  37  62  91 125 156 184 225 279 335
#     4  10  20  38  63  85 112 153 192 228 277 337
#
# _framework density 18.997555999999999
#
# number of rings (size 3 to 8) (size 9 to 14) (size 15 to 20)
#    0.000    1.500    1.667    5.000    1.167    0.667 
#    4.500    3.333    0.000    0.500    0.000    2.333 
#    0.000    0.000    0.000    0.000    0.000    0.000 
#
# Total GULP energy -594710.217824 kJ/mol
# GULP energy per Si atom -12389.796205 kJ/mol
# Density = 1.895432 g / cm^3
# Si number density = 18.997556 Si / 1000 Ang^3
#
#
#
# Elastic Constant Matrix: (Units=GPa)
#
#
# Indices 1 2 3 4 5 6 
#
# 1 97.3267 38.5840 32.1342 0.0000 0.0000 0.0000
# 2 38.5840 80.0561 16.2519 0.0000 0.0000 0.0000
# 3 32.1342 16.2519 106.3598 0.0000 0.0000 0.0000
# 4 0.0000 0.0000 0.0000 27.6823 0.0000 0.0000
# 5 0.0000 0.0000 0.0000 0.0000 468.0053 0.0000
# 6 0.0000 0.0000 0.0000 0.0000 0.0000 30.3662
#
#
#
# Elastic Compliance Matrix: (Units=1/GPa)
#
#
# Indices 1 2 3 4 5 6 
#
# 1 0.013699 -0.005946 -0.003230 0.000000 0.000000 0.000000
# 2 -0.005946 0.015472 -0.000568 0.000000 0.000000 0.000000
# 3 -0.003230 -0.000568 0.010465 0.000000 0.000000 0.000000
# 4 0.000000 0.000000 0.000000 0.036124 0.000000 0.000000
# 5 0.000000 0.000000 0.000000 0.000000 0.002137 0.000000
# 6 0.000000 0.000000 0.000000 0.000000 0.000000 0.032931
#
#
# Mechanical properties :
#
#
# Convention : Reuss Voigt Hill
#
# Bulk Modulus (GPa) = 49.63431 50.85363 50.24397
# Shear Modulus (GPa) = 36.48784 118.32894 77.40839
#
# Velocity S-wave (km/s) = 4.38729 7.90074 6.39022
# Velocity P-wave (km/s) = 7.20054 10.49073 8.99731
#
# Compressibility (1/GPa) = 0.02014735
#
# Stress axis : x y z
#
# Youngs Moduli (GPa) = 73.00054 64.63112 95.55962
#
# Poissons Ratio (x) = 0.38432 0.30866
# Poissons Ratio (y) = 0.43409 0.05424
# Poissons Ratio (z) = 0.23580 0.03669
#
# Static dielectric constant tensor:
#      x y z
#    x 3.849240 0.000000 0.000000 
#    y 0.000000 3.281480 0.000000 
#    z 0.000000 0.000000 3.671630 
# 
# 
# High freq. dielectric constant tensor:
#      x y z
#    x 1.751060 0.000000 0.000000 
#    y 0.000000 1.707050 0.000000 
#    z 0.000000 0.000000 1.748900 
# 
# From -- ./inp_files/3795.got.cif
#   From: 2010.03.12/outbox.cif.g09.slc.cpg/sg49_2_cif.got.tgz:3795.got - 2010.04.14 03:58:27.
