data_PCOD8203069
_publ_section_title
;
Structure prediction by ZEFSAII (Michael W. Deem and Ramdas Pophale) SiO2 
 PCOD8203069
Probable space group: P C C M
;
_chemical_formula_sum "Si O2"
_cell_formula_units_Z 64
_cell_length_a 19.441879
_cell_length_b 9.175937
_cell_length_c 18.361600
_cell_angle_alpha 90.000000
_cell_angle_beta 90.000000
_cell_angle_gamma 90.000000
_cell_volume 3275.662744
_symmetry_space_group_name_H-M "P C C M"
_symmetry_group_IT_number 49
_symmetry_cell_setting 'orthorhombic'
loop_
_space_group_symop_operation_xyz
x,y,z
-x,-y,z
x,-y,1/2-z
-x,y,1/2-z
-x,-y,-z
x,y,-z
-x,y,1/2+z
x,-y,1/2+z
loop_
_atom_site_type_symbol
_atom_site_label
_atom_site_fract_x
_atom_site_fract_y
_atom_site_fract_z
Si Si1 0.225535 0.428272 0.585606
Si Si2 0.369648 0.321788 0.585295
Si Si3 0.161119 0.946370 0.332242
Si Si4 0.105109 0.777463 0.085136
Si Si5 0.019456 0.831102 0.327021
Si Si6 0.591680 0.347701 0.581239
Si Si7 0.485434 0.838165 0.835326
Si Si8 0.743843 0.744561 0.083864
O O1 0.236869 0.445206 0.500000
O O2 0.289561 0.326963 0.611649
O O3 0.152405 0.359616 0.606908
O O4 0.227256 0.592155 0.616790
O O5 0.376521 0.275396 0.500000
O O6 0.399725 0.482464 0.598292
O O7 0.408693 0.207907 0.638417
O O8 0.101407 0.821975 0.339006
O O9 0.229624 0.875809 0.365375
O O10 0.173224 0.000000 0.250000
O O11 0.139494 0.082528 0.380035
O O12 0.026661 0.750211 0.111950
O O13 0.102873 0.802498 0.000000
O O14 0.000000 0.758521 0.250000
O O15 0.000000 0.000000 0.325930
O O16 0.562986 0.328392 0.500000
O O17 0.536342 0.282273 0.634428
O O18 0.661981 0.258029 0.590101
O O19 0.500000 0.837059 0.750000
O O20 0.500000 0.000000 0.866383
O O21 0.767127 0.770235 0.000000
#
# Coordination Sequence:
#
# PCOD8203069 Si02
#       8
#     8   8   8   8   8   8   8   8
#     4   8  17  36  58  84 114 138 176 240 290 329
#     4   9  18  36  63  84 103 143 191 232 279 337
#     4  11  20  34  54  80 113 152 182 229 274 331
#     4  10  19  32  57  85 106 139 189 235 275 329
#     4   9  16  33  51  71 107 147 176 219 277 322
#     4   9  19  38  61  82 106 143 191 235 277 335
#     4  11  24  38  50  79 120 153 183 231 282 329
#     4   9  19  37  59  83 113 146 185 232 284 338
#
# _framework density 19.538029000000002
#
# number of rings (size 3 to 8) (size 9 to 14) (size 15 to 20)
#    0.000    2.500    2.500    2.625    0.000    6.750 
#    4.500    3.750    0.000    3.000    0.000    0.000 
#    0.000    0.000    0.000    0.000    0.000    0.000 
#
# Total GULP energy -793229.938775 kJ/mol
# GULP energy per Si atom -12394.217793 kJ/mol
# Density = 1.949356 g / cm^3
# Si number density = 19.538029 Si / 1000 Ang^3
#
#
#
# Elastic Constant Matrix: (Units=GPa)
#
#
# Indices 1 2 3 4 5 6 
#
# 1 56.1208 19.1072 35.5077 0.0000 0.0000 0.0000
# 2 19.1072 44.2749 26.4026 0.0000 0.0000 0.0000
# 3 35.5077 26.4026 77.9769 0.0000 0.0000 0.0000
# 4 0.0000 0.0000 0.0000 166.5042 0.0000 0.0000
# 5 0.0000 0.0000 0.0000 0.0000 10.2313 0.0000
# 6 0.0000 0.0000 0.0000 0.0000 0.0000 32.7210
#
#
#
# Elastic Compliance Matrix: (Units=1/GPa)
#
#
# Indices 1 2 3 4 5 6 
#
# 1 0.025953 -0.005203 -0.010056 0.000000 0.000000 0.000000
# 2 -0.005203 0.029344 -0.007566 0.000000 0.000000 0.000000
# 3 -0.010056 -0.007566 0.019965 0.000000 0.000000 0.000000
# 4 0.000000 0.000000 0.000000 0.006006 0.000000 0.000000
# 5 0.000000 0.000000 0.000000 0.000000 0.097739 0.000000
# 6 0.000000 0.000000 0.000000 0.000000 0.000000 0.030561
#
#
# Mechanical properties :
#
#
# Convention : Reuss Voigt Hill
#
# Bulk Modulus (GPa) = 33.77181 37.82309 35.79745
# Shear Modulus (GPa) = 18.86152 48.38163 33.62158
#
# Velocity S-wave (km/s) = 3.11042 4.98162 4.15279
# Velocity P-wave (km/s) = 5.49748 7.24496 6.43085
#
# Compressibility (1/GPa) = 0.02961050
#
# Stress axis : x y z
#
# Youngs Moduli (GPa) = 38.53152 34.07886 50.08676
#
# Poissons Ratio (x) = 0.17732 0.50368
# Poissons Ratio (y) = 0.20049 0.37897
# Poissons Ratio (z) = 0.38748 0.25785
#
# Static dielectric constant tensor:
#      x y z
#    x 3.883130 0.000000 0.000000 
#    y 0.000000 3.127650 0.000000 
#    z 0.000000 0.000000 3.467540 
# 
# 
# High freq. dielectric constant tensor:
#      x y z
#    x 1.768060 0.000000 0.000000 
#    y 0.000000 1.741010 0.000000 
#    z 0.000000 0.000000 1.745920 
# 
# From -- ./inp_files/18332.got.cif
#   From: 2010.03.12/outbox.cif.g09.slc.cpg/sg49_10_cif.got.tgz:18332.got - 2010.04.14 03:58:27.
