data_PCOD8203867
_publ_section_title
;
Structure prediction by ZEFSAII (Michael W. Deem and Ramdas Pophale) SiO2 
 PCOD8203867
Probable space group: P C C M
;
_chemical_formula_sum "Si O2"
_cell_formula_units_Z 40
_cell_length_a 9.971978
_cell_length_b 25.692806
_cell_length_c 8.565740
_cell_angle_alpha 90.000000
_cell_angle_beta 90.000000
_cell_angle_gamma 90.000000
_cell_volume 2194.611938
_symmetry_space_group_name_H-M "P C C M"
_symmetry_group_IT_number 49
_symmetry_cell_setting 'orthorhombic'
loop_
_space_group_symop_operation_xyz
x,y,z
-x,-y,z
x,-y,1/2-z
-x,y,1/2-z
-x,-y,-z
x,y,-z
-x,y,1/2+z
x,-y,1/2+z
loop_
_atom_site_type_symbol
_atom_site_label
_atom_site_fract_x
_atom_site_fract_y
_atom_site_fract_z
Si Si1 0.644106 0.750482 0.686180
Si Si2 0.645859 0.862479 0.814399
Si Si3 0.852128 0.550826 0.317264
Si Si4 0.144649 0.944033 0.814721
Si Si5 0.146982 0.335250 0.683802
O O1 0.500000 0.733071 0.750000
O O2 0.638774 0.755439 0.500000
O O3 0.688573 0.805111 0.759751
O O4 0.750270 0.707875 0.746244
O O5 0.500000 0.877057 0.750000
O O6 0.749587 0.902308 0.742218
O O7 0.646065 0.865824 0.000000
O O8 0.771838 0.500000 0.250000
O O9 0.856390 0.544554 0.500000
O O10 0.793506 0.607526 0.268809
O O11 0.000000 0.549363 0.250000
O O12 0.000000 0.927646 0.750000
O O13 0.188830 0.000000 0.750000
O O14 0.139217 0.946137 0.000000
O O15 0.133414 0.331485 0.500000
O O16 0.000000 0.324438 0.750000
#
# Coordination Sequence:
#
# PCOD8203867 Si02
#       5
#     8   8   8   8   8
#     4  10  20  36  54  75 102 136 173 214 259 310
#     4  11  22  38  58  82 108 140 179 221 263 311
#     4   9  15  25  41  65  94 126 159 200 248 299
#     4  11  22  39  60  85 114 146 179 216 261 312
#     4   9  19  32  49  73 102 130 166 210 255 304
#
# _framework density 18.226458000000001
#
# number of rings (size 3 to 8) (size 9 to 14) (size 15 to 20)
#    0.000    2.000    0.000    7.200    0.000    3.600 
#    0.000    4.000    0.000    0.600    0.000    4.200 
#    0.000    0.000    0.000    0.000    0.000    0.000 
#
# Total GULP energy -495807.572386 kJ/mol
# GULP energy per Si atom -12395.189310 kJ/mol
# Density = 1.818497 g / cm^3
# Si number density = 18.226458 Si / 1000 Ang^3
#
#
#
# Elastic Constant Matrix: (Units=GPa)
#
#
# Indices 1 2 3 4 5 6 
#
# 1 101.4998 107.7850 45.5435 0.0000 0.0000 0.0000
# 2 107.7850 174.7698 62.7311 0.0000 0.0000 0.0000
# 3 45.5435 62.7311 124.1303 0.0000 0.0000 0.0000
# 4 0.0000 0.0000 0.0000 35.7486 0.0000 0.0000
# 5 0.0000 0.0000 0.0000 0.0000 23.5832 0.0000
# 6 0.0000 0.0000 0.0000 0.0000 0.0000 -2.9696
#
#
#
# Elastic Compliance Matrix: (Units=1/GPa)
#
#
# Indices 1 2 3 4 5 6 
#
# 1 0.028932 -0.017143 -0.001952 0.000000 0.000000 0.000000
# 2 -0.017143 0.017147 -0.002376 0.000000 0.000000 0.000000
# 3 -0.001952 -0.002376 0.009973 0.000000 0.000000 0.000000
# 4 0.000000 0.000000 0.000000 0.027973 0.000000 0.000000
# 5 0.000000 0.000000 0.000000 0.000000 0.042403 0.000000
# 6 0.000000 0.000000 0.000000 0.000000 0.000000 -0.336750
#
#
# Mechanical properties :
#
#
# Convention : Reuss Voigt Hill
#
# Bulk Modulus (GPa) = 76.27064 92.50213 84.38639
# Shear Modulus (GPa) = -30.67279 23.56180 -3.55549
#
# Velocity S-wave (km/s) = -4.10673 3.59935 -1.39820
# Velocity P-wave (km/s) = 4.41021 8.25442 6.61761
#
# Compressibility (1/GPa) = 0.01311120
#
# Stress axis : x y z
#
# Youngs Moduli (GPa) = 34.56348 58.31973 100.27201
#
# Poissons Ratio (x) = 0.99975 0.19573
# Poissons Ratio (y) = 0.59251 0.23822
# Poissons Ratio (z) = 0.06747 0.13855
#
# Static dielectric constant tensor:
#      x y z
#    x 3.216700 0.000000 0.000000 
#    y 0.000000 4.238730 0.000000 
#    z 0.000000 0.000000 3.502520 
# 
# 
# High freq. dielectric constant tensor:
#      x y z
#    x 1.676560 0.000000 0.000000 
#    y 0.000000 1.727810 0.000000 
#    z 0.000000 0.000000 1.723930 
# 
# From -- ./inp_files/1928.got.cif
#   From: 2010.03.12/outbox.cif.g09.slc.cpg/sg49_1_cif.got.tgz:1928.got - 2010.04.14 03:58:27.
