data_PCOD8203219
_publ_section_title
;
Structure prediction by ZEFSAII (Michael W. Deem and Ramdas Pophale) SiO2 
 PCOD8203219
Probable space group: P C C M
;
_chemical_formula_sum "Si O2"
_cell_formula_units_Z 56
_cell_length_a 19.170095
_cell_length_b 9.361540
_cell_length_c 15.281951
_cell_angle_alpha 90.000000
_cell_angle_beta 90.000000
_cell_angle_gamma 90.000000
_cell_volume 2742.523548
_symmetry_space_group_name_H-M "P C C M"
_symmetry_group_IT_number 49
_symmetry_cell_setting 'orthorhombic'
loop_
_space_group_symop_operation_xyz
x,y,z
-x,-y,z
x,-y,1/2-z
-x,y,1/2-z
-x,-y,-z
x,y,-z
-x,y,1/2+z
x,-y,1/2+z
loop_
_atom_site_type_symbol
_atom_site_label
_atom_site_fract_x
_atom_site_fract_y
_atom_site_fract_z
Si Si1 0.916781 0.596982 0.835890
Si Si2 0.818250 0.871294 0.395562
Si Si3 0.055610 0.685623 0.903372
Si Si4 0.582443 0.663606 0.747666
Si Si5 0.350063 0.164873 0.098080
Si Si6 0.189114 0.189406 0.900365
Si Si7 0.663001 0.167261 0.102257
O O1 0.918351 0.500000 0.750000
O O2 0.918983 0.479217 0.913241
O O3 0.848443 0.693839 0.839933
O O4 0.985902 0.696856 0.844092
O O5 0.816987 0.872294 0.500000
O O6 0.882058 0.776936 0.358207
O O7 0.743121 0.809167 0.365426
O O8 0.828422 0.032994 0.362019
O O9 0.039963 0.746636 0.000000
O O10 0.607982 0.500000 0.750000
O O11 0.500000 0.673793 0.750000
O O12 0.605889 0.745320 0.834153
O O13 0.612711 0.734225 0.659664
O O14 0.270840 0.217090 0.105251
O O15 0.357047 0.997247 0.118572
O O16 0.377939 0.195431 0.000000
O O17 0.162170 0.204221 0.000000
O O18 0.653920 0.207696 0.000000
#
# Coordination Sequence:
#
# PCOD8203219 Si02
#       7
#     8   8   8   8   8   8   8
#     4  11  22  34  48  73 111 149 184 225 272 327
#     4   8  17  34  59  87 110 135 182 239 288 339
#     4  10  19  34  54  75 102 142 185 226 271 327
#     4  11  25  41  58  87 124 159 197 239 286 346
#     4   9  20  39  63  89 119 153 195 245 297 352
#     4   9  18  36  59  84 110 140 182 235 287 338
#     4   9  19  39  64  90 119 153 193 244 299 353
#
# _framework density 20.419149999999998
#
# number of rings (size 3 to 8) (size 9 to 14) (size 15 to 20)
#    0.000    2.429    0.000    4.714    0.000    5.714 
#    0.000   10.714    0.000    3.429    0.000    0.000 
#    0.000    0.000    0.000    0.000    0.000    0.000 
#
# Total GULP energy -694144.935266 kJ/mol
# GULP energy per Si atom -12395.445273 kJ/mol
# Density = 2.037268 g / cm^3
# Si number density = 20.419150 Si / 1000 Ang^3
#
#
#
# Elastic Constant Matrix: (Units=GPa)
#
#
# Indices 1 2 3 4 5 6 
#
# 1 95.9189 66.2594 49.4714 0.0000 0.0000 0.0000
# 2 66.2594 99.7967 52.9142 0.0000 0.0000 0.0000
# 3 49.4714 52.9142 105.1923 0.0000 0.0000 0.0000
# 4 0.0000 0.0000 0.0000 26.0724 0.0000 0.0000
# 5 0.0000 0.0000 0.0000 0.0000 27.4056 0.0000
# 6 0.0000 0.0000 0.0000 0.0000 0.0000 42.3694
#
#
#
# Elastic Compliance Matrix: (Units=1/GPa)
#
#
# Indices 1 2 3 4 5 6 
#
# 1 0.020300 -0.011477 -0.003774 0.000000 0.000000 0.000000
# 2 -0.011477 0.020154 -0.004740 0.000000 0.000000 0.000000
# 3 -0.003774 -0.004740 0.013666 0.000000 0.000000 0.000000
# 4 0.000000 0.000000 0.000000 0.038355 0.000000 0.000000
# 5 0.000000 0.000000 0.000000 0.000000 0.036489 0.000000
# 6 0.000000 0.000000 0.000000 0.000000 0.000000 0.023602
#
#
# Mechanical properties :
#
#
# Convention : Reuss Voigt Hill
#
# Bulk Modulus (GPa) = 70.73479 70.91089 70.82284
# Shear Modulus (GPa) = 25.34722 27.98700 26.66711
#
# Velocity S-wave (km/s) = 3.52710 3.70621 3.61776
# Velocity P-wave (km/s) = 7.16267 7.28819 7.22570
#
# Compressibility (1/GPa) = 0.01413731
#
# Stress axis : x y z
#
# Youngs Moduli (GPa) = 49.26070 49.61794 73.17634
#
# Poissons Ratio (x) = 0.56948 0.27615
# Poissons Ratio (y) = 0.56538 0.34687
# Poissons Ratio (z) = 0.18590 0.23520
#
# Static dielectric constant tensor:
#      x y z
#    x 3.690250 0.000000 0.000000 
#    y 0.000000 3.864140 0.000000 
#    z 0.000000 0.000000 3.695220 
# 
# 
# High freq. dielectric constant tensor:
#      x y z
#    x 1.793000 0.000000 0.000000 
#    y 0.000000 1.789240 0.000000 
#    z 0.000000 0.000000 1.799200 
# 
# From -- ./inp_files/14379.got.cif
#   From: 2010.03.12/outbox.cif.g09.slc.cpg/sg49_8_cif.got.tgz:14379.got - 2010.04.14 03:58:27.
