data_PCOD8203673
_publ_section_title
;
Structure prediction by ZEFSAII (Michael W. Deem and Ramdas Pophale) SiO2 
 PCOD8203673
Probable space group: P C C M
;
_chemical_formula_sum "Si O2"
_cell_formula_units_Z 64
_cell_length_a 20.677918
_cell_length_b 19.445980
_cell_length_c 8.611500
_cell_angle_alpha 90.000000
_cell_angle_beta 90.000000
_cell_angle_gamma 90.000000
_cell_volume 3462.704644
_symmetry_space_group_name_H-M "P C C M"
_symmetry_group_IT_number 49
_symmetry_cell_setting 'orthorhombic'
loop_
_space_group_symop_operation_xyz
x,y,z
-x,-y,z
x,-y,1/2-z
-x,y,1/2-z
-x,-y,-z
x,y,-z
-x,y,1/2+z
x,-y,1/2+z
loop_
_atom_site_type_symbol
_atom_site_label
_atom_site_fract_x
_atom_site_fract_y
_atom_site_fract_z
Si Si1 0.619579 0.428086 0.182445
Si Si2 0.184396 0.289964 0.817383
Si Si3 0.066553 0.792616 0.183157
Si Si4 0.566867 0.707960 0.183216
Si Si5 0.768696 0.572530 0.683450
Si Si6 0.310877 0.795119 0.317011
Si Si7 0.879187 0.072423 0.316055
Si Si8 0.261731 0.928550 0.816969
O O1 0.594326 0.500000 0.250000
O O2 0.576277 0.368894 0.255669
O O3 0.694056 0.416319 0.230163
O O4 0.610144 0.428164 0.000000
O O5 0.124500 0.257380 0.728426
O O6 0.189423 0.368886 0.766071
O O7 0.249316 0.250217 0.767498
O O8 0.172283 0.284564 0.000000
O O9 0.074254 0.867988 0.256855
O O10 0.000000 0.761170 0.250000
O O11 0.062996 0.799421 0.000000
O O12 0.500000 0.738107 0.250000
O O13 0.625098 0.756241 0.241184
O O14 0.564135 0.706282 0.000000
O O15 0.793533 0.500000 0.750000
O O16 0.779222 0.575038 0.500000
O O17 0.311666 0.808663 0.500000
O O18 0.310481 0.867654 0.227747
O O19 0.879365 0.070011 0.500000
O O20 0.807053 0.088605 0.259000
O O21 0.904497 0.000000 0.250000
O O22 0.289659 0.000000 0.750000
O O23 0.253117 0.934846 0.000000
#
# Coordination Sequence:
#
# PCOD8203673 Si02
#       8
#     8   8   8   8   8   8   8   8
#     4  10  20  34  54  80 113 151 192 234 279 336
#     4  11  21  37  61  87 116 151 191 238 288 339
#     4  12  25  41  59  84 116 154 195 237 287 340
#     4  11  23  39  57  81 114 152 191 236 285 340
#     4  10  20  34  56  86 118 150 190 238 287 340
#     4  10  21  37  59  84 115 150 190 235 286 339
#     4  11  21  36  56  82 116 154 194 235 281 336
#     4  11  21  34  57  86 117 149 188 235 285 338
#
# _framework density 18.482662999999999
#
# number of rings (size 3 to 8) (size 9 to 14) (size 15 to 20)
#    0.000    1.250    2.500    5.625    0.000    3.000 
#    0.000    2.500    0.000    0.750    0.000    5.250 
#    0.000    0.000    0.000    0.000    0.000    0.000 
#
# Total GULP energy -793983.074286 kJ/mol
# GULP energy per Si atom -12405.985536 kJ/mol
# Density = 1.844060 g / cm^3
# Si number density = 18.482663 Si / 1000 Ang^3
#
#
#
# Elastic Constant Matrix: (Units=GPa)
#
#
# Indices 1 2 3 4 5 6 
#
# 1 106.8772 54.3732 44.5777 0.0000 0.0000 0.0000
# 2 54.3732 117.4229 43.9049 0.0000 0.0000 0.0000
# 3 44.5777 43.9049 117.5090 0.0000 0.0000 0.0000
# 4 0.0000 0.0000 0.0000 35.7799 0.0000 0.0000
# 5 0.0000 0.0000 0.0000 0.0000 27.0450 0.0000
# 6 0.0000 0.0000 0.0000 0.0000 0.0000 18.9965
#
#
#
# Elastic Compliance Matrix: (Units=1/GPa)
#
#
# Indices 1 2 3 4 5 6 
#
# 1 0.013178 -0.004920 -0.003161 0.000000 0.000000 0.000000
# 2 -0.004920 0.011736 -0.002518 0.000000 0.000000 0.000000
# 3 -0.003161 -0.002518 0.010650 0.000000 0.000000 0.000000
# 4 0.000000 0.000000 0.000000 0.027949 0.000000 0.000000
# 5 0.000000 0.000000 0.000000 0.000000 0.036975 0.000000
# 6 0.000000 0.000000 0.000000 0.000000 0.000000 0.052641
#
#
# Mechanical properties :
#
#
# Convention : Reuss Voigt Hill
#
# Bulk Modulus (GPa) = 69.61276 69.72453 69.66864
# Shear Modulus (GPa) = 27.91468 29.62784 28.77126
#
# Velocity S-wave (km/s) = 3.89050 4.00810 3.94974
# Velocity P-wave (km/s) = 7.61097 7.69584 7.65352
#
# Compressibility (1/GPa) = 0.01436518
#
# Stress axis : x y z
#
# Youngs Moduli (GPa) = 75.88371 85.20591 93.89650
#
# Poissons Ratio (x) = 0.41924 0.29679
# Poissons Ratio (y) = 0.37337 0.23648
# Poissons Ratio (z) = 0.23985 0.21459
#
# Static dielectric constant tensor:
#      x y z
#    x 3.123080 0.000000 0.000000 
#    y 0.000000 3.513580 0.000000 
#    z 0.000000 0.000000 3.459730 
# 
# 
# High freq. dielectric constant tensor:
#      x y z
#    x 1.694000 0.000000 0.000000 
#    y 0.000000 1.720810 0.000000 
#    z 0.000000 0.000000 1.733770 
# 
# From -- ./inp_files/5928.got.cif
#   From: 2010.03.12/outbox.cif.g09.slc.cpg/sg49_3_cif.got.tgz:5928.got - 2010.04.14 03:58:27.
