data_PCOD8203180
_publ_section_title
;
Structure prediction by ZEFSAII (Michael W. Deem and Ramdas Pophale) SiO2 
 PCOD8203180
Probable space group: P C C M
;
_chemical_formula_sum "Si O2"
_cell_formula_units_Z 56
_cell_length_a 11.444411
_cell_length_b 14.912582
_cell_length_c 16.532240
_cell_angle_alpha 90.000000
_cell_angle_beta 90.000000
_cell_angle_gamma 90.000000
_cell_volume 2821.486601
_symmetry_space_group_name_H-M "P C C M"
_symmetry_group_IT_number 49
_symmetry_cell_setting 'orthorhombic'
loop_
_space_group_symop_operation_xyz
x,y,z
-x,-y,z
x,-y,1/2-z
-x,y,1/2-z
-x,-y,-z
x,y,-z
-x,y,1/2+z
x,-y,1/2+z
loop_
_atom_site_type_symbol
_atom_site_label
_atom_site_fract_x
_atom_site_fract_y
_atom_site_fract_z
Si Si1 0.230979 0.511160 0.655341
Si Si2 0.814608 0.230644 0.362480
Si Si3 0.025682 0.384361 0.090151
Si Si4 0.992995 0.899220 0.093768
Si Si5 0.858212 0.745322 0.324747
Si Si6 0.610953 0.668228 0.094934
Si Si7 0.653152 0.666421 0.405984
O O1 0.217782 0.500000 0.750000
O O2 0.098583 0.526643 0.619776
O O3 0.316261 0.594681 0.643369
O O4 0.292372 0.430311 0.609622
O O5 0.878915 0.305228 0.416758
O O6 0.853623 0.250808 0.271064
O O7 0.675948 0.237872 0.381524
O O8 0.859842 0.133247 0.390772
O O9 0.921938 0.348656 0.149199
O O10 0.974998 0.400528 0.000000
O O11 0.079383 0.833867 0.142136
O O12 0.028065 0.896297 0.000000
O O13 0.000000 0.000000 0.127865
O O14 0.727005 0.742517 0.359602
O O15 0.478972 0.670593 0.127456
O O16 0.612511 0.647364 0.000000
O O17 0.655790 0.689443 0.500000
#
# Coordination Sequence:
#
# PCOD8203180 Si02
#       7
#     8   8   8   8   8   8   8
#     4  11  22  34  52  77 105 140 186 233 273 312
#     4  10  19  33  56  82 108 138 175 218 264 316
#     4  10  19  35  54  72 103 141 178 217 261 317
#     4  10  20  36  60  86 112 141 173 211 257 317
#     4  11  22  35  54  82 112 140 173 217 272 322
#     4  10  21  38  57  75 101 142 188 227 266 317
#     4  11  22  36  54  75 105 144 185 228 269 313
#
# _framework density 19.847693
#
# number of rings (size 3 to 8) (size 9 to 14) (size 15 to 20)
#    0.000    1.571    0.000    9.429    0.000    5.714 
#    0.000    3.571    0.000    0.857    0.000    6.000 
#    0.000    0.000    0.000    0.000    0.000    0.000 
#
# Total GULP energy -694370.543353 kJ/mol
# GULP energy per Si atom -12399.473988 kJ/mol
# Density = 1.980252 g / cm^3
# Si number density = 19.847693 Si / 1000 Ang^3
#
#
#
# Elastic Constant Matrix: (Units=GPa)
#
#
# Indices 1 2 3 4 5 6 
#
# 1 142.5869 35.8272 24.2953 0.0000 0.0000 0.0000
# 2 35.8272 70.6525 15.4459 0.0000 0.0000 0.0000
# 3 24.2953 15.4459 98.2989 0.0000 0.0000 0.0000
# 4 0.0000 0.0000 0.0000 19.9068 0.0000 0.0000
# 5 0.0000 0.0000 0.0000 0.0000 27.7143 0.0000
# 6 0.0000 0.0000 0.0000 0.0000 0.0000 20.3234
#
#
#
# Elastic Compliance Matrix: (Units=1/GPa)
#
#
# Indices 1 2 3 4 5 6 
#
# 1 0.008226 -0.003859 -0.001427 0.000000 0.000000 0.000000
# 2 -0.003859 0.016468 -0.001634 0.000000 0.000000 0.000000
# 3 -0.001427 -0.001634 0.010782 0.000000 0.000000 0.000000
# 4 0.000000 0.000000 0.000000 0.050234 0.000000 0.000000
# 5 0.000000 0.000000 0.000000 0.000000 0.036082 0.000000
# 6 0.000000 0.000000 0.000000 0.000000 0.000000 0.049204
#
#
# Mechanical properties :
#
#
# Convention : Reuss Voigt Hill
#
# Bulk Modulus (GPa) = 46.21782 51.40836 48.81309
# Shear Modulus (GPa) = 26.03495 29.32023 27.67759
#
# Velocity S-wave (km/s) = 3.62572 3.84769 3.73835
# Velocity P-wave (km/s) = 6.39254 6.75997 6.57882
#
# Compressibility (1/GPa) = 0.02163668
#
# Stress axis : x y z
#
# Youngs Moduli (GPa) = 121.56400 60.72364 92.74382
#
# Poissons Ratio (x) = 0.23436 0.13232
# Poissons Ratio (y) = 0.46917 0.15152
# Poissons Ratio (z) = 0.17344 0.09921
#
# Static dielectric constant tensor:
#      x y z
#    x 4.057120 0.000000 0.000000 
#    y 0.000000 3.625100 0.000000 
#    z 0.000000 0.000000 3.599680 
# 
# 
# High freq. dielectric constant tensor:
#      x y z
#    x 1.779050 0.000000 0.000000 
#    y 0.000000 1.741300 0.000000 
#    z 0.000000 0.000000 1.789110 
# 
# From -- ./inp_files/12920.got.cif
#   From: 2010.03.12/outbox.cif.g09.slc.cpg/sg49_7_cif.got.tgz:12920.got - 2010.04.14 03:58:27.
