data_PCOD8203873
_publ_section_title
;
Structure prediction by ZEFSAII (Michael W. Deem and Ramdas Pophale) SiO2 
 PCOD8203873
Probable space group: P C C M
;
_chemical_formula_sum "Si O2"
_cell_formula_units_Z 48
_cell_length_a 9.593284
_cell_length_b 30.908372
_cell_length_c 8.511911
_cell_angle_alpha 90.000000
_cell_angle_beta 90.000000
_cell_angle_gamma 90.000000
_cell_volume 2523.890484
_symmetry_space_group_name_H-M "P C C M"
_symmetry_group_IT_number 49
_symmetry_cell_setting 'orthorhombic'
loop_
_space_group_symop_operation_xyz
x,y,z
-x,-y,z
x,-y,1/2-z
-x,y,1/2-z
-x,-y,-z
x,y,-z
-x,y,1/2+z
x,-y,1/2+z
loop_
_atom_site_type_symbol
_atom_site_label
_atom_site_fract_x
_atom_site_fract_y
_atom_site_fract_z
Si Si1 0.851950 0.452563 0.685913
Si Si2 0.150594 0.787045 0.187342
Si Si3 0.846088 0.305462 0.686354
Si Si4 0.655242 0.380136 0.185872
Si Si5 0.654511 0.957453 0.684006
Si Si6 0.347023 0.863284 0.814862
O O1 0.819397 0.500000 0.750000
O O2 0.859879 0.453824 0.500000
O O3 0.728163 0.421885 0.740458
O O4 0.000000 0.435096 0.750000
O O5 0.201768 0.742575 0.265707
O O6 0.249680 0.825237 0.249320
O O7 0.000000 0.799721 0.250000
O O8 0.148997 0.781797 0.000000
O O9 0.845023 0.311211 0.500000
O O10 0.736792 0.337373 0.764606
O O11 0.000000 0.315679 0.750000
O O12 0.500000 0.376972 0.250000
O O13 0.653343 0.384637 0.000000
O O14 0.500000 0.958515 0.750000
O O15 0.650567 0.962028 0.500000
O O16 0.717189 0.910525 0.734400
O O17 0.737128 0.000000 0.750000
O O18 0.500000 0.855888 0.750000
O O19 0.356950 0.860605 0.000000
#
# Coordination Sequence:
#
# PCOD8203873 Si02
#       6
#     8   8   8   8   8   8
#     4  11  22  40  64  92 121 156 197 239 280 327
#     4  10  20  36  55  78 105 138 177 221 266 319
#     4  11  22  39  61  85 110 144 185 228 272 325
#     4  12  25  42  61  87 119 153 189 232 282 334
#     4   9  15  25  41  65  94 127 163 206 253 305
#     4   9  19  32  49  73 103 133 169 213 262 314
#
# _framework density 19.018256999999998
#
# number of rings (size 3 to 8) (size 9 to 14) (size 15 to 20)
#    0.000    1.667    0.000    8.000    0.000    3.000 
#    0.000    3.333    0.000    0.500    0.000    3.500 
#    0.000    0.000    0.000    0.000    0.000    0.000 
#
# Total GULP energy -595052.918393 kJ/mol
# GULP energy per Si atom -12396.935800 kJ/mol
# Density = 1.897497 g / cm^3
# Si number density = 19.018257 Si / 1000 Ang^3
#
#
#
# Elastic Constant Matrix: (Units=GPa)
#
#
# Indices 1 2 3 4 5 6 
#
# 1 98.4253 84.6947 32.5326 0.0000 0.0000 0.0000
# 2 84.6947 155.4876 41.8053 0.0000 0.0000 0.0000
# 3 32.5326 41.8053 113.6977 0.0000 0.0000 0.0000
# 4 0.0000 0.0000 0.0000 34.8412 0.0000 0.0000
# 5 0.0000 0.0000 0.0000 0.0000 25.4383 0.0000
# 6 0.0000 0.0000 0.0000 0.0000 0.0000 148.3475
#
#
#
# Elastic Compliance Matrix: (Units=1/GPa)
#
#
# Indices 1 2 3 4 5 6 
#
# 1 0.019470 -0.010107 -0.001855 0.000000 0.000000 0.000000
# 2 -0.010107 0.012383 -0.001661 0.000000 0.000000 0.000000
# 3 -0.001855 -0.001661 0.009937 0.000000 0.000000 0.000000
# 4 0.000000 0.000000 0.000000 0.028702 0.000000 0.000000
# 5 0.000000 0.000000 0.000000 0.000000 0.039311 0.000000
# 6 0.000000 0.000000 0.000000 0.000000 0.000000 0.006741
#
#
# Mechanical properties :
#
#
# Convention : Reuss Voigt Hill
#
# Bulk Modulus (GPa) = 68.75568 76.18617 72.47093
# Shear Modulus (GPa) = 33.63910 55.63060 44.63485
#
# Velocity S-wave (km/s) = 4.21025 5.41430 4.84979
# Velocity P-wave (km/s) = 7.73730 8.90127 8.33962
#
# Compressibility (1/GPa) = 0.01454425
#
# Stress axis : x y z
#
# Youngs Moduli (GPa) = 51.36186 80.75515 100.63564
#
# Poissons Ratio (x) = 0.81615 0.18667
# Poissons Ratio (y) = 0.51909 0.16719
# Poissons Ratio (z) = 0.09527 0.13416
#
# Static dielectric constant tensor:
#      x y z
#    x 3.357960 0.000000 0.000000 
#    y 0.000000 4.211270 0.000000 
#    z 0.000000 0.000000 3.634670 
# 
# 
# High freq. dielectric constant tensor:
#      x y z
#    x 1.710190 0.000000 0.000000 
#    y 0.000000 1.765410 0.000000 
#    z 0.000000 0.000000 1.757290 
# 
# From -- ./inp_files/2019.got.cif
#   From: 2010.03.12/outbox.cif.g09.slc.cpg/sg49_2_cif.got.tgz:2019.got - 2010.04.14 03:58:27.
