data_PCOD8203551
_publ_section_title
;
Structure prediction by ZEFSAII (Michael W. Deem and Ramdas Pophale) SiO2 
 PCOD8203551
Probable space group: P C C M
;
_chemical_formula_sum "Si O2"
_cell_formula_units_Z 48
_cell_length_a 9.649190
_cell_length_b 30.064677
_cell_length_c 8.877492
_cell_angle_alpha 90.000000
_cell_angle_beta 90.000000
_cell_angle_gamma 90.000000
_cell_volume 2575.358482
_symmetry_space_group_name_H-M "P C C M"
_symmetry_group_IT_number 49
_symmetry_cell_setting 'orthorhombic'
loop_
_space_group_symop_operation_xyz
x,y,z
-x,-y,z
x,-y,1/2-z
-x,y,1/2-z
-x,-y,-z
x,y,-z
-x,y,1/2+z
x,-y,1/2+z
loop_
_atom_site_type_symbol
_atom_site_label
_atom_site_fract_x
_atom_site_fract_y
_atom_site_fract_z
Si Si1 0.856638 0.953443 0.177012
Si Si2 0.350455 0.874533 0.323095
Si Si3 0.858410 0.295325 0.825733
Si Si4 0.648671 0.360638 0.675474
Si Si5 0.856024 0.191596 0.175215
Si Si6 0.649428 0.458157 0.674614
O O1 0.736198 0.918711 0.213449
O O2 0.000000 0.936240 0.250000
O O3 0.811180 0.000000 0.250000
O O4 0.879824 0.959759 0.000000
O O5 0.500000 0.880111 0.250000
O O6 0.366680 0.866455 0.500000
O O7 0.273050 0.832488 0.252067
O O8 0.736235 0.322339 0.751048
O O9 0.830453 0.243525 0.797497
O O10 0.000000 0.310815 0.750000
O O11 0.867259 0.307102 0.000000
O O12 0.500000 0.359367 0.750000
O O13 0.632916 0.350182 0.500000
O O14 0.719242 0.409602 0.700669
O O15 0.000000 0.175948 0.250000
O O16 0.863338 0.179267 0.000000
O O17 0.733067 0.500000 0.750000
O O18 0.500000 0.456206 0.750000
O O19 0.633095 0.468436 0.500000
#
# Coordination Sequence:
#
# PCOD8203551 Si02
#       6
#     8   8   8   8   8   8
#     4  10  21  37  59  85 111 144 185 226 268 316
#     4  11  24  39  57  83 114 148 183 223 273 323
#     4  10  21  37  57  80 106 139 177 218 266 319
#     4  10  20  33  51  77 107 139 176 218 265 316
#     4  10  21  38  60  83 107 139 180 222 265 318
#     4   9  16  26  43  68  98 132 170 212 258 308
#
# _framework density 18.638183000000001
#
# number of rings (size 3 to 8) (size 9 to 14) (size 15 to 20)
#    0.000    2.000    0.000    4.500    0.000    9.000 
#    0.000    1.667    0.000    0.500    0.000    3.500 
#    0.000    0.000    0.000    0.000    0.000    0.000 
#
# Total GULP energy -595139.720057 kJ/mol
# GULP energy per Si atom -12398.744168 kJ/mol
# Density = 1.859576 g / cm^3
# Si number density = 18.638183 Si / 1000 Ang^3
#
#
#
# Elastic Constant Matrix: (Units=GPa)
#
#
# Indices 1 2 3 4 5 6 
#
# 1 116.1791 66.8992 68.0575 0.0000 0.0000 0.0000
# 2 66.8992 95.3418 73.8343 0.0000 0.0000 0.0000
# 3 68.0575 73.8343 146.9738 0.0000 0.0000 0.0000
# 4 0.0000 0.0000 0.0000 28.6412 0.0000 0.0000
# 5 0.0000 0.0000 0.0000 0.0000 33.7311 0.0000
# 6 0.0000 0.0000 0.0000 0.0000 0.0000 6.6125
#
#
#
# Elastic Compliance Matrix: (Units=1/GPa)
#
#
# Indices 1 2 3 4 5 6 
#
# 1 0.015084 -0.008470 -0.002730 0.000000 0.000000 0.000000
# 2 -0.008470 0.021924 -0.007091 0.000000 0.000000 0.000000
# 3 -0.002730 -0.007091 0.011630 0.000000 0.000000 0.000000
# 4 0.000000 0.000000 0.000000 0.034915 0.000000 0.000000
# 5 0.000000 0.000000 0.000000 0.000000 0.029646 0.000000
# 6 0.000000 0.000000 0.000000 0.000000 0.000000 0.151229
#
#
# Mechanical properties :
#
#
# Convention : Reuss Voigt Hill
#
# Bulk Modulus (GPa) = 82.95017 86.23076 84.59046
# Shear Modulus (GPa) = 16.39193 23.77720 20.08457
#
# Velocity S-wave (km/s) = 2.96882 3.57560 3.28625
# Velocity P-wave (km/s) = 7.50693 7.96321 7.73843
#
# Compressibility (1/GPa) = 0.01205543
#
# Stress axis : x y z
#
# Youngs Moduli (GPa) = 66.29690 45.61303 85.98152
#
# Poissons Ratio (x) = 0.38634 0.23469
# Poissons Ratio (y) = 0.56154 0.60974
# Poissons Ratio (z) = 0.18096 0.32346
#
# Static dielectric constant tensor:
#      x y z
#    x 3.170280 0.000000 0.000000 
#    y 0.000000 3.877970 0.000000 
#    z 0.000000 0.000000 3.646010 
# 
# 
# High freq. dielectric constant tensor:
#      x y z
#    x 1.695180 0.000000 0.000000 
#    y 0.000000 1.740580 0.000000 
#    z 0.000000 0.000000 1.746000 
# 
# From -- ./inp_files/2016.got.cif
#   From: 2010.03.12/outbox.cif.g09.slc.cpg/sg49_2_cif.got.tgz:2016.got - 2010.04.14 03:58:27.
