data_PCOD8203407
_publ_section_title
;
Structure prediction by ZEFSAII (Michael W. Deem and Ramdas Pophale) SiO2 
 PCOD8203407
Probable space group: P C C M
;
_chemical_formula_sum "Si O2"
_cell_formula_units_Z 56
_cell_length_a 12.118247
_cell_length_b 11.332981
_cell_length_c 19.667549
_cell_angle_alpha 90.000000
_cell_angle_beta 90.000000
_cell_angle_gamma 90.000000
_cell_volume 2701.059815
_symmetry_space_group_name_H-M "P C C M"
_symmetry_group_IT_number 49
_symmetry_cell_setting 'orthorhombic'
loop_
_space_group_symop_operation_xyz
x,y,z
-x,-y,z
x,-y,1/2-z
-x,y,1/2-z
-x,-y,-z
x,y,-z
-x,y,1/2+z
x,-y,1/2+z
loop_
_atom_site_type_symbol
_atom_site_label
_atom_site_fract_x
_atom_site_fract_y
_atom_site_fract_z
Si Si1 0.151114 0.265551 0.078811
Si Si2 0.764667 0.270750 0.152133
Si Si3 0.383832 0.678323 0.722129
Si Si4 0.384620 0.888482 0.925824
Si Si5 0.374641 0.861147 0.611289
Si Si6 0.201741 0.475992 0.173597
Si Si7 0.983798 0.138310 0.825932
O O1 0.273377 0.208934 0.077251
O O2 0.138967 0.382461 0.125855
O O3 0.069131 0.176599 0.115968
O O4 0.117062 0.290248 0.000000
O O5 0.708967 0.281417 0.225311
O O6 0.673310 0.230191 0.098859
O O7 0.804418 0.401931 0.131537
O O8 0.862414 0.175996 0.150767
O O9 0.500000 0.631989 0.750000
O O10 0.406683 0.797624 0.680974
O O11 0.329213 0.569278 0.680740
O O12 0.514596 0.860472 0.933783
O O13 0.350826 0.998984 0.876877
O O14 0.339153 0.922090 0.000000
O O15 0.150547 0.500000 0.250000
O O16 0.000000 0.193510 0.750000
O O17 0.000000 0.000000 0.820966
#
# Coordination Sequence:
#
# PCOD8203407 Si02
#       7
#     8   8   8   8   8   8   8
#     4  11  23  42  67  94 125 169 221 268 317 383
#     4  11  23  39  59  91 121 157 208 256 313 373
#     4  10  19  38  62  92 123 158 204 259 318 376
#     4  11  22  36  56  84 124 166 198 252 317 378
#     4  10  20  38  60  86 121 160 203 252 312 376
#     4   9  21  39  63  90 123 166 207 266 316 377
#     4  11  24  42  65  92 128 170 211 267 325 382
#
# _framework density 20.732603000000001
#
# number of rings (size 3 to 8) (size 9 to 14) (size 15 to 20)
#    0.000    1.571    1.429    5.143    0.000    6.286 
#    0.000    3.571    0.000    2.571    0.000    0.000 
#    0.000    0.000    0.000    0.000    0.000    0.000 
#
# Total GULP energy -693904.910248 kJ/mol
# GULP energy per Si atom -12391.159112 kJ/mol
# Density = 2.068541 g / cm^3
# Si number density = 20.732603 Si / 1000 Ang^3
#
#
#
# Elastic Constant Matrix: (Units=GPa)
#
#
# Indices 1 2 3 4 5 6 
#
# 1 80.6755 34.9850 26.2106 0.0000 0.0000 0.0000
# 2 34.9850 113.4817 36.9514 0.0000 0.0000 0.0000
# 3 26.2106 36.9514 98.0907 0.0000 0.0000 0.0000
# 4 0.0000 0.0000 0.0000 1.4423 0.0000 0.0000
# 5 0.0000 0.0000 0.0000 0.0000 8.7502 0.0000
# 6 0.0000 0.0000 0.0000 0.0000 0.0000 24.7764
#
#
#
# Elastic Compliance Matrix: (Units=1/GPa)
#
#
# Indices 1 2 3 4 5 6 
#
# 1 0.014850 -0.003746 -0.002557 0.000000 0.000000 0.000000
# 2 -0.003746 0.010989 -0.003139 0.000000 0.000000 0.000000
# 3 -0.002557 -0.003139 0.012060 0.000000 0.000000 0.000000
# 4 0.000000 0.000000 0.000000 0.693354 0.000000 0.000000
# 5 0.000000 0.000000 0.000000 0.000000 0.114283 0.000000
# 6 0.000000 0.000000 0.000000 0.000000 0.000000 0.040361
#
#
# Mechanical properties :
#
#
# Convention : Reuss Voigt Hill
#
# Bulk Modulus (GPa) = 52.58556 54.28242 53.43399
# Shear Modulus (GPa) = 5.48775 19.93382 12.71079
#
# Velocity S-wave (km/s) = 1.62870 3.10413 2.47874
# Velocity P-wave (km/s) = 5.38105 6.25192 5.83276
#
# Compressibility (1/GPa) = 0.01901663
#
# Stress axis : x y z
#
# Youngs Moduli (GPa) = 67.33827 91.00254 82.91663
#
# Poissons Ratio (x) = 0.34085 0.21203
# Poissons Ratio (y) = 0.25222 0.26025
# Poissons Ratio (z) = 0.17220 0.28563
#
# Static dielectric constant tensor:
#      x y z
#    x 3.647140 0.000000 0.000000 
#    y 0.000000 4.001450 0.000000 
#    z 0.000000 0.000000 3.646040 
# 
# 
# High freq. dielectric constant tensor:
#      x y z
#    x 1.806060 0.000000 0.000000 
#    y 0.000000 1.821380 0.000000 
#    z 0.000000 0.000000 1.793150 
# 
# From -- ./inp_files/20491.got.cif
#   From: 2010.03.12/outbox.cif.g09.slc.cpg/sg49_11_cif.got.tgz:20491.got - 2010.04.14 03:58:27.
