data_PCOD8203845
_publ_section_title
;
Structure prediction by ZEFSAII (Michael W. Deem and Ramdas Pophale) SiO2 
 PCOD8203845
Probable space group: P C C M
;
_chemical_formula_sum "Si O2"
_cell_formula_units_Z 34
_cell_length_a 10.257128
_cell_length_b 19.967664
_cell_length_c 8.828013
_cell_angle_alpha 90.000000
_cell_angle_beta 90.000000
_cell_angle_gamma 90.000000
_cell_volume 1808.073160
_symmetry_space_group_name_H-M "P C C M"
_symmetry_group_IT_number 49
_symmetry_cell_setting 'orthorhombic'
loop_
_space_group_symop_operation_xyz
x,y,z
-x,-y,z
x,-y,1/2-z
-x,y,1/2-z
-x,-y,-z
x,y,-z
-x,y,1/2+z
x,-y,1/2+z
loop_
_atom_site_type_symbol
_atom_site_label
_atom_site_fract_x
_atom_site_fract_y
_atom_site_fract_z
Si Si1 0.362769 0.572060 0.818503
Si Si2 0.377258 0.871386 0.833705
Si Si3 0.137105 0.340948 0.822000
Si Si4 0.500000 0.000000 0.750000
Si Si5 0.866818 0.814918 0.825208
O O1 0.327732 0.500000 0.750000
O O2 0.500000 0.597372 0.750000
O O3 0.251283 0.622618 0.767715
O O4 0.371562 0.568241 0.000000
O O5 0.500000 0.835543 0.750000
O O6 0.406636 0.951250 0.849030
O O7 0.247795 0.860106 0.739332
O O8 0.361196 0.839790 0.000000
O O9 0.160599 0.262756 0.792633
O O10 0.000000 0.363963 0.750000
O O11 0.138725 0.358894 0.000000
O O12 0.000000 0.838846 0.750000
O O13 0.879057 0.830427 0.000000
#
# Coordination Sequence:
#
# PCOD8203845 Si02
#       5
#     8   8   8   2   8
#     4  11  22  38  59  83 113 149 188 235 284 336
#     4  10  20  35  58  83 112 146 185 227 275 328
#     4  10  21  38  58  83 113 148 188 233 281 335
#     4   8  22  36  60  84 114 148 186 228 278 324
#     4  10  21  37  58  83 115 149 186 231 282 332
#
# _framework density 18.804549000000002
#
# number of rings (size 3 to 8) (size 9 to 14) (size 15 to 20)
#    0.706    1.176    0.000    5.294    0.000    4.235 
#    0.000    2.941    0.000    2.824    0.000    0.000 
#    0.000    0.000    0.000    0.000    0.000    0.000 
#
# Total GULP energy -421495.364531 kJ/mol
# GULP energy per Si atom -12396.922486 kJ/mol
# Density = 1.876175 g / cm^3
# Si number density = 18.804549 Si / 1000 Ang^3
#
#
#
# Elastic Constant Matrix: (Units=GPa)
#
#
# Indices 1 2 3 4 5 6 
#
# 1 173.5045 64.1166 80.4331 0.0000 0.0000 0.0000
# 2 64.1166 55.7881 44.2211 0.0000 0.0000 0.0000
# 3 80.4331 44.2211 159.7192 0.0000 0.0000 0.0000
# 4 0.0000 0.0000 0.0000 24.6113 0.0000 0.0000
# 5 0.0000 0.0000 0.0000 0.0000 38.6847 0.0000
# 6 0.0000 0.0000 0.0000 0.0000 0.0000 133.5393
#
#
#
# Elastic Compliance Matrix: (Units=1/GPa)
#
#
# Indices 1 2 3 4 5 6 
#
# 1 0.010778 -0.010358 -0.002560 0.000000 0.000000 0.000000
# 2 -0.010358 0.032919 -0.003898 0.000000 0.000000 0.000000
# 3 -0.002560 -0.003898 0.008629 0.000000 0.000000 0.000000
# 4 0.000000 0.000000 0.000000 0.040632 0.000000 0.000000
# 5 0.000000 0.000000 0.000000 0.000000 0.025850 0.000000
# 6 0.000000 0.000000 0.000000 0.000000 0.000000 0.007488
#
#
# Mechanical properties :
#
#
# Convention : Reuss Voigt Hill
#
# Bulk Modulus (GPa) = 53.49138 85.17262 69.33200
# Shear Modulus (GPa) = 30.09164 52.71646 41.40405
#
# Velocity S-wave (km/s) = 4.00463 5.30045 4.69744
# Velocity P-wave (km/s) = 7.06332 9.10229 8.14684
#
# Compressibility (1/GPa) = 0.01869460
#
# Stress axis : x y z
#
# Youngs Moduli (GPa) = 92.78317 30.37778 115.88291
#
# Poissons Ratio (x) = 0.31464 0.29665
# Poissons Ratio (y) = 0.96102 0.45173
# Poissons Ratio (z) = 0.23752 0.11842
#
# Static dielectric constant tensor:
#      x y z
#    x 3.484970 0.000000 0.000000 
#    y 0.000000 3.209400 0.000000 
#    z 0.000000 0.000000 3.536970 
# 
# 
# High freq. dielectric constant tensor:
#      x y z
#    x 1.739680 0.000000 0.000000 
#    y 0.000000 1.707510 0.000000 
#    z 0.000000 0.000000 1.750320 
# 
# From -- ./inp_files/1513.got.cif
#   From: 2010.03.12/outbox.cif.g09.slc.cpg/sg49_1_cif.got.tgz:1513.got - 2010.04.14 03:58:27.
