data_PCOD8203508
_publ_section_title
;
Structure prediction by ZEFSAII (Michael W. Deem and Ramdas Pophale) SiO2 
 PCOD8203508
Probable space group: P C C M
;
_chemical_formula_sum "Si O2"
_cell_formula_units_Z 56
_cell_length_a 18.841596
_cell_length_b 18.400896
_cell_length_c 9.261873
_cell_angle_alpha 90.000000
_cell_angle_beta 90.000000
_cell_angle_gamma 90.000000
_cell_volume 3211.112194
_symmetry_space_group_name_H-M "P C C M"
_symmetry_group_IT_number 49
_symmetry_cell_setting 'orthorhombic'
loop_
_space_group_symop_operation_xyz
x,y,z
-x,-y,z
x,-y,1/2-z
-x,y,1/2-z
-x,-y,-z
x,y,-z
-x,y,1/2+z
x,-y,1/2+z
loop_
_atom_site_type_symbol
_atom_site_label
_atom_site_fract_x
_atom_site_fract_y
_atom_site_fract_z
Si Si1 0.338444 0.070875 0.668181
Si Si2 0.220489 0.853023 0.335062
Si Si3 0.931135 0.359491 0.669698
Si Si4 0.692155 0.709805 0.165163
Si Si5 0.216012 0.427258 0.830143
Si Si6 0.932230 0.192663 0.331895
Si Si7 0.573580 0.214065 0.168647
O O1 0.330427 0.053979 0.500000
O O2 0.261338 0.091802 0.730576
O O3 0.394171 0.134699 0.698807
O O4 0.367821 0.000000 0.750000
O O5 0.231396 0.878879 0.500000
O O6 0.248339 0.771270 0.315988
O O7 0.137698 0.853497 0.291509
O O8 0.942881 0.367296 0.500000
O O9 0.862269 0.403628 0.721889
O O10 0.919932 0.275877 0.715345
O O11 0.000000 0.392121 0.750000
O O12 0.727050 0.634091 0.212184
O O13 0.625684 0.724467 0.269058
O O14 0.665236 0.707569 0.000000
O O15 0.239590 0.500000 0.750000
O O16 0.216281 0.440711 0.000000
O O17 0.948206 0.187858 0.500000
O O18 0.000000 0.158950 0.250000
O O19 0.500000 0.219870 0.250000
O O20 0.562311 0.228356 0.000000
#
# Coordination Sequence:
#
# PCOD8203508 Si02
#       7
#     8   8   8   8   8   8   8
#     4  10  21  35  52  78 109 138 168 199 236 287
#     4   9  16  30  52  72  95 131 171 210 253 298
#     4   9  17  30  45  65  95 131 171 212 257 307
#     4   9  17  33  54  73  98 132 169 209 251 298
#     4  10  20  33  49  70  99 135 174 214 259 307
#     4   9  16  27  45  69  95 126 166 212 259 303
#     4  10  21  36  56  83 109 134 165 199 238 288
#
# _framework density 17.439440999999999
#
# number of rings (size 3 to 8) (size 9 to 14) (size 15 to 20)
#    0.000    2.571    1.429    0.857    0.000    4.000 
#    0.000    2.857    0.000    0.857    0.000    6.000 
#    0.000    0.000    0.000    0.000    0.000    0.000 
#
# Total GULP energy -694467.768882 kJ/mol
# GULP energy per Si atom -12401.210159 kJ/mol
# Density = 1.739975 g / cm^3
# Si number density = 17.439441 Si / 1000 Ang^3
#
#
#
# Elastic Constant Matrix: (Units=GPa)
#
#
# Indices 1 2 3 4 5 6 
#
# 1 133.9113 45.8934 66.7329 0.0000 0.0000 0.0000
# 2 45.8934 73.3863 42.8500 0.0000 0.0000 0.0000
# 3 66.7329 42.8500 81.0447 0.0000 0.0000 0.0000
# 4 0.0000 0.0000 0.0000 28.1964 0.0000 0.0000
# 5 0.0000 0.0000 0.0000 0.0000 32.0505 0.0000
# 6 0.0000 0.0000 0.0000 0.0000 0.0000 15.6647
#
#
#
# Elastic Compliance Matrix: (Units=1/GPa)
#
#
# Indices 1 2 3 4 5 6 
#
# 1 0.013030 -0.002725 -0.009288 0.000000 0.000000 0.000000
# 2 -0.002725 0.020282 -0.008479 0.000000 0.000000 0.000000
# 3 -0.009288 -0.008479 0.024470 0.000000 0.000000 0.000000
# 4 0.000000 0.000000 0.000000 0.035465 0.000000 0.000000
# 5 0.000000 0.000000 0.000000 0.000000 0.031201 0.000000
# 6 0.000000 0.000000 0.000000 0.000000 0.000000 0.063838
#
#
# Mechanical properties :
#
#
# Convention : Reuss Voigt Hill
#
# Bulk Modulus (GPa) = 59.53691 66.58832 63.06261
# Shear Modulus (GPa) = 21.28823 24.04007 22.66415
#
# Velocity S-wave (km/s) = 3.49763 3.71683 3.60890
# Velocity P-wave (km/s) = 7.10807 7.52896 7.32154
#
# Compressibility (1/GPa) = 0.01679630
#
# Stress axis : x y z
#
# Youngs Moduli (GPa) = 76.74377 49.30494 40.86597
#
# Poissons Ratio (x) = 0.13437 0.37958
# Poissons Ratio (y) = 0.20915 0.34652
# Poissons Ratio (z) = 0.71283 0.41808
#
# Static dielectric constant tensor:
#      x y z
#    x 3.255390 0.000000 0.000000 
#    y 0.000000 3.063420 0.000000 
#    z 0.000000 0.000000 3.215410 
# 
# 
# High freq. dielectric constant tensor:
#      x y z
#    x 1.671120 0.000000 0.000000 
#    y 0.000000 1.650350 0.000000 
#    z 0.000000 0.000000 1.673140 
# 
# From -- ./inp_files/5187.got.cif
#   From: 2010.03.12/outbox.cif.g09.slc.cpg/sg49_3_cif.got.tgz:5187.got - 2010.04.14 03:58:27.
