data_PCOD8203735
_publ_section_title
;
Structure prediction by ZEFSAII (Michael W. Deem and Ramdas Pophale) SiO2 
 PCOD8203735
Probable space group: P C C M
;
_chemical_formula_sum "Si O2"
_cell_formula_units_Z 64
_cell_length_a 17.495846
_cell_length_b 20.635066
_cell_length_c 8.835064
_cell_angle_alpha 90.000000
_cell_angle_beta 90.000000
_cell_angle_gamma 90.000000
_cell_volume 3189.704929
_symmetry_space_group_name_H-M "P C C M"
_symmetry_group_IT_number 49
_symmetry_cell_setting 'orthorhombic'
loop_
_space_group_symop_operation_xyz
x,y,z
-x,-y,z
x,-y,1/2-z
-x,y,1/2-z
-x,-y,-z
x,y,-z
-x,y,1/2+z
x,-y,1/2+z
loop_
_atom_site_type_symbol
_atom_site_label
_atom_site_fract_x
_atom_site_fract_y
_atom_site_fract_z
Si Si1 0.209250 0.295261 0.674632
Si Si2 0.421630 0.406176 0.822544
Si Si3 0.261168 0.436187 0.678869
Si Si4 0.618153 0.281566 0.830378
Si Si5 0.922388 0.209578 0.678474
Si Si6 0.427090 0.859508 0.831892
Si Si7 0.877074 0.933193 0.178532
Si Si8 0.286267 0.064594 0.680041
O O1 0.185316 0.289530 0.500000
O O2 0.213675 0.371439 0.724677
O O3 0.293069 0.265355 0.704050
O O4 0.148561 0.253519 0.768418
O O5 0.500000 0.434573 0.750000
O O6 0.347573 0.436106 0.742322
O O7 0.418373 0.329040 0.793066
O O8 0.420316 0.421114 0.000000
O O9 0.220244 0.500000 0.750000
O O10 0.265019 0.442690 0.500000
O O11 0.568111 0.217514 0.823570
O O12 0.613948 0.312979 0.000000
O O13 0.926139 0.215843 0.500000
O O14 0.918969 0.133373 0.726770
O O15 0.000000 0.238173 0.750000
O O16 0.500000 0.890214 0.750000
O O17 0.345483 0.880649 0.766055
O O18 0.431847 0.887058 0.000000
O O19 0.792503 0.921557 0.237775
O O20 0.912468 0.000000 0.250000
O O21 0.877294 0.943248 0.000000
O O22 0.272786 0.061007 0.500000
O O23 0.322354 0.000000 0.750000
#
# Coordination Sequence:
#
# PCOD8203735 Si02
#       8
#     8   8   8   8   8   8   8   8
#     4   9  19  37  61  85 114 148 183 226 276 329
#     4  11  21  33  50  75 109 148 187 231 280 331
#     4  10  21  38  59  85 114 148 190 235 282 334
#     4   9  18  34  53  75 102 136 178 223 273 330
#     4  11  24  39  59  88 120 151 186 223 268 324
#     4  10  21  33  47  68  96 131 173 222 277 328
#     4  10  21  37  58  85 113 146 185 225 268 323
#     4  10  20  35  53  72  95 129 172 219 269 323
#
# _framework density 20.064551000000002
#
# number of rings (size 3 to 8) (size 9 to 14) (size 15 to 20)
#    0.000    2.000    0.000    5.250    0.000    8.750 
#    0.000    3.750    0.000    0.375    0.000    2.625 
#    0.000    0.000    0.000    0.000    0.000    0.000 
#
# Total GULP energy -793165.689956 kJ/mol
# GULP energy per Si atom -12393.213906 kJ/mol
# Density = 2.001888 g / cm^3
# Si number density = 20.064551 Si / 1000 Ang^3
#
#
#
# Elastic Constant Matrix: (Units=GPa)
#
#
# Indices 1 2 3 4 5 6 
#
# 1 75.5057 35.5309 32.5787 0.0000 0.0000 0.0000
# 2 35.5309 88.8783 47.7733 0.0000 0.0000 0.0000
# 3 32.5787 47.7733 86.4771 0.0000 0.0000 0.0000
# 4 0.0000 0.0000 0.0000 167.3063 0.0000 0.0000
# 5 0.0000 0.0000 0.0000 0.0000 26.0151 0.0000
# 6 0.0000 0.0000 0.0000 0.0000 0.0000 8.6128
#
#
#
# Elastic Compliance Matrix: (Units=1/GPa)
#
#
# Indices 1 2 3 4 5 6 
#
# 1 0.017149 -0.004812 -0.003802 0.000000 0.000000 0.000000
# 2 -0.004812 0.017354 -0.007774 0.000000 0.000000 0.000000
# 3 -0.003802 -0.007774 0.017291 0.000000 0.000000 0.000000
# 4 0.000000 0.000000 0.000000 0.005977 0.000000 0.000000
# 5 0.000000 0.000000 0.000000 0.000000 0.038439 0.000000
# 6 0.000000 0.000000 0.000000 0.000000 0.000000 0.116106
#
#
# Mechanical properties :
#
#
# Convention : Reuss Voigt Hill
#
# Bulk Modulus (GPa) = 52.58431 53.62521 53.10476
# Shear Modulus (GPa) = 19.88616 49.38539 34.63578
#
# Velocity S-wave (km/s) = 3.15160 4.96656 4.15928
# Velocity P-wave (km/s) = 6.28553 7.72485 7.04206
#
# Compressibility (1/GPa) = 0.01901708
#
# Stress axis : x y z
#
# Youngs Moduli (GPa) = 58.31259 57.62487 57.83397
#
# Poissons Ratio (x) = 0.27728 0.21990
# Poissons Ratio (y) = 0.28059 0.44960
# Poissons Ratio (z) = 0.22172 0.44798
#
# Static dielectric constant tensor:
#      x y z
#    x 3.464220 0.000000 0.000000 
#    y 0.000000 3.867770 0.000000 
#    z 0.000000 0.000000 3.682910 
# 
# 
# High freq. dielectric constant tensor:
#      x y z
#    x 1.766830 0.000000 0.000000 
#    y 0.000000 1.787510 0.000000 
#    z 0.000000 0.000000 1.782860 
# 
# From -- ./inp_files/5313.got.cif
#   From: 2010.03.12/outbox.cif.g09.slc.cpg/sg49_3_cif.got.tgz:5313.got - 2010.04.14 03:58:27.
