data_PCOD8203541
_publ_section_title
;
Structure prediction by ZEFSAII (Michael W. Deem and Ramdas Pophale) SiO2 
 PCOD8203541
Probable space group: P C C M
;
_chemical_formula_sum "Si O2"
_cell_formula_units_Z 56
_cell_length_a 13.588944
_cell_length_b 21.033980
_cell_length_c 9.577927
_cell_angle_alpha 90.000000
_cell_angle_beta 90.000000
_cell_angle_gamma 90.000000
_cell_volume 2737.654816
_symmetry_space_group_name_H-M "P C C M"
_symmetry_group_IT_number 49
_symmetry_cell_setting 'orthorhombic'
loop_
_space_group_symop_operation_xyz
x,y,z
-x,-y,z
x,-y,1/2-z
-x,y,1/2-z
-x,-y,-z
x,y,-z
-x,y,1/2+z
x,-y,1/2+z
loop_
_atom_site_type_symbol
_atom_site_label
_atom_site_fract_x
_atom_site_fract_y
_atom_site_fract_z
Si Si1 0.623963 0.061047 0.000000
Si Si2 0.605941 0.086122 0.500000
Si Si3 0.857896 0.327184 0.151960
Si Si4 0.413298 0.605445 0.337616
Si Si5 0.694160 0.852587 0.268111
Si Si6 0.363716 0.717461 0.847408
Si Si7 0.091002 0.811242 0.164209
Si Si8 0.193403 0.561530 0.663576
O O1 0.679281 0.087485 0.866587
O O2 0.511549 0.084153 0.000000
O O3 0.641652 0.986137 0.000000
O O4 0.650513 0.126346 0.376417
O O5 0.747914 0.302999 0.143764
O O6 0.921902 0.264833 0.183044
O O7 0.869439 0.379495 0.274505
O O8 0.886560 0.356817 0.000000
O O9 0.500000 0.569316 0.250000
O O10 0.440620 0.606474 0.500000
O O11 0.412997 0.677525 0.277399
O O12 0.309719 0.571153 0.311812
O O13 0.629947 0.792295 0.317690
O O14 0.809675 0.836079 0.262745
O O15 0.412871 0.703587 0.000000
O O16 0.000000 0.842212 0.250000
O O17 0.089136 0.830013 0.000000
O O18 0.160240 0.500000 0.750000
O O19 0.168691 0.554142 0.500000
#
# Coordination Sequence:
#
# PCOD8203541 Si02
#       8
#     4   4   8   8   8   8   8   8
#     4  11  22  46  59  85 127 165 215 258 302 354
#     4  11  26  36  65  93 117 167 217 258 298 356
#     4   8  16  33  54  78 109 145 183 230 288 348
#     4  10  21  33  46  69 102 138 186 244 301 358
#     4  11  21  40  62  89 124 162 204 258 311 361
#     4   9  17  33  53  73 105 145 182 232 301 359
#     4  10  21  38  65  96 127 160 197 248 312 376
#     4  10  20  33  51  74 101 144 194 239 288 353
#
# _framework density 20.455465
#
# number of rings (size 3 to 8) (size 9 to 14) (size 15 to 20)
#    0.000    2.143    1.429    2.571    2.000    4.857 
#    2.571    1.429    0.000    3.000    0.000    3.000 
#    0.000    0.000    0.000    0.000    0.000    0.000 
#
# Total GULP energy -694010.942737 kJ/mol
# GULP energy per Si atom -12393.052549 kJ/mol
# Density = 2.040891 g / cm^3
# Si number density = 20.455465 Si / 1000 Ang^3
#
#
#
# Elastic Constant Matrix: (Units=GPa)
#
#
# Indices 1 2 3 4 5 6 
#
# 1 42.1867 1.5583 15.1261 0.0000 0.0000 0.0000
# 2 1.5583 84.9106 39.0844 0.0000 0.0000 0.0000
# 3 15.1261 39.0844 142.3715 0.0000 0.0000 0.0000
# 4 0.0000 0.0000 0.0000 31.2123 0.0000 0.0000
# 5 0.0000 0.0000 0.0000 0.0000 26.6117 0.0000
# 6 0.0000 0.0000 0.0000 0.0000 0.0000 15.9475
#
#
#
# Elastic Compliance Matrix: (Units=1/GPa)
#
#
# Indices 1 2 3 4 5 6 
#
# 1 0.024698 0.000864 -0.002861 0.000000 0.000000 0.000000
# 2 0.000864 0.013511 -0.003801 0.000000 0.000000 0.000000
# 3 -0.002861 -0.003801 0.008371 0.000000 0.000000 0.000000
# 4 0.000000 0.000000 0.000000 0.032039 0.000000 0.000000
# 5 0.000000 0.000000 0.000000 0.000000 0.037577 0.000000
# 6 0.000000 0.000000 0.000000 0.000000 0.000000 0.062706
#
#
# Mechanical properties :
#
#
# Convention : Reuss Voigt Hill
#
# Bulk Modulus (GPa) = 28.58474 42.33405 35.45940
# Shear Modulus (GPa) = 24.73293 29.00097 26.86695
#
# Velocity S-wave (km/s) = 3.48100 3.76940 3.62807
# Velocity P-wave (km/s) = 5.49190 6.29962 5.90957
#
# Compressibility (1/GPa) = 0.03498370
#
# Stress axis : x y z
#
# Youngs Moduli (GPa) = 40.48890 74.01520 119.45633
#
# Poissons Ratio (x) = -0.06393 0.34178
# Poissons Ratio (y) = -0.03497 0.45403
# Poissons Ratio (z) = 0.11584 0.28132
#
# Static dielectric constant tensor:
#      x y z
#    x 3.617710 0.000000 0.000000 
#    y 0.000000 3.669210 0.000000 
#    z 0.000000 0.000000 3.813150 
# 
# 
# High freq. dielectric constant tensor:
#      x y z
#    x 1.788470 0.000000 0.000000 
#    y 0.000000 1.783970 0.000000 
#    z 0.000000 0.000000 1.811270 
# 
# From -- ./inp_files/4114.got.cif
#   From: 2010.03.12/outbox.cif.g09.slc.cpg/sg49_3_cif.got.tgz:4114.got - 2010.04.14 03:58:27.
