data_PCOD8203588
_publ_section_title
;
Structure prediction by ZEFSAII (Michael W. Deem and Ramdas Pophale) SiO2 
 PCOD8203588
Probable space group: P C C M
;
_chemical_formula_sum "Si O2"
_cell_formula_units_Z 64
_cell_length_a 17.491408
_cell_length_b 20.856295
_cell_length_c 8.750283
_cell_angle_alpha 90.000000
_cell_angle_beta 90.000000
_cell_angle_gamma 90.000000
_cell_volume 3192.155436
_symmetry_space_group_name_H-M "P C C M"
_symmetry_group_IT_number 49
_symmetry_cell_setting 'orthorhombic'
loop_
_space_group_symop_operation_xyz
x,y,z
-x,-y,z
x,-y,1/2-z
-x,y,1/2-z
-x,-y,-z
x,y,-z
-x,y,1/2+z
x,-y,1/2+z
loop_
_atom_site_type_symbol
_atom_site_label
_atom_site_fract_x
_atom_site_fract_y
_atom_site_fract_z
Si Si1 0.210868 0.295678 0.681219
Si Si2 0.424041 0.401420 0.679856
Si Si3 0.254442 0.436056 0.677611
Si Si4 0.630152 0.274692 0.678233
Si Si5 0.920478 0.206456 0.681598
Si Si6 0.428901 0.845642 0.825792
Si Si7 0.869933 0.933188 0.179614
Si Si8 0.291446 0.061182 0.673944
O O1 0.200844 0.291089 0.500000
O O2 0.213350 0.370649 0.737231
O O3 0.291716 0.265379 0.726786
O O4 0.144263 0.255010 0.759670
O O5 0.500000 0.436523 0.750000
O O6 0.434152 0.391433 0.500000
O O7 0.345088 0.438144 0.716563
O O8 0.418840 0.334434 0.766250
O O9 0.216898 0.500000 0.750000
O O10 0.240248 0.439941 0.500000
O O11 0.649583 0.280086 0.500000
O O12 0.576888 0.215034 0.715195
O O13 0.921104 0.210000 0.500000
O O14 0.910478 0.132300 0.737467
O O15 0.000000 0.231707 0.750000
O O16 0.500000 0.885040 0.750000
O O17 0.349578 0.881644 0.815291
O O18 0.446629 0.827113 0.000000
O O19 0.782487 0.923422 0.226151
O O20 0.903755 0.000000 0.250000
O O21 0.878061 0.939712 0.000000
O O22 0.266285 0.047182 0.500000
O O23 0.332574 0.000000 0.750000
#
# Coordination Sequence:
#
# PCOD8203588 Si02
#       8
#     8   8   8   8   8   8   8   8
#     4  10  21  39  61  86 116 150 188 232 279 334
#     4  10  20  34  50  74 109 148 188 232 283 336
#     4   9  20  36  56  82 112 148 191 237 286 338
#     4  11  21  34  54  78 104 139 182 228 276 331
#     4  11  24  40  61  91 122 155 189 227 275 330
#     4  11  23  36  50  71  99 135 177 228 286 338
#     4  10  21  37  59  86 116 150 190 228 271 326
#     4  10  21  36  55  75  98 132 175 222 274 327
#
# _framework density 20.049147999999999
#
# number of rings (size 3 to 8) (size 9 to 14) (size 15 to 20)
#    0.000    1.750    0.000    6.000    0.000    9.750 
#    0.000    3.750    0.000    0.375    0.000    2.625 
#    0.000    0.000    0.000    0.000    0.000    0.000 
#
# Total GULP energy -793239.498563 kJ/mol
# GULP energy per Si atom -12394.367165 kJ/mol
# Density = 2.000352 g / cm^3
# Si number density = 20.049148 Si / 1000 Ang^3
#
#
#
# Elastic Constant Matrix: (Units=GPa)
#
#
# Indices 1 2 3 4 5 6 
#
# 1 79.0068 39.4276 22.9395 0.0000 0.0000 0.0000
# 2 39.4276 105.2175 51.3973 0.0000 0.0000 0.0000
# 3 22.9395 51.3973 77.6478 0.0000 0.0000 0.0000
# 4 0.0000 0.0000 0.0000 29.9245 0.0000 0.0000
# 5 0.0000 0.0000 0.0000 0.0000 24.7592 0.0000
# 6 0.0000 0.0000 0.0000 0.0000 0.0000 6.8407
#
#
#
# Elastic Compliance Matrix: (Units=1/GPa)
#
#
# Indices 1 2 3 4 5 6 
#
# 1 0.015631 -0.005323 -0.001095 0.000000 0.000000 0.000000
# 2 -0.005323 0.015858 -0.008925 0.000000 0.000000 0.000000
# 3 -0.001095 -0.008925 0.019109 0.000000 0.000000 0.000000
# 4 0.000000 0.000000 0.000000 0.033417 0.000000 0.000000
# 5 0.000000 0.000000 0.000000 0.000000 0.040389 0.000000
# 6 0.000000 0.000000 0.000000 0.000000 0.000000 0.146183
#
#
# Mechanical properties :
#
#
# Convention : Reuss Voigt Hill
#
# Bulk Modulus (GPa) = 50.21318 54.37789 52.29553
# Shear Modulus (GPa) = 16.23848 22.17871 19.20860
#
# Velocity S-wave (km/s) = 2.84902 3.32959 3.09864
# Velocity P-wave (km/s) = 5.99349 6.47787 6.24038
#
# Compressibility (1/GPa) = 0.01991509
#
# Stress axis : x y z
#
# Youngs Moduli (GPa) = 63.97464 63.05907 52.33005
#
# Poissons Ratio (x) = 0.33564 0.05729
# Poissons Ratio (y) = 0.34051 0.46702
# Poissons Ratio (z) = 0.07003 0.56277
#
# Static dielectric constant tensor:
#      x y z
#    x 3.508320 0.000000 0.000000 
#    y 0.000000 3.970540 0.000000 
#    z 0.000000 0.000000 3.734230 
# 
# 
# High freq. dielectric constant tensor:
#      x y z
#    x 1.766660 0.000000 0.000000 
#    y 0.000000 1.782680 0.000000 
#    z 0.000000 0.000000 1.793000 
# 
# From -- ./inp_files/5314.got.cif
#   From: 2010.03.12/outbox.cif.g09.slc.cpg/sg49_3_cif.got.tgz:5314.got - 2010.04.14 03:58:27.
