data_PCOD8203049
_publ_section_title
;
Structure prediction by ZEFSAII (Michael W. Deem and Ramdas Pophale) SiO2 
 PCOD8203049
Probable space group: P C C M
;
_chemical_formula_sum "Si O2"
_cell_formula_units_Z 34
_cell_length_a 19.311416
_cell_length_b 5.073585
_cell_length_c 16.962928
_cell_angle_alpha 90.000000
_cell_angle_beta 90.000000
_cell_angle_gamma 90.000000
_cell_volume 1661.995635
_symmetry_space_group_name_H-M "P C C M"
_symmetry_group_IT_number 49
_symmetry_cell_setting 'orthorhombic'
loop_
_space_group_symop_operation_xyz
x,y,z
-x,-y,z
x,-y,1/2-z
-x,y,1/2-z
-x,-y,-z
x,y,-z
-x,y,1/2+z
x,-y,1/2+z
loop_
_atom_site_type_symbol
_atom_site_label
_atom_site_fract_x
_atom_site_fract_y
_atom_site_fract_z
Si Si1 0.133445 0.394767 0.329887
Si Si2 0.000000 0.500000 0.750000
Si Si3 0.661821 0.996422 0.656991
Si Si4 0.423360 0.488685 0.156966
Si Si5 0.190777 0.105728 0.090325
O O1 0.171561 0.500000 0.250000
O O2 0.051433 0.349362 0.310823
O O3 0.155079 0.609273 0.395578
O O4 0.155819 0.105657 0.353002
O O5 0.630481 0.715744 0.629160
O O6 0.679269 0.000000 0.750000
O O7 0.604445 0.205944 0.632278
O O8 0.728167 0.087711 0.607738
O O9 0.500000 0.500000 0.118421
O O10 0.430724 0.500000 0.250000
O O11 0.177250 0.031909 0.000000
#
# Coordination Sequence:
#
# PCOD8203049 Si02
#       5
#     8   2   8   8   8
#     4  10  22  42  67  88 119 158 205 237 300 358
#     4   8  24  42  74  90 120 154 204 246 292 350
#     4  10  19  32  54  81 111 153 201 240 296 354
#     4   9  17  30  51  80 111 144 195 257 299 338
#     4  12  24  39  60  93 128 160 197 254 302 350
#
# _framework density 20.457335
#
# number of rings (size 3 to 8) (size 9 to 14) (size 15 to 20)
#    0.706    1.176    0.000    4.941    0.000    6.588 
#    0.000    3.529    0.000    4.235    0.000    0.000 
#    0.000    0.000    0.000    0.000    0.000    0.000 
#
# Total GULP energy -421200.229174 kJ/mol
# GULP energy per Si atom -12388.242035 kJ/mol
# Density = 2.041077 g / cm^3
# Si number density = 20.457335 Si / 1000 Ang^3
#
#
#
# Elastic Constant Matrix: (Units=GPa)
#
#
# Indices 1 2 3 4 5 6 
#
# 1 120.1621 18.4082 18.5826 0.0000 0.0000 0.0000
# 2 18.4082 84.4175 -2.4850 0.0000 0.0000 0.0000
# 3 18.5826 -2.4850 56.6327 0.0000 0.0000 0.0000
# 4 0.0000 0.0000 0.0000 20.7302 0.0000 0.0000
# 5 0.0000 0.0000 0.0000 0.0000 -12.3573 0.0000
# 6 0.0000 0.0000 0.0000 0.0000 0.0000 -71.4463
#
#
#
# Elastic Compliance Matrix: (Units=1/GPa)
#
#
# Indices 1 2 3 4 5 6 
#
# 1 0.009117 -0.002079 -0.003083 0.000000 0.000000 0.000000
# 2 -0.002079 0.012335 0.001223 0.000000 0.000000 0.000000
# 3 -0.003083 0.001223 0.018723 0.000000 0.000000 0.000000
# 4 0.000000 0.000000 0.000000 0.048239 0.000000 0.000000
# 5 0.000000 0.000000 0.000000 0.000000 -0.080924 0.000000
# 6 0.000000 0.000000 0.000000 0.000000 0.000000 -0.013997
#
#
# Mechanical properties :
#
#
# Convention : Reuss Voigt Hill
#
# Bulk Modulus (GPa) = 30.96095 36.69155 33.82625
# Shear Modulus (GPa) = 411.97063 2.49909 207.23486
#
# Velocity S-wave (km/s) = 14.20625 1.10646 10.07576
# Velocity P-wave (km/s) = 16.85993 4.42797 12.32608
#
# Compressibility (1/GPa) = 0.03229875
#
# Stress axis : x y z
#
# Youngs Moduli (GPa) = 109.68148 81.06866 53.41060
#
# Poissons Ratio (x) = 0.16853 0.16466
# Poissons Ratio (y) = 0.22802 -0.06534
# Poissons Ratio (z) = 0.33813 -0.09918
#
# Static dielectric constant tensor:
#      x y z
#    x 3.848820 0.000000 0.000000 
#    y 0.000000 3.704510 0.000000 
#    z 0.000000 0.000000 3.661370 
# 
# 
# High freq. dielectric constant tensor:
#      x y z
#    x 1.806320 0.000000 0.000000 
#    y 0.000000 1.805610 0.000000 
#    z 0.000000 0.000000 1.763880 
# 
# From -- ./inp_files/14289.got.cif
#   From: 2010.03.12/outbox.cif.g09.slc.cpg/sg49_8_cif.got.tgz:14289.got - 2010.04.14 03:58:27.
