data_PCOD8203497
_publ_section_title
;
Structure prediction by ZEFSAII (Michael W. Deem and Ramdas Pophale) SiO2 
 PCOD8203497
Probable space group: P C C M
;
_chemical_formula_sum "Si O2"
_cell_formula_units_Z 64
_cell_length_a 16.698110
_cell_length_b 12.363492
_cell_length_c 15.842229
_cell_angle_alpha 90.000000
_cell_angle_beta 90.000000
_cell_angle_gamma 90.000000
_cell_volume 3270.579849
_symmetry_space_group_name_H-M "P C C M"
_symmetry_group_IT_number 49
_symmetry_cell_setting 'orthorhombic'
loop_
_space_group_symop_operation_xyz
x,y,z
-x,-y,z
x,-y,1/2-z
-x,y,1/2-z
-x,-y,-z
x,y,-z
-x,y,1/2+z
x,-y,1/2+z
loop_
_atom_site_type_symbol
_atom_site_label
_atom_site_fract_x
_atom_site_fract_y
_atom_site_fract_z
Si Si1 0.536124 0.222624 0.657658
Si Si2 0.716672 0.618146 0.398904
Si Si3 0.107362 0.416616 0.399606
Si Si4 0.344364 0.610628 0.399726
Si Si5 0.058389 0.653368 0.399659
Si Si6 0.791765 0.228223 0.400636
Si Si7 0.369306 0.174658 0.404767
Si Si8 0.332050 0.939850 0.399699
O O1 0.500000 0.222517 0.750000
O O2 0.572740 0.340608 0.636642
O O3 0.464495 0.190891 0.594845
O O4 0.603331 0.131478 0.649272
O O5 0.715159 0.617834 0.500000
O O6 0.807482 0.622891 0.363803
O O7 0.669362 0.511608 0.367010
O O8 0.672967 0.723170 0.359224
O O9 0.109676 0.414953 0.500000
O O10 0.093591 0.538897 0.368665
O O11 0.034110 0.338987 0.366829
O O12 0.350223 0.616156 0.500000
O O13 0.269928 0.681761 0.366173
O O14 0.055991 0.656871 0.500000
O O15 0.118155 0.748032 0.364354
O O16 0.796979 0.243550 0.500000
O O17 0.756924 0.108475 0.379255
O O18 0.338334 0.171316 0.500000
O O19 0.340082 0.061516 0.363389
O O20 0.349915 0.933218 0.500000
#
# Coordination Sequence:
#
# PCOD8203497 Si02
#       8
#     8   8   8   8   8   8   8   8
#     4  11  22  34  49  68  89 113 148 199 250 285
#     4   9  16  27  44  64  91 126 160 186 217 272
#     4   8  12  18  32  60  93 122 148 180 218 262
#     4   9  16  29  48  68  91 121 155 191 229 275
#     4   8  11  16  32  60  93 120 146 180 222 264
#     4   8  12  21  39  62  87 117 149 185 225 265
#     4  10  20  33  48  66  88 121 160 194 229 275
#     4   9  18  32  50  68  88 117 157 199 235 274
#
# _framework density 19.568394999999999
#
# number of rings (size 3 to 8) (size 9 to 14) (size 15 to 20)
#    0.000    3.000    1.250    3.000    0.000    2.500 
#    0.000    3.125    0.000    0.750    0.000    5.250 
#    0.000    4.000    2.000    4.500    0.000    5.000 
#
# Total GULP energy -792835.006425 kJ/mol
# GULP energy per Si atom -12388.046975 kJ/mol
# Density = 1.952386 g / cm^3
# Si number density = 19.568395 Si / 1000 Ang^3
#
#
#
# Elastic Constant Matrix: (Units=GPa)
#
#
# Indices 1 2 3 4 5 6 
#
# 1 138.9284 98.0330 8.6728 0.0000 0.0000 0.0000
# 2 98.0330 160.4041 11.0607 0.0000 0.0000 0.0000
# 3 8.6728 11.0607 17.3529 0.0000 0.0000 0.0000
# 4 0.0000 0.0000 0.0000 2.3856 0.0000 0.0000
# 5 0.0000 0.0000 0.0000 0.0000 6.6067 0.0000
# 6 0.0000 0.0000 0.0000 0.0000 0.0000 30.0852
#
#
#
# Elastic Compliance Matrix: (Units=1/GPa)
#
#
# Indices 1 2 3 4 5 6 
#
# 1 0.012691 -0.007656 -0.001463 0.000000 0.000000 0.000000
# 2 -0.007656 0.011139 -0.003274 0.000000 0.000000 0.000000
# 3 -0.001463 -0.003274 0.060445 0.000000 0.000000 0.000000
# 4 0.000000 0.000000 0.000000 0.419177 0.000000 0.000000
# 5 0.000000 0.000000 0.000000 0.000000 0.151361 0.000000
# 6 0.000000 0.000000 0.000000 0.000000 0.000000 0.033239
#
#
# Mechanical properties :
#
#
# Convention : Reuss Voigt Hill
#
# Bulk Modulus (GPa) = 16.80951 61.35761 39.08356
# Shear Modulus (GPa) = 6.82438 21.07678 13.95058
#
# Velocity S-wave (km/s) = 1.86950 3.28545 2.67294
# Velocity P-wave (km/s) = 3.64264 6.76874 5.43528
#
# Compressibility (1/GPa) = 0.05949013
#
# Stress axis : x y z
#
# Youngs Moduli (GPa) = 78.79379 89.77634 16.54391
#
# Poissons Ratio (x) = 0.68729 0.02421
# Poissons Ratio (y) = 0.60321 0.05416
# Poissons Ratio (z) = 0.11530 0.29390
#
# Static dielectric constant tensor:
#      x y z
#    x 4.081040 0.000000 0.000000 
#    y 0.000000 3.764050 0.000000 
#    z 0.000000 0.000000 2.934460 
# 
# 
# High freq. dielectric constant tensor:
#      x y z
#    x 1.765630 0.000000 0.000000 
#    y 0.000000 1.742310 0.000000 
#    z 0.000000 0.000000 1.710110 
# 
# From -- ./inp_files/18220.got.cif
#   From: 2010.03.12/outbox.cif.g09.slc.cpg/sg49_10_cif.got.tgz:18220.got - 2010.04.14 03:58:27.
