data_PCOD8203364
_publ_section_title
;
Structure prediction by ZEFSAII (Michael W. Deem and Ramdas Pophale) SiO2 
 PCOD8203364
Probable space group: P C C M
;
_chemical_formula_sum "Si O2"
_cell_formula_units_Z 64
_cell_length_a 24.842077
_cell_length_b 15.111693
_cell_length_c 8.687861
_cell_angle_alpha 90.000000
_cell_angle_beta 90.000000
_cell_angle_gamma 90.000000
_cell_volume 3261.473766
_symmetry_space_group_name_H-M "P C C M"
_symmetry_group_IT_number 49
_symmetry_cell_setting 'orthorhombic'
loop_
_space_group_symop_operation_xyz
x,y,z
-x,-y,z
x,-y,1/2-z
-x,y,1/2-z
-x,-y,-z
x,y,-z
-x,y,1/2+z
x,-y,1/2+z
loop_
_atom_site_type_symbol
_atom_site_label
_atom_site_fract_x
_atom_site_fract_y
_atom_site_fract_z
Si Si1 0.174318 0.088331 0.178663
Si Si2 0.598318 0.089198 0.181183
Si Si3 0.641670 0.408433 0.682528
Si Si4 0.556345 0.275888 0.182678
Si Si5 0.743421 0.330380 0.824093
Si Si6 0.146357 0.717360 0.317155
Si Si7 0.716992 0.870908 0.674939
Si Si8 0.941453 0.407325 0.182850
O O1 0.148076 0.179939 0.239955
O O2 0.237650 0.087550 0.216704
O O3 0.146899 0.000000 0.250000
O O4 0.165302 0.082421 0.000000
O O5 0.563982 0.173855 0.234494
O O6 0.659759 0.097290 0.240320
O O7 0.572127 0.000000 0.250000
O O8 0.598194 0.083049 0.000000
O O9 0.618838 0.500000 0.750000
O O10 0.640213 0.409780 0.500000
O O11 0.604572 0.330557 0.744830
O O12 0.702774 0.397179 0.741144
O O13 0.500000 0.310474 0.250000
O O14 0.557752 0.287422 0.000000
O O15 0.799762 0.333102 0.734149
O O16 0.716664 0.234544 0.816550
O O17 0.752989 0.360480 0.000000
O O18 0.140401 0.710640 0.500000
O O19 0.096146 0.673076 0.233657
O O20 0.727725 0.902184 0.500000
O O21 0.919041 0.500000 0.250000
O O22 0.000000 0.387304 0.250000
O O23 0.944280 0.413800 0.000000
#
# Coordination Sequence:
#
# PCOD8203364 Si02
#       8
#     8   8   8   8   8   8   8   8
#     4  10  20  32  50  79 117 158 199 244 288 340
#     4  10  21  36  56  83 115 149 187 233 283 341
#     4  12  25  42  65  91 117 151 189 234 290 352
#     4  11  24  45  65  86 114 147 189 240 292 345
#     4  10  19  36  59  86 121 156 192 237 289 345
#     4  10  21  37  57  88 124 161 204 248 294 351
#     4   9  17  32  53  78 111 151 188 232 283 336
#     4  11  22  39  63  90 120 158 200 250 302 353
#
# _framework density 19.62303
#
# number of rings (size 3 to 8) (size 9 to 14) (size 15 to 20)
#    0.000    1.625    1.250    4.500    0.000    5.500 
#    0.000    5.000    0.000    0.375    0.000    2.625 
#    0.000    0.000    0.000    0.000    0.000    0.000 
#
# Total GULP energy -793741.801473 kJ/mol
# GULP energy per Si atom -12402.215648 kJ/mol
# Density = 1.957837 g / cm^3
# Si number density = 19.623030 Si / 1000 Ang^3
#
#
#
# Elastic Constant Matrix: (Units=GPa)
#
#
# Indices 1 2 3 4 5 6 
#
# 1 85.6586 46.2856 39.5158 0.0000 0.0000 0.0000
# 2 46.2856 103.6237 50.1094 0.0000 0.0000 0.0000
# 3 39.5158 50.1094 113.2994 0.0000 0.0000 0.0000
# 4 0.0000 0.0000 0.0000 33.7622 0.0000 0.0000
# 5 0.0000 0.0000 0.0000 0.0000 26.4997 0.0000
# 6 0.0000 0.0000 0.0000 0.0000 0.0000 13.4449
#
#
#
# Elastic Compliance Matrix: (Units=1/GPa)
#
#
# Indices 1 2 3 4 5 6 
#
# 1 0.016211 -0.005733 -0.003118 0.000000 0.000000 0.000000
# 2 -0.005733 0.014303 -0.004326 0.000000 0.000000 0.000000
# 3 -0.003118 -0.004326 0.011827 0.000000 0.000000 0.000000
# 4 0.000000 0.000000 0.000000 0.029619 0.000000 0.000000
# 5 0.000000 0.000000 0.000000 0.000000 0.037736 0.000000
# 6 0.000000 0.000000 0.000000 0.000000 0.000000 0.074378
#
#
# Mechanical properties :
#
#
# Convention : Reuss Voigt Hill
#
# Bulk Modulus (GPa) = 62.55592 63.82260 63.18926
# Shear Modulus (GPa) = 23.17418 25.85277 24.51347
#
# Velocity S-wave (km/s) = 3.44025 3.63364 3.53826
# Velocity P-wave (km/s) = 6.90858 7.08515 6.99742
#
# Compressibility (1/GPa) = 0.01598570
#
# Stress axis : x y z
#
# Youngs Moduli (GPa) = 61.68839 69.91482 84.55059
#
# Poissons Ratio (x) = 0.40081 0.26366
# Poissons Ratio (y) = 0.35365 0.36580
# Poissons Ratio (z) = 0.19236 0.30248
#
# Static dielectric constant tensor:
#      x y z
#    x 3.383680 0.000000 0.000000 
#    y 0.000000 3.849330 0.000000 
#    z 0.000000 0.000000 3.574170 
# 
# 
# High freq. dielectric constant tensor:
#      x y z
#    x 1.743040 0.000000 0.000000 
#    y 0.000000 1.773730 0.000000 
#    z 0.000000 0.000000 1.772240 
# 
# From -- ./inp_files/6489.got.cif
#   From: 2010.03.12/outbox.cif.g09.slc.cpg/sg49_4_cif.got.tgz:6489.got - 2010.04.14 03:58:27.
