data_PCOD8203044
_publ_section_title
;
Structure prediction by ZEFSAII (Michael W. Deem and Ramdas Pophale) SiO2 
 PCOD8203044
Probable space group: P C C M
;
_chemical_formula_sum "Si O2"
_cell_formula_units_Z 40
_cell_length_a 22.795499
_cell_length_b 5.049413
_cell_length_c 18.004176
_cell_angle_alpha 90.000000
_cell_angle_beta 90.000000
_cell_angle_gamma 90.000000
_cell_volume 2072.350676
_symmetry_space_group_name_H-M "P C C M"
_symmetry_group_IT_number 49
_symmetry_cell_setting 'orthorhombic'
loop_
_space_group_symop_operation_xyz
x,y,z
-x,-y,z
x,-y,1/2-z
-x,y,1/2-z
-x,-y,-z
x,y,-z
-x,y,1/2+z
x,-y,1/2+z
loop_
_atom_site_type_symbol
_atom_site_label
_atom_site_fract_x
_atom_site_fract_y
_atom_site_fract_z
Si Si1 0.861510 0.239590 0.799172
Si Si2 0.729918 0.755087 0.700856
Si Si3 0.561401 0.078633 0.417045
Si Si4 0.637098 0.563405 0.583291
Si Si5 0.038256 0.755895 0.085880
O O1 0.864323 0.500000 0.750000
O O2 0.795359 0.170491 0.826629
O O3 0.900531 0.270386 0.871991
O O4 0.886344 0.000000 0.750000
O O5 0.734749 0.500000 0.750000
O O6 0.691341 0.668471 0.630963
O O7 0.703648 0.000000 0.750000
O O8 0.546516 0.185003 0.500000
O O9 0.594177 0.805774 0.420841
O O10 0.500000 0.000000 0.375475
O O11 0.601785 0.311388 0.379979
O O12 0.659290 0.485998 0.500000
O O13 0.000000 0.500000 0.101178
O O14 0.054503 0.793083 0.000000
O O15 0.000000 0.000000 0.115716
#
# Coordination Sequence:
#
# PCOD8203044 Si02
#       5
#     8   8   8   8   8
#     4  10  21  36  55  78 103 138 182 220 259 314
#     4  10  21  37  54  75 107 142 175 218 271 316
#     4   9  17  30  50  78 108 133 166 216 262 303
#     4  10  19  32  54  80 102 134 179 216 255 313
#     4  10  21  36  54  79 110 140 171 215 272 321
#
# _framework density 19.301752
#
# number of rings (size 3 to 8) (size 9 to 14) (size 15 to 20)
#    0.000    2.200    0.000    3.000    0.000    5.600 
#    0.000    0.000    0.000   23.400    0.000    0.000 
#    0.000    0.000    0.000    0.000    0.000    0.000 
#
# Total GULP energy -495697.276767 kJ/mol
# GULP energy per Si atom -12392.431919 kJ/mol
# Density = 1.925782 g / cm^3
# Si number density = 19.301752 Si / 1000 Ang^3
#
#
#
# Elastic Constant Matrix: (Units=GPa)
#
#
# Indices 1 2 3 4 5 6 
#
# 1 -2.5757 -105.8433 -18.1108 0.0000 0.0000 0.0000
# 2 -105.8433 -32.6445 -68.7892 0.0000 0.0000 0.0000
# 3 -18.1108 -68.7892 12.0926 0.0000 0.0000 0.0000
# 4 0.0000 0.0000 0.0000 32.7614 0.0000 0.0000
# 5 0.0000 0.0000 0.0000 0.0000 -8.7033 0.0000
# 6 0.0000 0.0000 0.0000 0.0000 0.0000 28.6203
#
#
#
# Elastic Compliance Matrix: (Units=1/GPa)
#
#
# Indices 1 2 3 4 5 6 
#
# 1 0.013661 -0.006730 -0.017826 0.000000 0.000000 0.000000
# 2 -0.006730 0.000957 -0.004636 0.000000 0.000000 0.000000
# 3 -0.017826 -0.004636 0.029627 0.000000 0.000000 0.000000
# 4 0.000000 0.000000 0.000000 0.030524 0.000000 0.000000
# 5 0.000000 0.000000 0.000000 0.000000 -0.114899 0.000000
# 6 0.000000 0.000000 0.000000 0.000000 0.000000 0.034940
#
#
# Mechanical properties :
#
#
# Convention : Reuss Voigt Hill
#
# Bulk Modulus (GPa) = -70.73234 -45.40159 -58.06696
# Shear Modulus (GPa) = 103.13394 21.84340 62.48867
#
# Velocity S-wave (km/s) = 7.31768 3.36769 5.69604
# Velocity P-wave (km/s) = 5.88836 2.90710 3.62088
#
# Compressibility (1/GPa) = -0.01413780
#
# Stress axis : x y z
#
# Youngs Moduli (GPa) = 73.20160 1044.92786 33.75244
#
# Poissons Ratio (x) = 7.03261 0.60166
# Poissons Ratio (y) = 0.49266 0.15647
# Poissons Ratio (z) = 1.30486 4.84404
#
# Static dielectric constant tensor:
#      x y z
#    x 3.964490 0.000000 0.000000 
#    y 0.000000 3.803960 0.000000 
#    z 0.000000 0.000000 3.275890 
# 
# 
# High freq. dielectric constant tensor:
#      x y z
#    x 1.753410 0.000000 0.000000 
#    y 0.000000 1.777280 0.000000 
#    z 0.000000 0.000000 1.715130 
# 
# From -- ./inp_files/15338.got.cif
#   From: 2010.03.12/outbox.cif.g09.slc.cpg/sg49_8_cif.got.tgz:15338.got - 2010.04.14 03:58:27.
