data_PCOD8203282
_publ_section_title
;
Structure prediction by ZEFSAII (Michael W. Deem and Ramdas Pophale) SiO2 
 PCOD8203282
Probable space group: P C C M
;
_chemical_formula_sum "Si O2"
_cell_formula_units_Z 64
_cell_length_a 8.665906
_cell_length_b 15.458426
_cell_length_c 23.865946
_cell_angle_alpha 90.000000
_cell_angle_beta 90.000000
_cell_angle_gamma 90.000000
_cell_volume 3197.112355
_symmetry_space_group_name_H-M "P C C M"
_symmetry_group_IT_number 49
_symmetry_cell_setting 'orthorhombic'
loop_
_space_group_symop_operation_xyz
x,y,z
-x,-y,z
x,-y,1/2-z
-x,y,1/2-z
-x,-y,-z
x,y,-z
-x,y,1/2+z
x,-y,1/2+z
loop_
_atom_site_type_symbol
_atom_site_label
_atom_site_fract_x
_atom_site_fract_y
_atom_site_fract_z
Si Si1 0.316576 0.000940 0.437129
Si Si2 0.682680 0.096317 0.249870
Si Si3 0.680366 0.501084 0.565282
Si Si4 0.319400 0.399001 0.751915
Si Si5 0.819732 0.345037 0.863375
Si Si6 0.183196 0.344523 0.130826
Si Si7 0.682083 0.833842 0.631675
Si Si8 0.684182 0.164500 0.631712
O O1 0.250742 0.999737 0.500000
O O2 0.256420 0.916182 0.404982
O O3 0.500000 0.000000 0.436418
O O4 0.257690 0.087723 0.406868
O O5 0.500000 0.086880 0.250000
O O6 0.736896 0.147560 0.195056
O O7 0.737351 0.148537 0.304359
O O8 0.755140 0.000000 0.250000
O O9 0.500000 0.500000 0.578622
O O10 0.715610 0.513072 0.500000
O O11 0.751524 0.580288 0.598474
O O12 0.754695 0.412001 0.585533
O O13 0.281296 0.500000 0.750000
O O14 0.500000 0.379638 0.750000
O O15 0.238920 0.352366 0.700076
O O16 0.257137 0.359512 0.808851
O O17 0.764268 0.253653 0.888771
O O18 0.001690 0.353236 0.864458
O O19 0.231132 0.249768 0.109054
O O20 0.498818 0.822833 0.626855
#
# Coordination Sequence:
#
# PCOD8203282 Si02
#       8
#     8   8   8   8   8   8   8   8
#     4   9  18  33  56  86 115 149 201 258 299 339
#     4   9  15  28  54  85 111 145 194 249 297 338
#     4  11  25  46  69  90 115 155 211 263 302 351
#     4  11  22  39  66  93 122 160 205 250 298 359
#     4  12  25  40  62  93 130 163 197 245 309 375
#     4  12  25  40  62  93 130 163 197 245 309 375
#     4  10  19  34  58  85 117 155 201 250 296 351
#     4  10  19  34  58  85 117 155 201 250 296 351
#
# _framework density 20.018065
#
# number of rings (size 3 to 8) (size 9 to 14) (size 15 to 20)
#    0.000    1.500    2.500    3.750    0.000    3.500 
#    0.000    3.125    0.000    1.500    0.000    0.000 
#    0.000    0.000    0.000    0.000    0.000    0.000 
#
# Total GULP energy -793832.646561 kJ/mol
# GULP energy per Si atom -12403.635103 kJ/mol
# Density = 1.997250 g / cm^3
# Si number density = 20.018065 Si / 1000 Ang^3
#
#
#
# Elastic Constant Matrix: (Units=GPa)
#
#
# Indices 1 2 3 4 5 6 
#
# 1 44.9359 16.1024 14.5448 0.0000 0.0000 0.0000
# 2 16.1024 106.8212 24.7469 0.0000 0.0000 0.0000
# 3 14.5448 24.7469 96.7994 0.0000 0.0000 0.0000
# 4 0.0000 0.0000 0.0000 4.1696 0.0000 0.0000
# 5 0.0000 0.0000 0.0000 0.0000 20.6196 0.0000
# 6 0.0000 0.0000 0.0000 0.0000 0.0000 -0.4963
#
#
#
# Elastic Compliance Matrix: (Units=1/GPa)
#
#
# Indices 1 2 3 4 5 6 
#
# 1 0.024258 -0.002989 -0.002881 0.000000 0.000000 0.000000
# 2 -0.002989 0.010319 -0.002189 0.000000 0.000000 0.000000
# 3 -0.002881 -0.002189 0.011323 0.000000 0.000000 0.000000
# 4 0.000000 0.000000 0.000000 0.239832 0.000000 0.000000
# 5 0.000000 0.000000 0.000000 0.000000 0.048497 0.000000
# 6 0.000000 0.000000 0.000000 0.000000 0.000000 -2.014844
#
#
# Mechanical properties :
#
#
# Convention : Reuss Voigt Hill
#
# Bulk Modulus (GPa) = 33.57732 39.92720 36.75226
# Shear Modulus (GPa) = -3.02193 17.73608 7.35707
#
# Velocity S-wave (km/s) = -1.22999 2.97981 1.91917
# Velocity P-wave (km/s) = 3.84613 5.64162 4.82808
#
# Compressibility (1/GPa) = 0.02978201
#
# Stress axis : x y z
#
# Youngs Moduli (GPa) = 41.22435 96.90721 88.31512
#
# Poissons Ratio (x) = 0.28968 0.25440
# Poissons Ratio (y) = 0.12323 0.19332
# Poissons Ratio (z) = 0.11875 0.21212
#
# Static dielectric constant tensor:
#      x y z
#    x 3.343720 0.000000 0.000000 
#    y 0.000000 3.872980 0.000000 
#    z 0.000000 0.000000 3.714060 
# 
# 
# High freq. dielectric constant tensor:
#      x y z
#    x 1.751550 0.000000 0.000000 
#    y 0.000000 1.802750 0.000000 
#    z 0.000000 0.000000 1.781260 
# 
# From -- ./inp_files/22555.got.cif
#   From: 2010.03.12/outbox.cif.g09.slc.cpg/sg49_12_cif.got.tgz:22555.got - 2010.04.14 03:58:27.
