data_PCOD8203330
_publ_section_title
;
Structure prediction by ZEFSAII (Michael W. Deem and Ramdas Pophale) SiO2 
 PCOD8203330
Probable space group: P C C M
;
_chemical_formula_sum "Si O2"
_cell_formula_units_Z 64
_cell_length_a 17.763866
_cell_length_b 11.901817
_cell_length_c 15.629676
_cell_angle_alpha 90.000000
_cell_angle_beta 90.000000
_cell_angle_gamma 90.000000
_cell_volume 3304.461772
_symmetry_space_group_name_H-M "P C C M"
_symmetry_group_IT_number 49
_symmetry_cell_setting 'orthorhombic'
loop_
_space_group_symop_operation_xyz
x,y,z
-x,-y,z
x,-y,1/2-z
-x,y,1/2-z
-x,-y,-z
x,y,-z
-x,y,1/2+z
x,-y,1/2+z
loop_
_atom_site_type_symbol
_atom_site_label
_atom_site_fract_x
_atom_site_fract_y
_atom_site_fract_z
Si Si1 0.175154 0.752804 0.097210
Si Si2 0.713924 0.892864 0.694695
Si Si3 0.415767 0.989736 0.401803
Si Si4 0.276788 0.451103 0.593315
Si Si5 0.087164 0.634090 0.248102
Si Si6 0.422899 0.468961 0.843947
Si Si7 0.337867 0.763136 0.649698
Si Si8 0.189429 0.659380 0.597706
O O1 0.212258 0.865473 0.136828
O O2 0.246836 0.673319 0.089856
O O3 0.115812 0.693328 0.160470
O O4 0.142070 0.773002 0.000000
O O5 0.689515 0.787620 0.753617
O O6 0.739216 0.000000 0.750000
O O7 0.639396 0.921012 0.641403
O O8 0.419542 0.023192 0.500000
O O9 0.383810 0.865140 0.390316
O O10 0.500000 0.000000 0.361733
O O11 0.289735 0.504141 0.500000
O O12 0.357054 0.443255 0.636882
O O13 0.218128 0.538805 0.635344
O O14 0.099223 0.500000 0.250000
O O15 0.125485 0.691479 0.332471
O O16 0.000000 0.664666 0.250000
O O17 0.500000 0.500000 0.897075
O O18 0.445535 0.500000 0.750000
O O19 0.394011 0.342264 0.857240
O O20 0.260448 0.743898 0.597301
O O21 0.156160 0.654298 0.500000
#
# Coordination Sequence:
#
# PCOD8203330 Si02
#       8
#     8   8   8   8   8   8   8   8
#     4  11  21  37  60  88 121 157 197 244 295 353
#     4  10  21  36  59  85 108 150 205 254 302 355
#     4  10  22  38  54  80 117 153 199 260 314 352
#     4   9  19  32  51  77 106 150 194 228 280 337
#     4  11  23  37  60  94 129 162 193 233 292 358
#     4  10  21  32  47  75 110 148 191 237 281 337
#     4  10  20  35  58  79 109 154 201 242 295 356
#     4  10  19  35  58  84 116 156 201 237 277 348
#
# _framework density 19.367754000000001
#
# number of rings (size 3 to 8) (size 9 to 14) (size 15 to 20)
#    0.000    1.875    2.500    1.500    1.750    6.500 
#    0.000    2.500    0.000    0.375    0.000    0.875 
#    0.000    0.000    0.000    0.000    0.000    0.000 
#
# Total GULP energy -792898.205127 kJ/mol
# GULP energy per Si atom -12389.034455 kJ/mol
# Density = 1.932367 g / cm^3
# Si number density = 19.367754 Si / 1000 Ang^3
#
#
#
# Elastic Constant Matrix: (Units=GPa)
#
#
# Indices 1 2 3 4 5 6 
#
# 1 130.1475 38.0654 61.5181 0.0000 0.0000 0.0000
# 2 38.0654 63.2932 23.2592 0.0000 0.0000 0.0000
# 3 61.5181 23.2592 114.3975 0.0000 0.0000 0.0000
# 4 0.0000 0.0000 0.0000 23.2854 0.0000 0.0000
# 5 0.0000 0.0000 0.0000 0.0000 1024.7447 0.0000
# 6 0.0000 0.0000 0.0000 0.0000 0.0000 26.4656
#
#
#
# Elastic Compliance Matrix: (Units=1/GPa)
#
#
# Indices 1 2 3 4 5 6 
#
# 1 0.011640 -0.005080 -0.005227 0.000000 0.000000 0.000000
# 2 -0.005080 0.019292 -0.001191 0.000000 0.000000 0.000000
# 3 -0.005227 -0.001191 0.011794 0.000000 0.000000 0.000000
# 4 0.000000 0.000000 0.000000 0.042945 0.000000 0.000000
# 5 0.000000 0.000000 0.000000 0.000000 0.000976 0.000000
# 6 0.000000 0.000000 0.000000 0.000000 0.000000 0.037785
#
#
# Mechanical properties :
#
#
# Convention : Reuss Voigt Hill
#
# Bulk Modulus (GPa) = 50.67927 61.50261 56.09094
# Shear Modulus (GPa) = 32.46677 227.23217 129.84947
#
# Velocity S-wave (km/s) = 4.09874 10.84342 8.19693
# Velocity P-wave (km/s) = 6.97304 13.73306 10.89083
#
# Compressibility (1/GPa) = 0.01973193
#
# Stress axis : x y z
#
# Youngs Moduli (GPa) = 85.91225 51.83477 84.78742
#
# Poissons Ratio (x) = 0.26330 0.44315
# Poissons Ratio (y) = 0.43640 0.10097
# Poissons Ratio (z) = 0.44903 0.06173
#
# Static dielectric constant tensor:
#      x y z
#    x 3.639480 0.000000 0.000000 
#    y 0.000000 3.355420 0.000000 
#    z 0.000000 0.000000 3.806150 
# 
# 
# High freq. dielectric constant tensor:
#      x y z
#    x 1.742520 0.000000 0.000000 
#    y 0.000000 1.734660 0.000000 
#    z 0.000000 0.000000 1.763620 
# 
# From -- ./inp_files/14218.got.cif
#   From: 2010.03.12/outbox.cif.g09.slc.cpg/sg49_8_cif.got.tgz:14218.got - 2010.04.14 03:58:27.
