data_PCOD8203531
_publ_section_title
;
Structure prediction by ZEFSAII (Michael W. Deem and Ramdas Pophale) SiO2 
 PCOD8203531
Probable space group: P C C M
;
_chemical_formula_sum "Si O2"
_cell_formula_units_Z 48
_cell_length_a 30.574814
_cell_length_b 10.033665
_cell_length_c 8.970359
_cell_angle_alpha 90.000000
_cell_angle_beta 90.000000
_cell_angle_gamma 90.000000
_cell_volume 2751.903780
_symmetry_space_group_name_H-M "P C C M"
_symmetry_group_IT_number 49
_symmetry_cell_setting 'orthorhombic'
loop_
_space_group_symop_operation_xyz
x,y,z
-x,-y,z
x,-y,1/2-z
-x,y,1/2-z
-x,-y,-z
x,y,-z
-x,y,1/2+z
x,-y,1/2+z
loop_
_atom_site_type_symbol
_atom_site_label
_atom_site_fract_x
_atom_site_fract_y
_atom_site_fract_z
Si Si1 0.137409 0.143662 0.674365
Si Si2 0.959474 0.857777 0.672351
Si Si3 0.297779 0.635424 0.325997
Si Si4 0.362764 0.141433 0.826304
Si Si5 0.196873 0.637839 0.324751
Si Si6 0.540777 0.857094 0.173550
O O1 0.148758 0.129149 0.500000
O O2 0.088529 0.206441 0.695096
O O3 0.170654 0.241733 0.753439
O O4 0.141742 0.000000 0.750000
O O5 0.970671 0.874114 0.500000
O O6 0.000000 0.776204 0.750000
O O7 0.957483 0.000000 0.750000
O O8 0.313538 0.500000 0.250000
O O9 0.305732 0.617755 0.500000
O O10 0.327130 0.755716 0.261790
O O11 0.247474 0.666329 0.288840
O O12 0.411163 0.205533 0.797897
O O13 0.355893 0.000000 0.750000
O O14 0.355271 0.116455 0.000000
O O15 0.181655 0.500000 0.250000
O O16 0.187531 0.629425 0.500000
O O17 0.500000 0.775950 0.250000
O O18 0.542222 0.000000 0.250000
O O19 0.530746 0.870949 0.000000
#
# Coordination Sequence:
#
# PCOD8203531 Si02
#       6
#     8   8   8   8   8   8
#     4  10  20  33  50  75 104 132 164 202 244 287
#     4   9  16  26  43  67  96 128 160 195 235 281
#     4   9  19  35  52  71  94 123 160 197 236 285
#     4   9  18  31  47  70  98 124 154 194 237 279
#     4  10  20  35  54  73  96 128 164 202 244 293
#     4   9  15  24  40  62  90 121 151 186 227 273
#
# _framework density 17.44247
#
# number of rings (size 3 to 8) (size 9 to 14) (size 15 to 20)
#    0.000    2.667    0.000    3.000    0.000    4.667 
#    0.000    1.667    0.000    1.000    0.000    7.000 
#    0.000    0.000    0.000    0.000    0.000    0.000 
#
# Total GULP energy -594778.773544 kJ/mol
# GULP energy per Si atom -12391.224449 kJ/mol
# Density = 1.740277 g / cm^3
# Si number density = 17.442470 Si / 1000 Ang^3
#
#
#
# Elastic Constant Matrix: (Units=GPa)
#
#
# Indices 1 2 3 4 5 6 
#
# 1 123.1863 71.4034 60.5903 0.0000 0.0000 0.0000
# 2 71.4034 89.3639 46.2268 0.0000 0.0000 0.0000
# 3 60.5903 46.2268 101.1296 0.0000 0.0000 0.0000
# 4 0.0000 0.0000 0.0000 24.4641 0.0000 0.0000
# 5 0.0000 0.0000 0.0000 0.0000 31.7099 0.0000
# 6 0.0000 0.0000 0.0000 0.0000 0.0000 4.0713
#
#
#
# Elastic Compliance Matrix: (Units=1/GPa)
#
#
# Indices 1 2 3 4 5 6 
#
# 1 0.016981 -0.010878 -0.005202 0.000000 0.000000 0.000000
# 2 -0.010878 0.021623 -0.003367 0.000000 0.000000 0.000000
# 3 -0.005202 -0.003367 0.014544 0.000000 0.000000 0.000000
# 4 0.000000 0.000000 0.000000 0.040876 0.000000 0.000000
# 5 0.000000 0.000000 0.000000 0.000000 0.031536 0.000000
# 6 0.000000 0.000000 0.000000 0.000000 0.000000 0.245623
#
#
# Mechanical properties :
#
#
# Convention : Reuss Voigt Hill
#
# Bulk Modulus (GPa) = 70.14728 74.45786 72.30257
# Shear Modulus (GPa) = 12.05317 21.07968 16.56642
#
# Velocity S-wave (km/s) = 2.63159 3.48016 3.08519
# Velocity P-wave (km/s) = 7.03828 7.67652 7.36432
#
# Compressibility (1/GPa) = 0.01425572
#
# Stress axis : x y z
#
# Youngs Moduli (GPa) = 58.88761 46.24647 68.75656
#
# Poissons Ratio (x) = 0.50305 0.35767
# Poissons Ratio (y) = 0.64056 0.23150
# Poissons Ratio (z) = 0.30633 0.15571
#
# Static dielectric constant tensor:
#      x y z
#    x 4.310640 0.000000 0.000000 
#    y 0.000000 2.891020 0.000000 
#    z 0.000000 0.000000 3.503280 
# 
# 
# High freq. dielectric constant tensor:
#      x y z
#    x 1.695660 0.000000 0.000000 
#    y 0.000000 1.622950 0.000000 
#    z 0.000000 0.000000 1.687510 
# 
# From -- ./inp_files/6946.got.cif
#   From: 2010.03.12/outbox.cif.g09.slc.cpg/sg49_4_cif.got.tgz:6946.got - 2010.04.14 03:58:27.
