data_PCOD8203177
_publ_section_title
;
Structure prediction by ZEFSAII (Michael W. Deem and Ramdas Pophale) SiO2 
 PCOD8203177
Probable space group: P C C M
;
_chemical_formula_sum "Si O2"
_cell_formula_units_Z 48
_cell_length_a 14.350605
_cell_length_b 20.360575
_cell_length_c 8.750412
_cell_angle_alpha 90.000000
_cell_angle_beta 90.000000
_cell_angle_gamma 90.000000
_cell_volume 2556.752863
_symmetry_space_group_name_H-M "P C C M"
_symmetry_group_IT_number 49
_symmetry_cell_setting 'orthorhombic'
loop_
_space_group_symop_operation_xyz
x,y,z
-x,-y,z
x,-y,1/2-z
-x,y,1/2-z
-x,-y,-z
x,y,-z
-x,y,1/2+z
x,-y,1/2+z
loop_
_atom_site_type_symbol
_atom_site_label
_atom_site_fract_x
_atom_site_fract_y
_atom_site_fract_z
Si Si1 0.594915 0.373987 0.680022
Si Si2 0.210358 0.180929 0.675054
Si Si3 0.210161 0.568991 0.680668
Si Si4 0.407917 0.767300 0.177041
Si Si5 0.099971 0.311470 0.679890
Si Si6 0.901636 0.931237 0.820557
O O1 0.500000 0.404510 0.750000
O O2 0.584168 0.371632 0.500000
O O3 0.683067 0.417543 0.730502
O O4 0.612354 0.301020 0.740190
O O5 0.185624 0.163631 0.500000
O O6 0.321254 0.184164 0.700588
O O7 0.166000 0.250410 0.721133
O O8 0.173988 0.124079 0.784940
O O9 0.178290 0.500000 0.750000
O O10 0.199116 0.567693 0.500000
O O11 0.141729 0.623632 0.745942
O O12 0.500000 0.800831 0.250000
O O13 0.425169 0.752078 0.000000
O O14 0.091606 0.322209 0.500000
O O15 0.000000 0.295856 0.750000
O O16 0.000000 0.909148 0.750000
O O17 0.867743 0.000000 0.750000
O O18 0.913409 0.939795 0.000000
#
# Coordination Sequence:
#
# PCOD8203177 Si02
#       6
#     8   8   8   8   8   8
#     4  10  20  34  55  81 110 143 182 228 280 338
#     4  10  21  37  59  87 118 152 189 231 280 331
#     4  11  24  40  58  80 108 145 187 233 285 342
#     4  10  19  33  55  84 116 149 185 229 278 331
#     4  11  23  40  60  83 112 144 185 234 283 335
#     4  11  22  37  59  86 121 158 194 234 279 333
#
# _framework density 18.773814000000002
#
# number of rings (size 3 to 8) (size 9 to 14) (size 15 to 20)
#    0.000    1.500    1.667    5.500    0.000    6.667 
#    0.000    3.333    0.000    0.500    0.000    3.500 
#    0.000    0.000    0.000    0.000    0.000    0.000 
#
# Total GULP energy -595382.899334 kJ/mol
# GULP energy per Si atom -12403.810403 kJ/mol
# Density = 1.873108 g / cm^3
# Si number density = 18.773814 Si / 1000 Ang^3
#
#
#
# Elastic Constant Matrix: (Units=GPa)
#
#
# Indices 1 2 3 4 5 6 
#
# 1 104.3520 39.6555 43.3083 0.0000 0.0000 0.0000
# 2 39.6555 85.5856 31.2207 0.0000 0.0000 0.0000
# 3 43.3083 31.2207 95.6627 0.0000 0.0000 0.0000
# 4 0.0000 0.0000 0.0000 28.5164 0.0000 0.0000
# 5 0.0000 0.0000 0.0000 0.0000 30.2382 0.0000
# 6 0.0000 0.0000 0.0000 0.0000 0.0000 28.8666
#
#
#
# Elastic Compliance Matrix: (Units=1/GPa)
#
#
# Indices 1 2 3 4 5 6 
#
# 1 0.013139 -0.004448 -0.004497 0.000000 0.000000 0.000000
# 2 -0.004448 0.014769 -0.002806 0.000000 0.000000 0.000000
# 3 -0.004497 -0.002806 0.013405 0.000000 0.000000 0.000000
# 4 0.000000 0.000000 0.000000 0.035068 0.000000 0.000000
# 5 0.000000 0.000000 0.000000 0.000000 0.033071 0.000000
# 6 0.000000 0.000000 0.000000 0.000000 0.000000 0.034642
#
#
# Mechanical properties :
#
#
# Convention : Reuss Voigt Hill
#
# Bulk Modulus (GPa) = 56.14401 57.10771 56.62586
# Shear Modulus (GPa) = 28.81298 28.95196 28.88247
#
# Velocity S-wave (km/s) = 3.92183 3.93128 3.92656
# Velocity P-wave (km/s) = 7.10479 7.14783 7.12634
#
# Compressibility (1/GPa) = 0.01781134
#
# Stress axis : x y z
#
# Youngs Moduli (GPa) = 76.10673 67.71062 74.59819
#
# Poissons Ratio (x) = 0.30115 0.33546
# Poissons Ratio (y) = 0.33849 0.20935
# Poissons Ratio (z) = 0.34225 0.19002
#
# Static dielectric constant tensor:
#      x y z
#    x 3.471710 0.000000 0.000000 
#    y 0.000000 3.242550 0.000000 
#    z 0.000000 0.000000 3.552850 
# 
# 
# High freq. dielectric constant tensor:
#      x y z
#    x 1.736820 0.000000 0.000000 
#    y 0.000000 1.709990 0.000000 
#    z 0.000000 0.000000 1.744600 
# 
# From -- ./inp_files/3716.got.cif
#   From: 2010.03.12/outbox.cif.g09.slc.cpg/sg49_2_cif.got.tgz:3716.got - 2010.04.14 03:58:27.
