data_PCOD8203548
_publ_section_title
;
Structure prediction by ZEFSAII (Michael W. Deem and Ramdas Pophale) SiO2 
 PCOD8203548
Probable space group: P C C M
;
_chemical_formula_sum "Si O2"
_cell_formula_units_Z 40
_cell_length_a 9.845224
_cell_length_b 25.851667
_cell_length_c 8.737480
_cell_angle_alpha 90.000000
_cell_angle_beta 90.000000
_cell_angle_gamma 90.000000
_cell_volume 2223.823675
_symmetry_space_group_name_H-M "P C C M"
_symmetry_group_IT_number 49
_symmetry_cell_setting 'orthorhombic'
loop_
_space_group_symop_operation_xyz
x,y,z
-x,-y,z
x,-y,1/2-z
-x,y,1/2-z
-x,-y,-z
x,y,-z
-x,y,1/2+z
x,-y,1/2+z
loop_
_atom_site_type_symbol
_atom_site_label
_atom_site_fract_x
_atom_site_fract_y
_atom_site_fract_z
Si Si1 0.145866 0.445632 0.317485
Si Si2 0.646969 0.640965 0.679079
Si Si3 0.143904 0.945276 0.318716
Si Si4 0.648901 0.856653 0.819800
Si Si5 0.647776 0.245489 0.179432
O O1 0.197553 0.500000 0.250000
O O2 0.136865 0.448950 0.500000
O O3 0.249335 0.401866 0.258805
O O4 0.000000 0.431121 0.250000
O O5 0.500000 0.631940 0.750000
O O6 0.626466 0.634919 0.500000
O O7 0.711005 0.697924 0.716789
O O8 0.129927 0.950059 0.500000
O O9 0.256411 0.903869 0.268882
O O10 0.000000 0.927696 0.250000
O O11 0.190296 0.000000 0.250000
O O12 0.500000 0.865211 0.750000
O O13 0.721432 0.803613 0.758374
O O14 0.634757 0.852993 0.000000
O O15 0.500000 0.246489 0.250000
O O16 0.640962 0.235183 0.000000
#
# Coordination Sequence:
#
# PCOD8203548 Si02
#       5
#     8   8   8   8   8
#     4  10  20  35  52  72  98 130 166 203 245 294
#     4   9  19  33  51  75 101 128 163 203 244 290
#     4  10  21  36  54  74  99 131 167 203 246 294
#     4  10  20  33  51  77 103 130 164 203 244 290
#     4   9  16  29  49  72  99 131 162 198 243 290
#
# _framework density 17.987037000000001
#
# number of rings (size 3 to 8) (size 9 to 14) (size 15 to 20)
#    0.000    2.400    0.000    4.800    0.000    6.400 
#    0.000    5.000    0.000    4.800    0.000    0.000 
#    0.000    0.000    0.000    0.000    0.000    0.000 
#
# Total GULP energy -495767.121992 kJ/mol
# GULP energy per Si atom -12394.178050 kJ/mol
# Density = 1.794610 g / cm^3
# Si number density = 17.987037 Si / 1000 Ang^3
#
#
#
# Elastic Constant Matrix: (Units=GPa)
#
#
# Indices 1 2 3 4 5 6 
#
# 1 87.5015 97.5289 38.8179 0.0000 0.0000 0.0000
# 2 97.5289 189.5484 61.6565 0.0000 0.0000 0.0000
# 3 38.8179 61.6565 77.9085 0.0000 0.0000 0.0000
# 4 0.0000 0.0000 0.0000 60.9951 0.0000 0.0000
# 5 0.0000 0.0000 0.0000 0.0000 15.2433 0.0000
# 6 0.0000 0.0000 0.0000 0.0000 0.0000 17.4822
#
#
#
# Elastic Compliance Matrix: (Units=1/GPa)
#
#
# Indices 1 2 3 4 5 6 
#
# 1 0.027435 -0.013022 -0.003364 0.000000 0.000000 0.000000
# 2 -0.013022 0.013285 -0.004026 0.000000 0.000000 0.000000
# 3 -0.003364 -0.004026 0.017698 0.000000 0.000000 0.000000
# 4 0.000000 0.000000 0.000000 0.016395 0.000000 0.000000
# 5 0.000000 0.000000 0.000000 0.000000 0.065602 0.000000
# 6 0.000000 0.000000 0.000000 0.000000 0.000000 0.057201
#
#
# Mechanical properties :
#
#
# Convention : Reuss Voigt Hill
#
# Bulk Modulus (GPa) = 56.83563 83.44057 70.13810
# Shear Modulus (GPa) = 20.46623 29.20779 24.83701
#
# Velocity S-wave (km/s) = 3.37684 4.03404 3.71998
# Velocity P-wave (km/s) = 6.84622 8.25760 7.58481
#
# Compressibility (1/GPa) = 0.01759460
#
# Stress axis : x y z
#
# Youngs Moduli (GPa) = 36.44984 75.27008 56.50449
#
# Poissons Ratio (x) = 0.98017 0.19008
# Poissons Ratio (y) = 0.47465 0.22748
# Poissons Ratio (z) = 0.12261 0.30303
#
# Static dielectric constant tensor:
#      x y z
#    x 3.137230 0.000000 0.000000 
#    y 0.000000 4.251780 0.000000 
#    z 0.000000 0.000000 3.434750 
# 
# 
# High freq. dielectric constant tensor:
#      x y z
#    x 1.664450 0.000000 0.000000 
#    y 0.000000 1.717880 0.000000 
#    z 0.000000 0.000000 1.710010 
# 
# From -- ./inp_files/1914.got.cif
#   From: 2010.03.12/outbox.cif.g09.slc.cpg/sg49_1_cif.got.tgz:1914.got - 2010.04.14 03:58:27.
