data_PCOD8203718
_publ_section_title
;
Structure prediction by ZEFSAII (Michael W. Deem and Ramdas Pophale) SiO2 
 PCOD8203718
Probable space group: P C C M
;
_chemical_formula_sum "Si O2"
_cell_formula_units_Z 64
_cell_length_a 14.941632
_cell_length_b 12.062589
_cell_length_c 16.781863
_cell_angle_alpha 90.000000
_cell_angle_beta 90.000000
_cell_angle_gamma 90.000000
_cell_volume 3024.675148
_symmetry_space_group_name_H-M "P C C M"
_symmetry_group_IT_number 49
_symmetry_cell_setting 'orthorhombic'
loop_
_space_group_symop_operation_xyz
x,y,z
-x,-y,z
x,-y,1/2-z
-x,y,1/2-z
-x,-y,-z
x,y,-z
-x,y,1/2+z
x,-y,1/2+z
loop_
_atom_site_type_symbol
_atom_site_label
_atom_site_fract_x
_atom_site_fract_y
_atom_site_fract_z
Si Si1 0.658436 0.277172 0.858695
Si Si2 0.507299 0.874514 0.844090
Si Si3 0.938067 0.404306 0.909249
Si Si4 0.239541 0.702040 0.702086
Si Si5 0.081508 0.789083 0.199444
Si Si6 0.697710 0.124703 0.592693
Si Si7 0.740294 0.507309 0.590372
Si Si8 0.210880 0.899969 0.910332
O O1 0.565117 0.214108 0.876799
O O2 0.679676 0.275328 0.764326
O O3 0.660781 0.404407 0.889937
O O4 0.734543 0.213928 0.908677
O O5 0.500000 0.878984 0.750000
O O6 0.602762 0.833692 0.874456
O O7 0.500000 0.000000 0.879181
O O8 0.961852 0.289737 0.866856
O O9 0.833888 0.430696 0.900558
O O10 0.000000 0.500000 0.870959
O O11 0.967051 0.387281 0.000000
O O12 0.145677 0.708085 0.748594
O O13 0.230621 0.798962 0.636980
O O14 0.260304 0.588011 0.656690
O O15 0.132099 0.891267 0.155449
O O16 0.000000 0.840654 0.250000
O O17 0.703700 0.147163 0.500000
O O18 0.721284 0.997999 0.614697
O O19 0.727338 0.461157 0.500000
O O20 0.172759 0.918449 0.000000
#
# Coordination Sequence:
#
# PCOD8203718 Si02
#       8
#     8   8   8   8   8   8   8   8
#     4  11  21  36  66  96 125 166 216 260 329 391
#     4  11  22  38  65 100 131 156 201 268 330 385
#     4  10  20  34  57  90 127 167 215 273 327 383
#     4  11  23  40  61  89 130 176 217 269 316 388
#     4  11  23  37  62  95 129 170 221 278 328 394
#     4  11  24  42  65  92 126 167 211 264 328 394
#     4  11  22  38  60  88 129 178 219 262 321 391
#     4  10  21  40  64  92 128 166 211 270 331 391
#
# _framework density 21.159295
#
# number of rings (size 3 to 8) (size 9 to 14) (size 15 to 20)
#    0.000    1.250    5.000    2.250    0.000    4.500 
#    0.000    3.750    0.000    3.000    0.000    0.000 
#    0.000    0.000    0.000    0.000    0.000    0.000 
#
# Total GULP energy -793427.477276 kJ/mol
# GULP energy per Si atom -12397.304332 kJ/mol
# Density = 2.111114 g / cm^3
# Si number density = 21.159295 Si / 1000 Ang^3
#
#
#
# Elastic Constant Matrix: (Units=GPa)
#
#
# Indices 1 2 3 4 5 6 
#
# 1 97.9640 38.4042 43.0337 0.0000 0.0000 0.0000
# 2 38.4042 89.3962 43.5262 0.0000 0.0000 0.0000
# 3 43.0337 43.5262 112.8860 0.0000 0.0000 0.0000
# 4 0.0000 0.0000 0.0000 33.0363 0.0000 0.0000
# 5 0.0000 0.0000 0.0000 0.0000 27.3488 0.0000
# 6 0.0000 0.0000 0.0000 0.0000 0.0000 13.9501
#
#
#
# Elastic Compliance Matrix: (Units=1/GPa)
#
#
# Indices 1 2 3 4 5 6 
#
# 1 0.013332 -0.004005 -0.003538 0.000000 0.000000 0.000000
# 2 -0.004005 0.014974 -0.004247 0.000000 0.000000 0.000000
# 3 -0.003538 -0.004247 0.011845 0.000000 0.000000 0.000000
# 4 0.000000 0.000000 0.000000 0.030270 0.000000 0.000000
# 5 0.000000 0.000000 0.000000 0.000000 0.036565 0.000000
# 6 0.000000 0.000000 0.000000 0.000000 0.000000 0.071684
#
#
# Mechanical properties :
#
#
# Convention : Reuss Voigt Hill
#
# Bulk Modulus (GPa) = 60.34538 61.13049 60.73793
# Shear Modulus (GPa) = 24.06462 26.55249 25.30856
#
# Velocity S-wave (km/s) = 3.37606 3.54628 3.46221
# Velocity P-wave (km/s) = 6.61653 6.76176 6.68954
#
# Compressibility (1/GPa) = 0.01657128
#
# Stress axis : x y z
#
# Youngs Moduli (GPa) = 75.00726 66.78048 84.42424
#
# Poissons Ratio (x) = 0.26743 0.29872
# Poissons Ratio (y) = 0.30038 0.35856
# Poissons Ratio (z) = 0.26540 0.28363
#
# Static dielectric constant tensor:
#      x y z
#    x 3.695070 0.000000 0.000000 
#    y 0.000000 3.762110 0.000000 
#    z 0.000000 0.000000 3.930650 
# 
# 
# High freq. dielectric constant tensor:
#      x y z
#    x 1.806420 0.000000 0.000000 
#    y 0.000000 1.821980 0.000000 
#    z 0.000000 0.000000 1.841090 
# 
# From -- ./inp_files/17982.got.cif
#   From: 2010.03.12/outbox.cif.g09.slc.cpg/sg49_9_cif.got.tgz:17982.got - 2010.04.14 03:58:27.
