data_PCOD8203248
_publ_section_title
;
Structure prediction by ZEFSAII (Michael W. Deem and Ramdas Pophale) SiO2 
 PCOD8203248
Probable space group: P C C M
;
_chemical_formula_sum "Si O2"
_cell_formula_units_Z 58
_cell_length_a 5.226303
_cell_length_b 17.917183
_cell_length_c 33.904253
_cell_angle_alpha 90.000000
_cell_angle_beta 90.000000
_cell_angle_gamma 90.000000
_cell_volume 3174.815518
_symmetry_space_group_name_H-M "P C C M"
_symmetry_group_IT_number 49
_symmetry_cell_setting 'orthorhombic'
loop_
_space_group_symop_operation_xyz
x,y,z
-x,-y,z
x,-y,1/2-z
-x,y,1/2-z
-x,-y,-z
x,y,-z
-x,y,1/2+z
x,-y,1/2+z
loop_
_atom_site_type_symbol
_atom_site_label
_atom_site_fract_x
_atom_site_fract_y
_atom_site_fract_z
Si Si1 0.439638 0.775346 0.340110
Si Si2 0.000000 0.000000 0.250000
Si Si3 0.604320 0.078360 0.292567
Si Si4 0.938099 0.270673 0.116105
Si Si5 0.956664 0.417515 0.840254
Si Si6 0.018091 0.826552 0.453941
Si Si7 0.539173 0.371199 0.704176
Si Si8 0.508481 0.082958 0.953842
O O1 0.449782 0.859069 0.324533
O O2 0.663304 0.762827 0.371853
O O3 0.482438 0.717012 0.304506
O O4 0.159899 0.766621 0.358283
O O5 0.891668 0.940937 0.218464
O O6 0.500000 0.102009 0.250000
O O7 0.500000 0.000000 0.309034
O O8 0.981681 0.250678 0.070133
O O9 0.952013 0.359944 0.122902
O O10 0.182764 0.399579 0.809397
O O11 0.000000 0.500000 0.857908
O O12 0.684363 0.415372 0.818394
O O13 0.033354 0.805447 0.500000
O O14 0.781681 0.880945 0.444536
O O15 0.274948 0.866575 0.437678
O O16 0.500000 0.386436 0.750000
O O17 0.500000 0.000000 0.934831
O O18 0.459680 0.075541 0.000000
#
# Coordination Sequence:
#
# PCOD8203248 Si02
#       8
#     8   2   8   8   8   8   8   8
#     4  10  21  36  53  72 107 139 169 217 259 307
#     4   8  18  32  52  74  92 132 190 224 258 292
#     4   9  19  33  51  73  97 137 183 220 258 292
#     4  10  22  37  53  76 104 133 172 209 260 320
#     4  10  21  36  54  75 105 140 165 204 259 311
#     4  10  19  34  56  77 102 136 174 217 257 302
#     4  10  20  34  52  81 104 133 175 210 251 302
#     4   9  17  30  51  77 103 132 166 206 252 301
#
# _framework density 18.268778000000001
#
# number of rings (size 3 to 8) (size 9 to 14) (size 15 to 20)
#    0.000    2.483    0.000    2.483    3.862    3.310 
#    2.483    4.138    0.000    0.414    0.000    0.000 
#    0.000    9.931    0.000    0.000    0.000    1.655 
#
# Total GULP energy -718551.422940 kJ/mol
# GULP energy per Si atom -12388.817637 kJ/mol
# Density = 1.822720 g / cm^3
# Si number density = 18.268778 Si / 1000 Ang^3
#
#
#
# Elastic Constant Matrix: (Units=GPa)
#
#
# Indices 1 2 3 4 5 6 
#
# 1 94.1737 16.8664 4.2903 0.0000 0.0000 0.0000
# 2 16.8664 121.5144 45.5663 0.0000 0.0000 0.0000
# 3 4.2903 45.5663 55.5683 0.0000 0.0000 0.0000
# 4 0.0000 0.0000 0.0000 17.1881 0.0000 0.0000
# 5 0.0000 0.0000 0.0000 0.0000 18.3252 0.0000
# 6 0.0000 0.0000 0.0000 0.0000 0.0000 30.6980
#
#
#
# Elastic Compliance Matrix: (Units=1/GPa)
#
#
# Indices 1 2 3 4 5 6 
#
# 1 0.010902 -0.001729 0.000576 0.000000 0.000000 0.000000
# 2 -0.001729 0.012158 -0.009836 0.000000 0.000000 0.000000
# 3 0.000576 -0.009836 0.026017 0.000000 0.000000 0.000000
# 4 0.000000 0.000000 0.000000 0.058180 0.000000 0.000000
# 5 0.000000 0.000000 0.000000 0.000000 0.054570 0.000000
# 6 0.000000 0.000000 0.000000 0.000000 0.000000 0.032575
#
#
# Mechanical properties :
#
#
# Convention : Reuss Voigt Hill
#
# Bulk Modulus (GPa) = 36.90178 44.96694 40.93436
# Shear Modulus (GPa) = 22.18152 26.87782 24.52967
#
# Velocity S-wave (km/s) = 3.48828 3.83984 3.66828
# Velocity P-wave (km/s) = 6.03882 6.65783 6.35587
#
# Compressibility (1/GPa) = 0.02709896
#
# Stress axis : x y z
#
# Youngs Moduli (GPa) = 91.72501 82.25110 38.43645
#
# Poissons Ratio (x) = 0.14224 -0.02215
# Poissons Ratio (y) = 0.15863 0.37806
# Poissons Ratio (z) = -0.05287 0.80902
#
# Static dielectric constant tensor:
#      x y z
#    x 3.665160 0.000000 0.000000 
#    y 0.000000 3.386870 0.000000 
#    z 0.000000 0.000000 2.999110 
# 
# 
# High freq. dielectric constant tensor:
#      x y z
#    x 1.733270 0.000000 0.000000 
#    y 0.000000 1.702350 0.000000 
#    z 0.000000 0.000000 1.672100 
# 
# From -- ./inp_files/25909.got.cif
#   From: 2010.03.12/outbox.cif.g09.slc.cpg/sg49_13_cif.got.tgz:25909.got - 2010.04.14 03:58:27.
