data_PCOD8203417
_publ_section_title
;
Structure prediction by ZEFSAII (Michael W. Deem and Ramdas Pophale) SiO2 
 PCOD8203417
Probable space group: P C C M
;
_chemical_formula_sum "Si O2"
_cell_formula_units_Z 64
_cell_length_a 14.142262
_cell_length_b 12.617786
_cell_length_c 17.371150
_cell_angle_alpha 90.000000
_cell_angle_beta 90.000000
_cell_angle_gamma 90.000000
_cell_volume 3099.778107
_symmetry_space_group_name_H-M "P C C M"
_symmetry_group_IT_number 49
_symmetry_cell_setting 'orthorhombic'
loop_
_space_group_symop_operation_xyz
x,y,z
-x,-y,z
x,-y,1/2-z
-x,y,1/2-z
-x,-y,-z
x,y,-z
-x,y,1/2+z
x,-y,1/2+z
loop_
_atom_site_type_symbol
_atom_site_label
_atom_site_fract_x
_atom_site_fract_y
_atom_site_fract_z
Si Si1 0.905056 0.310721 0.342437
Si Si2 0.584238 0.752661 0.913889
Si Si3 0.797707 0.485161 0.158305
Si Si4 0.767216 0.061985 0.830830
Si Si5 0.110281 0.274760 0.333300
Si Si6 0.403845 0.540049 0.662681
Si Si7 0.224303 0.141653 0.914107
Si Si8 0.574287 0.911690 0.588191
O O1 0.870758 0.425664 0.374328
O O2 0.910249 0.316316 0.251325
O O3 0.827015 0.223792 0.359708
O O4 0.007556 0.273983 0.375823
O O5 0.598026 0.667156 0.846340
O O6 0.662580 0.845407 0.902611
O O7 0.479679 0.800087 0.906792
O O8 0.597638 0.703433 0.000000
O O9 0.790342 0.500000 0.250000
O O10 0.827738 0.368541 0.128955
O O11 0.692439 0.498945 0.122902
O O12 0.838376 0.161337 0.834313
O O13 0.661882 0.098394 0.853406
O O14 0.767214 0.000000 0.750000
O O15 0.804262 0.978113 0.893461
O O16 0.500000 0.500000 0.620322
O O17 0.407463 0.500000 0.750000
O O18 0.190774 0.165452 0.000000
O O19 0.608159 0.934935 0.500000
O O20 0.500000 0.000000 0.616003
#
# Coordination Sequence:
#
# PCOD8203417 Si02
#       8
#     8   8   8   8   8   8   8   8
#     4  10  19  40  63  89 117 160 213 254 311 373
#     4  10  21  40  64  87 120 169 215 250 302 378
#     4   9  18  35  61  87 121 157 201 251 310 371
#     4  12  24  39  59  95 132 161 203 262 318 373
#     4  10  22  36  61  93 125 156 199 266 318 364
#     4  10  21  35  56  93 126 156 195 260 316 362
#     4  11  22  41  66  88 121 170 212 251 305 377
#     4  10  21  41  64  86 120 167 212 249 297 371
#
# _framework density 20.646637999999999
#
# number of rings (size 3 to 8) (size 9 to 14) (size 15 to 20)
#    0.000    1.750    3.750    0.750    1.750    2.500 
#    2.250    1.875    0.000    3.750    0.000    0.000 
#    0.000    0.000    0.000    0.000    0.000    0.000 
#
# Total GULP energy -793121.688939 kJ/mol
# GULP energy per Si atom -12392.526390 kJ/mol
# Density = 2.059965 g / cm^3
# Si number density = 20.646638 Si / 1000 Ang^3
#
#
#
# Elastic Constant Matrix: (Units=GPa)
#
#
# Indices 1 2 3 4 5 6 
#
# 1 159.5469 68.2629 27.8765 0.0000 0.0000 0.0000
# 2 68.2629 149.6821 24.3304 0.0000 0.0000 0.0000
# 3 27.8765 24.3304 32.9245 0.0000 0.0000 0.0000
# 4 0.0000 0.0000 0.0000 22.5242 0.0000 0.0000
# 5 0.0000 0.0000 0.0000 0.0000 10.8408 0.0000
# 6 0.0000 0.0000 0.0000 0.0000 0.0000 33.6850
#
#
#
# Elastic Compliance Matrix: (Units=1/GPa)
#
#
# Indices 1 2 3 4 5 6 
#
# 1 0.008425 -0.003049 -0.004880 0.000000 0.000000 0.000000
# 2 -0.003049 0.008696 -0.003845 0.000000 0.000000 0.000000
# 3 -0.004880 -0.003845 0.037346 0.000000 0.000000 0.000000
# 4 0.000000 0.000000 0.000000 0.044397 0.000000 0.000000
# 5 0.000000 0.000000 0.000000 0.000000 0.092244 0.000000
# 6 0.000000 0.000000 0.000000 0.000000 0.000000 0.029687
#
#
# Mechanical properties :
#
#
# Convention : Reuss Voigt Hill
#
# Bulk Modulus (GPa) = 32.34250 64.78812 48.56531
# Shear Modulus (GPa) = 19.63490 28.18890 23.91190
#
# Velocity S-wave (km/s) = 3.08717 3.69901 3.40685
# Velocity P-wave (km/s) = 5.32975 7.04920 6.24890
#
# Compressibility (1/GPa) = 0.03091907
#
# Stress axis : x y z
#
# Youngs Moduli (GPa) = 118.69524 114.99167 26.77683
#
# Poissons Ratio (x) = 0.35061 0.13067
# Poissons Ratio (y) = 0.36190 0.10295
# Poissons Ratio (z) = 0.57925 0.44212
#
# Static dielectric constant tensor:
#      x y z
#    x 4.184660 0.000000 0.000000 
#    y 0.000000 3.707540 0.000000 
#    z 0.000000 0.000000 3.355270 
# 
# 
# High freq. dielectric constant tensor:
#      x y z
#    x 1.820160 0.000000 0.000000 
#    y 0.000000 1.812230 0.000000 
#    z 0.000000 0.000000 1.762710 
# 
# From -- ./inp_files/17987.got.cif
#   From: 2010.03.12/outbox.cif.g09.slc.cpg/sg49_9_cif.got.tgz:17987.got - 2010.04.14 03:58:27.
