data_PCOD8203167
_publ_section_title
;
Structure prediction by ZEFSAII (Michael W. Deem and Ramdas Pophale) SiO2 
 PCOD8203167
Probable space group: P C C M
;
_chemical_formula_sum "Si O2"
_cell_formula_units_Z 48
_cell_length_a 5.021272
_cell_length_b 15.391733
_cell_length_c 31.540056
_cell_angle_alpha 90.000000
_cell_angle_beta 90.000000
_cell_angle_gamma 90.000000
_cell_volume 2437.607226
_symmetry_space_group_name_H-M "P C C M"
_symmetry_group_IT_number 49
_symmetry_cell_setting 'orthorhombic'
loop_
_space_group_symop_operation_xyz
x,y,z
-x,-y,z
x,-y,1/2-z
-x,y,1/2-z
-x,-y,-z
x,y,-z
-x,y,1/2+z
x,-y,1/2+z
loop_
_atom_site_type_symbol
_atom_site_label
_atom_site_fract_x
_atom_site_fract_y
_atom_site_fract_z
Si Si1 0.757843 0.057577 0.650716
Si Si2 0.090368 0.673259 0.657664
Si Si3 0.404062 0.731064 0.048734
Si Si4 0.605695 0.595435 0.619862
Si Si5 0.762652 0.196301 0.277417
Si Si6 0.075211 0.808430 0.587201
O O1 0.682179 0.131814 0.684537
O O2 0.844313 0.097197 0.605015
O O3 0.500000 0.000000 0.642633
O O4 0.000000 0.000000 0.668621
O O5 0.384596 0.644129 0.646576
O O6 0.114736 0.712255 0.705051
O O7 0.996773 0.751600 0.627890
O O8 0.871008 0.596878 0.649975
O O9 0.338487 0.643697 0.075327
O O10 0.693511 0.766935 0.059229
O O11 0.190574 0.807900 0.058424
O O12 0.390942 0.703660 0.000000
O O13 0.500000 0.500000 0.609276
O O14 0.500000 0.214542 0.250000
O O15 0.000000 0.153293 0.250000
#
# Coordination Sequence:
#
# PCOD8203167 Si02
#       6
#     8   8   8   8   8   8
#     4  11  22  36  56  80 108 141 176 221 273 323
#     4   9  19  35  53  75 104 143 182 209 251 320
#     4  10  19  33  55  80 107 139 176 221 268 315
#     4  10  19  33  55  81 108 138 175 220 266 315
#     4  11  22  36  56  81 109 140 176 221 270 323
#     4   9  19  35  53  74 103 144 184 210 251 322
#
# _framework density 19.691444000000001
#
# number of rings (size 3 to 8) (size 9 to 14) (size 15 to 20)
#    0.000    2.000    0.000    4.000    0.000    7.667 
#    0.000    0.000    0.000   23.500    0.000    0.000 
#    0.000    0.000    0.000    0.000    0.000    0.000 
#
# Total GULP energy -595041.008658 kJ/mol
# GULP energy per Si atom -12396.687680 kJ/mol
# Density = 1.964663 g / cm^3
# Si number density = 19.691444 Si / 1000 Ang^3
#
#
#
# Elastic Constant Matrix: (Units=GPa)
#
#
# Indices 1 2 3 4 5 6 
#
# 1 122.2301 30.6546 38.5585 0.0000 0.0000 0.0000
# 2 30.6546 78.1378 53.0362 0.0000 0.0000 0.0000
# 3 38.5585 53.0362 84.9462 0.0000 0.0000 0.0000
# 4 0.0000 0.0000 0.0000 10.0039 0.0000 0.0000
# 5 0.0000 0.0000 0.0000 0.0000 26.4080 0.0000
# 6 0.0000 0.0000 0.0000 0.0000 0.0000 35.7685
#
#
#
# Elastic Compliance Matrix: (Units=1/GPa)
#
#
# Indices 1 2 3 4 5 6 
#
# 1 0.009637 -0.001409 -0.003495 0.000000 0.000000 0.000000
# 2 -0.001409 0.022416 -0.013356 0.000000 0.000000 0.000000
# 3 -0.003495 -0.013356 0.021697 0.000000 0.000000 0.000000
# 4 0.000000 0.000000 0.000000 0.099961 0.000000 0.000000
# 5 0.000000 0.000000 0.000000 0.000000 0.037867 0.000000
# 6 0.000000 0.000000 0.000000 0.000000 0.000000 0.027958
#
#
# Mechanical properties :
#
#
# Convention : Reuss Voigt Hill
#
# Bulk Modulus (GPa) = 58.03392 58.86805 58.45098
# Shear Modulus (GPa) = 19.09859 25.30705 22.20282
#
# Velocity S-wave (km/s) = 3.11769 3.58883 3.36152
# Velocity P-wave (km/s) = 6.51886 6.86535 6.69435
#
# Compressibility (1/GPa) = 0.01723130
#
# Stress axis : x y z
#
# Youngs Moduli (GPa) = 103.76596 44.61119 46.08834
#
# Poissons Ratio (x) = 0.06283 0.16108
# Poissons Ratio (y) = 0.14615 0.61556
# Poissons Ratio (z) = 0.36266 0.59583
#
# Static dielectric constant tensor:
#      x y z
#    x 3.785250 0.000000 0.000000 
#    y 0.000000 3.521530 0.000000 
#    z 0.000000 0.000000 3.522700 
# 
# 
# High freq. dielectric constant tensor:
#      x y z
#    x 1.790590 0.000000 0.000000 
#    y 0.000000 1.743140 0.000000 
#    z 0.000000 0.000000 1.751310 
# 
# From -- ./inp_files/23955.got.cif
#   From: 2010.03.12/outbox.cif.g09.slc.cpg/sg49_12_cif.got.tgz:23955.got - 2010.04.14 03:58:27.
