data_PCOD8203806
_publ_section_title
;
Structure prediction by ZEFSAII (Michael W. Deem and Ramdas Pophale) SiO2 
 PCOD8203806
Probable space group: P C C M
;
_chemical_formula_sum "Si O2"
_cell_formula_units_Z 56
_cell_length_a 16.860172
_cell_length_b 9.075314
_cell_length_c 19.483021
_cell_angle_alpha 90.000000
_cell_angle_beta 90.000000
_cell_angle_gamma 90.000000
_cell_volume 2981.123443
_symmetry_space_group_name_H-M "P C C M"
_symmetry_group_IT_number 49
_symmetry_cell_setting 'orthorhombic'
loop_
_space_group_symop_operation_xyz
x,y,z
-x,-y,z
x,-y,1/2-z
-x,y,1/2-z
-x,-y,-z
x,y,-z
-x,y,1/2+z
x,-y,1/2+z
loop_
_atom_site_type_symbol
_atom_site_label
_atom_site_fract_x
_atom_site_fract_y
_atom_site_fract_z
Si Si1 0.477143 0.668973 0.177676
Si Si2 0.009916 0.674431 0.078037
Si Si3 0.690428 0.787728 0.306182
Si Si4 0.851316 0.649343 0.673454
Si Si5 0.133795 0.697779 0.671923
Si Si6 0.288852 0.123351 0.840044
Si Si7 0.557102 0.130816 0.579779
O O1 0.500000 0.500000 0.184433
O O2 0.500000 0.747161 0.250000
O O3 0.387168 0.716378 0.159508
O O4 0.529636 0.720099 0.114604
O O5 0.093555 0.717011 0.113493
O O6 0.000000 0.500000 0.076817
O O7 0.941263 0.744459 0.125643
O O8 0.006892 0.737177 0.000000
O O9 0.760213 0.689106 0.336430
O O10 0.677945 0.780149 0.223830
O O11 0.717796 0.952442 0.322427
O O12 0.849507 0.474460 0.665178
O O13 0.882006 0.717295 0.746327
O O14 0.204305 0.801850 0.642409
O O15 0.349751 0.119444 0.903582
O O16 0.544762 0.144297 0.500000
O O17 0.500000 0.000000 0.609005
#
# Coordination Sequence:
#
# PCOD8203806 Si02
#       7
#     8   8   8   8   8   8   8
#     4  11  23  36  61  87 113 145 190 240 288 333
#     4   9  17  32  53  79 109 143 182 222 276 338
#     4  10  20  35  56  83 110 142 185 234 286 334
#     4   9  18  32  53  81 110 138 179 231 280 330
#     4   9  18  31  56  80 107 139 182 230 276 331
#     4  10  20  35  56  81 110 145 186 233 281 335
#     4  11  23  39  57  79 112 154 193 230 280 341
#
# _framework density 18.784863999999999
#
# number of rings (size 3 to 8) (size 9 to 14) (size 15 to 20)
#    0.000    2.143    2.857    0.429    2.000    4.000 
#    0.000    2.143    0.000    4.286    0.000    0.000 
#    0.000    0.000    0.000    0.000    0.000    0.000 
#
# Total GULP energy -693770.907253 kJ/mol
# GULP energy per Si atom -12388.766201 kJ/mol
# Density = 1.874211 g / cm^3
# Si number density = 18.784864 Si / 1000 Ang^3
#
#
#
# Elastic Constant Matrix: (Units=GPa)
#
#
# Indices 1 2 3 4 5 6 
#
# 1 118.4841 32.9624 57.4104 0.0000 0.0000 0.0000
# 2 32.9624 47.5265 27.0857 0.0000 0.0000 0.0000
# 3 57.4104 27.0857 96.8410 0.0000 0.0000 0.0000
# 4 0.0000 0.0000 0.0000 13.4042 0.0000 0.0000
# 5 0.0000 0.0000 0.0000 0.0000 22.1575 0.0000
# 6 0.0000 0.0000 0.0000 0.0000 0.0000 30.8237
#
#
#
# Elastic Compliance Matrix: (Units=1/GPa)
#
#
# Indices 1 2 3 4 5 6 
#
# 1 0.012937 -0.005474 -0.006138 0.000000 0.000000 0.000000
# 2 -0.005474 0.027347 -0.004403 0.000000 0.000000 0.000000
# 3 -0.006138 -0.004403 0.015197 0.000000 0.000000 0.000000
# 4 0.000000 0.000000 0.000000 0.074604 0.000000 0.000000
# 5 0.000000 0.000000 0.000000 0.000000 0.045131 0.000000
# 6 0.000000 0.000000 0.000000 0.000000 0.000000 0.032443
#
#
# Mechanical properties :
#
#
# Convention : Reuss Voigt Hill
#
# Bulk Modulus (GPa) = 42.64607 55.30763 48.97685
# Shear Modulus (GPa) = 20.20138 22.96995 21.58567
#
# Velocity S-wave (km/s) = 3.28290 3.50064 3.39351
# Velocity P-wave (km/s) = 6.09274 6.77096 6.44078
#
# Compressibility (1/GPa) = 0.02344882
#
# Stress axis : x y z
#
# Youngs Moduli (GPa) = 77.29605 36.56673 65.80289
#
# Poissons Ratio (x) = 0.20018 0.40393
# Poissons Ratio (y) = 0.42315 0.28976
# Poissons Ratio (z) = 0.47448 0.16102
#
# Static dielectric constant tensor:
#      x y z
#    x 3.546930 0.000000 0.000000 
#    y 0.000000 3.178800 0.000000 
#    z 0.000000 0.000000 3.460820 
# 
# 
# High freq. dielectric constant tensor:
#      x y z
#    x 1.737940 0.000000 0.000000 
#    y 0.000000 1.709470 0.000000 
#    z 0.000000 0.000000 1.713870 
# 
# From -- ./inp_files/20839.got.cif
#   From: 2010.03.12/outbox.cif.g09.slc.cpg/sg49_11_cif.got.tgz:20839.got - 2010.04.14 03:58:27.
