data_PCOD8203723
_publ_section_title
;
Structure prediction by ZEFSAII (Michael W. Deem and Ramdas Pophale) SiO2 
 PCOD8203723
Probable space group: P C C M
;
_chemical_formula_sum "Si O2"
_cell_formula_units_Z 64
_cell_length_a 25.602532
_cell_length_b 14.357982
_cell_length_c 8.980034
_cell_angle_alpha 90.000000
_cell_angle_beta 90.000000
_cell_angle_gamma 90.000000
_cell_volume 3301.066727
_symmetry_space_group_name_H-M "P C C M"
_symmetry_group_IT_number 49
_symmetry_cell_setting 'orthorhombic'
loop_
_space_group_symop_operation_xyz
x,y,z
-x,-y,z
x,-y,1/2-z
-x,y,1/2-z
-x,-y,-z
x,y,-z
-x,y,1/2+z
x,-y,1/2+z
loop_
_atom_site_type_symbol
_atom_site_label
_atom_site_fract_x
_atom_site_fract_y
_atom_site_fract_z
Si Si1 0.345890 0.902700 0.324623
Si Si2 0.555211 0.207948 0.673343
Si Si3 0.848833 0.099433 0.325320
Si Si4 0.947339 0.222804 0.323396
Si Si5 0.248515 0.222098 0.824732
Si Si6 0.555896 0.586268 0.173203
Si Si7 0.782942 0.405062 0.826416
Si Si8 0.095445 0.595719 0.825048
O O1 0.346661 0.917262 0.500000
O O2 0.401759 0.864553 0.266924
O O3 0.301226 0.830326 0.278988
O O4 0.332973 0.000000 0.250000
O O5 0.500000 0.189036 0.750000
O O6 0.544777 0.194205 0.500000
O O7 0.579748 0.311270 0.702201
O O8 0.844867 0.083642 0.500000
O O9 0.901844 0.151320 0.279548
O O10 0.800368 0.161026 0.268397
O O11 0.846897 0.000000 0.250000
O O12 0.953115 0.233126 0.500000
O O13 0.936799 0.323089 0.252619
O O14 0.000000 0.182248 0.250000
O O15 0.249796 0.320457 0.741610
O O16 0.244551 0.241113 0.000000
O O17 0.587999 0.500000 0.250000
O O18 0.500000 0.588957 0.250000
O O19 0.550660 0.564504 0.000000
O O20 0.763721 0.500000 0.750000
O O21 0.843692 0.387378 0.792393
O O22 0.771347 0.413048 0.000000
O O23 0.076780 0.500000 0.750000
O O24 0.083184 0.592968 0.000000
#
# Coordination Sequence:
#
# PCOD8203723 Si02
#       8
#     8   8   8   8   8   8   8   8
#     4  10  22  39  59  83 113 147 187 237 289 338
#     4   9  19  35  54  79 111 150 189 229 279 333
#     4  10  22  38  59  83 108 142 185 233 285 340
#     4  11  23  39  57  81 114 149 190 236 285 339
#     4  10  20  38  61  85 115 148 184 232 284 334
#     4   9  15  25  44  70 101 134 174 216 261 313
#     4  10  20  34  58  89 119 152 188 228 275 334
#     4  10  20  35  57  85 115 150 188 230 278 333
#
# _framework density 19.387672999999999
#
# number of rings (size 3 to 8) (size 9 to 14) (size 15 to 20)
#    0.000    2.125    1.250    2.250    0.000    4.750 
#    0.000    4.375    0.000    1.500    0.000    0.000 
#    0.000    0.000    0.000    0.000    0.000    0.000 
#
# Total GULP energy -793589.392240 kJ/mol
# GULP energy per Si atom -12399.834254 kJ/mol
# Density = 1.934355 g / cm^3
# Si number density = 19.387673 Si / 1000 Ang^3
#
#
#
# Elastic Constant Matrix: (Units=GPa)
#
#
# Indices 1 2 3 4 5 6 
#
# 1 111.4894 63.5361 44.0036 0.0000 0.0000 0.0000
# 2 63.5361 142.3886 55.1794 0.0000 0.0000 0.0000
# 3 44.0036 55.1794 77.2131 0.0000 0.0000 0.0000
# 4 0.0000 0.0000 0.0000 37.1809 0.0000 0.0000
# 5 0.0000 0.0000 0.0000 0.0000 23.4199 0.0000
# 6 0.0000 0.0000 0.0000 0.0000 0.0000 10.0131
#
#
#
# Elastic Compliance Matrix: (Units=1/GPa)
#
#
# Indices 1 2 3 4 5 6 
#
# 1 0.013087 -0.004079 -0.004543 0.000000 0.000000 0.000000
# 2 -0.004079 0.010984 -0.005525 0.000000 0.000000 0.000000
# 3 -0.004543 -0.005525 0.019489 0.000000 0.000000 0.000000
# 4 0.000000 0.000000 0.000000 0.026896 0.000000 0.000000
# 5 0.000000 0.000000 0.000000 0.000000 0.042699 0.000000
# 6 0.000000 0.000000 0.000000 0.000000 0.000000 0.099869
#
#
# Mechanical properties :
#
#
# Convention : Reuss Voigt Hill
#
# Bulk Modulus (GPa) = 65.50792 72.94771 69.22782
# Shear Modulus (GPa) = 20.29158 25.34756 22.81957
#
# Velocity S-wave (km/s) = 3.23866 3.61973 3.43449
# Velocity P-wave (km/s) = 6.91716 7.42815 7.17720
#
# Compressibility (1/GPa) = 0.01526533
#
# Stress axis : x y z
#
# Youngs Moduli (GPa) = 76.41000 91.03877 51.31131
#
# Poissons Ratio (x) = 0.37136 0.23313
# Poissons Ratio (y) = 0.31168 0.28350
# Poissons Ratio (z) = 0.34716 0.50300
#
# Static dielectric constant tensor:
#      x y z
#    x 3.466210 0.000000 0.000000 
#    y 0.000000 4.208920 0.000000 
#    z 0.000000 0.000000 3.502440 
# 
# 
# High freq. dielectric constant tensor:
#      x y z
#    x 1.738010 0.000000 0.000000 
#    y 0.000000 1.767530 0.000000 
#    z 0.000000 0.000000 1.755230 
# 
# From -- ./inp_files/6525.got.cif
#   From: 2010.03.12/outbox.cif.g09.slc.cpg/sg49_4_cif.got.tgz:6525.got - 2010.04.14 03:58:27.
