data_PCOD8203428
_publ_section_title
;
Structure prediction by ZEFSAII (Michael W. Deem and Ramdas Pophale) SiO2 
 PCOD8203428
Probable space group: P C C M
;
_chemical_formula_sum "Si O2"
_cell_formula_units_Z 64
_cell_length_a 24.772242
_cell_length_b 14.962736
_cell_length_c 8.964582
_cell_angle_alpha 90.000000
_cell_angle_beta 90.000000
_cell_angle_gamma 90.000000
_cell_volume 3322.816600
_symmetry_space_group_name_H-M "P C C M"
_symmetry_group_IT_number 49
_symmetry_cell_setting 'orthorhombic'
loop_
_space_group_symop_operation_xyz
x,y,z
-x,-y,z
x,-y,1/2-z
-x,y,1/2-z
-x,-y,-z
x,y,-z
-x,y,1/2+z
x,-y,1/2+z
loop_
_atom_site_type_symbol
_atom_site_label
_atom_site_fract_x
_atom_site_fract_y
_atom_site_fract_z
Si Si1 0.558268 0.091676 0.320996
Si Si2 0.640598 0.779484 0.675029
Si Si3 0.158254 0.170400 0.668527
Si Si4 0.804783 0.370695 0.830972
Si Si5 0.909995 0.585472 0.825583
Si Si6 0.945673 0.779158 0.175744
Si Si7 0.733965 0.911865 0.673966
Si Si8 0.316057 0.409774 0.324404
O O1 0.500000 0.108256 0.250000
O O2 0.554963 0.083285 0.500000
O O3 0.594186 0.176505 0.275147
O O4 0.582538 0.000000 0.250000
O O5 0.626441 0.789693 0.500000
O O6 0.696887 0.827581 0.714272
O O7 0.647049 0.675328 0.720676
O O8 0.140170 0.147995 0.500000
O O9 0.187294 0.265316 0.674435
O O10 0.105498 0.162561 0.772145
O O11 0.204323 0.103385 0.728594
O O12 0.847286 0.416973 0.721089
O O13 0.745363 0.394010 0.770645
O O14 0.813867 0.405530 0.000000
O O15 0.939350 0.500000 0.750000
O O16 0.937596 0.676889 0.769013
O O17 0.915489 0.576134 0.000000
O O18 0.000000 0.817183 0.250000
O O19 0.950804 0.786383 0.000000
O O20 0.733634 0.928730 0.500000
O O21 0.709970 0.000000 0.750000
O O22 0.339458 0.500000 0.250000
O O23 0.317323 0.421883 0.500000
#
# Coordination Sequence:
#
# PCOD8203428 Si02
#       8
#     8   8   8   8   8   8   8   8
#     4  11  22  38  61  90 121 157 197 238 285 337
#     4  10  20  37  57  82 120 159 195 236 281 331
#     4   9  17  33  54  74 101 138 174 211 262 323
#     4   9  16  30  50  70  97 137 179 218 263 317
#     4  10  20  31  44  66  94 125 164 213 266 321
#     4  10  21  35  51  71  93 124 168 216 267 323
#     4  10  20  34  55  83 115 149 181 216 270 333
#     4  10  20  33  51  76 110 152 195 238 281 327
#
# _framework density 19.260767999999999
#
# number of rings (size 3 to 8) (size 9 to 14) (size 15 to 20)
#    0.000    2.125    1.250    3.000    0.000    5.750 
#    0.000    1.250    0.000    0.750    0.000    5.250 
#    0.000    0.000    0.000    0.000    0.000    0.000 
#
# Total GULP energy -793504.730732 kJ/mol
# GULP energy per Si atom -12398.511418 kJ/mol
# Density = 1.921693 g / cm^3
# Si number density = 19.260768 Si / 1000 Ang^3
#
#
#
# Elastic Constant Matrix: (Units=GPa)
#
#
# Indices 1 2 3 4 5 6 
#
# 1 89.3736 41.2989 43.8190 0.0000 0.0000 0.0000
# 2 41.2989 93.4151 35.7111 0.0000 0.0000 0.0000
# 3 43.8190 35.7111 73.5910 0.0000 0.0000 0.0000
# 4 0.0000 0.0000 0.0000 26.1868 0.0000 0.0000
# 5 0.0000 0.0000 0.0000 0.0000 27.2571 0.0000
# 6 0.0000 0.0000 0.0000 0.0000 0.0000 14.3586
#
#
#
# Elastic Compliance Matrix: (Units=1/GPa)
#
#
# Indices 1 2 3 4 5 6 
#
# 1 0.017239 -0.004540 -0.008062 0.000000 0.000000 0.000000
# 2 -0.004540 0.014338 -0.004255 0.000000 0.000000 0.000000
# 3 -0.008062 -0.004255 0.020454 0.000000 0.000000 0.000000
# 4 0.000000 0.000000 0.000000 0.038187 0.000000 0.000000
# 5 0.000000 0.000000 0.000000 0.000000 0.036688 0.000000
# 6 0.000000 0.000000 0.000000 0.000000 0.000000 0.069645
#
#
# Mechanical properties :
#
#
# Convention : Reuss Voigt Hill
#
# Bulk Modulus (GPa) = 54.58945 55.33749 54.96347
# Shear Modulus (GPa) = 21.15322 22.59723 21.87522
#
# Velocity S-wave (km/s) = 3.31759 3.42895 3.37373
# Velocity P-wave (km/s) = 6.56346 6.66858 6.61623
#
# Compressibility (1/GPa) = 0.01831856
#
# Stress axis : x y z
#
# Youngs Moduli (GPa) = 58.00638 69.74266 48.89036
#
# Poissons Ratio (x) = 0.31660 0.39416
# Poissons Ratio (y) = 0.26332 0.20802
# Poissons Ratio (z) = 0.46766 0.29675
#
# Static dielectric constant tensor:
#      x y z
#    x 3.430040 0.000000 0.000000 
#    y 0.000000 3.562700 0.000000 
#    z 0.000000 0.000000 3.389000 
# 
# 
# High freq. dielectric constant tensor:
#      x y z
#    x 1.734190 0.000000 0.000000 
#    y 0.000000 1.739300 0.000000 
#    z 0.000000 0.000000 1.742460 
# 
# From -- ./inp_files/4309.got.cif
#   From: 2010.03.12/outbox.cif.g09.slc.cpg/sg49_3_cif.got.tgz:4309.got - 2010.04.14 03:58:27.
