data_PCOD8203749
_publ_section_title
;
Structure prediction by ZEFSAII (Michael W. Deem and Ramdas Pophale) SiO2 
 PCOD8203749
Probable space group: P C C M
;
_chemical_formula_sum "Si O2"
_cell_formula_units_Z 48
_cell_length_a 30.374349
_cell_length_b 9.430818
_cell_length_c 8.656549
_cell_angle_alpha 90.000000
_cell_angle_beta 90.000000
_cell_angle_gamma 90.000000
_cell_volume 2479.711374
_symmetry_space_group_name_H-M "P C C M"
_symmetry_group_IT_number 49
_symmetry_cell_setting 'orthorhombic'
loop_
_space_group_symop_operation_xyz
x,y,z
-x,-y,z
x,-y,1/2-z
-x,y,1/2-z
-x,-y,-z
x,y,-z
-x,y,1/2+z
x,-y,1/2+z
loop_
_atom_site_type_symbol
_atom_site_label
_atom_site_fract_x
_atom_site_fract_y
_atom_site_fract_z
Si Si1 0.044605 0.344988 0.183187
Si Si2 0.121986 0.852889 0.681619
Si Si3 0.778283 0.151572 0.683271
Si Si4 0.372121 0.156177 0.181823
Si Si5 0.705072 0.655993 0.316972
Si Si6 0.453539 0.350624 0.180447
O O1 0.049347 0.500000 0.250000
O O2 0.087796 0.263399 0.242703
O O3 0.000000 0.273143 0.250000
O O4 0.041548 0.348907 0.000000
O O5 0.120362 0.865261 0.500000
O O6 0.171581 0.816751 0.735274
O O7 0.105772 0.000000 0.750000
O O8 0.772237 0.148641 0.500000
O O9 0.750438 0.278797 0.755083
O O10 0.762453 0.000000 0.750000
O O11 0.334386 0.244291 0.264503
O O12 0.418507 0.229557 0.219813
O O13 0.373408 0.000000 0.250000
O O14 0.362358 0.151107 0.000000
O O15 0.698058 0.500000 0.250000
O O16 0.706448 0.646572 0.500000
O O17 0.437434 0.500000 0.250000
O O18 0.500000 0.301520 0.250000
O O19 0.459350 0.373124 0.000000
#
# Coordination Sequence:
#
# PCOD8203749 Si02
#       6
#     8   8   8   8   8   8
#     4  10  20  35  53  77 106 141 182 225 273 326
#     4   9  20  36  56  81 110 143 182 224 271 326
#     4  10  20  38  60  84 114 148 185 228 277 333
#     4  11  24  41  61  87 117 154 194 236 284 337
#     4  12  25  41  61  86 115 149 188 234 282 335
#     4  10  21  37  60  87 117 152 192 235 284 336
#
# _framework density 19.357092000000002
#
# number of rings (size 3 to 8) (size 9 to 14) (size 15 to 20)
#    0.000    1.667    0.000    5.500    0.000    7.333 
#    0.000    5.000    0.000    0.000    0.000    0.000 
#    0.000    0.000    0.000    0.000    0.000    0.000 
#
# Total GULP energy -595326.645912 kJ/mol
# GULP energy per Si atom -12402.638456 kJ/mol
# Density = 1.931303 g / cm^3
# Si number density = 19.357092 Si / 1000 Ang^3
#
#
#
# Elastic Constant Matrix: (Units=GPa)
#
#
# Indices 1 2 3 4 5 6 
#
# 1 127.5211 83.0118 56.1538 0.0000 0.0000 0.0000
# 2 83.0118 138.9621 55.5654 0.0000 0.0000 0.0000
# 3 56.1538 55.5654 107.5177 0.0000 0.0000 0.0000
# 4 0.0000 0.0000 0.0000 35.0767 0.0000 0.0000
# 5 0.0000 0.0000 0.0000 0.0000 26.4030 0.0000
# 6 0.0000 0.0000 0.0000 0.0000 0.0000 46.5021
#
#
#
# Elastic Compliance Matrix: (Units=1/GPa)
#
#
# Indices 1 2 3 4 5 6 
#
# 1 0.013937 -0.006825 -0.003752 0.000000 0.000000 0.000000
# 2 -0.006825 0.012413 -0.002850 0.000000 0.000000 0.000000
# 3 -0.003752 -0.002850 0.012733 0.000000 0.000000 0.000000
# 4 0.000000 0.000000 0.000000 0.028509 0.000000 0.000000
# 5 0.000000 0.000000 0.000000 0.000000 0.037874 0.000000
# 6 0.000000 0.000000 0.000000 0.000000 0.000000 0.021504
#
#
# Mechanical properties :
#
#
# Convention : Reuss Voigt Hill
#
# Bulk Modulus (GPa) = 81.77515 84.82921 83.30218
# Shear Modulus (GPa) = 31.66512 33.54767 32.60640
#
# Velocity S-wave (km/s) = 4.04894 4.16756 4.10868
# Velocity P-wave (km/s) = 8.01223 8.19003 8.10162
#
# Compressibility (1/GPa) = 0.01222865
#
# Stress axis : x y z
#
# Youngs Moduli (GPa) = 71.75178 80.55864 78.53450
#
# Poissons Ratio (x) = 0.54985 0.29462
# Poissons Ratio (y) = 0.48974 0.22386
# Poissons Ratio (z) = 0.26918 0.22963
#
# Static dielectric constant tensor:
#      x y z
#    x 4.040470 0.000000 0.000000 
#    y 0.000000 3.593600 0.000000 
#    z 0.000000 0.000000 3.570620 
# 
# 
# High freq. dielectric constant tensor:
#      x y z
#    x 1.769400 0.000000 0.000000 
#    y 0.000000 1.753280 0.000000 
#    z 0.000000 0.000000 1.767340 
# 
# From -- ./inp_files/6869.got.cif
#   From: 2010.03.12/outbox.cif.g09.slc.cpg/sg49_4_cif.got.tgz:6869.got - 2010.04.14 03:58:27.
