data_PCOD8203247
_publ_section_title
;
Structure prediction by ZEFSAII (Michael W. Deem and Ramdas Pophale) SiO2 
 PCOD8203247
Probable space group: P C C M
;
_chemical_formula_sum "Si O2"
_cell_formula_units_Z 40
_cell_length_a 17.665035
_cell_length_b 5.155422
_cell_length_c 24.791082
_cell_angle_alpha 90.000000
_cell_angle_beta 90.000000
_cell_angle_gamma 90.000000
_cell_volume 2257.741441
_symmetry_space_group_name_H-M "P C C M"
_symmetry_group_IT_number 49
_symmetry_cell_setting 'orthorhombic'
loop_
_space_group_symop_operation_xyz
x,y,z
-x,-y,z
x,-y,1/2-z
-x,y,1/2-z
-x,-y,-z
x,y,-z
-x,y,1/2+z
x,-y,1/2+z
loop_
_atom_site_type_symbol
_atom_site_label
_atom_site_fract_x
_atom_site_fract_y
_atom_site_fract_z
Si Si1 0.914510 0.504424 0.064369
Si Si2 0.415677 0.746682 0.225960
Si Si3 0.827407 0.004978 0.935865
Si Si4 0.340950 0.100295 0.062069
Si Si5 0.582059 0.604209 0.602669
O O1 0.874075 0.761071 0.086454
O O2 0.000000 0.500000 0.086725
O O3 0.867250 0.261616 0.087497
O O4 0.915192 0.498155 0.000000
O O5 0.371139 0.500000 0.250000
O O6 0.500000 0.747894 0.250000
O O7 0.417385 0.728897 0.161927
O O8 0.373524 0.000000 0.250000
O O9 0.740898 0.989116 0.915943
O O10 0.829306 0.010388 0.000000
O O11 0.363893 0.353967 0.096635
O O12 0.395771 0.849815 0.065779
O O13 0.337902 0.190739 0.000000
O O14 0.500000 0.500000 0.585592
#
# Coordination Sequence:
#
# PCOD8203247 Si02
#       5
#     8   8   8   8   8
#     4   9  15  24  43  67  86 112 161 215 247 273
#     4  10  19  34  56  76  92 111 143 212 270 326
#     4   9  17  30  43  59  91 130 163 199 244 291
#     4  11  24  37  49  68 102 144 177 206 249 293
#     4  12  23  36  55  75  93 125 177 222 252 304
#
# _framework density 17.716822000000001
#
# number of rings (size 3 to 8) (size 9 to 14) (size 15 to 20)
#    0.000    1.800    2.000    4.200    2.800    8.000 
#    0.000    0.000    0.000    0.000    0.000    0.000 
#    0.000    0.000    0.000    0.000    0.000  210.000 
#
# Total GULP energy -495777.966515 kJ/mol
# GULP energy per Si atom -12394.449163 kJ/mol
# Density = 1.767650 g / cm^3
# Si number density = 17.716822 Si / 1000 Ang^3
#
#
#
# Elastic Constant Matrix: (Units=GPa)
#
#
# Indices 1 2 3 4 5 6 
#
# 1 92.5962 42.7308 25.5195 0.0000 0.0000 0.0000
# 2 42.7308 160.1310 20.9387 0.0000 0.0000 0.0000
# 3 25.5195 20.9387 40.2689 0.0000 0.0000 0.0000
# 4 0.0000 0.0000 0.0000 28.5879 0.0000 0.0000
# 5 0.0000 0.0000 0.0000 0.0000 0.1443 0.0000
# 6 0.0000 0.0000 0.0000 0.0000 0.0000 29.4881
#
#
#
# Elastic Compliance Matrix: (Units=1/GPa)
#
#
# Indices 1 2 3 4 5 6 
#
# 1 0.014163 -0.002796 -0.007522 0.000000 0.000000 0.000000
# 2 -0.002796 0.007252 -0.001999 0.000000 0.000000 0.000000
# 3 -0.007522 -0.001999 0.030639 0.000000 0.000000 0.000000
# 4 0.000000 0.000000 0.000000 0.034980 0.000000 0.000000
# 5 0.000000 0.000000 0.000000 0.000000 6.931835 0.000000
# 6 0.000000 0.000000 0.000000 0.000000 0.000000 0.033912
#
#
# Mechanical properties :
#
#
# Convention : Reuss Voigt Hill
#
# Bulk Modulus (GPa) = 36.46828 52.37489 44.42158
# Shear Modulus (GPa) = 0.70556 25.23121 12.96838
#
# Velocity S-wave (km/s) = 0.63175 3.77787 2.70845
# Velocity P-wave (km/s) = 4.60009 6.97540 5.90834
#
# Compressibility (1/GPa) = 0.02742109
#
# Stress axis : x y z
#
# Youngs Moduli (GPa) = 70.60799 137.88610 32.63788
#
# Poissons Ratio (x) = 0.38550 0.24549
# Poissons Ratio (y) = 0.19740 0.06525
# Poissons Ratio (z) = 0.53108 0.27567
#
# Static dielectric constant tensor:
#      x y z
#    x 3.269060 0.000000 0.000000 
#    y 0.000000 2.239940 0.000000 
#    z 0.000000 0.000000 2.816640 
# 
# 
# High freq. dielectric constant tensor:
#      x y z
#    x 1.666130 0.000000 0.000000 
#    y 0.000000 1.720960 0.000000 
#    z 0.000000 0.000000 1.621500 
# 
# From -- ./inp_files/21726.got.cif
#   From: 2010.03.12/outbox.cif.g09.slc.cpg/sg49_11_cif.got.tgz:21726.got - 2010.04.14 03:58:27.
