data_PCOD8203089
_publ_section_title
;
Structure prediction by ZEFSAII (Michael W. Deem and Ramdas Pophale) SiO2 
 PCOD8203089
Probable space group: P C C M
;
_chemical_formula_sum "Si O2"
_cell_formula_units_Z 60
_cell_length_a 20.216004
_cell_length_b 18.441923
_cell_length_c 9.018221
_cell_angle_alpha 90.000000
_cell_angle_beta 90.000000
_cell_angle_gamma 90.000000
_cell_volume 3362.191092
_symmetry_space_group_name_H-M "P C C M"
_symmetry_group_IT_number 49
_symmetry_cell_setting 'orthorhombic'
loop_
_space_group_symop_operation_xyz
x,y,z
-x,-y,z
x,-y,1/2-z
-x,y,1/2-z
-x,-y,-z
x,y,-z
-x,y,1/2+z
x,-y,1/2+z
loop_
_atom_site_type_symbol
_atom_site_label
_atom_site_fract_x
_atom_site_fract_y
_atom_site_fract_z
Si Si1 0.255482 0.774731 0.668548
Si Si2 0.086682 0.067693 0.335282
Si Si3 0.434195 0.422040 0.822613
Si Si4 0.000000 0.805637 0.250000
Si Si5 0.827892 0.575747 0.326920
Si Si6 0.776860 0.069949 0.672472
Si Si7 0.311673 0.646737 0.172389
Si Si8 0.882173 0.293563 0.663655
O O1 0.274566 0.752618 0.500000
O O2 0.269440 0.859775 0.696317
O O3 0.298170 0.730302 0.787280
O O4 0.177958 0.760673 0.698068
O O5 0.105077 0.041630 0.500000
O O6 0.152645 0.086578 0.245703
O O7 0.041004 0.139181 0.353836
O O8 0.051659 0.000000 0.250000
O O9 0.424184 0.500000 0.750000
O O10 0.500000 0.386336 0.750000
O O11 0.370894 0.375755 0.779039
O O12 0.440973 0.427568 0.000000
O O13 0.050327 0.752204 0.332816
O O14 0.844566 0.500000 0.250000
O O15 0.837718 0.565544 0.500000
O O16 0.752803 0.599064 0.287856
O O17 0.879463 0.637770 0.274582
O O18 0.787296 0.054491 0.500000
O O19 0.743081 0.000000 0.750000
O O20 0.330930 0.639383 0.000000
O O21 0.875031 0.326904 0.500000
#
# Coordination Sequence:
#
# PCOD8203089 Si02
#       8
#     8   8   8   4   8   8   8   8
#     4   9  18  34  52  71  99 133 169 211 256 304
#     4  11  23  35  51  71  96 127 163 202 247 305
#     4  11  21  34  52  77 113 152 186 217 252 293
#     4  12  23  36  53  74  94 124 162 208 255 316
#     4  10  21  37  57  79 100 125 162 207 254 303
#     4  10  19  33  51  72 100 132 167 206 255 307
#     4  10  20  33  53  81 108 137 175 213 251 298
#     4  10  21  37  54  72  96 125 158 203 258 310
#
# _framework density 17.845506
#
# number of rings (size 3 to 8) (size 9 to 14) (size 15 to 20)
#    0.000    1.733    1.333    5.000    0.000    6.933 
#    0.000    0.333    0.000    1.600    0.000    0.000 
#    0.000    0.533    0.000    5.600    0.000    3.067 
#
# Total GULP energy -743643.374603 kJ/mol
# GULP energy per Si atom -12394.056243 kJ/mol
# Density = 1.780489 g / cm^3
# Si number density = 17.845506 Si / 1000 Ang^3
#
#
#
# Elastic Constant Matrix: (Units=GPa)
#
#
# Indices 1 2 3 4 5 6 
#
# 1 57.8954 32.6798 31.1801 0.0000 0.0000 0.0000
# 2 32.6798 120.4927 53.6078 0.0000 0.0000 0.0000
# 3 31.1801 53.6078 125.5174 0.0000 0.0000 0.0000
# 4 0.0000 0.0000 0.0000 29.5230 0.0000 0.0000
# 5 0.0000 0.0000 0.0000 0.0000 12.4314 0.0000
# 6 0.0000 0.0000 0.0000 0.0000 0.0000 19.9227
#
#
#
# Elastic Compliance Matrix: (Units=1/GPa)
#
#
# Indices 1 2 3 4 5 6 
#
# 1 0.021594 -0.004284 -0.003535 0.000000 0.000000 0.000000
# 2 -0.004284 0.011096 -0.003675 0.000000 0.000000 0.000000
# 3 -0.003535 -0.003675 0.010415 0.000000 0.000000 0.000000
# 4 0.000000 0.000000 0.000000 0.033872 0.000000 0.000000
# 5 0.000000 0.000000 0.000000 0.000000 0.080441 0.000000
# 6 0.000000 0.000000 0.000000 0.000000 0.000000 0.050194
#
#
# Mechanical properties :
#
#
# Convention : Reuss Voigt Hill
#
# Bulk Modulus (GPa) = 49.70717 59.87125 54.78921
# Shear Modulus (GPa) = 21.06986 24.80460 22.93723
#
# Velocity S-wave (km/s) = 3.43983 3.73227 3.58903
# Velocity P-wave (km/s) = 6.60993 7.22466 6.92412
#
# Compressibility (1/GPa) = 0.02011782
#
# Stress axis : x y z
#
# Youngs Moduli (GPa) = 46.30834 90.12102 96.01942
#
# Poissons Ratio (x) = 0.38610 0.33938
# Poissons Ratio (y) = 0.19840 0.35286
# Poissons Ratio (z) = 0.16368 0.33118
#
# Static dielectric constant tensor:
#      x y z
#    x 3.072990 0.000000 0.000000 
#    y 0.000000 3.387540 0.000000 
#    z 0.000000 0.000000 3.375460 
# 
# 
# High freq. dielectric constant tensor:
#      x y z
#    x 1.646330 0.000000 0.000000 
#    y 0.000000 1.692170 0.000000 
#    z 0.000000 0.000000 1.703820 
# 
# From -- ./inp_files/6008.got.cif
#   From: 2010.03.12/outbox.cif.g09.slc.cpg/sg49_4_cif.got.tgz:6008.got - 2010.04.14 03:58:27.
