data_PCOD8203681
_publ_section_title
;
Structure prediction by ZEFSAII (Michael W. Deem and Ramdas Pophale) SiO2 
 PCOD8203681
Probable space group: P C C M
;
_chemical_formula_sum "Si O2"
_cell_formula_units_Z 60
_cell_length_a 25.503383
_cell_length_b 5.021451
_cell_length_c 23.450484
_cell_angle_alpha 90.000000
_cell_angle_beta 90.000000
_cell_angle_gamma 90.000000
_cell_volume 3003.162503
_symmetry_space_group_name_H-M "P C C M"
_symmetry_group_IT_number 49
_symmetry_cell_setting 'orthorhombic'
loop_
_space_group_symop_operation_xyz
x,y,z
-x,-y,z
x,-y,1/2-z
-x,y,1/2-z
-x,-y,-z
x,y,-z
-x,y,1/2+z
x,-y,1/2+z
loop_
_atom_site_type_symbol
_atom_site_label
_atom_site_fract_x
_atom_site_fract_y
_atom_site_fract_z
Si Si1 0.255190 0.101234 0.434288
Si Si2 0.772816 0.378993 0.636264
Si Si3 0.037260 0.249129 0.877123
Si Si4 0.872082 0.742488 0.211651
Si Si5 0.036569 0.251703 0.000000
Si Si6 0.334784 0.438820 0.186172
Si Si7 0.638815 0.058141 0.879979
Si Si8 0.465663 0.259579 0.563470
O O1 0.241811 0.157213 0.500000
O O2 0.234366 0.343797 0.396304
O O3 0.317810 0.032585 0.430057
O O4 0.223603 0.845853 0.412175
O O5 0.823446 0.367966 0.675557
O O6 0.724094 0.325354 0.679355
O O7 0.080385 0.191687 0.829872
O O8 0.000000 0.500000 0.863977
O O9 0.067577 0.266329 0.939314
O O10 0.000000 0.000000 0.877385
O O11 0.891511 0.500000 0.250000
O O12 0.857422 0.000000 0.250000
O O13 0.000000 0.500000 0.000000
O O14 0.000000 0.000000 0.000000
O O15 0.353050 0.500000 0.250000
O O16 0.335591 0.732561 0.161843
O O17 0.371751 0.223409 0.152852
O O18 0.584979 0.187992 0.900400
O O19 0.500000 0.500000 0.591286
O O20 0.447918 0.350550 0.500000
O O21 0.500000 0.000000 0.559659
#
# Coordination Sequence:
#
# PCOD8203681 Si02
#       8
#     8   8   8   8   4   8   8   8
#     4  10  20  37  59  85 119 151 189 239 290 352
#     4  10  22  38  57  84 118 152 194 231 294 347
#     4  10  21  39  62  87 116 150 197 239 290 343
#     4  12  25  40  61  86 122 157 194 242 292 349
#     4   8  16  34  58  80 108 144 184 236 274 328
#     4  10  20  35  57  81 106 146 193 239 277 332
#     4  10  20  34  56  83 112 146 187 237 284 335
#     4  10  20  34  54  81 113 147 183 224 281 349
#
# _framework density 19.978940999999999
#
# number of rings (size 3 to 8) (size 9 to 14) (size 15 to 20)
#    0.000    1.867    0.000    4.000    0.000    3.733 
#    2.400    4.000    2.933    6.000    0.000    0.000 
#    0.000    0.000    0.000    0.000    0.000    0.000 
#
# Total GULP energy -743466.275420 kJ/mol
# GULP energy per Si atom -12391.104590 kJ/mol
# Density = 1.993347 g / cm^3
# Si number density = 19.978941 Si / 1000 Ang^3
#
#
#
# Elastic Constant Matrix: (Units=GPa)
#
#
# Indices 1 2 3 4 5 6 
#
# 1 68.4245 8.9124 40.3683 0.0000 0.0000 0.0000
# 2 8.9124 116.3173 29.0316 0.0000 0.0000 0.0000
# 3 40.3683 29.0316 118.4112 0.0000 0.0000 0.0000
# 4 0.0000 0.0000 0.0000 31.1536 0.0000 0.0000
# 5 0.0000 0.0000 0.0000 0.0000 18.9511 0.0000
# 6 0.0000 0.0000 0.0000 0.0000 0.0000 24.7011
#
#
#
# Elastic Compliance Matrix: (Units=1/GPa)
#
#
# Indices 1 2 3 4 5 6 
#
# 1 0.018297 0.000165 -0.006278 0.000000 0.000000 0.000000
# 2 0.000165 0.009159 -0.002302 0.000000 0.000000 0.000000
# 3 -0.006278 -0.002302 0.011150 0.000000 0.000000 0.000000
# 4 0.000000 0.000000 0.000000 0.032099 0.000000 0.000000
# 5 0.000000 0.000000 0.000000 0.000000 0.052767 0.000000
# 6 0.000000 0.000000 0.000000 0.000000 0.000000 0.040484
#
#
# Mechanical properties :
#
#
# Convention : Reuss Voigt Hill
#
# Bulk Modulus (GPa) = 45.92230 51.08641 48.50436
# Shear Modulus (GPa) = 26.58934 29.95053 28.26994
#
# Velocity S-wave (km/s) = 3.65206 3.87603 3.76571
# Velocity P-wave (km/s) = 6.38895 6.75700 6.57555
#
# Compressibility (1/GPa) = 0.02177591
#
# Stress axis : x y z
#
# Youngs Moduli (GPa) = 54.65341 109.18174 89.68725
#
# Poissons Ratio (x) = -0.01802 0.56308
# Poissons Ratio (y) = -0.00902 0.20645
# Poissons Ratio (z) = 0.34313 0.25132
#
# Static dielectric constant tensor:
#      x y z
#    x 3.358990 0.000000 0.000000 
#    y 0.000000 3.831990 0.000000 
#    z 0.000000 0.000000 3.351860 
# 
# 
# High freq. dielectric constant tensor:
#      x y z
#    x 1.752800 0.000000 0.000000 
#    y 0.000000 1.804160 0.000000 
#    z 0.000000 0.000000 1.781990 
# 
# From -- ./inp_files/21234.got.cif
#   From: 2010.03.12/outbox.cif.g09.slc.cpg/sg49_11_cif.got.tgz:21234.got - 2010.04.14 03:58:27.
