data_PCOD8203764
_publ_section_title
;
Structure prediction by ZEFSAII (Michael W. Deem and Ramdas Pophale) SiO2 
 PCOD8203764
Probable space group: P C C M
;
_chemical_formula_sum "Si O2"
_cell_formula_units_Z 42
_cell_length_a 25.621029
_cell_length_b 10.051683
_cell_length_c 8.746806
_cell_angle_alpha 90.000000
_cell_angle_beta 90.000000
_cell_angle_gamma 90.000000
_cell_volume 2252.603974
_symmetry_space_group_name_H-M "P C C M"
_symmetry_group_IT_number 49
_symmetry_cell_setting 'orthorhombic'
loop_
_space_group_symop_operation_xyz
x,y,z
-x,-y,z
x,-y,1/2-z
-x,y,1/2-z
-x,-y,-z
x,y,-z
-x,y,1/2+z
x,-y,1/2+z
loop_
_atom_site_type_symbol
_atom_site_label
_atom_site_fract_x
_atom_site_fract_y
_atom_site_fract_z
Si Si1 0.000000 0.500000 0.250000
Si Si2 0.950174 0.753240 0.167742
Si Si3 0.849697 0.146281 0.179922
Si Si4 0.443609 0.639406 0.181888
Si Si5 0.252210 0.143040 0.176401
Si Si6 0.367896 0.853662 0.321217
O O1 0.037107 0.404171 0.148487
O O2 0.898850 0.767043 0.269638
O O3 0.000000 0.824631 0.250000
O O4 0.941503 0.816398 0.000000
O O5 0.796032 0.217709 0.239548
O O6 0.854988 0.000000 0.250000
O O7 0.848197 0.137118 0.000000
O O8 0.422785 0.500000 0.250000
O O9 0.500000 0.673025 0.250000
O O10 0.405472 0.757074 0.229323
O O11 0.447038 0.628547 0.000000
O O12 0.309370 0.208146 0.198317
O O13 0.256500 0.000000 0.250000
O O14 0.237353 0.129751 0.000000
O O15 0.383040 0.860580 0.500000
O O16 0.372930 0.000000 0.250000
#
# Coordination Sequence:
#
# PCOD8203764 Si02
#       6
#     2   8   8   8   8   8
#     4   8  22  36  60  72  98 128 170 210 256 312
#     4  10  20  35  55  76 100 130 167 209 256 308
#     4  11  21  33  52  78 108 138 172 211 258 312
#     4  11  22  38  59  82 112 150 190 232 280 336
#     4   9  17  31  52  77 108 141 174 214 261 314
#     4  10  20  35  57  86 116 148 187 232 280 330
#
# _framework density 18.645087
#
# number of rings (size 3 to 8) (size 9 to 14) (size 15 to 20)
#    0.571    1.333    0.000    7.143    0.000    3.048 
#    0.000    3.810    2.095    0.000    0.000    0.000 
#    0.000    0.000    0.000    0.000    0.000    0.000 
#
# Total GULP energy -520416.500656 kJ/mol
# GULP energy per Si atom -12390.869063 kJ/mol
# Density = 1.860265 g / cm^3
# Si number density = 18.645087 Si / 1000 Ang^3
#
#
#
# Elastic Constant Matrix: (Units=GPa)
#
#
# Indices 1 2 3 4 5 6 
#
# 1 137.0693 55.0424 70.8141 0.0000 0.0000 0.0000
# 2 55.0424 64.7753 37.5978 0.0000 0.0000 0.0000
# 3 70.8141 37.5978 183.8150 0.0000 0.0000 0.0000
# 4 0.0000 0.0000 0.0000 24.1506 0.0000 0.0000
# 5 0.0000 0.0000 0.0000 0.0000 37.6291 0.0000
# 6 0.0000 0.0000 0.0000 0.0000 0.0000 116.3863
#
#
#
# Elastic Compliance Matrix: (Units=1/GPa)
#
#
# Indices 1 2 3 4 5 6 
#
# 1 0.012350 -0.008774 -0.002963 0.000000 0.000000 0.000000
# 2 -0.008774 0.023752 -0.001478 0.000000 0.000000 0.000000
# 3 -0.002963 -0.001478 0.006884 0.000000 0.000000 0.000000
# 4 0.000000 0.000000 0.000000 0.041407 0.000000 0.000000
# 5 0.000000 0.000000 0.000000 0.000000 0.026575 0.000000
# 6 0.000000 0.000000 0.000000 0.000000 0.000000 0.008592
#
#
# Mechanical properties :
#
#
# Convention : Reuss Voigt Hill
#
# Bulk Modulus (GPa) = 60.40451 79.17423 69.78937
# Shear Modulus (GPa) = 33.00137 50.44688 41.72412
#
# Velocity S-wave (km/s) = 4.21167 5.20722 4.73568
# Velocity P-wave (km/s) = 7.49121 8.87184 8.21060
#
# Compressibility (1/GPa) = 0.01655506
#
# Stress axis : x y z
#
# Youngs Moduli (GPa) = 80.97261 42.10206 145.26348
#
# Poissons Ratio (x) = 0.36942 0.43042
# Poissons Ratio (y) = 0.71048 0.21469
# Poissons Ratio (z) = 0.23992 0.06222
#
# Static dielectric constant tensor:
#      x y z
#    x 4.061520 0.000000 0.000000 
#    y 0.000000 3.032470 0.000000 
#    z 0.000000 0.000000 3.587040 
# 
# 
# High freq. dielectric constant tensor:
#      x y z
#    x 1.739640 0.000000 0.000000 
#    y 0.000000 1.677490 0.000000 
#    z 0.000000 0.000000 1.746310 
# 
# From -- ./inp_files/6301.got.cif
#   From: 2010.03.12/outbox.cif.g09.slc.cpg/sg49_4_cif.got.tgz:6301.got - 2010.04.14 03:58:27.
