data_PCOD8203875
_publ_section_title
;
Structure prediction by ZEFSAII (Michael W. Deem and Ramdas Pophale) SiO2 
 PCOD8203875
Probable space group: P C C M
;
_chemical_formula_sum "Si O2"
_cell_formula_units_Z 40
_cell_length_a 18.680963
_cell_length_b 13.674224
_cell_length_c 8.592277
_cell_angle_alpha 90.000000
_cell_angle_beta 90.000000
_cell_angle_gamma 90.000000
_cell_volume 2194.877162
_symmetry_space_group_name_H-M "P C C M"
_symmetry_group_IT_number 49
_symmetry_cell_setting 'orthorhombic'
loop_
_space_group_symop_operation_xyz
x,y,z
-x,-y,z
x,-y,1/2-z
-x,y,1/2-z
-x,-y,-z
x,y,-z
-x,y,1/2+z
x,-y,1/2+z
loop_
_atom_site_type_symbol
_atom_site_label
_atom_site_fract_x
_atom_site_fract_y
_atom_site_fract_z
Si Si1 0.576658 0.604666 0.316224
Si Si2 0.153122 0.396510 0.182044
Si Si3 0.922921 0.797277 0.184631
Si Si4 0.213646 0.104827 0.315196
Si Si5 0.292727 0.286363 0.815321
O O1 0.600900 0.500000 0.250000
O O2 0.500000 0.636428 0.250000
O O3 0.571905 0.597069 0.500000
O O4 0.633192 0.686122 0.265671
O O5 0.129668 0.500000 0.250000
O O6 0.096377 0.313890 0.234370
O O7 0.232213 0.364373 0.237949
O O8 0.152750 0.407659 0.000000
O O9 0.866670 0.871169 0.260469
O O10 0.000000 0.825156 0.250000
O O11 0.919869 0.810374 0.000000
O O12 0.218017 0.107336 0.500000
O O13 0.270453 0.179805 0.242874
O O14 0.236050 0.000000 0.250000
O O15 0.301673 0.285037 0.000000
#
# Coordination Sequence:
#
# PCOD8203875 Si02
#       5
#     8   8   8   8   8
#     4  11  21  34  53  81 115 152 187 222 263 311
#     4   9  19  32  49  72 102 137 175 214 257 307
#     4  10  21  37  53  75 104 136 174 220 268 319
#     4  11  22  38  59  82 105 135 173 218 269 322
#     4  10  20  36  55  79 109 141 178 223 266 314
#
# _framework density 18.224254999999999
#
# number of rings (size 3 to 8) (size 9 to 14) (size 15 to 20)
#    0.000    1.800    0.000    7.200    0.000    7.200 
#    0.000    4.000    0.000    0.600    0.000    4.200 
#    0.000    0.000    0.000    0.000    0.000    0.000 
#
# Total GULP energy -496121.380905 kJ/mol
# GULP energy per Si atom -12403.034523 kJ/mol
# Density = 1.818278 g / cm^3
# Si number density = 18.224255 Si / 1000 Ang^3
#
#
#
# Elastic Constant Matrix: (Units=GPa)
#
#
# Indices 1 2 3 4 5 6 
#
# 1 112.2698 39.1488 34.8022 0.0000 0.0000 0.0000
# 2 39.1488 92.9839 22.8112 0.0000 0.0000 0.0000
# 3 34.8022 22.8112 104.0044 0.0000 0.0000 0.0000
# 4 0.0000 0.0000 0.0000 32.9492 0.0000 0.0000
# 5 0.0000 0.0000 0.0000 0.0000 95.7313 0.0000
# 6 0.0000 0.0000 0.0000 0.0000 0.0000 15.9351
#
#
#
# Elastic Compliance Matrix: (Units=1/GPa)
#
#
# Indices 1 2 3 4 5 6 
#
# 1 0.011194 -0.004010 -0.002866 0.000000 0.000000 0.000000
# 2 -0.004010 0.012802 -0.001466 0.000000 0.000000 0.000000
# 3 -0.002866 -0.001466 0.010896 0.000000 0.000000 0.000000
# 4 0.000000 0.000000 0.000000 0.030350 0.000000 0.000000
# 5 0.000000 0.000000 0.000000 0.000000 0.010446 0.000000
# 6 0.000000 0.000000 0.000000 0.000000 0.000000 0.062754
#
#
# Mechanical properties :
#
#
# Convention : Reuss Voigt Hill
#
# Bulk Modulus (GPa) = 54.92229 55.86475 55.39352
# Shear Modulus (GPa) = 31.01820 43.08952 37.05386
#
# Velocity S-wave (km/s) = 4.13004 4.86779 4.51401
# Velocity P-wave (km/s) = 7.27635 7.89395 7.59144
#
# Compressibility (1/GPa) = 0.01820754
#
# Stress axis : x y z
#
# Youngs Moduli (GPa) = 89.33496 78.11000 91.77963
#
# Poissons Ratio (x) = 0.31320 0.26306
# Poissons Ratio (y) = 0.35821 0.13457
# Poissons Ratio (z) = 0.25606 0.11453
#
# Static dielectric constant tensor:
#      x y z
#    x 3.282110 0.000000 0.000000 
#    y 0.000000 3.999560 0.000000 
#    z 0.000000 0.000000 3.433940 
# 
# 
# High freq. dielectric constant tensor:
#      x y z
#    x 1.699360 0.000000 0.000000 
#    y 0.000000 1.700190 0.000000 
#    z 0.000000 0.000000 1.722390 
# 
# From -- ./inp_files/2664.got.cif
#   From: 2010.03.12/outbox.cif.g09.slc.cpg/sg49_2_cif.got.tgz:2664.got - 2010.04.14 03:58:27.
