data_PCOD8203498
_publ_section_title
;
Structure prediction by ZEFSAII (Michael W. Deem and Ramdas Pophale) SiO2 
 PCOD8203498
Probable space group: P C C M
;
_chemical_formula_sum "Si O2"
_cell_formula_units_Z 64
_cell_length_a 20.094908
_cell_length_b 19.679318
_cell_length_c 8.821757
_cell_angle_alpha 90.000000
_cell_angle_beta 90.000000
_cell_angle_gamma 90.000000
_cell_volume 3488.599840
_symmetry_space_group_name_H-M "P C C M"
_symmetry_group_IT_number 49
_symmetry_cell_setting 'orthorhombic'
loop_
_space_group_symop_operation_xyz
x,y,z
-x,-y,z
x,-y,1/2-z
-x,y,1/2-z
-x,-y,-z
x,y,-z
-x,y,1/2+z
x,-y,1/2+z
loop_
_atom_site_type_symbol
_atom_site_label
_atom_site_fract_x
_atom_site_fract_y
_atom_site_fract_z
Si Si1 0.706083 0.068493 0.821129
Si Si2 0.249409 0.703657 0.677707
Si Si3 0.395501 0.750484 0.669880
Si Si4 0.071038 0.071091 0.680044
Si Si5 0.432816 0.400460 0.173368
Si Si6 0.814673 0.825184 0.322128
Si Si7 0.706794 0.431077 0.820037
Si Si8 0.434118 0.882052 0.823295
O O1 0.751786 0.130476 0.768303
O O2 0.631404 0.080665 0.759257
O O3 0.735044 0.000000 0.750000
O O4 0.708372 0.061365 0.000000
O O5 0.241757 0.690197 0.500000
O O6 0.319185 0.739130 0.718038
O O7 0.189927 0.752725 0.736292
O O8 0.247685 0.631099 0.761412
O O9 0.399279 0.780908 0.500000
O O10 0.435770 0.680800 0.678761
O O11 0.429563 0.802243 0.785680
O O12 0.065987 0.061954 0.500000
O O13 0.119315 0.133346 0.723922
O O14 0.000000 0.089789 0.750000
O O15 0.097550 0.000000 0.750000
O O16 0.500000 0.429420 0.250000
O O17 0.369542 0.426406 0.266096
O O18 0.427174 0.426184 0.000000
O O19 0.813013 0.810529 0.500000
O O20 0.737616 0.500000 0.750000
O O21 0.709246 0.433087 0.000000
O O22 0.500000 0.914867 0.750000
O O23 0.439792 0.891686 0.000000
#
# Coordination Sequence:
#
# PCOD8203498 Si02
#       8
#     8   8   8   8   8   8   8   8
#     4  10  22  37  52  71  95 127 168 215 267 320
#     4  10  20  34  55  81 105 133 172 218 264 317
#     4   9  18  32  49  70  94 121 158 205 260 318
#     4  10  20  34  55  82 119 158 194 229 267 319
#     4  10  20  33  48  71  97 125 167 211 263 328
#     4  10  20  36  56  81 109 141 181 223 266 314
#     4  11  22  37  55  74 102 137 171 216 269 325
#     4  11  22  34  49  66  89 120 160 212 267 325
#
# _framework density 18.345469000000001
#
# number of rings (size 3 to 8) (size 9 to 14) (size 15 to 20)
#    0.000    1.875    1.250    4.500    0.000    6.500 
#    0.000    2.500    0.000    0.000    0.000    0.000 
#    0.000    0.500    0.000    5.250    0.000    2.875 
#
# Total GULP energy -793642.134215 kJ/mol
# GULP energy per Si atom -12400.658347 kJ/mol
# Density = 1.830371 g / cm^3
# Si number density = 18.345469 Si / 1000 Ang^3
#
#
#
# Elastic Constant Matrix: (Units=GPa)
#
#
# Indices 1 2 3 4 5 6 
#
# 1 78.4314 43.1267 38.3967 0.0000 0.0000 0.0000
# 2 43.1267 113.7003 50.3165 0.0000 0.0000 0.0000
# 3 38.3967 50.3165 98.1827 0.0000 0.0000 0.0000
# 4 0.0000 0.0000 0.0000 31.3895 0.0000 0.0000
# 5 0.0000 0.0000 0.0000 0.0000 22.7341 0.0000
# 6 0.0000 0.0000 0.0000 0.0000 0.0000 31.5076
#
#
#
# Elastic Compliance Matrix: (Units=1/GPa)
#
#
# Indices 1 2 3 4 5 6 
#
# 1 0.017494 -0.004666 -0.004450 0.000000 0.000000 0.000000
# 2 -0.004666 0.012619 -0.004642 0.000000 0.000000 0.000000
# 3 -0.004450 -0.004642 0.014305 0.000000 0.000000 0.000000
# 4 0.000000 0.000000 0.000000 0.031858 0.000000 0.000000
# 5 0.000000 0.000000 0.000000 0.000000 0.043987 0.000000
# 6 0.000000 0.000000 0.000000 0.000000 0.000000 0.031738
#
#
# Mechanical properties :
#
#
# Convention : Reuss Voigt Hill
#
# Bulk Modulus (GPa) = 59.16907 61.55490 60.36199
# Shear Modulus (GPa) = 27.00475 27.69120 27.34798
#
# Velocity S-wave (km/s) = 3.84084 3.88935 3.86517
# Velocity P-wave (km/s) = 7.21056 7.33454 7.27281
#
# Compressibility (1/GPa) = 0.01690072
#
# Stress axis : x y z
#
# Youngs Moduli (GPa) = 57.16089 79.24328 69.90777
#
# Poissons Ratio (x) = 0.36977 0.31111
# Poissons Ratio (y) = 0.26673 0.32453
# Poissons Ratio (z) = 0.25438 0.36787
#
# Static dielectric constant tensor:
#      x y z
#    x 3.229020 0.000000 0.000000 
#    y 0.000000 3.426270 0.000000 
#    z 0.000000 0.000000 3.361660 
# 
# 
# High freq. dielectric constant tensor:
#      x y z
#    x 1.671840 0.000000 0.000000 
#    y 0.000000 1.710620 0.000000 
#    z 0.000000 0.000000 1.718890 
# 
# From -- ./inp_files/6110.got.cif
#   From: 2010.03.12/outbox.cif.g09.slc.cpg/sg49_4_cif.got.tgz:6110.got - 2010.04.14 03:58:27.
