data_PCOD8203225
_publ_section_title
;
Structure prediction by ZEFSAII (Michael W. Deem and Ramdas Pophale) SiO2 
 PCOD8203225
Probable space group: P C C M
;
_chemical_formula_sum "Si O2"
_cell_formula_units_Z 48
_cell_length_a 14.373879
_cell_length_b 20.468971
_cell_length_c 8.678383
_cell_angle_alpha 90.000000
_cell_angle_beta 90.000000
_cell_angle_gamma 90.000000
_cell_volume 2553.340936
_symmetry_space_group_name_H-M "P C C M"
_symmetry_group_IT_number 49
_symmetry_cell_setting 'orthorhombic'
loop_
_space_group_symop_operation_xyz
x,y,z
-x,-y,z
x,-y,1/2-z
-x,y,1/2-z
-x,-y,-z
x,y,-z
-x,y,1/2+z
x,-y,1/2+z
loop_
_atom_site_type_symbol
_atom_site_label
_atom_site_fract_x
_atom_site_fract_y
_atom_site_fract_z
Si Si1 0.595635 0.375981 0.682009
Si Si2 0.209632 0.184315 0.678187
Si Si3 0.212161 0.567861 0.681646
Si Si4 0.407895 0.765077 0.177728
Si Si5 0.101919 0.305108 0.816996
Si Si6 0.901358 0.930302 0.817927
O O1 0.500000 0.405578 0.750000
O O2 0.590056 0.377843 0.500000
O O3 0.683240 0.418007 0.742391
O O4 0.611541 0.301982 0.733856
O O5 0.180670 0.177659 0.500000
O O6 0.320985 0.186627 0.698104
O O7 0.166437 0.249633 0.746624
O O8 0.176369 0.121707 0.772572
O O9 0.175220 0.500000 0.750000
O O10 0.211458 0.562786 0.500000
O O11 0.143042 0.625218 0.735779
O O12 0.500000 0.799023 0.250000
O O13 0.425830 0.748154 0.000000
O O14 0.000000 0.297203 0.750000
O O15 0.100297 0.297304 0.000000
O O16 0.000000 0.906955 0.750000
O O17 0.871726 0.000000 0.750000
O O18 0.910121 0.935906 0.000000
#
# Coordination Sequence:
#
# PCOD8203225 Si02
#       6
#     8   8   8   8   8   8
#     4  10  19  34  54  79 108 140 179 225 279 337
#     4  11  22  37  59  88 117 151 190 230 278 332
#     4  10  23  39  56  76 106 143 183 230 283 340
#     4  10  20  33  55  84 114 147 184 228 277 331
#     4  11  23  40  58  81 109 142 185 235 284 335
#     4  11  22  38  60  87 122 159 193 234 278 330
#
# _framework density 18.798901000000001
#
# number of rings (size 3 to 8) (size 9 to 14) (size 15 to 20)
#    0.000    1.500    1.667    5.500    0.000    5.333 
#    0.000    3.333    0.000    0.500    0.000    3.500 
#    0.000    0.000    0.000    0.000    0.000    0.000 
#
# Total GULP energy -595327.225846 kJ/mol
# GULP energy per Si atom -12402.650538 kJ/mol
# Density = 1.875611 g / cm^3
# Si number density = 18.798901 Si / 1000 Ang^3
#
#
#
# Elastic Constant Matrix: (Units=GPa)
#
#
# Indices 1 2 3 4 5 6 
#
# 1 101.5591 42.6748 38.8794 0.0000 0.0000 0.0000
# 2 42.6748 95.3744 33.9975 0.0000 0.0000 0.0000
# 3 38.8794 33.9975 104.0887 0.0000 0.0000 0.0000
# 4 0.0000 0.0000 0.0000 29.9253 0.0000 0.0000
# 5 0.0000 0.0000 0.0000 0.0000 25.0614 0.0000
# 6 0.0000 0.0000 0.0000 0.0000 0.0000 29.5537
#
#
#
# Elastic Compliance Matrix: (Units=1/GPa)
#
#
# Indices 1 2 3 4 5 6 
#
# 1 0.013093 -0.004658 -0.003369 0.000000 0.000000 0.000000
# 2 -0.004658 0.013523 -0.002677 0.000000 0.000000 0.000000
# 3 -0.003369 -0.002677 0.011740 0.000000 0.000000 0.000000
# 4 0.000000 0.000000 0.000000 0.033417 0.000000 0.000000
# 5 0.000000 0.000000 0.000000 0.000000 0.039902 0.000000
# 6 0.000000 0.000000 0.000000 0.000000 0.000000 0.033837
#
#
# Mechanical properties :
#
#
# Convention : Reuss Voigt Hill
#
# Bulk Modulus (GPa) = 59.00245 59.12509 59.06377
# Shear Modulus (GPa) = 28.97370 29.27279 29.12324
#
# Velocity S-wave (km/s) = 3.93013 3.95036 3.94026
# Velocity P-wave (km/s) = 7.21448 7.23372 7.22411
#
# Compressibility (1/GPa) = 0.01694845
#
# Stress axis : x y z
#
# Youngs Moduli (GPa) = 76.37392 73.94625 85.17728
#
# Poissons Ratio (x) = 0.34441 0.28700
# Poissons Ratio (y) = 0.35571 0.22805
# Poissons Ratio (z) = 0.25734 0.19798
#
# Static dielectric constant tensor:
#      x y z
#    x 3.439060 0.000000 0.000000 
#    y 0.000000 3.424560 0.000000 
#    z 0.000000 0.000000 3.558350 
# 
# 
# High freq. dielectric constant tensor:
#      x y z
#    x 1.737850 0.000000 0.000000 
#    y 0.000000 1.712380 0.000000 
#    z 0.000000 0.000000 1.745160 
# 
# From -- ./inp_files/3736.got.cif
#   From: 2010.03.12/outbox.cif.g09.slc.cpg/sg49_2_cif.got.tgz:3736.got - 2010.04.14 03:58:27.
