data_PCOD8203710
_publ_section_title
;
Structure prediction by ZEFSAII (Michael W. Deem and Ramdas Pophale) SiO2 
 PCOD8203710
Probable space group: P C C M
;
_chemical_formula_sum "Si O2"
_cell_formula_units_Z 40
_cell_length_a 11.300276
_cell_length_b 8.548971
_cell_length_c 22.290644
_cell_angle_alpha 90.000000
_cell_angle_beta 90.000000
_cell_angle_gamma 90.000000
_cell_volume 2153.403976
_symmetry_space_group_name_H-M "P C C M"
_symmetry_group_IT_number 49
_symmetry_cell_setting 'orthorhombic'
loop_
_space_group_symop_operation_xyz
x,y,z
-x,-y,z
x,-y,1/2-z
-x,y,1/2-z
-x,-y,-z
x,y,-z
-x,y,1/2+z
x,-y,1/2+z
loop_
_atom_site_type_symbol
_atom_site_label
_atom_site_fract_x
_atom_site_fract_y
_atom_site_fract_z
Si Si1 0.752305 0.173565 0.125856
Si Si2 0.366635 0.321332 0.266619
Si Si3 0.799656 0.083686 0.000000
Si Si4 0.181087 0.888741 0.699203
Si Si5 0.992500 0.676113 0.126536
Si Si6 0.937248 0.781007 0.000000
O O1 0.657974 0.280386 0.162726
O O2 0.878053 0.255156 0.129264
O O3 0.758712 0.996669 0.149330
O O4 0.722534 0.150229 0.055611
O O5 0.339071 0.500000 0.250000
O O6 0.500000 0.277907 0.250000
O O7 0.283673 0.215163 0.226815
O O8 0.935431 0.137869 0.000000
O O9 0.822248 0.895934 0.000000
O O10 0.081366 0.778860 0.672612
O O11 0.123577 0.000000 0.750000
O O12 0.000000 0.500000 0.150272
O O13 0.931795 0.677023 0.060503
#
# Coordination Sequence:
#
# PCOD8203710 Si02
#       6
#     8   8   4   8   8   4
#     4  10  20  34  57  81 110 147 181 225 269 323
#     4  10  22  40  59  78 104 140 184 233 283 330
#     4   9  16  32  54  81 113 144 186 221 268 323
#     4  10  21  34  52  76 106 143 185 225 272 325
#     4  11  20  32  51  82 117 146 181 221 274 331
#     4   9  17  30  52  77 114 153 179 217 265 327
#
# _framework density 18.575240999999998
#
# number of rings (size 3 to 8) (size 9 to 14) (size 15 to 20)
#    0.000    2.000    2.000    2.100    0.000    9.200 
#    0.000    5.000    0.000    6.000    0.000    0.000 
#    0.000    0.000    0.000    0.000    0.000    0.000 
#
# Total GULP energy -495724.193381 kJ/mol
# GULP energy per Si atom -12393.104835 kJ/mol
# Density = 1.853296 g / cm^3
# Si number density = 18.575241 Si / 1000 Ang^3
#
#
#
# Elastic Constant Matrix: (Units=GPa)
#
#
# Indices 1 2 3 4 5 6 
#
# 1 72.7207 38.2294 56.7859 0.0000 0.0000 0.0000
# 2 38.2294 95.7468 55.1736 0.0000 0.0000 0.0000
# 3 56.7859 55.1736 157.4642 0.0000 0.0000 0.0000
# 4 0.0000 0.0000 0.0000 34.2199 0.0000 0.0000
# 5 0.0000 0.0000 0.0000 0.0000 19.5092 0.0000
# 6 0.0000 0.0000 0.0000 0.0000 0.0000 26.7756
#
#
#
# Elastic Compliance Matrix: (Units=1/GPa)
#
#
# Indices 1 2 3 4 5 6 
#
# 1 0.020901 -0.005014 -0.005781 0.000000 0.000000 0.000000
# 2 -0.005014 0.014289 -0.003199 0.000000 0.000000 0.000000
# 3 -0.005781 -0.003199 0.009556 0.000000 0.000000 0.000000
# 4 0.000000 0.000000 0.000000 0.029223 0.000000 0.000000
# 5 0.000000 0.000000 0.000000 0.000000 0.051258 0.000000
# 6 0.000000 0.000000 0.000000 0.000000 0.000000 0.037347
#
#
# Mechanical properties :
#
#
# Convention : Reuss Voigt Hill
#
# Bulk Modulus (GPa) = 59.66671 69.58994 64.62833
# Shear Modulus (GPa) = 25.49091 27.81711 26.65401
#
# Velocity S-wave (km/s) = 3.70848 3.87400 3.79214
# Velocity P-wave (km/s) = 7.10834 7.58654 7.35133
#
# Compressibility (1/GPa) = 0.01675976
#
# Stress axis : x y z
#
# Youngs Moduli (GPa) = 47.84412 69.98162 104.64600
#
# Poissons Ratio (x) = 0.35091 0.60492
# Poissons Ratio (y) = 0.23991 0.33472
# Poissons Ratio (z) = 0.27657 0.22384
#
# Static dielectric constant tensor:
#      x y z
#    x 3.000530 0.000000 0.000000 
#    y 0.000000 3.565840 0.000000 
#    z 0.000000 0.000000 3.841940 
# 
# 
# High freq. dielectric constant tensor:
#      x y z
#    x 1.679100 0.000000 0.000000 
#    y 0.000000 1.730760 0.000000 
#    z 0.000000 0.000000 1.734390 
# 
# From -- ./inp_files/20357.got.cif
#   From: 2010.03.12/outbox.cif.g09.slc.cpg/sg49_11_cif.got.tgz:20357.got - 2010.04.14 03:58:27.
