data_PCOD8203986
_publ_section_title
;
Structure prediction by ZEFSAII (Michael W. Deem and Ramdas Pophale) SiO2 
 PCOD8203986
Probable space group: P C C M
;
_chemical_formula_sum "Si O2"
_cell_formula_units_Z 56
_cell_length_a 20.671350
_cell_length_b 14.533240
_cell_length_c 8.735235
_cell_angle_alpha 90.000000
_cell_angle_beta 90.000000
_cell_angle_gamma 90.000000
_cell_volume 2624.254067
_symmetry_space_group_name_H-M "P C C M"
_symmetry_group_IT_number 49
_symmetry_cell_setting 'orthorhombic'
loop_
_space_group_symop_operation_xyz
x,y,z
-x,-y,z
x,-y,1/2-z
-x,y,1/2-z
-x,-y,-z
x,y,-z
-x,y,1/2+z
x,-y,1/2+z
loop_
_atom_site_type_symbol
_atom_site_label
_atom_site_fract_x
_atom_site_fract_y
_atom_site_fract_z
Si Si1 0.249830 0.593960 0.826976
Si Si2 0.890647 0.601046 0.317817
Si Si3 0.065040 0.779824 0.680885
Si Si4 0.675840 0.900922 0.320628
Si Si5 0.176022 0.098828 0.679384
Si Si6 0.434684 0.221381 0.819454
Si Si7 0.389914 0.398845 0.678137
O O1 0.267309 0.500000 0.750000
O O2 0.182189 0.636127 0.767887
O O3 0.317328 0.648246 0.806739
O O4 0.235145 0.569118 0.000000
O O5 0.904327 0.500000 0.250000
O O6 0.902665 0.601759 0.500000
O O7 0.936945 0.673641 0.235696
O O8 0.063713 0.787470 0.500000
O O9 0.128873 0.827950 0.744686
O O10 0.000000 0.826581 0.750000
O O11 0.661805 0.905064 0.500000
O O12 0.750020 0.870675 0.287930
O O13 0.628452 0.828725 0.243383
O O14 0.661866 0.000000 0.250000
O O15 0.161978 0.095030 0.500000
O O16 0.161211 0.000000 0.750000
O O17 0.500000 0.176079 0.750000
O O18 0.435142 0.328350 0.768567
O O19 0.436323 0.212916 0.000000
O O20 0.397462 0.500000 0.750000
O O21 0.409516 0.404315 0.500000
#
# Coordination Sequence:
#
# PCOD8203986 Si02
#       7
#     8   8   8   8   8   8   8
#     4   8  16  30  52  80 113 150 195 248 304 360
#     4  10  20  37  59  88 124 167 213 262 317 373
#     4  12  26  43  63  92 128 170 217 264 317 377
#     4  10  22  43  71 101 132 165 205 256 314 377
#     4  10  22  43  71 101 132 165 205 256 314 377
#     4  12  26  43  63  92 128 170 217 264 317 377
#     4  10  20  37  59  88 124 167 213 262 317 373
#
# _framework density 21.339397000000002
#
# number of rings (size 3 to 8) (size 9 to 14) (size 15 to 20)
#    0.000    1.714    0.000    4.286    2.000    4.000 
#    0.000    5.714    0.000    0.000    0.000    0.000 
#    0.000    0.000    0.000    0.000    0.000    0.000 
#
# Total GULP energy -694028.497181 kJ/mol
# GULP energy per Si atom -12393.366021 kJ/mol
# Density = 2.129083 g / cm^3
# Si number density = 21.339397 Si / 1000 Ang^3
#
#
#
# Elastic Constant Matrix: (Units=GPa)
#
#
# Indices 1 2 3 4 5 6 
#
# 1 112.0145 61.6115 64.0516 0.0000 0.0000 0.0000
# 2 61.6115 95.8943 64.7467 0.0000 0.0000 0.0000
# 3 64.0516 64.7467 155.1975 0.0000 0.0000 0.0000
# 4 0.0000 0.0000 0.0000 39.1822 0.0000 0.0000
# 5 0.0000 0.0000 0.0000 0.0000 32.7577 0.0000
# 6 0.0000 0.0000 0.0000 0.0000 0.0000 22.4747
#
#
#
# Elastic Compliance Matrix: (Units=1/GPa)
#
#
# Indices 1 2 3 4 5 6 
#
# 1 0.014726 -0.007459 -0.002966 0.000000 0.000000 0.000000
# 2 -0.007459 0.018295 -0.004554 0.000000 0.000000 0.000000
# 3 -0.002966 -0.004554 0.009567 0.000000 0.000000 0.000000
# 4 0.000000 0.000000 0.000000 0.025522 0.000000 0.000000
# 5 0.000000 0.000000 0.000000 0.000000 0.030527 0.000000
# 6 0.000000 0.000000 0.000000 0.000000 0.000000 0.044494
#
#
# Mechanical properties :
#
#
# Convention : Reuss Voigt Hill
#
# Bulk Modulus (GPa) = 79.17107 82.65844 80.91476
# Shear Modulus (GPa) = 28.20075 30.39602 29.29838
#
# Velocity S-wave (km/s) = 3.63924 3.77823 3.70938
# Velocity P-wave (km/s) = 7.40541 7.60609 7.50642
#
# Compressibility (1/GPa) = 0.01263088
#
# Stress axis : x y z
#
# Youngs Moduli (GPa) = 67.90761 54.65848 104.52139
#
# Poissons Ratio (x) = 0.40769 0.30999
# Poissons Ratio (y) = 0.50651 0.47602
# Poissons Ratio (z) = 0.20140 0.24893
#
# Static dielectric constant tensor:
#      x y z
#    x 4.219650 0.000000 0.000000 
#    y 0.000000 3.653650 0.000000 
#    z 0.000000 0.000000 3.908290 
# 
# 
# High freq. dielectric constant tensor:
#      x y z
#    x 1.856250 0.000000 0.000000 
#    y 0.000000 1.821330 0.000000 
#    z 0.000000 0.000000 1.845940 
# 
# From -- ./inp_files/5815.got.cif
#   From: 2010.03.12/outbox.cif.g09.slc.cpg/sg49_3_cif.got.tgz:5815.got - 2010.04.14 03:58:27.
