data_PCOD8203914
_publ_section_title
;
Structure prediction by ZEFSAII (Michael W. Deem and Ramdas Pophale) SiO2 
 PCOD8203914
Probable space group: P C C M
;
_chemical_formula_sum "Si O2"
_cell_formula_units_Z 56
_cell_length_a 21.336511
_cell_length_b 9.089170
_cell_length_c 15.307001
_cell_angle_alpha 90.000000
_cell_angle_beta 90.000000
_cell_angle_gamma 90.000000
_cell_volume 2968.504700
_symmetry_space_group_name_H-M "P C C M"
_symmetry_group_IT_number 49
_symmetry_cell_setting 'orthorhombic'
loop_
_space_group_symop_operation_xyz
x,y,z
-x,-y,z
x,-y,1/2-z
-x,y,1/2-z
-x,-y,-z
x,y,-z
-x,y,1/2+z
x,-y,1/2+z
loop_
_atom_site_type_symbol
_atom_site_label
_atom_site_fract_x
_atom_site_fract_y
_atom_site_fract_z
Si Si1 0.876387 0.168782 0.402322
Si Si2 0.646716 0.174633 0.250000
Si Si3 0.123613 0.168782 0.597678
Si Si4 0.787531 0.174293 0.250000
Si Si5 0.000000 0.326697 0.350591
Si Si6 0.572542 0.330083 0.599998
Si Si7 0.427458 0.330083 0.400002
O O1 0.848790 0.182595 0.500000
O O2 0.824225 0.231130 0.335828
O O3 0.939115 0.262809 0.396920
O O4 0.892897 1.000000 0.379349
O O5 0.717426 0.238461 0.250000
O O6 0.613417 0.229269 0.337442
O O7 0.613417 0.229269 0.162558
O O8 0.645331 0.000000 0.250000
O O9 0.151210 0.182595 0.500000
O O10 0.175775 0.231130 0.664172
O O11 0.060885 0.262809 0.603080
O O12 0.783519 0.000000 0.250000
O O13 0.000000 0.500000 0.362989
O O14 0.000000 0.278927 0.250000
O O15 0.590861 0.295193 0.500000
O O16 0.585590 0.500000 0.621915
O O17 0.500000 0.293137 0.616235
O O18 0.409139 0.295193 0.500000
#
# Coordination Sequence:
#
# PCOD8203914 Si02
#       7
#     8   8   8   8   8   8   8
#     4  10  20  36  59  80  99 135 183 220 257 312
#     4  11  22  34  54  85 116 146 179 224 283 330
#     4  10  20  36  59  80  99 135 183 220 257 312
#     4   9  20  37  53  75 109 144 177 218 261 311
#     4  11  22  35  54  81 111 138 165 212 277 325
#     4   9  19  37  59  81 108 146 189 228 268 321
#     4   9  19  37  59  81 108 146 189 228 268 321
#
# _framework density 18.864716999999999
#
# number of rings (size 3 to 8) (size 9 to 14) (size 15 to 20)
#    0.000    2.143    1.429    2.571    0.000    6.857 
#    0.000    7.143    0.000    0.000    0.000    0.000 
#    0.000    0.000    0.000    0.000    0.000    0.000 
#
# Total GULP energy -694511.407108 kJ/mol
# GULP energy per Si atom -12401.989413 kJ/mol
# Density = 1.882178 g / cm^3
# Si number density = 18.864717 Si / 1000 Ang^3
#
#
#
# Elastic Constant Matrix: (Units=GPa)
#
#
# Indices 1 2 3 4 5 6 
#
# 1 138.1268 46.0828 77.8168 0.0000 0.0000 0.0000
# 2 46.0828 59.5542 45.3041 0.0000 0.0000 0.0000
# 3 77.8168 45.3041 146.3803 0.0000 0.0000 0.0000
# 4 0.0000 0.0000 0.0000 29.4716 0.0000 0.0000
# 5 0.0000 0.0000 0.0000 0.0000 4.1941 0.0000
# 6 0.0000 0.0000 0.0000 0.0000 0.0000 -19.4833
#
#
#
# Elastic Compliance Matrix: (Units=1/GPa)
#
#
# Indices 1 2 3 4 5 6 
#
# 1 0.011610 -0.005609 -0.004436 0.000000 0.000000 0.000000
# 2 -0.005609 0.024672 -0.004654 0.000000 0.000000 0.000000
# 3 -0.004436 -0.004654 0.010630 0.000000 0.000000 0.000000
# 4 0.000000 0.000000 0.000000 0.033931 0.000000 0.000000
# 5 0.000000 0.000000 0.000000 0.000000 0.238428 0.000000
# 6 0.000000 0.000000 0.000000 0.000000 0.000000 -0.051326
#
#
# Mechanical properties :
#
#
# Convention : Reuss Voigt Hill
#
# Bulk Modulus (GPa) = 57.09744 75.82987 66.46366
# Shear Modulus (GPa) = 16.49172 14.49364 15.49268
#
# Velocity S-wave (km/s) = 2.95991 2.77482 2.86886
# Velocity P-wave (km/s) = 6.48182 7.10986 6.80309
#
# Compressibility (1/GPa) = 0.01751392
#
# Stress axis : x y z
#
# Youngs Moduli (GPa) = 86.13022 40.53115 94.07220
#
# Poissons Ratio (x) = 0.22736 0.41731
# Poissons Ratio (y) = 0.48314 0.43781
# Poissons Ratio (z) = 0.38208 0.18863
#
# Static dielectric constant tensor:
#      x y z
#    x 3.501190 0.000000 0.000000 
#    y 0.000000 3.229640 0.000000 
#    z 0.000000 0.000000 3.647890 
# 
# 
# High freq. dielectric constant tensor:
#      x y z
#    x 1.726670 0.000000 0.000000 
#    y 0.000000 1.713730 0.000000 
#    z 0.000000 0.000000 1.751910 
# 
# From -- ./inp_files/11967.got.cif
#   From: 2010.03.12/outbox.cif.g09.slc.cpg/sg49_6_cif.got.tgz:11967.got - 2010.04.14 03:58:27.
