data_PCOD8203344
_publ_section_title
;
Structure prediction by ZEFSAII (Michael W. Deem and Ramdas Pophale) SiO2 
 PCOD8203344
Probable space group: P C C M
;
_chemical_formula_sum "Si O2"
_cell_formula_units_Z 64
_cell_length_a 11.333801
_cell_length_b 17.205440
_cell_length_c 15.459432
_cell_angle_alpha 90.000000
_cell_angle_beta 90.000000
_cell_angle_gamma 90.000000
_cell_volume 3014.636130
_symmetry_space_group_name_H-M "P C C M"
_symmetry_group_IT_number 49
_symmetry_cell_setting 'orthorhombic'
loop_
_space_group_symop_operation_xyz
x,y,z
-x,-y,z
x,-y,1/2-z
-x,y,1/2-z
-x,-y,-z
x,y,-z
-x,y,1/2+z
x,-y,1/2+z
loop_
_atom_site_type_symbol
_atom_site_label
_atom_site_fract_x
_atom_site_fract_y
_atom_site_fract_z
Si Si1 0.020367 0.165398 0.150294
Si Si2 0.635027 0.668693 0.755430
Si Si3 0.176600 0.947413 0.831481
Si Si4 0.728556 0.834763 0.795900
Si Si5 0.766653 0.595717 0.600090
Si Si6 0.615181 0.955120 0.098404
Si Si7 0.995083 0.334859 0.596884
Si Si8 0.758826 0.412394 0.599367
O O1 0.159287 0.148369 0.140253
O O2 0.990651 0.241785 0.095766
O O3 0.000000 0.186938 0.250000
O O4 0.940413 0.090103 0.122158
O O5 0.500000 0.692952 0.750000
O O6 0.709881 0.744919 0.778073
O O7 0.667165 0.630021 0.663320
O O8 0.652840 0.609990 0.836020
O O9 0.251744 0.874392 0.796938
O O10 0.134880 0.000000 0.750000
O O11 0.264023 0.994411 0.893919
O O12 0.620474 0.876473 0.845050
O O13 0.742796 0.622037 0.500000
O O14 0.774865 0.503741 0.605490
O O15 0.889154 0.628143 0.639842
O O16 0.500000 0.000000 0.132960
O O17 0.596578 0.930730 0.000000
O O18 0.992594 0.366939 0.500000
O O19 0.874230 0.367704 0.638103
O O20 0.730318 0.387107 0.500000
#
# Coordination Sequence:
#
# PCOD8203344 Si02
#       8
#     8   8   8   8   8   8   8   8
#     4  10  19  35  59  88 123 156 197 251 322 382
#     4  12  26  42  64  93 125 169 227 263 317 390
#     4   9  20  36  60  87 117 153 198 246 308 371
#     4  10  22  39  62  85 118 161 198 257 313 374
#     4  10  22  41  64  94 130 166 213 269 323 378
#     4  10  23  41  60  86 120 161 211 257 306 368
#     4  10  20  36  60  93 128 164 206 258 326 393
#     4  10  22  41  65  93 129 170 210 265 325 385
#
# _framework density 21.229759999999999
#
# number of rings (size 3 to 8) (size 9 to 14) (size 15 to 20)
#    0.000    1.875    1.250    2.250    1.750   12.000 
#    0.000    3.750    0.000    0.000    0.000    0.000 
#    0.000    0.000    0.000    0.000    0.000    0.000 
#
# Total GULP energy -793269.990050 kJ/mol
# GULP energy per Si atom -12394.843595 kJ/mol
# Density = 2.118144 g / cm^3
# Si number density = 21.229760 Si / 1000 Ang^3
#
#
#
# Elastic Constant Matrix: (Units=GPa)
#
#
# Indices 1 2 3 4 5 6 
#
# 1 93.8279 31.5047 25.8047 0.0000 0.0000 0.0000
# 2 31.5047 109.8231 26.9429 0.0000 0.0000 0.0000
# 3 25.8047 26.9429 76.6644 0.0000 0.0000 0.0000
# 4 0.0000 0.0000 0.0000 26.8529 0.0000 0.0000
# 5 0.0000 0.0000 0.0000 0.0000 16.8527 0.0000
# 6 0.0000 0.0000 0.0000 0.0000 0.0000 32.9488
#
#
#
# Elastic Compliance Matrix: (Units=1/GPa)
#
#
# Indices 1 2 3 4 5 6 
#
# 1 0.012480 -0.002790 -0.003220 0.000000 0.000000 0.000000
# 2 -0.002790 0.010588 -0.002782 0.000000 0.000000 0.000000
# 3 -0.003220 -0.002782 0.015105 0.000000 0.000000 0.000000
# 4 0.000000 0.000000 0.000000 0.037240 0.000000 0.000000
# 5 0.000000 0.000000 0.000000 0.000000 0.059338 0.000000
# 6 0.000000 0.000000 0.000000 0.000000 0.000000 0.030350
#
#
# Mechanical properties :
#
#
# Convention : Reuss Voigt Hill
#
# Bulk Modulus (GPa) = 48.56871 49.86890 49.21880
# Shear Modulus (GPa) = 26.37826 28.40175 27.39001
#
# Velocity S-wave (km/s) = 3.52875 3.66160 3.59579
# Velocity P-wave (km/s) = 6.28730 6.43564 6.36190
#
# Compressibility (1/GPa) = 0.02058939
#
# Stress axis : x y z
#
# Youngs Moduli (GPa) = 80.12622 94.44219 66.20107
#
# Poissons Ratio (x) = 0.26351 0.21318
# Poissons Ratio (y) = 0.22357 0.18418
# Poissons Ratio (z) = 0.25802 0.26274
#
# Static dielectric constant tensor:
#      x y z
#    x 3.937540 0.000000 0.000000 
#    y 0.000000 3.853350 0.000000 
#    z 0.000000 0.000000 3.725200 
# 
# 
# High freq. dielectric constant tensor:
#      x y z
#    x 1.827710 0.000000 0.000000 
#    y 0.000000 1.840910 0.000000 
#    z 0.000000 0.000000 1.810190 
# 
# From -- ./inp_files/13101.got.cif
#   From: 2010.03.12/outbox.cif.g09.slc.cpg/sg49_7_cif.got.tgz:13101.got - 2010.04.14 03:58:27.
