data_PCOD8203308
_publ_section_title
;
Structure prediction by ZEFSAII (Michael W. Deem and Ramdas Pophale) SiO2 
 PCOD8203308
Probable space group: P C C M
;
_chemical_formula_sum "Si O2"
_cell_formula_units_Z 64
_cell_length_a 14.193688
_cell_length_b 13.371955
_cell_length_c 17.054838
_cell_angle_alpha 90.000000
_cell_angle_beta 90.000000
_cell_angle_gamma 90.000000
_cell_volume 3236.963180
_symmetry_space_group_name_H-M "P C C M"
_symmetry_group_IT_number 49
_symmetry_cell_setting 'orthorhombic'
loop_
_space_group_symop_operation_xyz
x,y,z
-x,-y,z
x,-y,1/2-z
-x,y,1/2-z
-x,-y,-z
x,y,-z
-x,y,1/2+z
x,-y,1/2+z
loop_
_atom_site_type_symbol
_atom_site_label
_atom_site_fract_x
_atom_site_fract_y
_atom_site_fract_z
Si Si1 0.460090 0.894290 0.590289
Si Si2 0.627965 0.254432 0.088256
Si Si3 0.927918 0.245583 0.816186
Si Si4 0.049341 0.397454 0.091619
Si Si5 0.205910 0.315864 0.191003
Si Si6 0.774183 0.104607 0.151297
Si Si7 0.393893 0.617574 0.235982
Si Si8 0.266295 0.888670 0.331597
O O1 0.430065 0.904482 0.500000
O O2 0.532375 0.804981 0.603890
O O3 0.371147 0.865901 0.641609
O O4 0.500000 0.000000 0.620787
O O5 0.711911 0.174080 0.095374
O O6 0.636029 0.347535 0.148295
O O7 0.631024 0.298558 0.000000
O O8 0.845950 0.312810 0.775748
O O9 0.880969 0.146078 0.852578
O O10 0.000000 0.209374 0.750000
O O11 0.980600 0.307689 0.883132
O O12 0.150380 0.393276 0.135444
O O13 0.000000 0.500000 0.116484
O O14 0.068530 0.391385 0.000000
O O15 0.315938 0.341831 0.202796
O O16 0.200836 0.207039 0.148103
O O17 0.729857 0.105759 0.237692
O O18 0.774414 0.987989 0.125482
O O19 0.392814 0.500000 0.250000
O O20 0.500000 0.658749 0.250000
#
# Coordination Sequence:
#
# PCOD8203308 Si02
#       8
#     8   8   8   8   8   8   8   8
#     4  10  20  33  53  87 129 172 214 264 316 369
#     4  11  22  38  60  90 129 167 214 267 321 375
#     4   9  19  37  59  85 118 154 202 251 315 379
#     4  10  23  41  64  95 120 153 210 274 334 389
#     4  10  21  39  63  92 122 164 207 261 324 379
#     4  10  20  34  55  92 121 165 206 256 310 381
#     4  11  24  43  65  93 128 171 221 266 312 386
#     4  10  19  35  56  86 129 164 219 253 311 380
#
# _framework density 19.771618
#
# number of rings (size 3 to 8) (size 9 to 14) (size 15 to 20)
#    0.000    1.875    3.750    0.750    1.750    2.750 
#    0.000   13.125    0.000    0.750    0.000    0.000 
#    0.000    0.000    0.000    0.000    0.000    0.000 
#
# Total GULP energy -793324.558321 kJ/mol
# GULP energy per Si atom -12395.696224 kJ/mol
# Density = 1.972662 g / cm^3
# Si number density = 19.771618 Si / 1000 Ang^3
#
#
#
# Elastic Constant Matrix: (Units=GPa)
#
#
# Indices 1 2 3 4 5 6 
#
# 1 131.7255 47.7913 38.3603 0.0000 0.0000 0.0000
# 2 47.7913 107.5086 51.1889 0.0000 0.0000 0.0000
# 3 38.3603 51.1889 69.0082 0.0000 0.0000 0.0000
# 4 0.0000 0.0000 0.0000 21.5376 0.0000 0.0000
# 5 0.0000 0.0000 0.0000 0.0000 15.8261 0.0000
# 6 0.0000 0.0000 0.0000 0.0000 0.0000 32.9705
#
#
#
# Elastic Compliance Matrix: (Units=1/GPa)
#
#
# Indices 1 2 3 4 5 6 
#
# 1 0.009522 -0.002648 -0.003329 0.000000 0.000000 0.000000
# 2 -0.002648 0.015117 -0.009742 0.000000 0.000000 0.000000
# 3 -0.003329 -0.009742 0.023568 0.000000 0.000000 0.000000
# 4 0.000000 0.000000 0.000000 0.046430 0.000000 0.000000
# 5 0.000000 0.000000 0.000000 0.000000 0.063187 0.000000
# 6 0.000000 0.000000 0.000000 0.000000 0.000000 0.030330
#
#
# Mechanical properties :
#
#
# Convention : Reuss Voigt Hill
#
# Bulk Modulus (GPa) = 59.63110 64.76925 62.20017
# Shear Modulus (GPa) = 22.20450 25.46030 23.83240
#
# Velocity S-wave (km/s) = 3.35483 3.59237 3.47563
# Velocity P-wave (km/s) = 6.72547 7.07366 6.90176
#
# Compressibility (1/GPa) = 0.01676977
#
# Stress axis : x y z
#
# Youngs Moduli (GPa) = 105.02489 66.15103 42.43111
#
# Poissons Ratio (x) = 0.17515 0.14125
# Poissons Ratio (y) = 0.27807 0.41335
# Poissons Ratio (z) = 0.34961 0.64442
#
# Static dielectric constant tensor:
#      x y z
#    x 3.784930 0.000000 0.000000 
#    y 0.000000 3.790220 0.000000 
#    z 0.000000 0.000000 3.378390 
# 
# 
# High freq. dielectric constant tensor:
#      x y z
#    x 1.776370 0.000000 0.000000 
#    y 0.000000 1.767910 0.000000 
#    z 0.000000 0.000000 1.748160 
# 
# From -- ./inp_files/17946.got.cif
#   From: 2010.03.12/outbox.cif.g09.slc.cpg/sg49_9_cif.got.tgz:17946.got - 2010.04.14 03:58:27.
