data_PCOD8203091
_publ_section_title
;
Structure prediction by ZEFSAII (Michael W. Deem and Ramdas Pophale) SiO2 
 PCOD8203091
Probable space group: P C C M
;
_chemical_formula_sum "Si O2"
_cell_formula_units_Z 64
_cell_length_a 20.666493
_cell_length_b 19.325934
_cell_length_c 8.892998
_cell_angle_alpha 90.000000
_cell_angle_beta 90.000000
_cell_angle_gamma 90.000000
_cell_volume 3551.856996
_symmetry_space_group_name_H-M "P C C M"
_symmetry_group_IT_number 49
_symmetry_cell_setting 'orthorhombic'
loop_
_space_group_symop_operation_xyz
x,y,z
-x,-y,z
x,-y,1/2-z
-x,y,1/2-z
-x,-y,-z
x,y,-z
-x,y,1/2+z
x,-y,1/2+z
loop_
_atom_site_type_symbol
_atom_site_label
_atom_site_fract_x
_atom_site_fract_y
_atom_site_fract_z
Si Si1 0.318916 0.174085 0.673738
Si Si2 0.567592 0.927700 0.321539
Si Si3 0.064574 0.661647 0.829816
Si Si4 0.806889 0.663301 0.170131
Si Si5 0.324322 0.665443 0.823751
Si Si6 0.567990 0.426637 0.679761
Si Si7 0.936287 0.173266 0.831583
Si Si8 0.809641 0.827957 0.167777
O O1 0.303170 0.164698 0.500000
O O2 0.380840 0.130331 0.723903
O O3 0.332750 0.253707 0.711940
O O4 0.256453 0.144629 0.759406
O O5 0.500000 0.903765 0.250000
O O6 0.560035 0.935895 0.500000
O O7 0.590272 0.000000 0.250000
O O8 0.127599 0.632743 0.742999
O O9 0.064502 0.744162 0.826729
O O10 0.000000 0.632839 0.750000
O O11 0.066201 0.633982 0.000000
O O12 0.745804 0.638647 0.269008
O O13 0.810535 0.745528 0.171466
O O14 0.800031 0.635294 0.000000
O O15 0.378461 0.628583 0.725137
O O16 0.332364 0.648782 0.000000
O O17 0.588189 0.500000 0.750000
O O18 0.500000 0.402109 0.750000
O O19 0.562272 0.432283 0.500000
O O20 0.871998 0.142785 0.754578
O O21 0.000000 0.144383 0.750000
O O22 0.937801 0.145209 0.000000
O O23 0.813195 0.856943 0.000000
#
# Coordination Sequence:
#
# PCOD8203091 Si02
#       8
#     8   8   8   8   8   8   8   8
#     4   9  19  33  49  70  98 129 161 197 241 289
#     4  10  20  35  53  73  96 125 159 197 240 287
#     4   9  15  22  33  51  77 114 155 195 236 282
#     4   9  16  26  39  59  87 120 156 195 237 284
#     4  10  19  33  51  73 100 130 162 199 242 289
#     4  11  22  38  57  77 100 128 161 198 240 287
#     4   9  15  22  33  50  77 113 153 192 232 278
#     4   9  16  25  39  59  85 117 154 193 236 282
#
# _framework density 18.018744999999999
#
# number of rings (size 3 to 8) (size 9 to 14) (size 15 to 20)
#    0.000    2.500    0.000    4.125    0.000    8.000 
#    0.000    1.250    0.000    0.000    0.000    0.000 
#    0.000    1.000    0.000   10.250    0.000   15.625 
#
# Total GULP energy -793569.328661 kJ/mol
# GULP energy per Si atom -12399.520760 kJ/mol
# Density = 1.797773 g / cm^3
# Si number density = 18.018745 Si / 1000 Ang^3
#
#
#
# Elastic Constant Matrix: (Units=GPa)
#
#
# Indices 1 2 3 4 5 6 
#
# 1 167.8399 48.5252 86.0787 0.0000 0.0000 0.0000
# 2 48.5252 30.4949 32.7157 0.0000 0.0000 0.0000
# 3 86.0787 32.7157 149.9537 0.0000 0.0000 0.0000
# 4 0.0000 0.0000 0.0000 13.2896 0.0000 0.0000
# 5 0.0000 0.0000 0.0000 0.0000 41.1128 0.0000
# 6 0.0000 0.0000 0.0000 0.0000 0.0000 -0.7882
#
#
#
# Elastic Compliance Matrix: (Units=1/GPa)
#
#
# Indices 1 2 3 4 5 6 
#
# 1 0.012415 -0.015810 -0.003677 0.000000 0.000000 0.000000
# 2 -0.015810 0.062948 -0.004658 0.000000 0.000000 0.000000
# 3 -0.003677 -0.004658 0.009796 0.000000 0.000000 0.000000
# 4 0.000000 0.000000 0.000000 0.075247 0.000000 0.000000
# 5 0.000000 0.000000 0.000000 0.000000 0.024323 0.000000
# 6 0.000000 0.000000 0.000000 0.000000 0.000000 -1.268698
#
#
# Mechanical properties :
#
#
# Convention : Reuss Voigt Hill
#
# Bulk Modulus (GPa) = 27.12397 75.88083 51.50240
# Shear Modulus (GPa) = -4.88573 22.78745 8.95086
#
# Velocity S-wave (km/s) = -1.64844 3.56005 2.23121
# Velocity P-wave (km/s) = 3.38567 7.68780 5.93991
#
# Compressibility (1/GPa) = 0.03686776
#
# Stress axis : x y z
#
# Youngs Moduli (GPa) = 80.54749 15.88620 102.08471
#
# Poissons Ratio (x) = 0.25117 0.37539
# Poissons Ratio (y) = 1.27349 0.47548
# Poissons Ratio (z) = 0.29620 0.07399
#
# Static dielectric constant tensor:
#      x y z
#    x 3.550950 0.000000 0.000000 
#    y 0.000000 2.765990 0.000000 
#    z 0.000000 0.000000 3.523420 
# 
# 
# High freq. dielectric constant tensor:
#      x y z
#    x 1.716160 0.000000 0.000000 
#    y 0.000000 1.627140 0.000000 
#    z 0.000000 0.000000 1.716830 
# 
# From -- ./inp_files/6006.got.cif
#   From: 2010.03.12/outbox.cif.g09.slc.cpg/sg49_4_cif.got.tgz:6006.got - 2010.04.14 03:58:27.
