data_PCOD8203862
_publ_section_title
;
Structure prediction by ZEFSAII (Michael W. Deem and Ramdas Pophale) SiO2 
 PCOD8203862
Probable space group: P C C M
;
_chemical_formula_sum "Si O2"
_cell_formula_units_Z 64
_cell_length_a 14.118749
_cell_length_b 12.213715
_cell_length_c 18.271000
_cell_angle_alpha 90.000000
_cell_angle_beta 90.000000
_cell_angle_gamma 90.000000
_cell_volume 3150.694660
_symmetry_space_group_name_H-M "P C C M"
_symmetry_group_IT_number 49
_symmetry_cell_setting 'orthorhombic'
loop_
_space_group_symop_operation_xyz
x,y,z
-x,-y,z
x,-y,1/2-z
-x,y,1/2-z
-x,-y,-z
x,y,-z
-x,y,1/2+z
x,-y,1/2+z
loop_
_atom_site_type_symbol
_atom_site_label
_atom_site_fract_x
_atom_site_fract_y
_atom_site_fract_z
Si Si1 0.258737 0.856459 0.913957
Si Si2 0.232157 0.453127 0.081486
Si Si3 0.900702 0.789626 0.782248
Si Si4 0.042121 0.328861 0.918642
Si Si5 0.468680 0.118216 0.584562
Si Si6 0.654510 0.762062 0.915267
Si Si7 0.747497 0.053379 0.318652
Si Si8 0.844956 0.652866 0.652114
O O1 0.367082 0.843993 0.883979
O O2 0.194575 0.756455 0.890643
O O3 0.217029 0.966004 0.877970
O O4 0.253722 0.869781 0.000000
O O5 0.122936 0.419536 0.075738
O O6 0.305658 0.357830 0.107791
O O7 0.230344 0.553708 0.139575
O O8 0.264498 0.492583 0.000000
O O9 0.912584 0.765076 0.868195
O O10 0.834934 0.894197 0.774604
O O11 0.858013 0.683485 0.737980
O O12 0.000000 0.825184 0.750000
O O13 0.947326 0.377665 0.882014
O O14 0.019741 0.282809 0.000000
O O15 0.453855 0.093240 0.500000
O O16 0.541540 0.220200 0.595169
O O17 0.500000 0.000000 0.620078
O O18 0.694682 0.851038 0.860607
O O19 0.683987 0.784324 0.000000
O O20 0.688280 0.000000 0.250000
#
# Coordination Sequence:
#
# PCOD8203862 Si02
#       8
#     8   8   8   8   8   8   8   8
#     4  11  22  37  61  88 120 161 199 247 304 365
#     4  10  20  35  61  89 118 155 198 251 297 351
#     4  10  23  40  57  82 122 164 198 247 308 367
#     4  10  20  37  61  87 113 152 209 257 294 350
#     4   9  17  33  59  90 120 151 194 248 300 348
#     4  10  20  38  63  91 119 154 203 253 301 355
#     4  12  22  38  57  83 119 154 201 247 299 359
#     4  11  22  39  57  86 126 159 197 245 307 365
#
# _framework density 20.31298
#
# number of rings (size 3 to 8) (size 9 to 14) (size 15 to 20)
#    0.000    1.625    3.750    1.875    0.000    2.250 
#    0.000    3.750    0.000    5.250    0.000    0.000 
#    0.000    0.000    0.000    0.000    0.000    0.000 
#
# Total GULP energy -792912.904417 kJ/mol
# GULP energy per Si atom -12389.264132 kJ/mol
# Density = 2.026675 g / cm^3
# Si number density = 20.312980 Si / 1000 Ang^3
#
#
#
# Elastic Constant Matrix: (Units=GPa)
#
#
# Indices 1 2 3 4 5 6 
#
# 1 59.3735 29.1950 16.7801 0.0000 0.0000 0.0000
# 2 29.1950 84.8532 33.4074 0.0000 0.0000 0.0000
# 3 16.7801 33.4074 104.1203 0.0000 0.0000 0.0000
# 4 0.0000 0.0000 0.0000 27.4760 0.0000 0.0000
# 5 0.0000 0.0000 0.0000 0.0000 10.4172 0.0000
# 6 0.0000 0.0000 0.0000 0.0000 0.0000 -12.2928
#
#
#
# Elastic Compliance Matrix: (Units=1/GPa)
#
#
# Indices 1 2 3 4 5 6 
#
# 1 0.020399 -0.006552 -0.001185 0.000000 0.000000 0.000000
# 2 -0.006552 0.015593 -0.003947 0.000000 0.000000 0.000000
# 3 -0.001185 -0.003947 0.011062 0.000000 0.000000 0.000000
# 4 0.000000 0.000000 0.000000 0.036395 0.000000 0.000000
# 5 0.000000 0.000000 0.000000 0.000000 0.095995 0.000000
# 6 0.000000 0.000000 0.000000 0.000000 0.000000 -0.081348
#
#
# Mechanical properties :
#
#
# Convention : Reuss Voigt Hill
#
# Bulk Modulus (GPa) = 42.22031 45.23468 43.72749
# Shear Modulus (GPa) = 38.65154 16.38438 27.51796
#
# Velocity S-wave (km/s) = 4.36684 2.84315 3.68462
# Velocity P-wave (km/s) = 6.80116 5.75284 6.29885
#
# Compressibility (1/GPa) = 0.02368528
#
# Stress axis : x y z
#
# Youngs Moduli (GPa) = 49.02142 64.12946 90.40113
#
# Poissons Ratio (x) = 0.42018 0.10716
# Poissons Ratio (y) = 0.32119 0.35684
# Poissons Ratio (z) = 0.05811 0.25314
#
# Static dielectric constant tensor:
#      x y z
#    x 3.970780 0.000000 0.000000 
#    y 0.000000 1.754430 0.000000 
#    z 0.000000 0.000000 3.972860 
# 
# 
# High freq. dielectric constant tensor:
#      x y z
#    x 1.779720 0.000000 0.000000 
#    y 0.000000 1.778570 0.000000 
#    z 0.000000 0.000000 1.794550 
# 
# From -- ./inp_files/17984.got.cif
#   From: 2010.03.12/outbox.cif.g09.slc.cpg/sg49_9_cif.got.tgz:17984.got - 2010.04.14 03:58:27.
