data_PCOD8203112
_publ_section_title
;
Structure prediction by ZEFSAII (Michael W. Deem and Ramdas Pophale) SiO2 
 PCOD8203112
Probable space group: P C C M
;
_chemical_formula_sum "Si O2"
_cell_formula_units_Z 64
_cell_length_a 8.806698
_cell_length_b 21.109135
_cell_length_c 15.275624
_cell_angle_alpha 90.000000
_cell_angle_beta 90.000000
_cell_angle_gamma 90.000000
_cell_volume 2839.765646
_symmetry_space_group_name_H-M "P C C M"
_symmetry_group_IT_number 49
_symmetry_cell_setting 'orthorhombic'
loop_
_space_group_symop_operation_xyz
x,y,z
-x,-y,z
x,-y,1/2-z
-x,y,1/2-z
-x,-y,-z
x,y,-z
-x,y,1/2+z
x,-y,1/2+z
loop_
_atom_site_type_symbol
_atom_site_label
_atom_site_fract_x
_atom_site_fract_y
_atom_site_fract_z
Si Si1 0.313506 0.359188 0.396150
Si Si2 0.128850 0.763546 0.895113
Si Si3 0.356066 0.395414 0.104643
Si Si4 0.605526 0.056811 0.900497
Si Si5 0.165517 0.887693 0.216716
Si Si6 0.833354 0.486623 0.104177
Si Si7 0.593939 0.165969 0.666703
Si Si8 0.199802 0.272839 0.898798
O O1 0.320190 0.356793 0.500000
O O2 0.243594 0.292270 0.363807
O O3 0.479132 0.376065 0.357241
O O4 0.206630 0.416272 0.364114
O O5 0.176788 0.826583 0.845840
O O6 0.959289 0.749784 0.858038
O O7 0.134209 0.773843 0.000000
O O8 0.291921 0.462710 0.139537
O O9 0.241477 0.341486 0.139729
O O10 0.366198 0.396397 0.000000
O O11 0.756882 0.056435 0.840325
O O12 0.514270 0.123157 0.893773
O O13 0.500000 0.000000 0.866458
O O14 0.656044 0.045435 0.000000
O O15 0.263442 0.876390 0.303588
O O16 0.000000 0.907809 0.250000
O O17 0.000000 0.500000 0.142776
O O18 0.835264 0.491636 0.000000
O O19 0.500000 0.190958 0.750000
O O20 0.658631 0.225497 0.613818
O O21 0.168046 0.281119 0.000000
#
# Coordination Sequence:
#
# PCOD8203112 Si02
#       8
#     8   8   8   8   8   8   8   8
#     4   9  17  27  43  71 105 146 199 258 318 373
#     4  10  20  34  55  83 120 162 206 259 315 369
#     4   9  17  26  42  69 104 147 196 254 317 378
#     4  10  23  45  71  98 130 169 212 254 303 367
#     4  11  22  40  64  96 132 167 208 255 310 368
#     4   9  15  25  40  62 101 147 191 250 324 387
#     4  10  22  37  60  88 124 164 204 247 307 372
#     4  10  19  33  52  78 115 156 201 253 310 370
#
# _framework density 22.537071000000001
#
# number of rings (size 3 to 8) (size 9 to 14) (size 15 to 20)
#    0.000    2.250    1.250    1.875    3.500    6.750 
#    0.000    1.250    0.000    1.500    0.000    0.875 
#    0.000    0.000    0.000    0.000    0.000    0.000 
#
# Total GULP energy -793344.181955 kJ/mol
# GULP energy per Si atom -12396.002843 kJ/mol
# Density = 2.248578 g / cm^3
# Si number density = 22.537071 Si / 1000 Ang^3
#
#
#
# Elastic Constant Matrix: (Units=GPa)
#
#
# Indices 1 2 3 4 5 6 
#
# 1 149.0465 38.4476 22.6220 0.0000 0.0000 0.0000
# 2 38.4476 99.6391 18.5444 0.0000 0.0000 0.0000
# 3 22.6220 18.5444 33.3165 0.0000 0.0000 0.0000
# 4 0.0000 0.0000 0.0000 8.3670 0.0000 0.0000
# 5 0.0000 0.0000 0.0000 0.0000 21.3089 0.0000
# 6 0.0000 0.0000 0.0000 0.0000 0.0000 40.5689
#
#
#
# Elastic Compliance Matrix: (Units=1/GPa)
#
#
# Indices 1 2 3 4 5 6 
#
# 1 0.007924 -0.002294 -0.004104 0.000000 0.000000 0.000000
# 2 -0.002294 0.011860 -0.005044 0.000000 0.000000 0.000000
# 3 -0.004104 -0.005044 0.035609 0.000000 0.000000 0.000000
# 4 0.000000 0.000000 0.000000 0.119517 0.000000 0.000000
# 5 0.000000 0.000000 0.000000 0.000000 0.046929 0.000000
# 6 0.000000 0.000000 0.000000 0.000000 0.000000 0.024649
#
#
# Mechanical properties :
#
#
# Convention : Reuss Voigt Hill
#
# Bulk Modulus (GPa) = 30.75951 49.02557 39.89254
# Shear Modulus (GPa) = 17.84393 27.54151 22.69272
#
# Velocity S-wave (km/s) = 2.81687 3.49958 3.17662
# Velocity P-wave (km/s) = 4.92521 6.17495 5.58515
#
# Compressibility (1/GPa) = 0.03251027
#
# Stress axis : x y z
#
# Youngs Moduli (GPa) = 126.20122 84.31635 28.08278
#
# Poissons Ratio (x) = 0.19341 0.11524
# Poissons Ratio (y) = 0.28948 0.14165
# Poissons Ratio (z) = 0.51787 0.42529
#
# Static dielectric constant tensor:
#      x y z
#    x 4.424970 0.000000 0.000000 
#    y 0.000000 4.034400 0.000000 
#    z 0.000000 0.000000 3.586120 
# 
# 
# High freq. dielectric constant tensor:
#      x y z
#    x 1.901480 0.000000 0.000000 
#    y 0.000000 1.884320 0.000000 
#    z 0.000000 0.000000 1.853070 
# 
# From -- ./inp_files/16577.got.cif
#   From: 2010.03.12/outbox.cif.g09.slc.cpg/sg49_9_cif.got.tgz:16577.got - 2010.04.14 03:58:27.
