data_PCOD8203726
_publ_section_title
;
Structure prediction by ZEFSAII (Michael W. Deem and Ramdas Pophale) SiO2 
 PCOD8203726
Probable space group: P C C M
;
_chemical_formula_sum "Si O2"
_cell_formula_units_Z 40
_cell_length_a 22.639504
_cell_length_b 8.911182
_cell_length_c 9.899038
_cell_angle_alpha 90.000000
_cell_angle_beta 90.000000
_cell_angle_gamma 90.000000
_cell_volume 1997.078853
_symmetry_space_group_name_H-M "P C C M"
_symmetry_group_IT_number 49
_symmetry_cell_setting 'orthorhombic'
loop_
_space_group_symop_operation_xyz
x,y,z
-x,-y,z
x,-y,1/2-z
-x,y,1/2-z
-x,-y,-z
x,y,-z
-x,y,1/2+z
x,-y,1/2+z
loop_
_atom_site_type_symbol
_atom_site_label
_atom_site_fract_x
_atom_site_fract_y
_atom_site_fract_z
Si Si1 0.241391 0.827588 0.000000
Si Si2 0.432410 0.322339 0.750715
Si Si3 0.948502 0.345514 0.835660
Si Si4 0.369508 0.180146 0.000000
Si Si5 0.620964 0.158359 0.000000
Si Si6 0.772243 0.166284 0.500000
Si Si7 0.820815 0.678036 0.262318
O O1 0.309849 0.852146 0.000000
O O2 0.226568 0.731542 0.869575
O O3 0.210669 0.990858 0.000000
O O4 0.429052 0.500000 0.750000
O O5 0.500000 0.267539 0.750000
O O6 0.394478 0.267573 0.874357
O O7 0.401761 0.249475 0.624866
O O8 0.944373 0.500000 0.750000
O O9 0.885298 0.266757 0.815052
O O10 0.000000 0.256082 0.750000
O O11 0.961323 0.363350 0.000000
O O12 0.298358 0.188013 0.000000
O O13 0.398698 0.014936 0.000000
O O14 0.804227 0.243596 0.375635
O O15 0.817029 0.500000 0.250000
#
# Coordination Sequence:
#
# PCOD8203726 Si02
#       7
#     4   8   8   4   4   4   8
#     4  11  23  44  59  88 126 161 206 245 318 373
#     4  11  24  41  62  91 125 159 197 251 315 369
#     4  10  20  34  59  91 128 163 205 262 314 362
#     4  11  24  42  61  91 119 158 218 245 304 369
#     4  11  24  40  65  87 119 164 204 257 294 367
#     4  11  25  40  63  86 124 171 196 257 312 369
#     4  11  23  38  63  94 121 155 212 257 303 365
#
# _framework density 20.029254000000002
#
# number of rings (size 3 to 8) (size 9 to 14) (size 15 to 20)
#    0.000    1.200    1.000    5.400    5.600   12.000 
#    0.000    0.000    0.000    3.600    0.000    0.000 
#    0.000    0.000    0.000    0.000    0.000    0.000 
#
# Total GULP energy -495655.632806 kJ/mol
# GULP energy per Si atom -12391.390820 kJ/mol
# Density = 1.998367 g / cm^3
# Si number density = 20.029254 Si / 1000 Ang^3
#
#
#
# Elastic Constant Matrix: (Units=GPa)
#
#
# Indices 1 2 3 4 5 6 
#
# 1 80.5939 36.5972 44.2614 0.0000 0.0000 0.0000
# 2 36.5972 94.1906 44.2399 0.0000 0.0000 0.0000
# 3 44.2614 44.2399 193.3101 0.0000 0.0000 0.0000
# 4 0.0000 0.0000 0.0000 72.3670 0.0000 0.0000
# 5 0.0000 0.0000 0.0000 0.0000 49.1065 0.0000
# 6 0.0000 0.0000 0.0000 0.0000 0.0000 -36.6373
#
#
#
# Elastic Compliance Matrix: (Units=1/GPa)
#
#
# Indices 1 2 3 4 5 6 
#
# 1 0.016096 -0.005068 -0.002526 0.000000 0.000000 0.000000
# 2 -0.005068 0.013491 -0.001927 0.000000 0.000000 0.000000
# 3 -0.002526 -0.001927 0.006192 0.000000 0.000000 0.000000
# 4 0.000000 0.000000 0.000000 0.013818 0.000000 0.000000
# 5 0.000000 0.000000 0.000000 0.000000 0.020364 0.000000
# 6 0.000000 0.000000 0.000000 0.000000 0.000000 -0.027295
#
#
# Mechanical properties :
#
#
# Convention : Reuss Voigt Hill
#
# Bulk Modulus (GPa) = 59.74312 68.69905 64.22108
# Shear Modulus (GPa) = 74.30736 33.16698 53.73717
#
# Velocity S-wave (km/s) = 6.09754 4.07372 5.18532
# Velocity P-wave (km/s) = 8.91437 7.51670 8.24520
#
# Compressibility (1/GPa) = 0.01673833
#
# Stress axis : x y z
#
# Youngs Moduli (GPa) = 62.12627 74.12362 161.48922
#
# Poissons Ratio (x) = 0.37565 0.40787
# Poissons Ratio (y) = 0.31484 0.31121
# Poissons Ratio (z) = 0.15691 0.14284
#
# Static dielectric constant tensor:
#      x y z
#    x 4.253520 0.000000 0.000000 
#    y 0.000000 3.678110 0.000000 
#    z 0.000000 0.000000 3.755550 
# 
# 
# High freq. dielectric constant tensor:
#      x y z
#    x 1.803240 0.000000 0.000000 
#    y 0.000000 1.769660 0.000000 
#    z 0.000000 0.000000 1.805200 
# 
# From -- ./inp_files/6260.got.cif
#   From: 2010.03.12/outbox.cif.g09.slc.cpg/sg49_4_cif.got.tgz:6260.got - 2010.04.14 03:58:27.
