data_PCOD8203772
_publ_section_title
;
Structure prediction by ZEFSAII (Michael W. Deem and Ramdas Pophale) SiO2 
 PCOD8203772
Probable space group: P C C M
;
_chemical_formula_sum "Si O2"
_cell_formula_units_Z 64
_cell_length_a 27.795877
_cell_length_b 13.754098
_cell_length_c 8.850541
_cell_angle_alpha 90.000000
_cell_angle_beta 90.000000
_cell_angle_gamma 90.000000
_cell_volume 3383.625692
_symmetry_space_group_name_H-M "P C C M"
_symmetry_group_IT_number 49
_symmetry_cell_setting 'orthorhombic'
loop_
_space_group_symop_operation_xyz
x,y,z
-x,-y,z
x,-y,1/2-z
-x,y,1/2-z
-x,-y,-z
x,y,-z
-x,y,1/2+z
x,-y,1/2+z
loop_
_atom_site_type_symbol
_atom_site_label
_atom_site_fract_x
_atom_site_fract_y
_atom_site_fract_z
Si Si1 0.638035 0.601710 0.820568
Si Si2 0.805529 0.787845 0.675193
Si Si3 0.608880 0.898470 0.325452
Si Si4 0.887169 0.100252 0.676586
Si Si5 0.448299 0.288947 0.679821
Si Si6 0.051944 0.286106 0.821552
Si Si7 0.134983 0.400123 0.322774
Si Si8 0.696093 0.231445 0.823242
O O1 0.654317 0.500000 0.750000
O O2 0.586983 0.630648 0.748590
O O3 0.679355 0.678016 0.776576
O O4 0.633350 0.594748 0.000000
O O5 0.813008 0.811313 0.500000
O O6 0.834278 0.869293 0.767303
O O7 0.824710 0.680323 0.714288
O O8 0.750100 0.795526 0.723184
O O9 0.602909 0.917303 0.500000
O O10 0.570524 0.817684 0.271510
O O11 0.662664 0.861531 0.286418
O O12 0.596992 0.000000 0.250000
O O13 0.884747 0.084961 0.500000
O O14 0.925735 0.181943 0.723436
O O15 0.904321 0.000000 0.750000
O O16 0.500000 0.307026 0.750000
O O17 0.449391 0.300914 0.500000
O O18 0.084450 0.371312 0.752663
O O19 0.000000 0.294394 0.750000
O O20 0.049037 0.299967 0.000000
O O21 0.153629 0.500000 0.250000
O O22 0.127073 0.413407 0.500000
O O23 0.691765 0.259908 0.000000
#
# Coordination Sequence:
#
# PCOD8203772 Si02
#       8
#     8   8   8   8   8   8   8   8
#     4  11  22  37  57  81 109 143 180 221 266 317
#     4   9  19  36  57  79 108 143 179 221 269 316
#     4   9  19  34  53  76 107 141 176 218 262 310
#     4  10  21  36  55  79 109 142 179 221 266 317
#     4  10  21  38  57  80 108 140 178 223 270 319
#     4  10  21  37  56  79 106 138 176 220 266 317
#     4  10  20  35  55  79 107 140 176 218 265 317
#     4   9  19  37  56  79 110 143 179 222 268 315
#
# _framework density 18.914622000000001
#
# number of rings (size 3 to 8) (size 9 to 14) (size 15 to 20)
#    0.000    2.250    0.000    3.375    0.000    7.000 
#    0.000    7.500    0.000    0.000    0.000    0.000 
#    0.000    0.000    0.000    0.000    0.000    0.000 
#
# Total GULP energy -793800.990945 kJ/mol
# GULP energy per Si atom -12403.140484 kJ/mol
# Density = 1.887157 g / cm^3
# Si number density = 18.914622 Si / 1000 Ang^3
#
#
#
# Elastic Constant Matrix: (Units=GPa)
#
#
# Indices 1 2 3 4 5 6 
#
# 1 49.2854 -30.6291 3.0390 0.0000 0.0000 0.0000
# 2 -30.6291 53.1552 11.8006 0.0000 0.0000 0.0000
# 3 3.0390 11.8006 66.3767 0.0000 0.0000 0.0000
# 4 0.0000 0.0000 0.0000 37.6766 0.0000 0.0000
# 5 0.0000 0.0000 0.0000 0.0000 29.7885 0.0000
# 6 0.0000 0.0000 0.0000 0.0000 0.0000 13.3161
#
#
#
# Elastic Compliance Matrix: (Units=1/GPa)
#
#
# Indices 1 2 3 4 5 6 
#
# 1 0.033203 0.020270 -0.005124 0.000000 0.000000 0.000000
# 2 0.020270 0.031960 -0.006610 0.000000 0.000000 0.000000
# 3 -0.005124 -0.006610 0.016475 0.000000 0.000000 0.000000
# 4 0.000000 0.000000 0.000000 0.026542 0.000000 0.000000
# 5 0.000000 0.000000 0.000000 0.000000 0.033570 0.000000
# 6 0.000000 0.000000 0.000000 0.000000 0.000000 0.075097
#
#
# Mechanical properties :
#
#
# Convention : Reuss Voigt Hill
#
# Bulk Modulus (GPa) = 10.13070 15.24871 12.68971
# Shear Modulus (GPa) = 21.48887 28.46334 24.97611
#
# Velocity S-wave (km/s) = 3.37426 3.88343 3.63776
# Velocity P-wave (km/s) = 4.53305 5.30918 4.93639
#
# Compressibility (1/GPa) = 0.09870987
#
# Stress axis : x y z
#
# Youngs Moduli (GPa) = 30.11794 31.28904 60.69709
#
# Poissons Ratio (x) = -0.63422 0.31100
# Poissons Ratio (y) = -0.61048 0.40121
# Poissons Ratio (z) = 0.15432 0.20682
#
# Static dielectric constant tensor:
#      x y z
#    x 3.470730 0.000000 0.000000 
#    y 0.000000 3.592070 0.000000 
#    z 0.000000 0.000000 3.487330 
# 
# 
# High freq. dielectric constant tensor:
#      x y z
#    x 1.733430 0.000000 0.000000 
#    y 0.000000 1.736120 0.000000 
#    z 0.000000 0.000000 1.741650 
# 
# From -- ./inp_files/7011.got.cif
#   From: 2010.03.12/outbox.cif.g09.slc.cpg/sg49_4_cif.got.tgz:7011.got - 2010.04.14 03:58:27.
