data_PCOD8203251
_publ_section_title
;
Structure prediction by ZEFSAII (Michael W. Deem and Ramdas Pophale) SiO2 
 PCOD8203251
Probable space group: P C C M
;
_chemical_formula_sum "Si O2"
_cell_formula_units_Z 64
_cell_length_a 21.967344
_cell_length_b 8.902936
_cell_length_c 16.876864
_cell_angle_alpha 90.000000
_cell_angle_beta 90.000000
_cell_angle_gamma 90.000000
_cell_volume 3300.673399
_symmetry_space_group_name_H-M "P C C M"
_symmetry_group_IT_number 49
_symmetry_cell_setting 'orthorhombic'
loop_
_space_group_symop_operation_xyz
x,y,z
-x,-y,z
x,-y,1/2-z
-x,y,1/2-z
-x,-y,-z
x,y,-z
-x,y,1/2+z
x,-y,1/2+z
loop_
_atom_site_type_symbol
_atom_site_label
_atom_site_fract_x
_atom_site_fract_y
_atom_site_fract_z
Si Si1 0.654043 0.598707 0.175112
Si Si2 0.001671 0.330273 0.594187
Si Si3 0.632063 0.307626 0.090465
Si Si4 0.880073 0.821781 0.091179
Si Si5 0.754668 0.817879 0.163922
Si Si6 0.428843 0.170042 0.263809
Si Si7 0.249898 0.156180 0.349048
Si Si8 0.879202 0.172397 0.090519
O O1 0.677754 0.500000 0.250000
O O2 0.626525 0.484825 0.110370
O O3 0.708634 0.690418 0.132345
O O4 0.602980 0.716687 0.202735
O O5 0.002677 0.312234 0.500000
O O6 0.940543 0.253457 0.626884
O O7 0.000000 0.500000 0.622972
O O8 0.062692 0.254903 0.629722
O O9 0.586623 0.212443 0.145681
O O10 0.701390 0.253700 0.103366
O O11 0.612425 0.281423 0.000000
O O12 0.823305 0.766702 0.144316
O O13 0.891075 0.997280 0.099471
O O14 0.867837 0.775147 0.000000
O O15 0.739231 0.828540 0.256298
O O16 0.744116 0.981404 0.123895
O O17 0.500000 0.183575 0.250000
O O18 0.405475 0.000000 0.250000
O O19 0.182740 0.220270 0.366099
O O20 0.871880 0.221911 0.000000
#
# Coordination Sequence:
#
# PCOD8203251 Si02
#       8
#     8   8   8   8   8   8   8   8
#     4  10  20  36  57  84 120 159 191 227 286 356
#     4   9  17  30  46  67  95 133 179 230 292 351
#     4  11  23  38  60  93 128 158 199 246 290 342
#     4   9  18  31  49  72  99 134 183 239 285 340
#     4  10  19  34  56  81 110 151 194 233 288 358
#     4  10  21  42  69  92 118 165 206 238 287 348
#     4  10  19  34  57  83 113 147 193 237 291 348
#     4   9  17  30  49  72 100 137 179 231 291 343
#
# _framework density 19.389983000000001
#
# number of rings (size 3 to 8) (size 9 to 14) (size 15 to 20)
#    0.000    2.250    2.500    1.500    0.000    5.750 
#    0.000    6.250    0.000    3.750    0.000    0.000 
#    0.000    0.000    0.000    0.000    0.000    0.000 
#
# Total GULP energy -793553.128906 kJ/mol
# GULP energy per Si atom -12399.267639 kJ/mol
# Density = 1.934585 g / cm^3
# Si number density = 19.389983 Si / 1000 Ang^3
#
#
#
# Elastic Constant Matrix: (Units=GPa)
#
#
# Indices 1 2 3 4 5 6 
#
# 1 116.7570 62.5971 31.7680 0.0000 0.0000 0.0000
# 2 62.5971 112.3087 35.6128 0.0000 0.0000 0.0000
# 3 31.7680 35.6128 72.1518 0.0000 0.0000 0.0000
# 4 0.0000 0.0000 0.0000 16.9661 0.0000 0.0000
# 5 0.0000 0.0000 0.0000 0.0000 27.5463 0.0000
# 6 0.0000 0.0000 0.0000 0.0000 0.0000 19.7147
#
#
#
# Elastic Compliance Matrix: (Units=1/GPa)
#
#
# Indices 1 2 3 4 5 6 
#
# 1 0.012573 -0.006227 -0.002462 0.000000 0.000000 0.000000
# 2 -0.006227 0.013640 -0.003991 0.000000 0.000000 0.000000
# 3 -0.002462 -0.003991 0.016914 0.000000 0.000000 0.000000
# 4 0.000000 0.000000 0.000000 0.058941 0.000000 0.000000
# 5 0.000000 0.000000 0.000000 0.000000 0.036303 0.000000
# 6 0.000000 0.000000 0.000000 0.000000 0.000000 0.050724
#
#
# Mechanical properties :
#
#
# Convention : Reuss Voigt Hill
#
# Bulk Modulus (GPa) = 56.28534 62.35256 59.31895
# Shear Modulus (GPa) = 22.68836 24.26140 23.47488
#
# Velocity S-wave (km/s) = 3.42439 3.54112 3.48324
# Velocity P-wave (km/s) = 6.68778 6.99616 6.84371
#
# Compressibility (1/GPa) = 0.01776661
#
# Stress axis : x y z
#
# Youngs Moduli (GPa) = 79.53335 73.31212 59.12390
#
# Poissons Ratio (x) = 0.45653 0.14558
# Poissons Ratio (y) = 0.49527 0.23595
# Poissons Ratio (z) = 0.19584 0.29258
#
# Static dielectric constant tensor:
#      x y z
#    x 3.597130 0.000000 0.000000 
#    y 0.000000 3.743470 0.000000 
#    z 0.000000 0.000000 3.255220 
# 
# 
# High freq. dielectric constant tensor:
#      x y z
#    x 1.759290 0.000000 0.000000 
#    y 0.000000 1.759910 0.000000 
#    z 0.000000 0.000000 1.719510 
# 
# From -- ./inp_files/21209.got.cif
#   From: 2010.03.12/outbox.cif.g09.slc.cpg/sg49_11_cif.got.tgz:21209.got - 2010.04.14 03:58:27.
