data_PCOD8203267
_publ_section_title
;
Structure prediction by ZEFSAII (Michael W. Deem and Ramdas Pophale) SiO2 
 PCOD8203267
Probable space group: P C C M
;
_chemical_formula_sum "Si O2"
_cell_formula_units_Z 48
_cell_length_a 20.462199
_cell_length_b 14.420641
_cell_length_c 8.864683
_cell_angle_alpha 90.000000
_cell_angle_beta 90.000000
_cell_angle_gamma 90.000000
_cell_volume 2615.773159
_symmetry_space_group_name_H-M "P C C M"
_symmetry_group_IT_number 49
_symmetry_cell_setting 'orthorhombic'
loop_
_space_group_symop_operation_xyz
x,y,z
-x,-y,z
x,-y,1/2-z
-x,y,1/2-z
-x,-y,-z
x,y,-z
-x,y,1/2+z
x,-y,1/2+z
loop_
_atom_site_type_symbol
_atom_site_label
_atom_site_fract_x
_atom_site_fract_y
_atom_site_fract_z
Si Si1 0.934588 0.720656 0.678819
Si Si2 0.305489 0.709063 0.675795
Si Si3 0.810928 0.400196 0.822270
Si Si4 0.262359 0.092580 0.175518
Si Si5 0.112025 0.905030 0.678613
Si Si6 0.432758 0.402993 0.823247
O O1 0.940581 0.726215 0.500000
O O2 0.873204 0.659249 0.730355
O O3 0.928488 0.822804 0.747369
O O4 0.000000 0.675382 0.750000
O O5 0.287035 0.698997 0.500000
O O6 0.254961 0.648912 0.770004
O O7 0.302634 0.816588 0.726738
O O8 0.378135 0.673707 0.710310
O O9 0.817085 0.500000 0.750000
O O10 0.808389 0.411650 0.000000
O O11 0.187605 0.107992 0.225171
O O12 0.292237 0.000000 0.250000
O O13 0.267866 0.076055 0.000000
O O14 0.101755 0.905306 0.500000
O O15 0.085042 0.000000 0.750000
O O16 0.410713 0.500000 0.750000
O O17 0.500000 0.367051 0.750000
O O18 0.443164 0.418850 0.000000
#
# Coordination Sequence:
#
# PCOD8203267 Si02
#       6
#     8   8   8   8   8   8
#     4  11  24  40  57  79 106 141 183 225 275 330
#     4  10  20  36  58  84 113 146 182 224 272 320
#     4  11  24  39  58  82 108 139 180 227 273 326
#     4   9  18  32  53  81 111 142 176 219 269 319
#     4  10  19  34  57  81 110 142 175 222 274 327
#     4  10  20  34  54  80 114 149 185 223 267 321
#
# _framework density 18.350214999999999
#
# number of rings (size 3 to 8) (size 9 to 14) (size 15 to 20)
#    0.000    1.833    1.667    3.000    0.000    6.667 
#    0.000    3.333    0.000    0.500    0.000    3.500 
#    0.000    0.000    0.000    0.000    0.000    0.000 
#
# Total GULP energy -595352.617915 kJ/mol
# GULP energy per Si atom -12403.179540 kJ/mol
# Density = 1.830845 g / cm^3
# Si number density = 18.350215 Si / 1000 Ang^3
#
#
#
# Elastic Constant Matrix: (Units=GPa)
#
#
# Indices 1 2 3 4 5 6 
#
# 1 101.4809 57.9714 44.2351 0.0000 0.0000 0.0000
# 2 57.9714 125.6002 43.8500 0.0000 0.0000 0.0000
# 3 44.2351 43.8500 73.8923 0.0000 0.0000 0.0000
# 4 0.0000 0.0000 0.0000 31.0374 0.0000 0.0000
# 5 0.0000 0.0000 0.0000 0.0000 23.1366 0.0000
# 6 0.0000 0.0000 0.0000 0.0000 0.0000 22.4172
#
#
#
# Elastic Compliance Matrix: (Units=1/GPa)
#
#
# Indices 1 2 3 4 5 6 
#
# 1 0.015409 -0.004909 -0.006312 0.000000 0.000000 0.000000
# 2 -0.004909 0.011606 -0.003949 0.000000 0.000000 0.000000
# 3 -0.006312 -0.003949 0.019655 0.000000 0.000000 0.000000
# 4 0.000000 0.000000 0.000000 0.032219 0.000000 0.000000
# 5 0.000000 0.000000 0.000000 0.000000 0.043222 0.000000
# 6 0.000000 0.000000 0.000000 0.000000 0.000000 0.044609
#
#
# Mechanical properties :
#
#
# Convention : Reuss Voigt Hill
#
# Bulk Modulus (GPa) = 61.22972 65.89849 63.56410
# Shear Modulus (GPa) = 24.69104 25.64603 25.16853
#
# Velocity S-wave (km/s) = 3.67215 3.74249 3.70748
# Velocity P-wave (km/s) = 7.17072 7.39354 7.28299
#
# Compressibility (1/GPa) = 0.01633194
#
# Stress axis : x y z
#
# Youngs Moduli (GPa) = 64.89509 86.16204 50.87744
#
# Poissons Ratio (x) = 0.42295 0.32113
# Poissons Ratio (y) = 0.31855 0.20091
# Poissons Ratio (z) = 0.40960 0.34024
#
# Static dielectric constant tensor:
#      x y z
#    x 3.358890 0.000000 0.000000 
#    y 0.000000 3.614990 0.000000 
#    z 0.000000 0.000000 3.420430 
# 
# 
# High freq. dielectric constant tensor:
#      x y z
#    x 1.699890 0.000000 0.000000 
#    y 0.000000 1.715170 0.000000 
#    z 0.000000 0.000000 1.720260 
# 
# From -- ./inp_files/3702.got.cif
#   From: 2010.03.12/outbox.cif.g09.slc.cpg/sg49_2_cif.got.tgz:3702.got - 2010.04.14 03:58:27.
