data_PCOD8203238
_publ_section_title
;
Structure prediction by ZEFSAII (Michael W. Deem and Ramdas Pophale) SiO2 
 PCOD8203238
Probable space group: P C C M
;
_chemical_formula_sum "Si O2"
_cell_formula_units_Z 48
_cell_length_a 16.847854
_cell_length_b 8.612903
_cell_length_c 17.100991
_cell_angle_alpha 90.000000
_cell_angle_beta 90.000000
_cell_angle_gamma 90.000000
_cell_volume 2481.506545
_symmetry_space_group_name_H-M "P C C M"
_symmetry_group_IT_number 49
_symmetry_cell_setting 'orthorhombic'
loop_
_space_group_symop_operation_xyz
x,y,z
-x,-y,z
x,-y,1/2-z
-x,y,1/2-z
-x,-y,-z
x,y,-z
-x,y,1/2+z
x,-y,1/2+z
loop_
_atom_site_type_symbol
_atom_site_label
_atom_site_fract_x
_atom_site_fract_y
_atom_site_fract_z
Si Si1 0.342688 0.705709 0.408512
Si Si2 0.664902 0.352858 0.090505
Si Si3 0.090492 0.679523 0.235293
Si Si4 0.790023 0.102432 0.323150
Si Si5 0.829527 0.810098 0.590472
Si Si6 0.505266 0.315678 0.162518
O O1 0.325725 0.729391 0.500000
O O2 0.325172 0.529893 0.380138
O O3 0.285659 0.814248 0.358930
O O4 0.433576 0.753098 0.389530
O O5 0.742853 0.256626 0.110538
O O6 0.590972 0.264638 0.130200
O O7 0.645213 0.357389 0.000000
O O8 0.107016 0.500000 0.250000
O O9 0.144351 0.775164 0.295379
O O10 0.108210 0.718998 0.144656
O O11 0.000000 0.725786 0.250000
O O12 0.761067 0.000000 0.250000
O O13 0.829794 0.992630 0.389053
O O14 0.852799 0.784331 0.500000
O O15 0.500000 0.500000 0.159471
O O16 0.500000 0.250596 0.250000
#
# Coordination Sequence:
#
# PCOD8203238 Si02
#       6
#     8   8   8   8   8   8
#     4  10  19  34  55  80 110 146 192 239 283 329
#     4   9  18  33  55  81 109 147 191 239 282 324
#     4  10  22  42  65  89 115 147 186 236 286 338
#     4  10  22  36  57  84 114 151 187 228 280 343
#     4  10  21  38  60  86 120 155 191 230 283 343
#     4   9  18  29  49  80 110 144 190 239 283 326
#
# _framework density 19.343088000000002
#
# number of rings (size 3 to 8) (size 9 to 14) (size 15 to 20)
#    0.000    2.333    0.000    2.000    4.667    5.000 
#    0.000    5.833    0.000    3.000    0.000    0.000 
#    0.000    0.000    0.000    0.000    0.000    0.000 
#
# Total GULP energy -595243.932690 kJ/mol
# GULP energy per Si atom -12400.915264 kJ/mol
# Density = 1.929906 g / cm^3
# Si number density = 19.343088 Si / 1000 Ang^3
#
#
#
# Elastic Constant Matrix: (Units=GPa)
#
#
# Indices 1 2 3 4 5 6 
#
# 1 136.4340 59.8755 79.9969 0.0000 0.0000 0.0000
# 2 59.8755 87.1657 50.2642 0.0000 0.0000 0.0000
# 3 79.9969 50.2642 109.2794 0.0000 0.0000 0.0000
# 4 0.0000 0.0000 0.0000 23.7716 0.0000 0.0000
# 5 0.0000 0.0000 0.0000 0.0000 33.9777 0.0000
# 6 0.0000 0.0000 0.0000 0.0000 0.0000 -0.1760
#
#
#
# Elastic Compliance Matrix: (Units=1/GPa)
#
#
# Indices 1 2 3 4 5 6 
#
# 1 0.014377 -0.005181 -0.008141 0.000000 0.000000 0.000000
# 2 -0.005181 0.017481 -0.004248 0.000000 0.000000 0.000000
# 3 -0.008141 -0.004248 0.017065 0.000000 0.000000 0.000000
# 4 0.000000 0.000000 0.000000 0.042067 0.000000 0.000000
# 5 0.000000 0.000000 0.000000 0.000000 0.029431 0.000000
# 6 0.000000 0.000000 0.000000 0.000000 0.000000 -5.681455
#
#
# Mechanical properties :
#
#
# Convention : Reuss Voigt Hill
#
# Bulk Modulus (GPa) = 72.55925 79.23912 75.89918
# Shear Modulus (GPa) = -0.90558 21.03085 10.06263
#
# Velocity S-wave (km/s) = -0.68497 3.30093 2.28330
# Velocity P-wave (km/s) = 6.08010 7.45535 6.80256
#
# Compressibility (1/GPa) = 0.01378184
#
# Stress axis : x y z
#
# Youngs Moduli (GPa) = 69.55584 57.20566 58.60111
#
# Poissons Ratio (x) = 0.29638 0.47710
# Poissons Ratio (y) = 0.36037 0.24892
# Poissons Ratio (z) = 0.56629 0.24300
#
# Static dielectric constant tensor:
#      x y z
#    x 3.502010 0.000000 0.000000 
#    y 0.000000 3.533430 0.000000 
#    z 0.000000 0.000000 3.602410 
# 
# 
# High freq. dielectric constant tensor:
#      x y z
#    x 1.750330 0.000000 0.000000 
#    y 0.000000 1.741510 0.000000 
#    z 0.000000 0.000000 1.760050 
# 
# From -- ./inp_files/17684.got.cif
#   From: 2010.03.12/outbox.cif.g09.slc.cpg/sg49_9_cif.got.tgz:17684.got - 2010.04.14 03:58:27.
