data_PCOD8203922
_publ_section_title
;
Structure prediction by ZEFSAII (Michael W. Deem and Ramdas Pophale) SiO2 
 PCOD8203922
Probable space group: P C C M
;
_chemical_formula_sum "Si O2"
_cell_formula_units_Z 48
_cell_length_a 8.794875
_cell_length_b 15.701346
_cell_length_c 15.422576
_cell_angle_alpha 90.000000
_cell_angle_beta 90.000000
_cell_angle_gamma 90.000000
_cell_volume 2129.724732
_symmetry_space_group_name_H-M "P C C M"
_symmetry_group_IT_number 49
_symmetry_cell_setting 'orthorhombic'
loop_
_space_group_symop_operation_xyz
x,y,z
-x,-y,z
x,-y,1/2-z
-x,y,1/2-z
-x,-y,-z
x,y,-z
-x,y,1/2+z
x,-y,1/2+z
loop_
_atom_site_type_symbol
_atom_site_label
_atom_site_fract_x
_atom_site_fract_y
_atom_site_fract_z
Si Si1 0.412279 0.421241 0.401373
Si Si2 0.076704 0.586566 0.896738
Si Si3 0.898967 0.247666 0.397476
Si Si4 0.431050 0.916023 0.846087
Si Si5 0.438548 0.745512 0.346326
Si Si6 0.094817 0.916735 0.101265
O O1 0.500000 0.500000 0.355107
O O2 0.381076 0.448055 0.500000
O O3 0.247360 0.407220 0.357607
O O4 0.515071 0.337173 0.400461
O O5 0.000000 0.500000 0.861875
O O6 0.984116 0.668179 0.863289
O O7 0.078189 0.588712 0.000000
O O8 0.866386 0.250248 0.500000
O O9 0.741858 0.242262 0.345820
O O10 0.999539 0.166139 0.372209
O O11 0.500000 0.913166 0.750000
O O12 0.485802 0.828740 0.892035
O O13 0.249234 0.919319 0.843678
O O14 0.500000 0.000000 0.893882
O O15 0.500000 0.732005 0.250000
O O16 0.137773 0.915411 0.000000
O O17 0.000000 0.000000 0.126080
#
# Coordination Sequence:
#
# PCOD8203922 Si02
#       6
#     8   8   8   8   8   8
#     4  10  20  36  60  86 114 154 199 243 296 358
#     4   9  17  31  53  81 108 139 186 235 279 336
#     4  10  20  36  59  85 115 151 192 242 299 357
#     4  10  22  41  59  84 120 161 205 243 296 366
#     4  11  23  38  56  84 119 155 197 245 299 356
#     4  10  21  38  62  91 119 150 196 256 310 353
#
# _framework density 22.538125000000001
#
# number of rings (size 3 to 8) (size 9 to 14) (size 15 to 20)
#    0.000    2.000    0.000    3.500    0.000    6.000 
#    0.000   15.833    0.000    1.000    0.000    0.000 
#    0.000    0.000    0.000    0.000    0.000    0.000 
#
# Total GULP energy -595220.534341 kJ/mol
# GULP energy per Si atom -12400.427799 kJ/mol
# Density = 2.248683 g / cm^3
# Si number density = 22.538125 Si / 1000 Ang^3
#
#
#
# Elastic Constant Matrix: (Units=GPa)
#
#
# Indices 1 2 3 4 5 6 
#
# 1 233.1274 101.2697 35.1800 0.0000 0.0000 0.0000
# 2 101.2697 232.0348 7.5069 0.0000 0.0000 0.0000
# 3 35.1800 7.5069 35.0616 0.0000 0.0000 0.0000
# 4 0.0000 0.0000 0.0000 3.8049 0.0000 0.0000
# 5 0.0000 0.0000 0.0000 0.0000 33.4319 0.0000
# 6 0.0000 0.0000 0.0000 0.0000 0.0000 49.7758
#
#
#
# Elastic Compliance Matrix: (Units=1/GPa)
#
#
# Indices 1 2 3 4 5 6 
#
# 1 0.006262 -0.002547 -0.005738 0.000000 0.000000 0.000000
# 2 -0.002547 0.005376 0.001405 0.000000 0.000000 0.000000
# 3 -0.005738 0.001405 0.033977 0.000000 0.000000 0.000000
# 4 0.000000 0.000000 0.000000 0.262821 0.000000 0.000000
# 5 0.000000 0.000000 0.000000 0.000000 0.029912 0.000000
# 6 0.000000 0.000000 0.000000 0.000000 0.000000 0.020090
#
#
# Mechanical properties :
#
#
# Convention : Reuss Voigt Hill
#
# Bulk Modulus (GPa) = 31.39205 87.57079 59.48142
# Shear Modulus (GPa) = 13.06109 41.15366 27.10738
#
# Velocity S-wave (km/s) = 2.40991 4.27776 3.47181
# Velocity P-wave (km/s) = 4.65857 7.95851 6.52074
#
# Compressibility (1/GPa) = 0.03185520
#
# Stress axis : x y z
#
# Youngs Moduli (GPa) = 159.69639 186.01178 29.43130
#
# Poissons Ratio (x) = 0.47383 0.16887
# Poissons Ratio (y) = 0.40680 -0.04135
# Poissons Ratio (z) = 0.91628 -0.26133
#
# Static dielectric constant tensor:
#      x y z
#    x 4.151430 0.000000 0.000000 
#    y 0.000000 4.828880 0.000000 
#    z 0.000000 0.000000 3.434080 
# 
# 
# High freq. dielectric constant tensor:
#      x y z
#    x 1.902640 0.000000 0.000000 
#    y 0.000000 1.914280 0.000000 
#    z 0.000000 0.000000 1.843430 
# 
# From -- ./inp_files/16349.got.cif
#   From: 2010.03.12/outbox.cif.g09.slc.cpg/sg49_9_cif.got.tgz:16349.got - 2010.04.14 03:58:27.
