data_PCOD8203618
_publ_section_title
;
Structure prediction by ZEFSAII (Michael W. Deem and Ramdas Pophale) SiO2 
 PCOD8203618
Probable space group: P C C M
;
_chemical_formula_sum "Si O2"
_cell_formula_units_Z 40
_cell_length_a 13.637026
_cell_length_b 18.493735
_cell_length_c 8.700380
_cell_angle_alpha 90.000000
_cell_angle_beta 90.000000
_cell_angle_gamma 90.000000
_cell_volume 2194.231878
_symmetry_space_group_name_H-M "P C C M"
_symmetry_group_IT_number 49
_symmetry_cell_setting 'orthorhombic'
loop_
_space_group_symop_operation_xyz
x,y,z
-x,-y,z
x,-y,1/2-z
-x,y,1/2-z
-x,-y,-z
x,y,-z
-x,y,1/2+z
x,-y,1/2+z
loop_
_atom_site_type_symbol
_atom_site_label
_atom_site_fract_x
_atom_site_fract_y
_atom_site_fract_z
Si Si1 0.601561 0.208898 0.820243
Si Si2 0.104282 0.575622 0.680105
Si Si3 0.894810 0.852758 0.680863
Si Si4 0.792746 0.294942 0.176470
Si Si5 0.709494 0.924062 0.818072
O O1 0.500000 0.237407 0.750000
O O2 0.681407 0.271289 0.790118
O O3 0.631823 0.135411 0.736279
O O4 0.592120 0.192364 0.000000
O O5 0.141118 0.500000 0.750000
O O6 0.092120 0.566300 0.500000
O O7 0.183806 0.636962 0.716679
O O8 0.000000 0.598856 0.750000
O O9 0.893932 0.866699 0.500000
O O10 0.865603 0.770448 0.719440
O O11 0.818078 0.907104 0.757036
O O12 0.000000 0.870355 0.750000
O O13 0.807044 0.317738 0.000000
O O14 0.673898 0.000000 0.750000
O O15 0.710993 0.927292 0.000000
#
# Coordination Sequence:
#
# PCOD8203618 Si02
#       5
#     8   8   8   8   8
#     4  10  21  38  59  82 106 134 171 216 264 315
#     4  11  21  33  52  78 111 146 180 214 254 302
#     4  10  20  34  52  76 105 139 177 216 259 310
#     4   9  19  35  54  77 107 138 172 214 258 306
#     4  11  22  37  55  76 104 136 173 217 265 316
#
# _framework density 18.229613000000001
#
# number of rings (size 3 to 8) (size 9 to 14) (size 15 to 20)
#    0.000    1.800    0.000    7.200    0.000    7.200 
#    0.000    4.000    0.000    0.600    0.000    4.200 
#    0.000    0.000    0.000    0.000    0.000    0.000 
#
# Total GULP energy -496194.418782 kJ/mol
# GULP energy per Si atom -12404.860470 kJ/mol
# Density = 1.818812 g / cm^3
# Si number density = 18.229613 Si / 1000 Ang^3
#
#
#
# Elastic Constant Matrix: (Units=GPa)
#
#
# Indices 1 2 3 4 5 6 
#
# 1 91.5925 29.6251 38.3981 0.0000 0.0000 0.0000
# 2 29.6251 97.0458 51.7103 0.0000 0.0000 0.0000
# 3 38.3981 51.7103 142.9429 0.0000 0.0000 0.0000
# 4 0.0000 0.0000 0.0000 31.5511 0.0000 0.0000
# 5 0.0000 0.0000 0.0000 0.0000 33.4486 0.0000
# 6 0.0000 0.0000 0.0000 0.0000 0.0000 24.7981
#
#
#
# Elastic Compliance Matrix: (Units=1/GPa)
#
#
# Indices 1 2 3 4 5 6 
#
# 1 0.012801 -0.002571 -0.002509 0.000000 0.000000 0.000000
# 2 -0.002571 0.013281 -0.004114 0.000000 0.000000 0.000000
# 3 -0.002509 -0.004114 0.009158 0.000000 0.000000 0.000000
# 4 0.000000 0.000000 0.000000 0.031695 0.000000 0.000000
# 5 0.000000 0.000000 0.000000 0.000000 0.029897 0.000000
# 6 0.000000 0.000000 0.000000 0.000000 0.000000 0.040326
#
#
# Mechanical properties :
#
#
# Convention : Reuss Voigt Hill
#
# Bulk Modulus (GPa) = 59.33602 63.44982 61.39292
# Shear Modulus (GPa) = 31.02461 32.08276 31.55368
#
# Velocity S-wave (km/s) = 4.12986 4.19970 4.16493
# Velocity P-wave (km/s) = 7.44049 7.64186 7.54185
#
# Compressibility (1/GPa) = 0.01685317
#
# Stress axis : x y z
#
# Youngs Moduli (GPa) = 78.11753 75.29333 109.19514
#
# Poissons Ratio (x) = 0.19359 0.27393
# Poissons Ratio (y) = 0.20085 0.44922
# Poissons Ratio (z) = 0.19597 0.30975
#
# Static dielectric constant tensor:
#      x y z
#    x 3.245880 0.000000 0.000000 
#    y 0.000000 3.269770 0.000000 
#    z 0.000000 0.000000 3.442890 
# 
# 
# High freq. dielectric constant tensor:
#      x y z
#    x 1.698280 0.000000 0.000000 
#    y 0.000000 1.697800 0.000000 
#    z 0.000000 0.000000 1.723470 
# 
# From -- ./inp_files/2669.got.cif
#   From: 2010.03.12/outbox.cif.g09.slc.cpg/sg49_2_cif.got.tgz:2669.got - 2010.04.14 03:58:27.
