data_PCOD8203850
_publ_section_title
;
Structure prediction by ZEFSAII (Michael W. Deem and Ramdas Pophale) SiO2 
 PCOD8203850
Probable space group: P C C M
;
_chemical_formula_sum "Si O2"
_cell_formula_units_Z 56
_cell_length_a 10.221783
_cell_length_b 15.328883
_cell_length_c 18.431247
_cell_angle_alpha 90.000000
_cell_angle_beta 90.000000
_cell_angle_gamma 90.000000
_cell_volume 2887.964734
_symmetry_space_group_name_H-M "P C C M"
_symmetry_group_IT_number 49
_symmetry_cell_setting 'orthorhombic'
loop_
_space_group_symop_operation_xyz
x,y,z
-x,-y,z
x,-y,1/2-z
-x,y,1/2-z
-x,-y,-z
x,y,-z
-x,y,1/2+z
x,-y,1/2+z
loop_
_atom_site_type_symbol
_atom_site_label
_atom_site_fract_x
_atom_site_fract_y
_atom_site_fract_z
Si Si1 0.851569 0.017896 0.333666
Si Si2 0.374021 0.254356 0.297173
Si Si3 0.871845 0.544835 0.582340
Si Si4 0.127962 0.795165 0.702016
Si Si5 0.740476 0.137933 0.084061
Si Si6 0.029040 0.731624 0.919931
Si Si7 0.372569 0.542980 0.827261
O O1 0.820430 0.120444 0.342223
O O2 0.822751 0.000000 0.250000
O O3 0.755907 0.959953 0.384090
O O4 0.000000 0.000000 0.356860
O O5 0.500000 0.225725 0.250000
O O6 0.240594 0.246553 0.250823
O O7 0.364893 0.191304 0.367623
O O8 0.390463 0.353324 0.322830
O O9 0.856830 0.513317 0.500000
O O10 0.747200 0.511492 0.624726
O O11 0.000000 0.500000 0.616762
O O12 0.877069 0.648939 0.589698
O O13 0.085003 0.726514 0.640119
O O14 0.000000 0.820847 0.750000
O O15 0.882092 0.183138 0.090870
O O16 0.693725 0.134749 0.000000
O O17 0.964645 0.730673 0.000000
O O18 0.500000 0.500000 0.864009
O O19 0.350270 0.500000 0.750000
#
# Coordination Sequence:
#
# PCOD8203850 Si02
#       7
#     8   8   8   8   8   8   8
#     4  11  17  33  57  94 128 155 207 258 299 357
#     4  12  24  42  63  89 122 166 210 255 312 372
#     4  10  22  39  59  88 126 162 199 249 319 385
#     4  12  20  36  63  91 124 163 209 252 310 371
#     4  11  22  38  62  93 125 163 207 253 310 373
#     4  10  20  35  58  89 123 158 203 253 309 371
#     4  11  23  41  60  89 122 152 208 268 300 360
#
# _framework density 19.390820000000001
#
# number of rings (size 3 to 8) (size 9 to 14) (size 15 to 20)
#    0.000    1.000    8.571    0.000    2.000    1.429 
#    0.000    2.143    0.000    0.857    0.000    0.000 
#    0.000    0.000    0.000    0.000    0.000    0.000 
#
# Total GULP energy -694328.683097 kJ/mol
# GULP energy per Si atom -12398.726484 kJ/mol
# Density = 1.934669 g / cm^3
# Si number density = 19.390820 Si / 1000 Ang^3
#
#
#
# Elastic Constant Matrix: (Units=GPa)
#
#
# Indices 1 2 3 4 5 6 
#
# 1 119.5284 42.1214 62.9448 0.0000 0.0000 0.0000
# 2 42.1214 90.3336 34.6263 0.0000 0.0000 0.0000
# 3 62.9448 34.6263 117.2827 0.0000 0.0000 0.0000
# 4 0.0000 0.0000 0.0000 25.5376 0.0000 0.0000
# 5 0.0000 0.0000 0.0000 0.0000 37.4998 0.0000
# 6 0.0000 0.0000 0.0000 0.0000 0.0000 21.3576
#
#
#
# Elastic Compliance Matrix: (Units=1/GPa)
#
#
# Indices 1 2 3 4 5 6 
#
# 1 0.012685 -0.003727 -0.005708 0.000000 0.000000 0.000000
# 2 -0.003727 0.013578 -0.002008 0.000000 0.000000 0.000000
# 3 -0.005708 -0.002008 0.012183 0.000000 0.000000 0.000000
# 4 0.000000 0.000000 0.000000 0.039158 0.000000 0.000000
# 5 0.000000 0.000000 0.000000 0.000000 0.026667 0.000000
# 6 0.000000 0.000000 0.000000 0.000000 0.000000 0.046822
#
#
# Mechanical properties :
#
#
# Convention : Reuss Voigt Hill
#
# Bulk Modulus (GPa) = 64.27005 67.39220 65.83113
# Shear Modulus (GPa) = 27.90716 29.37581 28.64149
#
# Velocity S-wave (km/s) = 3.79779 3.89644 3.84743
# Velocity P-wave (km/s) = 7.24206 7.42113 7.33214
#
# Compressibility (1/GPa) = 0.01555935
#
# Stress axis : x y z
#
# Youngs Moduli (GPa) = 78.83054 73.64933 82.08372
#
# Poissons Ratio (x) = 0.27450 0.46852
# Poissons Ratio (y) = 0.29382 0.16485
# Poissons Ratio (z) = 0.44995 0.14791
#
# Static dielectric constant tensor:
#      x y z
#    x 3.400800 0.000000 0.000000 
#    y 0.000000 3.705550 0.000000 
#    z 0.000000 0.000000 3.631810 
# 
# 
# High freq. dielectric constant tensor:
#      x y z
#    x 1.722810 0.000000 0.000000 
#    y 0.000000 1.761840 0.000000 
#    z 0.000000 0.000000 1.754480 
# 
# From -- ./inp_files/19858.got.cif
#   From: 2010.03.12/outbox.cif.g09.slc.cpg/sg49_10_cif.got.tgz:19858.got - 2010.04.14 03:58:27.
