data_PCOD8203327
_publ_section_title
;
Structure prediction by ZEFSAII (Michael W. Deem and Ramdas Pophale) SiO2 
 PCOD8203327
Probable space group: P C C M
;
_chemical_formula_sum "Si O2"
_cell_formula_units_Z 48
_cell_length_a 14.490308
_cell_length_b 20.349894
_cell_length_c 8.905112
_cell_angle_alpha 90.000000
_cell_angle_beta 90.000000
_cell_angle_gamma 90.000000
_cell_volume 2625.905871
_symmetry_space_group_name_H-M "P C C M"
_symmetry_group_IT_number 49
_symmetry_cell_setting 'orthorhombic'
loop_
_space_group_symop_operation_xyz
x,y,z
-x,-y,z
x,-y,1/2-z
-x,y,1/2-z
-x,-y,-z
x,y,-z
-x,y,1/2+z
x,-y,1/2+z
loop_
_atom_site_type_symbol
_atom_site_label
_atom_site_fract_x
_atom_site_fract_y
_atom_site_fract_z
Si Si1 0.711909 0.179480 0.824352
Si Si2 0.908925 0.770966 0.675386
Si Si3 0.401485 0.308463 0.323651
Si Si4 0.092407 0.621661 0.177319
Si Si5 0.714126 0.567422 0.321930
Si Si6 0.596214 0.069571 0.678810
O O1 0.819655 0.186111 0.783388
O O2 0.661430 0.246742 0.779858
O O3 0.674772 0.121149 0.721234
O O4 0.697171 0.163321 0.000000
O O5 0.925337 0.770244 0.500000
O O6 0.894259 0.696540 0.733274
O O7 0.000000 0.802687 0.750000
O O8 0.500000 0.299685 0.250000
O O9 0.415193 0.312651 0.500000
O O10 0.351948 0.374288 0.263675
O O11 0.181271 0.581043 0.232590
O O12 0.000000 0.590895 0.250000
O O13 0.082960 0.618245 0.000000
O O14 0.678197 0.500000 0.250000
O O15 0.709658 0.562473 0.500000
O O16 0.500000 0.094292 0.750000
O O17 0.586393 0.063277 0.500000
O O18 0.624046 0.000000 0.750000
#
# Coordination Sequence:
#
# PCOD8203327 Si02
#       6
#     8   8   8   8   8   8
#     4  10  19  35  58  82 111 145 178 220 271 317
#     4   9  17  31  53  79 108 141 175 217 267 318
#     4  10  21  37  55  75 102 135 175 221 269 320
#     4   9  17  32  52  74 101 134 170 213 265 319
#     4  10  21  37  53  71 100 137 175 217 269 323
#     4  11  22  37  57  84 117 151 185 221 263 315
#
# _framework density 18.279406000000002
#
# number of rings (size 3 to 8) (size 9 to 14) (size 15 to 20)
#    0.000    2.167    1.667    2.500    0.000    4.667 
#    0.000    3.333    0.000    0.500    0.000    3.500 
#    0.000    0.000    0.000    0.000    0.000    0.000 
#
# Total GULP energy -595255.768661 kJ/mol
# GULP energy per Si atom -12401.161847 kJ/mol
# Density = 1.823780 g / cm^3
# Si number density = 18.279406 Si / 1000 Ang^3
#
#
#
# Elastic Constant Matrix: (Units=GPa)
#
#
# Indices 1 2 3 4 5 6 
#
# 1 128.0094 54.8408 46.2690 0.0000 0.0000 0.0000
# 2 54.8408 94.5191 40.7171 0.0000 0.0000 0.0000
# 3 46.2690 40.7171 59.3604 0.0000 0.0000 0.0000
# 4 0.0000 0.0000 0.0000 23.6035 0.0000 0.0000
# 5 0.0000 0.0000 0.0000 0.0000 31.5545 0.0000
# 6 0.0000 0.0000 0.0000 0.0000 0.0000 27.2776
#
#
#
# Elastic Compliance Matrix: (Units=1/GPa)
#
#
# Indices 1 2 3 4 5 6 
#
# 1 0.011915 -0.004134 -0.006452 0.000000 0.000000 0.000000
# 2 -0.004134 0.016452 -0.008062 0.000000 0.000000 0.000000
# 3 -0.006452 -0.008062 0.027405 0.000000 0.000000 0.000000
# 4 0.000000 0.000000 0.000000 0.042367 0.000000 0.000000
# 5 0.000000 0.000000 0.000000 0.000000 0.031691 0.000000
# 6 0.000000 0.000000 0.000000 0.000000 0.000000 0.036660
#
#
# Mechanical properties :
#
#
# Convention : Reuss Voigt Hill
#
# Bulk Modulus (GPa) = 54.12462 62.83808 58.48135
# Shear Modulus (GPa) = 23.81588 25.82459 24.82023
#
# Velocity S-wave (km/s) = 3.61346 3.76276 3.68887
# Velocity P-wave (km/s) = 6.86173 7.30266 7.08563
#
# Compressibility (1/GPa) = 0.01847588
#
# Stress axis : x y z
#
# Youngs Moduli (GPa) = 83.92882 60.78464 36.48932
#
# Poissons Ratio (x) = 0.25128 0.23541
# Poissons Ratio (y) = 0.34695 0.29419
# Poissons Ratio (z) = 0.54147 0.49007
#
# Static dielectric constant tensor:
#      x y z
#    x 3.466830 0.000000 0.000000 
#    y 0.000000 3.293050 0.000000 
#    z 0.000000 0.000000 3.209180 
# 
# 
# High freq. dielectric constant tensor:
#      x y z
#    x 1.714860 0.000000 0.000000 
#    y 0.000000 1.694880 0.000000 
#    z 0.000000 0.000000 1.698760 
# 
# From -- ./inp_files/3700.got.cif
#   From: 2010.03.12/outbox.cif.g09.slc.cpg/sg49_2_cif.got.tgz:3700.got - 2010.04.14 03:58:27.
