data_PCOD8203621
_publ_section_title
;
Structure prediction by ZEFSAII (Michael W. Deem and Ramdas Pophale) SiO2 
 PCOD8203621
Probable space group: P C C M
;
_chemical_formula_sum "Si O2"
_cell_formula_units_Z 48
_cell_length_a 28.963574
_cell_length_b 9.281186
_cell_length_c 9.685384
_cell_angle_alpha 90.000000
_cell_angle_beta 90.000000
_cell_angle_gamma 90.000000
_cell_volume 2603.589261
_symmetry_space_group_name_H-M "P C C M"
_symmetry_group_IT_number 49
_symmetry_cell_setting 'orthorhombic'
loop_
_space_group_symop_operation_xyz
x,y,z
-x,-y,z
x,-y,1/2-z
-x,y,1/2-z
-x,-y,-z
x,y,-z
-x,y,1/2+z
x,-y,1/2+z
loop_
_atom_site_type_symbol
_atom_site_label
_atom_site_fract_x
_atom_site_fract_y
_atom_site_fract_z
Si Si1 0.457868 0.647020 0.334262
Si Si2 0.046889 0.827400 0.500000
Si Si3 0.377895 0.867007 0.342860
Si Si4 0.803243 0.637856 0.158981
Si Si5 0.273408 0.866187 0.658477
Si Si6 0.062454 0.844599 0.000000
Si Si7 0.095870 0.672597 0.738724
O O1 0.450190 0.500000 0.250000
O O2 0.500000 0.724936 0.250000
O O3 0.468296 0.625900 0.500000
O O4 0.411280 0.734773 0.312746
O O5 0.059723 0.733408 0.631025
O O6 0.992262 0.837252 0.500000
O O7 0.072872 0.983192 0.500000
O O8 0.381995 0.919463 0.500000
O O9 0.325763 0.816444 0.308421
O O10 0.393460 0.000000 0.250000
O O11 0.795207 0.500000 0.250000
O O12 0.761283 0.740556 0.198164
O O13 0.852202 0.711334 0.192754
O O14 0.802202 0.591392 0.000000
O O15 0.267948 0.912137 0.500000
O O16 0.258755 0.000000 0.750000
O O17 0.085730 0.761071 0.124757
O O18 0.089286 0.500000 0.750000
#
# Coordination Sequence:
#
# PCOD8203621 Si02
#       7
#     8   4   8   8   8   4   8
#     4  10  20  34  52  77 107 144 185 232 279 332
#     4  11  23  43  59  87 123 145 193 233 284 335
#     4   9  19  35  55  78 110 144 183 229 276 329
#     4  10  22  39  59  83 114 146 181 228 275 326
#     4   9  19  37  57  83 112 144 184 228 275 329
#     4  11  25  39  63  87 115 157 185 237 282 337
#     4  11  23  40  61  87 116 152 191 234 282 337
#
# _framework density 18.436088000000002
#
# number of rings (size 3 to 8) (size 9 to 14) (size 15 to 20)
#    0.000    2.000    0.833    2.500    3.500    7.667 
#    0.000    1.667    0.000    0.000    0.000    0.000 
#    0.000    0.000    0.000    0.000    0.000    0.000 
#
# Total GULP energy -594979.416043 kJ/mol
# GULP energy per Si atom -12395.404501 kJ/mol
# Density = 1.839413 g / cm^3
# Si number density = 18.436088 Si / 1000 Ang^3
#
#
#
# Elastic Constant Matrix: (Units=GPa)
#
#
# Indices 1 2 3 4 5 6 
#
# 1 103.0765 59.0878 52.3855 0.0000 0.0000 0.0000
# 2 59.0878 91.4579 49.1651 0.0000 0.0000 0.0000
# 3 52.3855 49.1651 108.3972 0.0000 0.0000 0.0000
# 4 0.0000 0.0000 0.0000 33.2137 0.0000 0.0000
# 5 0.0000 0.0000 0.0000 0.0000 32.6803 0.0000
# 6 0.0000 0.0000 0.0000 0.0000 0.0000 -62.1226
#
#
#
# Elastic Compliance Matrix: (Units=1/GPa)
#
#
# Indices 1 2 3 4 5 6 
#
# 1 0.016747 -0.008555 -0.004213 0.000000 0.000000 0.000000
# 2 -0.008555 0.018829 -0.004406 0.000000 0.000000 0.000000
# 3 -0.004213 -0.004406 0.013260 0.000000 0.000000 0.000000
# 4 0.000000 0.000000 0.000000 0.030108 0.000000 0.000000
# 5 0.000000 0.000000 0.000000 0.000000 0.030599 0.000000
# 6 0.000000 0.000000 0.000000 0.000000 0.000000 -0.016097
#
#
# Mechanical properties :
#
#
# Convention : Reuss Voigt Hill
#
# Bulk Modulus (GPa) = 69.02167 69.35651 69.18909
# Shear Modulus (GPa) = 37.70079 10.24049 23.97064
#
# Velocity S-wave (km/s) = 4.52701 2.35937 3.60974
# Velocity P-wave (km/s) = 8.05262 6.71743 7.41514
#
# Compressibility (1/GPa) = 0.01448820
#
# Stress axis : x y z
#
# Youngs Moduli (GPa) = 59.71385 53.10848 75.41525
#
# Poissons Ratio (x) = 0.45432 0.31774
# Poissons Ratio (y) = 0.51082 0.33229
# Poissons Ratio (z) = 0.25158 0.23401
#
# Static dielectric constant tensor:
#      x y z
#    x 3.733050 0.000000 0.000000 
#    y 0.000000 3.472860 0.000000 
#    z 0.000000 0.000000 3.505370 
# 
# 
# High freq. dielectric constant tensor:
#      x y z
#    x 1.727600 0.000000 0.000000 
#    y 0.000000 1.708010 0.000000 
#    z 0.000000 0.000000 1.732060 
# 
# From -- ./inp_files/6928.got.cif
#   From: 2010.03.12/outbox.cif.g09.slc.cpg/sg49_4_cif.got.tgz:6928.got - 2010.04.14 03:58:27.
