data_PCOD8203923
_publ_section_title
;
Structure prediction by ZEFSAII (Michael W. Deem and Ramdas Pophale) SiO2 
 PCOD8203923
Probable space group: P C C M
;
_chemical_formula_sum "Si O2"
_cell_formula_units_Z 56
_cell_length_a 9.900126
_cell_length_b 16.069414
_cell_length_c 18.285739
_cell_angle_alpha 90.000000
_cell_angle_beta 90.000000
_cell_angle_gamma 90.000000
_cell_volume 2909.064016
_symmetry_space_group_name_H-M "P C C M"
_symmetry_group_IT_number 49
_symmetry_cell_setting 'orthorhombic'
loop_
_space_group_symop_operation_xyz
x,y,z
-x,-y,z
x,-y,1/2-z
-x,y,1/2-z
-x,-y,-z
x,y,-z
-x,y,1/2+z
x,-y,1/2+z
loop_
_atom_site_type_symbol
_atom_site_label
_atom_site_fract_x
_atom_site_fract_y
_atom_site_fract_z
Si Si1 0.004697 0.228469 0.168268
Si Si2 0.227985 0.354130 0.320741
Si Si3 0.521721 0.757700 0.334745
Si Si4 0.900890 0.928428 0.413433
Si Si5 0.844150 0.503383 0.084368
Si Si6 0.405961 0.923890 0.913728
Si Si7 0.254362 0.334464 0.845916
O O1 0.155735 0.255115 0.147185
O O2 0.000000 0.190274 0.250000
O O3 0.916161 0.312131 0.164362
O O4 0.953925 0.160703 0.111627
O O5 0.340627 0.291015 0.349228
O O6 0.239258 0.439119 0.365921
O O7 0.247880 0.374123 0.235206
O O8 0.500000 0.778733 0.250000
O O9 0.528299 0.843272 0.377950
O O10 0.401982 0.699843 0.365091
O O11 0.905488 0.930050 0.500000
O O12 0.747040 0.941441 0.385664
O O13 0.000000 0.000000 0.381474
O O14 0.783953 0.595052 0.095994
O O15 0.000000 0.500000 0.108329
O O16 0.827121 0.478066 0.000000
O O17 0.500000 0.000000 0.889653
O O18 0.406541 0.910349 0.000000
#
# Coordination Sequence:
#
# PCOD8203923 Si02
#       7
#     8   8   8   8   8   8   8
#     4  10  20  36  59  87 113 148 195 237 281 338
#     4  10  20  39  61  81 114 152 188 232 286 342
#     4  10  22  40  60  87 116 149 193 236 287 342
#     4  10  22  39  59  85 117 153 192 235 286 341
#     4  11  23  37  57  87 117 148 192 239 285 338
#     4  10  22  40  60  83 115 155 193 232 286 347
#     4  10  22  37  59  86 115 149 189 236 284 341
#
# _framework density 19.250177000000001
#
# number of rings (size 3 to 8) (size 9 to 14) (size 15 to 20)
#    0.000    1.857    2.857    0.429    2.000    4.000 
#    0.000    4.286    0.000    0.000    0.000    0.000 
#    0.000    0.000    0.000    0.000    0.000    0.000 
#
# Total GULP energy -694651.042710 kJ/mol
# GULP energy per Si atom -12404.482906 kJ/mol
# Density = 1.920636 g / cm^3
# Si number density = 19.250177 Si / 1000 Ang^3
#
#
#
# Elastic Constant Matrix: (Units=GPa)
#
#
# Indices 1 2 3 4 5 6 
#
# 1 88.5945 33.8763 31.6095 0.0000 0.0000 0.0000
# 2 33.8763 99.3232 38.6221 0.0000 0.0000 0.0000
# 3 31.6095 38.6221 37.7430 0.0000 0.0000 0.0000
# 4 0.0000 0.0000 0.0000 35.6525 0.0000 0.0000
# 5 0.0000 0.0000 0.0000 0.0000 23.2015 0.0000
# 6 0.0000 0.0000 0.0000 0.0000 0.0000 22.5219
#
#
#
# Elastic Compliance Matrix: (Units=1/GPa)
#
#
# Indices 1 2 3 4 5 6 
#
# 1 0.016108 -0.000412 -0.013068 0.000000 0.000000 0.000000
# 2 -0.000412 0.016733 -0.016777 0.000000 0.000000 0.000000
# 3 -0.013068 -0.016777 0.054607 0.000000 0.000000 0.000000
# 4 0.000000 0.000000 0.000000 0.028049 0.000000 0.000000
# 5 0.000000 0.000000 0.000000 0.000000 0.043101 0.000000
# 6 0.000000 0.000000 0.000000 0.000000 0.000000 0.044401
#
#
# Mechanical properties :
#
#
# Convention : Reuss Voigt Hill
#
# Bulk Modulus (GPa) = 37.12976 48.20849 42.66913
# Shear Modulus (GPa) = 18.34930 24.37869 21.36399
#
# Velocity S-wave (km/s) = 3.09075 3.56253 3.33499
# Velocity P-wave (km/s) = 5.66276 6.48226 6.08632
#
# Compressibility (1/GPa) = 0.02693257
#
# Stress axis : x y z
#
# Youngs Moduli (GPa) = 62.08264 59.76386 18.31261
#
# Poissons Ratio (x) = 0.02464 0.23931
# Poissons Ratio (y) = 0.02559 0.30723
# Poissons Ratio (z) = 0.81130 1.00266
#
# Static dielectric constant tensor:
#      x y z
#    x 3.750900 0.000000 0.000000 
#    y 0.000000 3.352760 0.000000 
#    z 0.000000 0.000000 3.356770 
# 
# 
# High freq. dielectric constant tensor:
#      x y z
#    x 1.760660 0.000000 0.000000 
#    y 0.000000 1.747800 0.000000 
#    z 0.000000 0.000000 1.736220 
# 
# From -- ./inp_files/19884.got.cif
#   From: 2010.03.12/outbox.cif.g09.slc.cpg/sg49_10_cif.got.tgz:19884.got - 2010.04.14 03:58:27.
