data_PCOD8203898
_publ_section_title
;
Structure prediction by ZEFSAII (Michael W. Deem and Ramdas Pophale) SiO2 
 PCOD8203898
Probable space group: P C C M
;
_chemical_formula_sum "Si O2"
_cell_formula_units_Z 48
_cell_length_a 30.681742
_cell_length_b 9.089867
_cell_length_c 8.649025
_cell_angle_alpha 90.000000
_cell_angle_beta 90.000000
_cell_angle_gamma 90.000000
_cell_volume 2412.152132
_symmetry_space_group_name_H-M "P C C M"
_symmetry_group_IT_number 49
_symmetry_cell_setting 'orthorhombic'
loop_
_space_group_symop_operation_xyz
x,y,z
-x,-y,z
x,-y,1/2-z
-x,y,1/2-z
-x,-y,-z
x,y,-z
-x,y,1/2+z
x,-y,1/2+z
loop_
_atom_site_type_symbol
_atom_site_label
_atom_site_fract_x
_atom_site_fract_y
_atom_site_fract_z
Si Si1 0.371722 0.659960 0.682155
Si Si2 0.207585 0.338823 0.683150
Si Si3 0.045759 0.655771 0.319576
Si Si4 0.545198 0.839377 0.816304
Si Si5 0.870608 0.838695 0.181487
Si Si6 0.712581 0.839030 0.183573
O O1 0.367756 0.500000 0.750000
O O2 0.372649 0.649010 0.500000
O O3 0.415880 0.735794 0.742798
O O4 0.330127 0.751719 0.738279
O O5 0.214939 0.500000 0.750000
O O6 0.208660 0.347158 0.500000
O O7 0.161704 0.274998 0.737934
O O8 0.245284 0.233720 0.742938
O O9 0.060924 0.500000 0.250000
O O10 0.039852 0.631694 0.500000
O O11 0.080897 0.781424 0.282148
O O12 0.000000 0.709610 0.250000
O O13 0.500000 0.774406 0.750000
O O14 0.554146 0.000000 0.750000
O O15 0.542631 0.848364 0.000000
O O16 0.864401 0.000000 0.250000
O O17 0.860634 0.842894 0.000000
O O18 0.707563 0.000000 0.250000
O O19 0.717683 0.842878 0.000000
#
# Coordination Sequence:
#
# PCOD8203898 Si02
#       6
#     8   8   8   8   8   8
#     4  10  23  39  58  84 116 152 193 237 287 343
#     4  12  25  42  64  90 120 155 194 241 291 347
#     4  10  21  37  60  87 117 153 196 242 293 348
#     4  10  20  36  57  84 113 148 191 236 286 342
#     4  11  24  41  61  88 120 158 199 243 293 348
#     4  11  23  41  63  89 119 154 194 239 290 346
#
# _framework density 19.899241
#
# number of rings (size 3 to 8) (size 9 to 14) (size 15 to 20)
#    0.000    1.333    0.000    6.500    0.000    8.667 
#    0.000    3.333    0.000    0.000    0.000    0.000 
#    0.000    0.000    0.000    0.000    0.000    0.000 
#
# Total GULP energy -595439.899227 kJ/mol
# GULP energy per Si atom -12404.997901 kJ/mol
# Density = 1.985395 g / cm^3
# Si number density = 19.899241 Si / 1000 Ang^3
#
#
#
# Elastic Constant Matrix: (Units=GPa)
#
#
# Indices 1 2 3 4 5 6 
#
# 1 128.1713 54.4432 51.6445 0.0000 0.0000 0.0000
# 2 54.4432 114.0068 38.7375 0.0000 0.0000 0.0000
# 3 51.6445 38.7375 107.8839 0.0000 0.0000 0.0000
# 4 0.0000 0.0000 0.0000 30.0707 0.0000 0.0000
# 5 0.0000 0.0000 0.0000 0.0000 31.0669 0.0000
# 6 0.0000 0.0000 0.0000 0.0000 0.0000 41.4945
#
#
#
# Elastic Compliance Matrix: (Units=1/GPa)
#
#
# Indices 1 2 3 4 5 6 
#
# 1 0.011041 -0.003960 -0.003863 0.000000 0.000000 0.000000
# 2 -0.003960 0.011410 -0.002202 0.000000 0.000000 0.000000
# 3 -0.003863 -0.002202 0.011909 0.000000 0.000000 0.000000
# 4 0.000000 0.000000 0.000000 0.033255 0.000000 0.000000
# 5 0.000000 0.000000 0.000000 0.000000 0.032189 0.000000
# 6 0.000000 0.000000 0.000000 0.000000 0.000000 0.024100
#
#
# Mechanical properties :
#
#
# Convention : Reuss Voigt Hill
#
# Bulk Modulus (GPa) = 69.87692 71.07915 70.47804
# Shear Modulus (GPa) = 33.61951 34.20887 33.91419
#
# Velocity S-wave (km/s) = 4.11480 4.15071 4.13279
# Velocity P-wave (km/s) = 7.60046 7.66604 7.63332
#
# Compressibility (1/GPa) = 0.01431088
#
# Stress axis : x y z
#
# Youngs Moduli (GPa) = 90.57373 87.63946 83.96881
#
# Poissons Ratio (x) = 0.34703 0.32441
# Poissons Ratio (y) = 0.35864 0.18486
# Poissons Ratio (z) = 0.34993 0.19294
#
# Static dielectric constant tensor:
#      x y z
#    x 4.026150 0.000000 0.000000 
#    y 0.000000 3.631500 0.000000 
#    z 0.000000 0.000000 3.732320 
# 
# 
# High freq. dielectric constant tensor:
#      x y z
#    x 1.796090 0.000000 0.000000 
#    y 0.000000 1.783020 0.000000 
#    z 0.000000 0.000000 1.789310 
# 
# From -- ./inp_files/2122.got.cif
#   From: 2010.03.12/outbox.cif.g09.slc.cpg/sg49_2_cif.got.tgz:2122.got - 2010.04.14 03:58:27.
