data_PCOD8203585
_publ_section_title
;
Structure prediction by ZEFSAII (Michael W. Deem and Ramdas Pophale) SiO2 
 PCOD8203585
Probable space group: P C C M
;
_chemical_formula_sum "Si O2"
_cell_formula_units_Z 64
_cell_length_a 20.728950
_cell_length_b 17.433129
_cell_length_c 9.122986
_cell_angle_alpha 90.000000
_cell_angle_beta 90.000000
_cell_angle_gamma 90.000000
_cell_volume 3296.777642
_symmetry_space_group_name_H-M "P C C M"
_symmetry_group_IT_number 49
_symmetry_cell_setting 'orthorhombic'
loop_
_space_group_symop_operation_xyz
x,y,z
-x,-y,z
x,-y,1/2-z
-x,y,1/2-z
-x,-y,-z
x,y,-z
-x,y,1/2+z
x,-y,1/2+z
loop_
_atom_site_type_symbol
_atom_site_label
_atom_site_fract_x
_atom_site_fract_y
_atom_site_fract_z
Si Si1 0.064643 0.626043 0.672963
Si Si2 0.438708 0.755240 0.333654
Si Si3 0.597127 0.073342 0.670883
Si Si4 0.275409 0.124961 0.325338
Si Si5 0.295048 0.279597 0.173485
Si Si6 0.059096 0.200980 0.834160
Si Si7 0.155236 0.068909 0.170089
Si Si8 0.793773 0.423679 0.672968
O O1 0.055550 0.616731 0.500000
O O2 0.073128 0.713851 0.724365
O O3 0.131867 0.588020 0.725377
O O4 0.000000 0.590733 0.750000
O O5 0.500000 0.719127 0.250000
O O6 0.448818 0.732063 0.500000
O O7 0.441837 0.847430 0.312705
O O8 0.370980 0.717331 0.280055
O O9 0.609506 0.054885 0.500000
O O10 0.662510 0.084932 0.758808
O O11 0.562141 0.000000 0.750000
O O12 0.279699 0.128352 0.500000
O O13 0.263425 0.209791 0.260805
O O14 0.218323 0.071630 0.270101
O O15 0.255062 0.355315 0.218340
O O16 0.289257 0.262434 0.000000
O O17 0.121583 0.150330 0.812064
O O18 0.000000 0.162014 0.750000
O O19 0.036868 0.205445 0.000000
O O20 0.114992 0.000000 0.250000
O O21 0.169029 0.050916 0.000000
O O22 0.767046 0.500000 0.750000
O O23 0.791815 0.434271 0.500000
#
# Coordination Sequence:
#
# PCOD8203585 Si02
#       8
#     8   8   8   8   8   8   8   8
#     4   9  18  34  55  79 106 141 177 214 257 308
#     4   9  19  34  54  78 105 139 180 224 272 321
#     4  10  20  34  50  72 105 144 180 219 268 319
#     4  11  21  33  52  77 101 131 174 222 265 314
#     4   9  19  38  59  79 107 144 178 216 266 320
#     4   9  19  35  54  71  92 126 169 214 263 314
#     4  11  22  35  49  68  97 133 172 219 273 325
#     4  10  21  37  58  83 114 145 177 214 259 311
#
# _framework density 19.412894999999999
#
# number of rings (size 3 to 8) (size 9 to 14) (size 15 to 20)
#    0.000    2.250    0.000    3.750    0.000    7.250 
#    0.000    6.250    0.000    0.375    0.000    2.625 
#    0.000    0.000    0.000    0.000    0.000    0.000 
#
# Total GULP energy -793165.406394 kJ/mol
# GULP energy per Si atom -12393.209475 kJ/mol
# Density = 1.936871 g / cm^3
# Si number density = 19.412895 Si / 1000 Ang^3
#
#
#
# Elastic Constant Matrix: (Units=GPa)
#
#
# Indices 1 2 3 4 5 6 
#
# 1 90.9458 35.9936 41.2411 0.0000 0.0000 0.0000
# 2 35.9936 85.3512 36.0173 0.0000 0.0000 0.0000
# 3 41.2411 36.0173 79.7426 0.0000 0.0000 0.0000
# 4 0.0000 0.0000 0.0000 87.2654 0.0000 0.0000
# 5 0.0000 0.0000 0.0000 0.0000 30.4755 0.0000
# 6 0.0000 0.0000 0.0000 0.0000 0.0000 7.6167
#
#
#
# Elastic Compliance Matrix: (Units=1/GPa)
#
#
# Indices 1 2 3 4 5 6 
#
# 1 0.015325 -0.003853 -0.006186 0.000000 0.000000 0.000000
# 2 -0.003853 0.015444 -0.004983 0.000000 0.000000 0.000000
# 3 -0.006186 -0.004983 0.017990 0.000000 0.000000 0.000000
# 4 0.000000 0.000000 0.000000 0.011459 0.000000 0.000000
# 5 0.000000 0.000000 0.000000 0.000000 0.032813 0.000000
# 6 0.000000 0.000000 0.000000 0.000000 0.000000 0.131291
#
#
# Mechanical properties :
#
#
# Convention : Reuss Voigt Hill
#
# Bulk Modulus (GPa) = 53.42882 53.61596 53.52239
# Shear Modulus (GPa) = 19.18618 34.59069 26.88843
#
# Velocity S-wave (km/s) = 3.14717 4.22577 3.72571
# Velocity P-wave (km/s) = 6.38657 7.17552 6.79251
#
# Compressibility (1/GPa) = 0.01871649
#
# Stress axis : x y z
#
# Youngs Moduli (GPa) = 65.25122 64.75117 55.58567
#
# Poissons Ratio (x) = 0.24945 0.34385
# Poissons Ratio (y) = 0.25138 0.27698
# Poissons Ratio (z) = 0.40364 0.32266
#
# Static dielectric constant tensor:
#      x y z
#    x 3.560420 0.000000 0.000000 
#    y 0.000000 3.537260 0.000000 
#    z 0.000000 0.000000 3.667750 
# 
# 
# High freq. dielectric constant tensor:
#      x y z
#    x 1.752380 0.000000 0.000000 
#    y 0.000000 1.742510 0.000000 
#    z 0.000000 0.000000 1.753010 
# 
# From -- ./inp_files/5970.got.cif
#   From: 2010.03.12/outbox.cif.g09.slc.cpg/sg49_3_cif.got.tgz:5970.got - 2010.04.14 03:58:27.
