data_PCOD8203437
_publ_section_title
;
Structure prediction by ZEFSAII (Michael W. Deem and Ramdas Pophale) SiO2 
 PCOD8203437
Probable space group: P C C M
;
_chemical_formula_sum "Si O2"
_cell_formula_units_Z 52
_cell_length_a 9.458788
_cell_length_b 11.560641
_cell_length_c 23.730628
_cell_angle_alpha 90.000000
_cell_angle_beta 90.000000
_cell_angle_gamma 90.000000
_cell_volume 2594.935922
_symmetry_space_group_name_H-M "P C C M"
_symmetry_group_IT_number 49
_symmetry_cell_setting 'orthorhombic'
loop_
_space_group_symop_operation_xyz
x,y,z
-x,-y,z
x,-y,1/2-z
-x,y,1/2-z
-x,-y,-z
x,y,-z
-x,y,1/2+z
x,-y,1/2+z
loop_
_atom_site_type_symbol
_atom_site_label
_atom_site_fract_x
_atom_site_fract_y
_atom_site_fract_z
Si Si1 0.276671 0.627200 0.000000
Si Si2 0.597309 0.902626 0.399828
Si Si3 0.102294 0.716114 0.615493
Si Si4 0.148265 0.946254 0.435826
Si Si5 0.815643 0.633193 0.000000
Si Si6 0.167091 0.486373 0.185686
Si Si7 0.464182 0.769258 0.500000
Si Si8 0.785981 0.295095 0.121310
O O1 0.444213 0.652183 0.000000
O O2 0.211649 0.690744 0.945903
O O3 0.254676 0.491766 0.000000
O O4 0.491811 0.846969 0.445171
O O5 0.668812 0.802467 0.360585
O O6 0.500000 0.000000 0.367535
O O7 0.729420 0.960053 0.431418
O O8 0.179992 0.837931 0.605485
O O9 0.089642 0.645423 0.556243
O O10 0.197638 0.641361 0.659765
O O11 0.944711 0.740127 0.639681
O O12 0.135797 0.901684 0.500000
O O13 0.000000 0.000000 0.416462
O O14 0.697833 0.733038 0.000000
O O15 0.215033 0.500000 0.250000
O O16 0.253661 0.583834 0.151432
O O17 0.000000 0.500000 0.177524
#
# Coordination Sequence:
#
# PCOD8203437 Si02
#       8
#     4   8   8   8   4   8   4   8
#     4  10  20  31  49  76 117 151 176 226 282 341
#     4  11  21  35  51  75 115 158 192 220 270 338
#     4  11  20  31  54  83 118 147 185 230 283 343
#     4  11  21  32  51  81 118 155 189 226 272 335
#     4  12  20  31  48  82 115 154 184 233 286 345
#     4   9  19  36  58  83 111 145 185 238 298 343
#     4  10  22  34  47  72 115 160 193 223 272 337
#     4  10  20  34  52  84 114 148 184 232 284 343
#
# _framework density 20.039031999999999
#
# number of rings (size 3 to 8) (size 9 to 14) (size 15 to 20)
#    0.000    1.538    4.615    1.846    0.000    0.615 
#    0.000    0.000    0.000    0.923    0.000   22.615 
#    0.000    0.000    0.000    0.000    0.000    0.000 
#
# Total GULP energy -644483.368255 kJ/mol
# GULP energy per Si atom -12393.910928 kJ/mol
# Density = 1.999342 g / cm^3
# Si number density = 20.039032 Si / 1000 Ang^3
#
#
#
# Elastic Constant Matrix: (Units=GPa)
#
#
# Indices 1 2 3 4 5 6 
#
# 1 76.2661 37.4480 1.2904 0.0000 0.0000 0.0000
# 2 37.4480 140.9481 33.2830 0.0000 0.0000 0.0000
# 3 1.2904 33.2830 70.4776 0.0000 0.0000 0.0000
# 4 0.0000 0.0000 0.0000 16.0229 0.0000 0.0000
# 5 0.0000 0.0000 0.0000 0.0000 8.7337 0.0000
# 6 0.0000 0.0000 0.0000 0.0000 0.0000 39.4288
#
#
#
# Elastic Compliance Matrix: (Units=1/GPa)
#
#
# Indices 1 2 3 4 5 6 
#
# 1 0.015289 -0.004498 0.001844 0.000000 0.000000 0.000000
# 2 -0.004498 0.009308 -0.004314 0.000000 0.000000 0.000000
# 3 0.001844 -0.004314 0.016192 0.000000 0.000000 0.000000
# 4 0.000000 0.000000 0.000000 0.062411 0.000000 0.000000
# 5 0.000000 0.000000 0.000000 0.000000 0.114499 0.000000
# 6 0.000000 0.000000 0.000000 0.000000 0.000000 0.025362
#
#
# Mechanical properties :
#
#
# Convention : Reuss Voigt Hill
#
# Bulk Modulus (GPa) = 37.23615 47.97051 42.60333
# Shear Modulus (GPa) = 18.80072 27.21512 23.00792
#
# Velocity S-wave (km/s) = 3.06634 3.68925 3.39212
# Velocity P-wave (km/s) = 5.58200 6.49137 6.05378
#
# Compressibility (1/GPa) = 0.02685562
#
# Stress axis : x y z
#
# Youngs Moduli (GPa) = 65.40578 107.43065 61.75813
#
# Poissons Ratio (x) = 0.48318 -0.11388
# Poissons Ratio (y) = 0.29417 0.26639
# Poissons Ratio (z) = -0.12061 0.46340
#
# Static dielectric constant tensor:
#      x y z
#    x 3.551070 0.000000 0.000000 
#    y 0.000000 4.000670 0.000000 
#    z 0.000000 0.000000 3.170510 
# 
# 
# High freq. dielectric constant tensor:
#      x y z
#    x 1.770070 0.000000 0.000000 
#    y 0.000000 1.805330 0.000000 
#    z 0.000000 0.000000 1.713490 
# 
# From -- ./inp_files/24539.got.cif
#   From: 2010.03.12/outbox.cif.g09.slc.cpg/sg49_13_cif.got.tgz:24539.got - 2010.04.14 03:58:27.
