data_PCOD8203292
_publ_section_title
;
Structure prediction by ZEFSAII (Michael W. Deem and Ramdas Pophale) SiO2 
 PCOD8203292
Probable space group: P C C M
;
_chemical_formula_sum "Si O2"
_cell_formula_units_Z 48
_cell_length_a 8.661304
_cell_length_b 10.278097
_cell_length_c 23.455616
_cell_angle_alpha 90.000000
_cell_angle_beta 90.000000
_cell_angle_gamma 90.000000
_cell_volume 2088.059342
_symmetry_space_group_name_H-M "P C C M"
_symmetry_group_IT_number 49
_symmetry_cell_setting 'orthorhombic'
loop_
_space_group_symop_operation_xyz
x,y,z
-x,-y,z
x,-y,1/2-z
-x,y,1/2-z
-x,-y,-z
x,y,-z
-x,y,1/2+z
x,-y,1/2+z
loop_
_atom_site_type_symbol
_atom_site_label
_atom_site_fract_x
_atom_site_fract_y
_atom_site_fract_z
Si Si1 0.891572 0.222592 0.064699
Si Si2 0.368343 0.740892 0.202687
Si Si3 0.829595 0.458225 0.857460
Si Si4 0.225453 0.318233 0.938399
Si Si5 0.420095 0.127212 0.884538
Si Si6 0.170621 0.961039 0.166525
O O1 0.834806 0.359077 0.090017
O O2 0.837908 0.103298 0.103649
O O3 0.075379 0.228927 0.066861
O O4 0.830262 0.203938 0.000000
O O5 0.500000 0.722787 0.250000
O O6 0.274646 0.604429 0.193245
O O7 0.453615 0.783270 0.145615
O O8 0.242752 0.858145 0.213085
O O9 0.751562 0.585637 0.884811
O O10 0.000000 0.500000 0.834496
O O11 0.362177 0.213844 0.936629
O O12 0.228048 0.390746 0.000000
O O13 0.500000 0.000000 0.910299
O O14 0.283573 0.085998 0.839789
O O15 0.000000 0.000000 0.188378
#
# Coordination Sequence:
#
# PCOD8203292 Si02
#       6
#     8   8   8   8   8   8
#     4   9  17  31  59  96 131 173 217 262 312 369
#     4  10  23  44  67  91 125 170 211 275 350 390
#     4   9  19  38  66  96 127 164 219 276 315 381
#     4  10  19  34  60  92 130 174 216 256 315 390
#     4  10  22  38  57  89 135 170 209 267 326 383
#     4  10  19  36  64  95 131 171 218 269 306 381
#
# _framework density 22.987853000000001
#
# number of rings (size 3 to 8) (size 9 to 14) (size 15 to 20)
#    0.000    2.333    1.667    0.500    0.000    7.000 
#    0.000   11.667    0.000    3.000    0.000    0.000 
#    0.000    0.000    0.000    0.000    0.000    0.000 
#
# Total GULP energy -594741.958651 kJ/mol
# GULP energy per Si atom -12390.457472 kJ/mol
# Density = 2.293553 g / cm^3
# Si number density = 22.987853 Si / 1000 Ang^3
#
#
#
# Elastic Constant Matrix: (Units=GPa)
#
#
# Indices 1 2 3 4 5 6 
#
# 1 141.4090 58.3633 37.1690 0.0000 0.0000 0.0000
# 2 58.3633 88.4843 26.2291 0.0000 0.0000 0.0000
# 3 37.1690 26.2291 69.6526 0.0000 0.0000 0.0000
# 4 0.0000 0.0000 0.0000 12.6321 0.0000 0.0000
# 5 0.0000 0.0000 0.0000 0.0000 24.9062 0.0000
# 6 0.0000 0.0000 0.0000 0.0000 0.0000 50.8834
#
#
#
# Elastic Compliance Matrix: (Units=1/GPa)
#
#
# Indices 1 2 3 4 5 6 
#
# 1 0.010359 -0.005847 -0.003326 0.000000 0.000000 0.000000
# 2 -0.005847 0.016021 -0.002913 0.000000 0.000000 0.000000
# 3 -0.003326 -0.002913 0.017229 0.000000 0.000000 0.000000
# 4 0.000000 0.000000 0.000000 0.079164 0.000000 0.000000
# 5 0.000000 0.000000 0.000000 0.000000 0.040151 0.000000
# 6 0.000000 0.000000 0.000000 0.000000 0.000000 0.019653
#
#
# Mechanical properties :
#
#
# Convention : Reuss Voigt Hill
#
# Bulk Modulus (GPa) = 51.44784 60.34098 55.89441
# Shear Modulus (GPa) = 23.44906 29.53662 26.49284
#
# Velocity S-wave (km/s) = 3.19731 3.58841 3.39849
# Velocity P-wave (km/s) = 6.00495 6.59356 6.30612
#
# Compressibility (1/GPa) = 0.01943716
#
# Stress axis : x y z
#
# Youngs Moduli (GPa) = 96.53349 62.41634 58.04169
#
# Poissons Ratio (x) = 0.36493 0.19306
# Poissons Ratio (y) = 0.56441 0.16909
# Poissons Ratio (z) = 0.32109 0.18183
#
# Static dielectric constant tensor:
#      x y z
#    x 4.509040 0.000000 0.000000 
#    y 0.000000 4.248950 0.000000 
#    z 0.000000 0.000000 3.755340 
# 
# 
# High freq. dielectric constant tensor:
#      x y z
#    x 1.919270 0.000000 0.000000 
#    y 0.000000 1.905640 0.000000 
#    z 0.000000 0.000000 1.872810 
# 
# From -- ./inp_files/22405.got.cif
#   From: 2010.03.12/outbox.cif.g09.slc.cpg/sg49_12_cif.got.tgz:22405.got - 2010.04.14 03:58:27.
