data_PCOD8203930
_publ_section_title
;
Structure prediction by ZEFSAII (Michael W. Deem and Ramdas Pophale) SiO2 
 PCOD8203930
Probable space group: P C C M
;
_chemical_formula_sum "Si O2"
_cell_formula_units_Z 64
_cell_length_a 8.835217
_cell_length_b 24.184348
_cell_length_c 15.218287
_cell_angle_alpha 90.000000
_cell_angle_beta 90.000000
_cell_angle_gamma 90.000000
_cell_volume 3251.751687
_symmetry_space_group_name_H-M "P C C M"
_symmetry_group_IT_number 49
_symmetry_cell_setting 'orthorhombic'
loop_
_space_group_symop_operation_xyz
x,y,z
-x,-y,z
x,-y,1/2-z
-x,y,1/2-z
-x,-y,-z
x,y,-z
-x,y,1/2+z
x,-y,1/2+z
loop_
_atom_site_type_symbol
_atom_site_label
_atom_site_fract_x
_atom_site_fract_y
_atom_site_fract_z
Si Si1 0.326587 0.389182 0.097752
Si Si2 0.319545 0.186118 0.250000
Si Si3 0.821536 0.500000 0.349205
Si Si4 0.673412 0.610818 0.597752
Si Si5 0.178352 0.112853 0.397729
Si Si6 0.669619 0.000000 0.603893
Si Si7 0.821648 0.112854 0.397729
Si Si8 0.320471 0.688974 0.250000
O O1 0.235625 0.445920 0.101471
O O2 0.500000 0.402417 0.121814
O O3 0.259615 0.343574 0.164350
O O4 0.311448 0.364365 0.000000
O O5 0.500000 0.181897 0.250000
O O6 0.256381 0.159419 0.339045
O O7 0.256381 0.159419 0.160955
O O8 0.258029 0.248893 0.250001
O O9 0.758986 0.500000 0.250000
O O10 0.764373 0.554079 0.398530
O O11 0.000000 0.500000 0.351820
O O12 0.688552 0.635635 0.500000
O O13 0.740385 0.656425 0.664350
O O14 0.219159 0.123526 0.500000
O O15 1.000000 0.113573 0.382367
O O16 0.241077 0.054023 0.363990
O O17 0.662102 0.000000 0.500000
O O18 0.758922 0.054024 0.636010
O O19 0.500000 0.000000 0.643865
O O20 0.780841 0.123526 0.500000
O O21 0.500000 0.691639 0.250000
#
# Coordination Sequence:
#
# PCOD8203930 Si02
#       8
#     8   8   8   8   8   8   8   8
#     4  10  20  36  60  85 108 142 185 226 275 333
#     4  11  23  38  59  86 113 148 194 243 290 335
#     4  11  22  35  54  83 117 150 179 218 275 331
#     4  10  20  36  60  85 108 142 185 226 275 333
#     4  10  21  38  59  84 117 155 191 231 284 346
#     4   9  17  32  57  88 118 147 185 236 289 340
#     4  10  21  38  59  84 117 155 191 231 284 346
#     4   9  20  38  57  80 110 142 183 237 282 321
#
# _framework density 19.681698000000001
#
# number of rings (size 3 to 8) (size 9 to 14) (size 15 to 20)
#    0.000    2.000    1.250    2.250    0.000    7.000 
#    0.000    7.500    0.000    0.000    0.000    0.000 
#    0.000    0.000    0.000    0.000    0.000    0.000 
#
# Total GULP energy -793705.514327 kJ/mol
# GULP energy per Si atom -12401.648661 kJ/mol
# Density = 1.963690 g / cm^3
# Si number density = 19.681698 Si / 1000 Ang^3
#
#
#
# Elastic Constant Matrix: (Units=GPa)
#
#
# Indices 1 2 3 4 5 6 
#
# 1 85.2340 49.4126 41.1120 0.0000 0.0000 0.0000
# 2 49.4126 179.9184 74.6984 0.0000 0.0000 0.0000
# 3 41.1120 74.6984 126.1549 0.0000 0.0000 0.0000
# 4 0.0000 0.0000 0.0000 13.4574 0.0000 0.0000
# 5 0.0000 0.0000 0.0000 0.0000 26.6500 0.0000
# 6 0.0000 0.0000 0.0000 0.0000 0.0000 -6.5469
#
#
#
# Elastic Compliance Matrix: (Units=1/GPa)
#
#
# Indices 1 2 3 4 5 6 
#
# 1 0.014880 -0.002749 -0.003221 0.000000 0.000000 0.000000
# 2 -0.002749 0.007878 -0.003769 0.000000 0.000000 0.000000
# 3 -0.003221 -0.003769 0.011208 0.000000 0.000000 0.000000
# 4 0.000000 0.000000 0.000000 0.074309 0.000000 0.000000
# 5 0.000000 0.000000 0.000000 0.000000 0.037523 0.000000
# 6 0.000000 0.000000 0.000000 0.000000 0.000000 -0.152744
#
#
# Mechanical properties :
#
#
# Convention : Reuss Voigt Hill
#
# Bulk Modulus (GPa) = 69.02523 80.19481 74.61002
# Shear Modulus (GPa) = 287.99018 21.78438 154.88728
#
# Velocity S-wave (km/s) = 12.10956 3.33052 8.88071
# Velocity P-wave (km/s) = 15.18779 7.45816 11.96439
#
# Compressibility (1/GPa) = 0.01448746
#
# Stress axis : x y z
#
# Youngs Moduli (GPa) = 67.20444 126.93946 89.22182
#
# Poissons Ratio (x) = 0.34898 0.28741
# Poissons Ratio (y) = 0.18476 0.33624
# Poissons Ratio (z) = 0.21649 0.47839
#
# Static dielectric constant tensor:
#      x y z
#    x 3.489870 0.000000 0.000000 
#    y 0.000000 3.664190 0.000000 
#    z 0.000000 0.000000 3.683110 
# 
# 
# High freq. dielectric constant tensor:
#      x y z
#    x 1.757660 0.000000 0.000000 
#    y 0.000000 1.762840 0.000000 
#    z 0.000000 0.000000 1.776450 
# 
# From -- ./inp_files/12116.got.cif
#   From: 2010.03.12/outbox.cif.g09.slc.cpg/sg49_7_cif.got.tgz:12116.got - 2010.04.14 03:58:27.
