data_PCOD8203266
_publ_section_title
;
Structure prediction by ZEFSAII (Michael W. Deem and Ramdas Pophale) SiO2 
 PCOD8203266
Probable space group: P C C M
;
_chemical_formula_sum "Si O2"
_cell_formula_units_Z 64
_cell_length_a 13.335222
_cell_length_b 9.981240
_cell_length_c 25.833317
_cell_angle_alpha 90.000000
_cell_angle_beta 90.000000
_cell_angle_gamma 90.000000
_cell_volume 3438.467483
_symmetry_space_group_name_H-M "P C C M"
_symmetry_group_IT_number 49
_symmetry_cell_setting 'orthorhombic'
loop_
_space_group_symop_operation_xyz
x,y,z
-x,-y,z
x,-y,1/2-z
-x,y,1/2-z
-x,-y,-z
x,y,-z
-x,y,1/2+z
x,-y,1/2+z
loop_
_atom_site_type_symbol
_atom_site_label
_atom_site_fract_x
_atom_site_fract_y
_atom_site_fract_z
Si Si1 0.395853 0.212937 0.218957
Si Si2 0.787787 0.967726 0.940332
Si Si3 0.298397 0.738392 0.180192
Si Si4 0.854682 0.249639 0.098159
Si Si5 0.610949 0.006488 0.865847
Si Si6 0.068840 0.725783 0.440012
Si Si7 0.234064 0.486472 0.058629
Si Si8 0.611386 0.534140 0.144652
O O1 0.500000 0.215606 0.250000
O O2 0.303254 0.220633 0.259540
O O3 0.390256 0.338096 0.181195
O O4 0.384470 0.075510 0.187727
O O5 0.839471 0.108993 0.929955
O O6 0.687822 0.945438 0.907047
O O7 0.867676 0.855557 0.924286
O O8 0.757342 0.952928 0.000000
O O9 0.184555 0.750451 0.157937
O O10 0.366453 0.838386 0.145857
O O11 0.340688 0.588842 0.175876
O O12 0.787631 0.357295 0.067375
O O13 0.971963 0.283843 0.096745
O O14 0.500000 0.000000 0.890223
O O15 0.034597 0.732104 0.500000
O O16 0.132755 0.593583 0.428528
O O17 0.323950 0.432634 0.093961
O O18 0.267911 0.460302 0.000000
O O19 0.500000 0.500000 0.125898
#
# Coordination Sequence:
#
# PCOD8203266 Si02
#       8
#     8   8   8   8   8   8   8   8
#     4  12  21  35  58  79 107 141 183 235 269 323
#     4  10  21  35  54  82 114 146 183 226 273 333
#     4  10  22  34  53  82 111 136 181 237 281 322
#     4  10  20  35  55  82 110 142 184 231 279 326
#     4  11  21  35  54  82 111 145 184 224 277 332
#     4  10  19  34  57  81 108 149 192 230 273 327
#     4  10  21  35  54  82 114 146 183 226 273 333
#     4  11  21  35  54  82 111 145 184 224 277 332
#
# _framework density 18.612943000000001
#
# number of rings (size 3 to 8) (size 9 to 14) (size 15 to 20)
#    0.000    1.500    2.500    3.375    0.000    2.500 
#    0.000    0.000    0.000    9.000    0.000   14.000 
#    0.000    0.000    0.000    0.000    0.000    0.000 
#
# Total GULP energy -793768.114704 kJ/mol
# GULP energy per Si atom -12402.626792 kJ/mol
# Density = 1.857058 g / cm^3
# Si number density = 18.612943 Si / 1000 Ang^3
#
#
#
# Elastic Constant Matrix: (Units=GPa)
#
#
# Indices 1 2 3 4 5 6 
#
# 1 107.1823 6.7239 60.9158 0.0000 0.0000 0.0000
# 2 6.7239 74.5153 16.5814 0.0000 0.0000 0.0000
# 3 60.9158 16.5814 101.6553 0.0000 0.0000 0.0000
# 4 0.0000 0.0000 0.0000 26.4637 0.0000 0.0000
# 5 0.0000 0.0000 0.0000 0.0000 32.7444 0.0000
# 6 0.0000 0.0000 0.0000 0.0000 0.0000 24.9945
#
#
#
# Elastic Compliance Matrix: (Units=1/GPa)
#
#
# Indices 1 2 3 4 5 6 
#
# 1 0.014177 0.000634 -0.008599 0.000000 0.000000 0.000000
# 2 0.000634 0.013954 -0.002656 0.000000 0.000000 0.000000
# 3 -0.008599 -0.002656 0.015423 0.000000 0.000000 0.000000
# 4 0.000000 0.000000 0.000000 0.037788 0.000000 0.000000
# 5 0.000000 0.000000 0.000000 0.000000 0.030540 0.000000
# 6 0.000000 0.000000 0.000000 0.000000 0.000000 0.040009
#
#
# Mechanical properties :
#
#
# Convention : Reuss Voigt Hill
#
# Bulk Modulus (GPa) = 44.81779 50.19947 47.50863
# Shear Modulus (GPa) = 27.69013 30.11597 28.90305
#
# Velocity S-wave (km/s) = 3.86123 4.02682 3.94489
# Velocity P-wave (km/s) = 6.63400 6.97489 6.80658
#
# Compressibility (1/GPa) = 0.02231257
#
# Stress axis : x y z
#
# Youngs Moduli (GPa) = 70.53547 71.66461 64.83710
#
# Poissons Ratio (x) = -0.04545 0.55753
# Poissons Ratio (y) = -0.04473 0.17221
# Poissons Ratio (z) = 0.60654 0.19035
#
# Static dielectric constant tensor:
#      x y z
#    x 3.444190 0.000000 0.000000 
#    y 0.000000 3.624610 0.000000 
#    z 0.000000 0.000000 3.480880 
# 
# 
# High freq. dielectric constant tensor:
#      x y z
#    x 1.712740 0.000000 0.000000 
#    y 0.000000 1.746450 0.000000 
#    z 0.000000 0.000000 1.707110 
# 
# From -- ./inp_files/26686.got.cif
#   From: 2010.03.12/outbox.cif.g09.slc.cpg/sg49_14_cif.got.tgz:26686.got - 2010.04.14 03:58:27.
