data_PCOD8203056
_publ_section_title
;
Structure prediction by ZEFSAII (Michael W. Deem and Ramdas Pophale) SiO2 
 PCOD8203056
Probable space group: P C C M
;
_chemical_formula_sum "Si O2"
_cell_formula_units_Z 56
_cell_length_a 20.104667
_cell_length_b 15.333339
_cell_length_c 8.731451
_cell_angle_alpha 90.000000
_cell_angle_beta 90.000000
_cell_angle_gamma 90.000000
_cell_volume 2691.659021
_symmetry_space_group_name_H-M "P C C M"
_symmetry_group_IT_number 49
_symmetry_cell_setting 'orthorhombic'
loop_
_space_group_symop_operation_xyz
x,y,z
-x,-y,z
x,-y,1/2-z
-x,y,1/2-z
-x,-y,-z
x,y,-z
-x,y,1/2+z
x,-y,1/2+z
loop_
_atom_site_type_symbol
_atom_site_label
_atom_site_fract_x
_atom_site_fract_y
_atom_site_fract_z
Si Si1 0.249585 0.867552 0.325957
Si Si2 0.065574 0.268626 0.322145
Si Si3 0.899197 0.912258 0.824029
Si Si4 0.569380 0.732405 0.818302
Si Si5 0.334861 0.591749 0.176391
Si Si6 0.382222 0.910957 0.820011
Si Si7 0.789994 0.305353 0.175192
O O1 0.276285 0.874126 0.500000
O O2 0.180279 0.916761 0.305060
O O3 0.303154 0.909899 0.212393
O O4 0.240558 0.766174 0.287155
O O5 0.053423 0.265776 0.500000
O O6 0.071152 0.169988 0.263446
O O7 0.132626 0.323189 0.280059
O O8 0.000000 0.313924 0.250000
O O9 0.929126 0.000000 0.750000
O O10 0.920587 0.905654 0.000000
O O11 0.500000 0.698292 0.750000
O O12 0.627085 0.668822 0.761530
O O13 0.582401 0.830025 0.760856
O O14 0.566506 0.731240 0.000000
O O15 0.353619 0.500000 0.250000
O O16 0.255212 0.608308 0.192793
O O17 0.356813 0.590904 0.000000
O O18 0.412577 0.000000 0.750000
O O19 0.395735 0.906818 0.000000
O O20 0.787142 0.270252 0.000000
#
# Coordination Sequence:
#
# PCOD8203056 Si02
#       7
#     8   8   8   8   8   8   8
#     4  10  19  32  54  83 115 154 202 253 310 366
#     4  10  20  35  54  79 110 152 198 248 303 368
#     4  10  20  32  47  72 106 147 196 252 305 364
#     4  12  26  46  69  96 130 170 211 259 314 374
#     4  11  23  42  69 102 132 165 205 255 312 377
#     4  12  24  39  60  89 125 168 216 264 312 367
#     4   9  19  36  60  86 120 159 200 248 307 366
#
# _framework density 20.805012999999999
#
# number of rings (size 3 to 8) (size 9 to 14) (size 15 to 20)
#    0.000    1.429    1.429    4.714    0.000    4.857 
#    0.000    4.286    0.000    0.429    0.000    3.000 
#    0.000    0.000    0.000    0.000    0.000    0.000 
#
# Total GULP energy -694457.481239 kJ/mol
# GULP energy per Si atom -12401.026451 kJ/mol
# Density = 2.075766 g / cm^3
# Si number density = 20.805013 Si / 1000 Ang^3
#
#
#
# Elastic Constant Matrix: (Units=GPa)
#
#
# Indices 1 2 3 4 5 6 
#
# 1 110.4284 30.6020 45.3216 0.0000 0.0000 0.0000
# 2 30.6020 87.2706 43.3118 0.0000 0.0000 0.0000
# 3 45.3216 43.3118 143.0283 0.0000 0.0000 0.0000
# 4 0.0000 0.0000 0.0000 26.1687 0.0000 0.0000
# 5 0.0000 0.0000 0.0000 0.0000 33.3390 0.0000
# 6 0.0000 0.0000 0.0000 0.0000 0.0000 7.4494
#
#
#
# Elastic Compliance Matrix: (Units=1/GPa)
#
#
# Indices 1 2 3 4 5 6 
#
# 1 0.010843 -0.002468 -0.002689 0.000000 0.000000 0.000000
# 2 -0.002468 0.014047 -0.003472 0.000000 0.000000 0.000000
# 3 -0.002689 -0.003472 0.008895 0.000000 0.000000 0.000000
# 4 0.000000 0.000000 0.000000 0.038214 0.000000 0.000000
# 5 0.000000 0.000000 0.000000 0.000000 0.029995 0.000000
# 6 0.000000 0.000000 0.000000 0.000000 0.000000 0.134238
#
#
# Mechanical properties :
#
#
# Convention : Reuss Voigt Hill
#
# Bulk Modulus (GPa) = 60.50118 64.35534 62.42826
# Shear Modulus (GPa) = 19.30524 28.15755 23.73140
#
# Velocity S-wave (km/s) = 3.04947 3.68285 3.38103
# Velocity P-wave (km/s) = 6.44533 7.00602 6.73151
#
# Compressibility (1/GPa) = 0.01652860
#
# Stress axis : x y z
#
# Youngs Moduli (GPa) = 92.22584 71.18980 112.42484
#
# Poissons Ratio (x) = 0.17569 0.30225
# Poissons Ratio (y) = 0.22760 0.39031
# Poissons Ratio (z) = 0.24795 0.24715
#
# Static dielectric constant tensor:
#      x y z
#    x 4.071540 0.000000 0.000000 
#    y 0.000000 3.440250 0.000000 
#    z 0.000000 0.000000 3.851910 
# 
# 
# High freq. dielectric constant tensor:
#      x y z
#    x 1.824040 0.000000 0.000000 
#    y 0.000000 1.781500 0.000000 
#    z 0.000000 0.000000 1.826980 
# 
# From -- ./inp_files/5789.got.cif
#   From: 2010.03.12/outbox.cif.g09.slc.cpg/sg49_3_cif.got.tgz:5789.got - 2010.04.14 03:58:27.
