data_PCOD8203635
_publ_section_title
;
Structure prediction by ZEFSAII (Michael W. Deem and Ramdas Pophale) SiO2 
 PCOD8203635
Probable space group: P C C M
;
_chemical_formula_sum "Si O2"
_cell_formula_units_Z 64
_cell_length_a 23.414343
_cell_length_b 15.294709
_cell_length_c 8.981122
_cell_angle_alpha 90.000000
_cell_angle_beta 90.000000
_cell_angle_gamma 90.000000
_cell_volume 3216.279558
_symmetry_space_group_name_H-M "P C C M"
_symmetry_group_IT_number 49
_symmetry_cell_setting 'orthorhombic'
loop_
_space_group_symop_operation_xyz
x,y,z
-x,-y,z
x,-y,1/2-z
-x,y,1/2-z
-x,-y,-z
x,y,-z
-x,y,1/2+z
x,-y,1/2+z
loop_
_atom_site_type_symbol
_atom_site_label
_atom_site_fract_x
_atom_site_fract_y
_atom_site_fract_z
Si Si1 0.555176 0.093517 0.675669
Si Si2 0.798940 0.911273 0.827999
Si Si3 0.657619 0.332466 0.833994
Si Si4 0.556350 0.407570 0.675339
Si Si5 0.771395 0.585280 0.333595
Si Si6 0.679411 0.831999 0.171745
Si Si7 0.939462 0.589888 0.176463
Si Si8 0.158493 0.275364 0.825956
O O1 0.500000 0.143882 0.750000
O O2 0.545304 0.087730 0.500000
O O3 0.616366 0.134531 0.713704
O O4 0.556833 0.000000 0.750000
O O5 0.730893 0.899792 0.797103
O O6 0.836482 0.826451 0.773527
O O7 0.820454 0.000000 0.750000
O O8 0.810927 0.925725 0.000000
O O9 0.608302 0.344114 0.711777
O O10 0.702362 0.412577 0.834016
O O11 0.691944 0.247114 0.783323
O O12 0.631767 0.321803 0.000000
O O13 0.569842 0.500000 0.750000
O O14 0.500000 0.366833 0.750000
O O15 0.547997 0.418138 0.500000
O O16 0.794050 0.500000 0.250000
O O17 0.796133 0.581316 0.500000
O O18 0.791684 0.672640 0.254456
O O19 0.681939 0.801836 0.000000
O O20 0.914503 0.500000 0.250000
O O21 0.900879 0.675291 0.212346
O O22 0.000000 0.611041 0.250000
O O23 0.945616 0.575188 0.000000
O O24 0.171694 0.279541 0.000000
#
# Coordination Sequence:
#
# PCOD8203635 Si02
#       8
#     8   8   8   8   8   8   8   8
#     4  10  20  34  53  76 100 132 171 219 282 349
#     4  10  21  38  60  85 115 152 196 249 304 358
#     4  11  23  37  54  79 108 141 183 230 282 343
#     4  11  22  38  58  77 101 135 179 230 283 343
#     4  11  23  36  55  83 115 153 192 234 287 344
#     4  10  21  37  56  77 106 144 184 232 295 351
#     4  10  20  35  58  90 126 167 205 243 289 342
#     4  10  21  38  60  86 120 158 200 247 294 343
#
# _framework density 19.898769000000001
#
# number of rings (size 3 to 8) (size 9 to 14) (size 15 to 20)
#    0.000    1.625    1.250    4.875    0.000    7.000 
#    0.000    1.250    0.000    0.375    0.000    2.625 
#    0.000    0.000    0.000    0.000    0.000    0.000 
#
# Total GULP energy -793206.182079 kJ/mol
# GULP energy per Si atom -12393.846595 kJ/mol
# Density = 1.985348 g / cm^3
# Si number density = 19.898769 Si / 1000 Ang^3
#
#
#
# Elastic Constant Matrix: (Units=GPa)
#
#
# Indices 1 2 3 4 5 6 
#
# 1 97.7347 49.5202 41.9991 0.0000 0.0000 0.0000
# 2 49.5202 134.5996 52.7528 0.0000 0.0000 0.0000
# 3 41.9991 52.7528 106.2974 0.0000 0.0000 0.0000
# 4 0.0000 0.0000 0.0000 32.4423 0.0000 0.0000
# 5 0.0000 0.0000 0.0000 0.0000 30.2810 0.0000
# 6 0.0000 0.0000 0.0000 0.0000 0.0000 28.5297
#
#
#
# Elastic Compliance Matrix: (Units=1/GPa)
#
#
# Indices 1 2 3 4 5 6 
#
# 1 0.013595 -0.003596 -0.003587 0.000000 0.000000 0.000000
# 2 -0.003596 0.010175 -0.003629 0.000000 0.000000 0.000000
# 3 -0.003587 -0.003629 0.012626 0.000000 0.000000 0.000000
# 4 0.000000 0.000000 0.000000 0.030824 0.000000 0.000000
# 5 0.000000 0.000000 0.000000 0.000000 0.033024 0.000000
# 6 0.000000 0.000000 0.000000 0.000000 0.000000 0.035051
#
#
# Mechanical properties :
#
#
# Convention : Reuss Voigt Hill
#
# Bulk Modulus (GPa) = 67.69439 69.68621 68.69030
# Shear Modulus (GPa) = 30.89438 31.20789 31.05113
#
# Velocity S-wave (km/s) = 3.94455 3.96451 3.95455
# Velocity P-wave (km/s) = 7.40535 7.48685 7.44621
#
# Compressibility (1/GPa) = 0.01477227
#
# Stress axis : x y z
#
# Youngs Moduli (GPa) = 73.55533 98.28444 79.20407
#
# Poissons Ratio (x) = 0.35343 0.28411
# Poissons Ratio (y) = 0.26450 0.28740
# Poissons Ratio (z) = 0.26384 0.35663
#
# Static dielectric constant tensor:
#      x y z
#    x 3.867970 0.000000 0.000000 
#    y 0.000000 3.609040 0.000000 
#    z 0.000000 0.000000 3.636860 
# 
# 
# High freq. dielectric constant tensor:
#      x y z
#    x 1.767600 0.000000 0.000000 
#    y 0.000000 1.765330 0.000000 
#    z 0.000000 0.000000 1.782740 
# 
# From -- ./inp_files/6491.got.cif
#   From: 2010.03.12/outbox.cif.g09.slc.cpg/sg49_4_cif.got.tgz:6491.got - 2010.04.14 03:58:27.
