data_PCOD8203381
_publ_section_title
;
Structure prediction by ZEFSAII (Michael W. Deem and Ramdas Pophale) SiO2 
 PCOD8203381
Probable space group: P C C M
;
_chemical_formula_sum "Si O2"
_cell_formula_units_Z 64
_cell_length_a 12.088427
_cell_length_b 14.685327
_cell_length_c 17.037641
_cell_angle_alpha 90.000000
_cell_angle_beta 90.000000
_cell_angle_gamma 90.000000
_cell_volume 3024.564683
_symmetry_space_group_name_H-M "P C C M"
_symmetry_group_IT_number 49
_symmetry_cell_setting 'orthorhombic'
loop_
_space_group_symop_operation_xyz
x,y,z
-x,-y,z
x,-y,1/2-z
-x,y,1/2-z
-x,-y,-z
x,y,-z
-x,y,1/2+z
x,-y,1/2+z
loop_
_atom_site_type_symbol
_atom_site_label
_atom_site_fract_x
_atom_site_fract_y
_atom_site_fract_z
Si Si1 0.284298 0.082112 0.300973
Si Si2 0.904465 0.937199 0.410749
Si Si3 0.625197 0.710683 0.912802
Si Si4 0.375287 0.502902 0.410349
Si Si5 0.800493 0.241819 0.703120
Si Si6 0.392463 0.212184 0.588521
Si Si7 0.007595 0.735784 0.910696
Si Si8 0.780525 0.348873 0.854923
O O1 0.207923 0.037271 0.367194
O O2 0.201313 0.147647 0.251346
O O3 0.385216 0.133688 0.345031
O O4 0.335484 0.000000 0.250000
O O5 0.886132 0.966831 0.500000
O O6 0.929533 0.830787 0.402901
O O7 0.000000 0.000000 0.373413
O O8 0.663980 0.606600 0.906343
O O9 0.695665 0.769780 0.853257
O O10 0.496268 0.723250 0.891994
O O11 0.647986 0.747774 0.000000
O O12 0.500000 0.500000 0.374194
O O13 0.380215 0.466287 0.500000
O O14 0.282499 0.445336 0.363732
O O15 0.908975 0.261650 0.652034
O O16 0.783241 0.325991 0.762564
O O17 0.398459 0.171466 0.500000
O O18 0.284218 0.273869 0.594499
O O19 0.093415 0.654274 0.888323
O O20 0.963480 0.720713 0.000000
#
# Coordination Sequence:
#
# PCOD8203381 Si02
#       8
#     8   8   8   8   8   8   8   8
#     4  11  23  37  59  90 128 166 210 273 324 387
#     4  10  20  34  58  90 121 160 213 268 315 375
#     4  10  22  41  64  87 121 162 208 260 316 384
#     4  10  19  36  64  97 124 152 200 261 318 380
#     4  11  24  39  57  86 130 175 211 257 321 380
#     4  10  19  38  64  88 120 162 211 264 317 381
#     4  11  21  37  60  86 125 175 219 255 306 384
#     4  11  21  34  62  98 127 160 205 261 324 385
#
# _framework density 21.160069
#
# number of rings (size 3 to 8) (size 9 to 14) (size 15 to 20)
#    0.000    1.500    3.750    3.000    0.000    3.750 
#    0.000    4.375    0.000    5.250    0.000    0.000 
#    0.000    0.000    0.000    0.000    0.000    0.000 
#
# Total GULP energy -793432.998783 kJ/mol
# GULP energy per Si atom -12397.390606 kJ/mol
# Density = 2.111191 g / cm^3
# Si number density = 21.160069 Si / 1000 Ang^3
#
#
#
# Elastic Constant Matrix: (Units=GPa)
#
#
# Indices 1 2 3 4 5 6 
#
# 1 95.4161 35.3043 54.7006 0.0000 0.0000 0.0000
# 2 35.3043 82.8501 44.2469 0.0000 0.0000 0.0000
# 3 54.7006 44.2469 121.8694 0.0000 0.0000 0.0000
# 4 0.0000 0.0000 0.0000 26.6960 0.0000 0.0000
# 5 0.0000 0.0000 0.0000 0.0000 31.1592 0.0000
# 6 0.0000 0.0000 0.0000 0.0000 0.0000 34.5879
#
#
#
# Elastic Compliance Matrix: (Units=1/GPa)
#
#
# Indices 1 2 3 4 5 6 
#
# 1 0.014861 -0.003437 -0.005422 0.000000 0.000000 0.000000
# 2 -0.003437 0.015768 -0.004182 0.000000 0.000000 0.000000
# 3 -0.005422 -0.004182 0.012158 0.000000 0.000000 0.000000
# 4 0.000000 0.000000 0.000000 0.037459 0.000000 0.000000
# 5 0.000000 0.000000 0.000000 0.000000 0.032093 0.000000
# 6 0.000000 0.000000 0.000000 0.000000 0.000000 0.028912
#
#
# Mechanical properties :
#
#
# Convention : Reuss Voigt Hill
#
# Bulk Modulus (GPa) = 59.86685 63.18214 61.52450
# Shear Modulus (GPa) = 28.91832 29.54754 29.23293
#
# Velocity S-wave (km/s) = 3.70083 3.74087 3.72090
# Velocity P-wave (km/s) = 6.82754 6.97014 6.89921
#
# Compressibility (1/GPa) = 0.01670373
#
# Stress axis : x y z
#
# Youngs Moduli (GPa) = 67.29243 63.41953 82.25154
#
# Poissons Ratio (x) = 0.21794 0.44600
# Poissons Ratio (y) = 0.23125 0.34401
# Poissons Ratio (z) = 0.36489 0.26525
#
# Static dielectric constant tensor:
#      x y z
#    x 3.732700 0.000000 0.000000 
#    y 0.000000 3.646190 0.000000 
#    z 0.000000 0.000000 4.026410 
# 
# 
# High freq. dielectric constant tensor:
#      x y z
#    x 1.821160 0.000000 0.000000 
#    y 0.000000 1.804200 0.000000 
#    z 0.000000 0.000000 1.840080 
# 
# From -- ./inp_files/17260.got.cif
#   From: 2010.03.12/outbox.cif.g09.slc.cpg/sg49_9_cif.got.tgz:17260.got - 2010.04.14 03:58:27.
