data_PCOD8203339
_publ_section_title
;
Structure prediction by ZEFSAII (Michael W. Deem and Ramdas Pophale) SiO2 
 PCOD8203339
Probable space group: P C C M
;
_chemical_formula_sum "Si O2"
_cell_formula_units_Z 56
_cell_length_a 20.136378
_cell_length_b 15.202588
_cell_length_c 9.008421
_cell_angle_alpha 90.000000
_cell_angle_beta 90.000000
_cell_angle_gamma 90.000000
_cell_volume 2757.703406
_symmetry_space_group_name_H-M "P C C M"
_symmetry_group_IT_number 49
_symmetry_cell_setting 'orthorhombic'
loop_
_space_group_symop_operation_xyz
x,y,z
-x,-y,z
x,-y,1/2-z
-x,y,1/2-z
-x,-y,-z
x,y,-z
-x,y,1/2+z
x,-y,1/2+z
loop_
_atom_site_type_symbol
_atom_site_label
_atom_site_fract_x
_atom_site_fract_y
_atom_site_fract_z
Si Si1 0.113633 0.411013 0.326592
Si Si2 0.932967 0.765471 0.822949
Si Si3 0.400640 0.583887 0.833653
Si Si4 0.740817 0.646814 0.333726
Si Si5 0.697469 0.814753 0.172326
Si Si6 0.566444 0.778032 0.676357
Si Si7 0.172002 0.910637 0.327638
O O1 0.087433 0.500000 0.250000
O O2 0.094475 0.410485 0.500000
O O3 0.078968 0.330370 0.244884
O O4 0.192714 0.406812 0.302104
O O5 0.873594 0.829967 0.772278
O O6 0.000000 0.803766 0.750000
O O7 0.939233 0.758802 0.000000
O O8 0.431412 0.500000 0.750000
O O9 0.320844 0.580085 0.821648
O O10 0.426201 0.676875 0.768258
O O11 0.426214 0.575783 0.000000
O O12 0.741520 0.688696 0.500000
O O13 0.732979 0.723604 0.214107
O O14 0.630477 0.832089 0.266314
O O15 0.750622 0.891118 0.207398
O O16 0.678400 0.811742 0.000000
O O17 0.500000 0.817848 0.750000
O O18 0.563164 0.786217 0.500000
O O19 0.160065 0.924400 0.500000
O O20 0.149673 0.000000 0.250000
#
# Coordination Sequence:
#
# PCOD8203339 Si02
#       7
#     8   8   8   8   8   8   8
#     4  11  22  36  58  87 120 163 208 256 307 359
#     4  11  24  44  64  90 125 163 206 252 303 362
#     4   9  18  30  44  68 103 142 189 240 291 345
#     4   9  18  32  51  78 111 150 196 243 297 354
#     4  10  19  35  59  87 117 152 192 242 296 350
#     4  10  21  36  53  78 110 151 198 243 295 360
#     4  10  23  41  66  97 127 157 197 244 300 366
#
# _framework density 20.306753
#
# number of rings (size 3 to 8) (size 9 to 14) (size 15 to 20)
#    0.000    2.000    1.429    3.000    0.000    6.571 
#    0.000    4.286    0.000    0.429    0.000    3.000 
#    0.000    0.000    0.000    0.000    0.000    0.000 
#
# Total GULP energy -694405.053162 kJ/mol
# GULP energy per Si atom -12400.090235 kJ/mol
# Density = 2.026053 g / cm^3
# Si number density = 20.306753 Si / 1000 Ang^3
#
#
#
# Elastic Constant Matrix: (Units=GPa)
#
#
# Indices 1 2 3 4 5 6 
#
# 1 109.4213 33.7034 52.5290 0.0000 0.0000 0.0000
# 2 33.7034 91.3313 41.2912 0.0000 0.0000 0.0000
# 3 52.5290 41.2912 94.2758 0.0000 0.0000 0.0000
# 4 0.0000 0.0000 0.0000 32.1859 0.0000 0.0000
# 5 0.0000 0.0000 0.0000 0.0000 32.3764 0.0000
# 6 0.0000 0.0000 0.0000 0.0000 0.0000 8.1692
#
#
#
# Elastic Compliance Matrix: (Units=1/GPa)
#
#
# Indices 1 2 3 4 5 6 
#
# 1 0.012724 -0.001858 -0.006276 0.000000 0.000000 0.000000
# 2 -0.001858 0.013924 -0.005063 0.000000 0.000000 0.000000
# 3 -0.006276 -0.005063 0.016322 0.000000 0.000000 0.000000
# 4 0.000000 0.000000 0.000000 0.031069 0.000000 0.000000
# 5 0.000000 0.000000 0.000000 0.000000 0.030887 0.000000
# 6 0.000000 0.000000 0.000000 0.000000 0.000000 0.122412
#
#
# Mechanical properties :
#
#
# Convention : Reuss Voigt Hill
#
# Bulk Modulus (GPa) = 60.33058 61.11954 60.72506
# Shear Modulus (GPa) = 19.28590 25.71328 22.49959
#
# Velocity S-wave (km/s) = 3.08511 3.56229 3.33225
# Velocity P-wave (km/s) = 6.51649 6.86173 6.69134
#
# Compressibility (1/GPa) = 0.01657534
#
# Stress axis : x y z
#
# Youngs Moduli (GPa) = 78.59089 71.81896 61.26881
#
# Poissons Ratio (x) = 0.13345 0.38451
# Poissons Ratio (y) = 0.14604 0.31021
# Poissons Ratio (z) = 0.49322 0.36363
#
# Static dielectric constant tensor:
#      x y z
#    x 3.862800 0.000000 0.000000 
#    y 0.000000 3.331860 0.000000 
#    z 0.000000 0.000000 3.646630 
# 
# 
# High freq. dielectric constant tensor:
#      x y z
#    x 1.802710 0.000000 0.000000 
#    y 0.000000 1.760780 0.000000 
#    z 0.000000 0.000000 1.796430 
# 
# From -- ./inp_files/5773.got.cif
#   From: 2010.03.12/outbox.cif.g09.slc.cpg/sg49_3_cif.got.tgz:5773.got - 2010.04.14 03:58:27.
