data_PCOD8203211
_publ_section_title
;
Structure prediction by ZEFSAII (Michael W. Deem and Ramdas Pophale) SiO2 
 PCOD8203211
Probable space group: P C C M
;
_chemical_formula_sum "Si O2"
_cell_formula_units_Z 48
_cell_length_a 18.537725
_cell_length_b 14.665632
_cell_length_c 8.807790
_cell_angle_alpha 90.000000
_cell_angle_beta 90.000000
_cell_angle_gamma 90.000000
_cell_volume 2394.551434
_symmetry_space_group_name_H-M "P C C M"
_symmetry_group_IT_number 49
_symmetry_cell_setting 'orthorhombic'
loop_
_space_group_symop_operation_xyz
x,y,z
-x,-y,z
x,-y,1/2-z
-x,y,1/2-z
-x,-y,-z
x,y,-z
-x,y,1/2+z
x,-y,1/2+z
loop_
_atom_site_type_symbol
_atom_site_label
_atom_site_fract_x
_atom_site_fract_y
_atom_site_fract_z
Si Si1 0.232305 0.095116 0.681214
Si Si2 0.073288 0.847787 0.178900
Si Si3 0.208266 0.419620 0.831878
Si Si4 0.315328 0.260617 0.827338
Si Si5 0.421315 0.404060 0.682296
Si Si6 0.929664 0.359432 0.822936
O O1 0.237362 0.096610 0.500000
O O2 0.148909 0.108081 0.735195
O O3 0.289356 0.169183 0.744034
O O4 0.259399 0.000000 0.750000
O O5 0.078190 0.744144 0.235540
O O6 0.000000 0.892957 0.250000
O O7 0.066298 0.857428 0.000000
O O8 0.255510 0.500000 0.750000
O O9 0.245592 0.323185 0.832560
O O10 0.137874 0.416679 0.729077
O O11 0.188228 0.450711 0.000000
O O12 0.375688 0.315720 0.733712
O O13 0.342057 0.239972 0.000000
O O14 0.390943 0.500000 0.750000
O O15 0.500000 0.387488 0.750000
O O16 0.422744 0.410319 0.500000
O O17 0.000000 0.404856 0.750000
O O18 0.937642 0.362374 0.000000
#
# Coordination Sequence:
#
# PCOD8203211 Si02
#       6
#     8   8   8   8   8   8
#     4  11  23  40  60  87 118 156 202 253 308 365
#     4   9  19  34  55  79 108 146 191 247 309 366
#     4  11  23  36  54  80 110 147 191 237 288 348
#     4  11  23  40  62  89 121 159 198 243 298 354
#     4  11  22  39  65  98 135 170 205 244 286 343
#     4  10  19  34  53  74 103 141 187 238 293 351
#
# _framework density 20.045507000000001
#
# number of rings (size 3 to 8) (size 9 to 14) (size 15 to 20)
#    0.000    1.500    1.667    4.500    0.000    6.000 
#    0.000    3.333    0.000    0.500    0.000    3.500 
#    0.000    0.000    0.000    0.000    0.000    0.000 
#
# Total GULP energy -594918.488974 kJ/mol
# GULP energy per Si atom -12394.135187 kJ/mol
# Density = 1.999988 g / cm^3
# Si number density = 20.045507 Si / 1000 Ang^3
#
#
#
# Elastic Constant Matrix: (Units=GPa)
#
#
# Indices 1 2 3 4 5 6 
#
# 1 96.3380 45.0047 47.0523 0.0000 0.0000 0.0000
# 2 45.0047 123.2673 53.4099 0.0000 0.0000 0.0000
# 3 47.0523 53.4099 128.4371 0.0000 0.0000 0.0000
# 4 0.0000 0.0000 0.0000 31.9007 0.0000 0.0000
# 5 0.0000 0.0000 0.0000 0.0000 31.2408 0.0000
# 6 0.0000 0.0000 0.0000 0.0000 0.0000 69.7624
#
#
#
# Elastic Compliance Matrix: (Units=1/GPa)
#
#
# Indices 1 2 3 4 5 6 
#
# 1 0.013756 -0.003463 -0.003599 0.000000 0.000000 0.000000
# 2 -0.003463 0.010767 -0.003209 0.000000 0.000000 0.000000
# 3 -0.003599 -0.003209 0.010439 0.000000 0.000000 0.000000
# 4 0.000000 0.000000 0.000000 0.031347 0.000000 0.000000
# 5 0.000000 0.000000 0.000000 0.000000 0.032009 0.000000
# 6 0.000000 0.000000 0.000000 0.000000 0.000000 0.014334
#
#
# Mechanical properties :
#
#
# Convention : Reuss Voigt Hill
#
# Bulk Modulus (GPa) = 69.34912 70.99736 70.17324
# Shear Modulus (GPa) = 36.23159 40.08582 38.15870
#
# Velocity S-wave (km/s) = 4.25604 4.47670 4.36776
# Velocity P-wave (km/s) = 7.66960 7.88772 7.77942
#
# Compressibility (1/GPa) = 0.01441979
#
# Stress axis : x y z
#
# Youngs Moduli (GPa) = 72.69726 92.87631 95.79509
#
# Poissons Ratio (x) = 0.32159 0.34481
# Poissons Ratio (y) = 0.25172 0.30740
# Poissons Ratio (z) = 0.26167 0.29803
#
# Static dielectric constant tensor:
#      x y z
#    x 3.517600 0.000000 0.000000 
#    y 0.000000 18.759850 0.000000 
#    z 0.000000 0.000000 3.701440 
# 
# 
# High freq. dielectric constant tensor:
#      x y z
#    x 1.768520 0.000000 0.000000 
#    y 0.000000 1.779270 0.000000 
#    z 0.000000 0.000000 1.794240 
# 
# From -- ./inp_files/3680.got.cif
#   From: 2010.03.12/outbox.cif.g09.slc.cpg/sg49_2_cif.got.tgz:3680.got - 2010.04.14 03:58:27.
