data_PCOD8203564
_publ_section_title
;
Structure prediction by ZEFSAII (Michael W. Deem and Ramdas Pophale) SiO2 
 PCOD8203564
Probable space group: P C C M
;
_chemical_formula_sum "Si O2"
_cell_formula_units_Z 64
_cell_length_a 25.565333
_cell_length_b 14.589241
_cell_length_c 8.979682
_cell_angle_alpha 90.000000
_cell_angle_beta 90.000000
_cell_angle_gamma 90.000000
_cell_volume 3349.231056
_symmetry_space_group_name_H-M "P C C M"
_symmetry_group_IT_number 49
_symmetry_cell_setting 'orthorhombic'
loop_
_space_group_symop_operation_xyz
x,y,z
-x,-y,z
x,-y,1/2-z
-x,y,1/2-z
-x,-y,-z
x,y,-z
-x,y,1/2+z
x,-y,1/2+z
loop_
_atom_site_type_symbol
_atom_site_label
_atom_site_fract_x
_atom_site_fract_y
_atom_site_fract_z
Si Si1 0.707147 0.407093 0.670858
Si Si2 0.447344 0.786089 0.324449
Si Si3 0.593475 0.405026 0.326875
Si Si4 0.179946 0.598752 0.326260
Si Si5 0.851351 0.772253 0.326288
Si Si6 0.239795 0.095659 0.673944
Si Si7 0.358902 0.096799 0.324389
Si Si8 0.946165 0.904997 0.675672
O O1 0.719247 0.500000 0.750000
O O2 0.699912 0.429486 0.500000
O O3 0.651282 0.367938 0.727826
O O4 0.761790 0.354389 0.699506
O O5 0.500000 0.826058 0.250000
O O6 0.447124 0.807045 0.500000
O O7 0.446145 0.677052 0.290298
O O8 0.396756 0.829786 0.249767
O O9 0.576513 0.500000 0.250000
O O10 0.593391 0.427156 0.500000
O O11 0.171543 0.500000 0.250000
O O12 0.168058 0.585463 0.500000
O O13 0.141872 0.675007 0.256881
O O14 0.845387 0.751800 0.500000
O O15 0.800525 0.827946 0.267632
O O16 0.902950 0.829342 0.289332
O O17 0.232233 0.079176 0.500000
O O18 0.299254 0.127009 0.710537
O O19 0.226259 0.000000 0.750000
O O20 0.369596 0.090341 0.500000
O O21 0.371517 0.000000 0.250000
O O22 0.953920 0.920017 0.500000
O O23 0.000000 0.871110 0.750000
O O24 0.927917 0.000000 0.750000
#
# Coordination Sequence:
#
# PCOD8203564 Si02
#       8
#     8   8   8   8   8   8   8   8
#     4   8  15  29  47  71  99 131 172 213 258 311
#     4  11  24  40  58  80 107 138 178 227 271 325
#     4   9  19  35  55  78 106 139 175 217 266 320
#     4  10  20  33  52  77 110 150 190 232 276 326
#     4  10  21  35  53  82 117 152 189 230 277 327
#     4   9  19  35  55  82 115 146 177 217 268 329
#     4  10  21  39  61  84 109 140 176 218 272 329
#     4  10  20  35  57  83 116 154 193 238 281 329
#
# _framework density 19.108864000000001
#
# number of rings (size 3 to 8) (size 9 to 14) (size 15 to 20)
#    0.000    2.375    0.000    2.250    1.750    4.000 
#    0.000    2.500    0.000    0.375    0.000    2.625 
#    0.000    0.000    0.000    0.000    0.000    0.000 
#
# Total GULP energy -793041.794758 kJ/mol
# GULP energy per Si atom -12391.278043 kJ/mol
# Density = 1.906537 g / cm^3
# Si number density = 19.108864 Si / 1000 Ang^3
#
#
#
# Elastic Constant Matrix: (Units=GPa)
#
#
# Indices 1 2 3 4 5 6 
#
# 1 93.7820 59.2868 50.3724 0.0000 0.0000 0.0000
# 2 59.2868 103.8232 53.3208 0.0000 0.0000 0.0000
# 3 50.3724 53.3208 84.7910 0.0000 0.0000 0.0000
# 4 0.0000 0.0000 0.0000 33.8607 0.0000 0.0000
# 5 0.0000 0.0000 0.0000 0.0000 28.3280 0.0000
# 6 0.0000 0.0000 0.0000 0.0000 0.0000 30.2046
#
#
#
# Elastic Compliance Matrix: (Units=1/GPa)
#
#
# Indices 1 2 3 4 5 6 
#
# 1 0.018864 -0.007409 -0.006547 0.000000 0.000000 0.000000
# 2 -0.007409 0.017137 -0.006375 0.000000 0.000000 0.000000
# 3 -0.006547 -0.006375 0.019692 0.000000 0.000000 0.000000
# 4 0.000000 0.000000 0.000000 0.029533 0.000000 0.000000
# 5 0.000000 0.000000 0.000000 0.000000 0.035301 0.000000
# 6 0.000000 0.000000 0.000000 0.000000 0.000000 0.033108
#
#
# Mechanical properties :
#
#
# Convention : Reuss Voigt Hill
#
# Bulk Modulus (GPa) = 66.53379 67.59514 67.06446
# Shear Modulus (GPa) = 25.08713 26.43974 25.76344
#
# Velocity S-wave (km/s) = 3.62726 3.72376 3.67583
# Velocity P-wave (km/s) = 7.24131 7.34432 7.29300
#
# Compressibility (1/GPa) = 0.01502996
#
# Stress axis : x y z
#
# Youngs Moduli (GPa) = 53.01194 58.35443 50.78251
#
# Poissons Ratio (x) = 0.43237 0.33247
# Poissons Ratio (y) = 0.39279 0.32372
# Poissons Ratio (z) = 0.34707 0.37199
#
# Static dielectric constant tensor:
#      x y z
#    x 3.611690 0.000000 0.000000 
#    y 0.000000 3.306790 0.000000 
#    z 0.000000 0.000000 3.458040 
# 
# 
# High freq. dielectric constant tensor:
#      x y z
#    x 1.738840 0.000000 0.000000 
#    y 0.000000 1.730270 0.000000 
#    z 0.000000 0.000000 1.747540 
# 
# From -- ./inp_files/6514.got.cif
#   From: 2010.03.12/outbox.cif.g09.slc.cpg/sg49_4_cif.got.tgz:6514.got - 2010.04.14 03:58:27.
