data_PCOD8203127
_publ_section_title
;
Structure prediction by ZEFSAII (Michael W. Deem and Ramdas Pophale) SiO2 
 PCOD8203127
Probable space group: P C C M
;
_chemical_formula_sum "Si O2"
_cell_formula_units_Z 64
_cell_length_a 18.356237
_cell_length_b 20.541896
_cell_length_c 8.989553
_cell_angle_alpha 90.000000
_cell_angle_beta 90.000000
_cell_angle_gamma 90.000000
_cell_volume 3389.707932
_symmetry_space_group_name_H-M "P C C M"
_symmetry_group_IT_number 49
_symmetry_cell_setting 'orthorhombic'
loop_
_space_group_symop_operation_xyz
x,y,z
-x,-y,z
x,-y,1/2-z
-x,y,1/2-z
-x,-y,-z
x,y,-z
-x,y,1/2+z
x,-y,1/2+z
loop_
_atom_site_type_symbol
_atom_site_label
_atom_site_fract_x
_atom_site_fract_y
_atom_site_fract_z
Si Si1 0.683041 0.935103 0.826135
Si Si2 0.346252 0.703784 0.821249
Si Si3 0.574973 0.821000 0.177004
Si Si4 0.817690 0.437156 0.833175
Si Si5 0.849088 0.065695 0.675659
Si Si6 0.075292 0.196138 0.174245
Si Si7 0.354948 0.560825 0.837391
Si Si8 0.807325 0.305014 0.675777
O O1 0.635487 0.873571 0.777446
O O2 0.765742 0.921893 0.774434
O O3 0.651623 0.000000 0.750000
O O4 0.678045 0.946737 0.000000
O O5 0.403926 0.752910 0.751776
O O6 0.373379 0.631805 0.769660
O O7 0.266730 0.717708 0.754683
O O8 0.342395 0.708877 0.000000
O O9 0.500000 0.844822 0.250000
O O10 0.567471 0.813026 0.000000
O O11 0.851762 0.500000 0.750000
O O12 0.731618 0.445607 0.843835
O O13 0.837492 0.373016 0.739379
O O14 0.850471 0.431769 0.000000
O O15 0.854538 0.058038 0.500000
O O16 0.896401 0.126379 0.733619
O O17 0.879930 0.000000 0.750000
O O18 0.133748 0.250715 0.215341
O O19 0.000000 0.214994 0.250000
O O20 0.062376 0.192858 0.000000
O O21 0.389619 0.500000 0.750000
O O22 0.389363 0.556001 0.000000
O O23 0.793327 0.311350 0.500000
#
# Coordination Sequence:
#
# PCOD8203127 Si02
#       8
#     8   8   8   8   8   8   8   8
#     4   9  19  36  58  81 106 135 171 213 260 312
#     4  10  20  34  53  79 107 138 178 221 263 316
#     4  11  23  38  55  77 107 143 179 219 264 313
#     4   9  16  27  45  73 105 136 171 215 264 316
#     4   9  18  35  56  79 104 133 170 213 259 311
#     4  10  22  37  53  74 105 141 178 218 263 314
#     4   8  15  26  43  70 102 131 164 207 255 304
#     4  10  19  33  53  77 105 139 176 220 270 318
#
# _framework density 18.880682
#
# number of rings (size 3 to 8) (size 9 to 14) (size 15 to 20)
#    0.000    2.500    0.000    3.000    0.000    8.500 
#    0.000    5.000    0.000    0.750    0.000    5.250 
#    0.000    0.000    0.000    0.000    0.000    0.000 
#
# Total GULP energy -793537.613460 kJ/mol
# GULP energy per Si atom -12399.025210 kJ/mol
# Density = 1.883771 g / cm^3
# Si number density = 18.880682 Si / 1000 Ang^3
#
#
#
# Elastic Constant Matrix: (Units=GPa)
#
#
# Indices 1 2 3 4 5 6 
#
# 1 39.0934 15.3773 18.5902 0.0000 0.0000 0.0000
# 2 15.3773 103.7190 34.5842 0.0000 0.0000 0.0000
# 3 18.5902 34.5842 67.5331 0.0000 0.0000 0.0000
# 4 0.0000 0.0000 0.0000 35.0638 0.0000 0.0000
# 5 0.0000 0.0000 0.0000 0.0000 24.9666 0.0000
# 6 0.0000 0.0000 0.0000 0.0000 0.0000 3.8100
#
#
#
# Elastic Compliance Matrix: (Units=1/GPa)
#
#
# Indices 1 2 3 4 5 6 
#
# 1 0.029782 -0.002028 -0.007160 0.000000 0.000000 0.000000
# 2 -0.002028 0.011765 -0.005467 0.000000 0.000000 0.000000
# 3 -0.007160 -0.005467 0.019578 0.000000 0.000000 0.000000
# 4 0.000000 0.000000 0.000000 0.028519 0.000000 0.000000
# 5 0.000000 0.000000 0.000000 0.000000 0.040054 0.000000
# 6 0.000000 0.000000 0.000000 0.000000 0.000000 0.262469
#
#
# Mechanical properties :
#
#
# Convention : Reuss Voigt Hill
#
# Bulk Modulus (GPa) = 31.43056 38.60544 35.01800
# Shear Modulus (GPa) = 11.57190 22.22100 16.89645
#
# Velocity S-wave (km/s) = 2.47836 3.43434 2.99474
# Velocity P-wave (km/s) = 4.98726 6.01812 5.52678
#
# Compressibility (1/GPa) = 0.03181616
#
# Stress axis : x y z
#
# Youngs Moduli (GPa) = 33.57711 84.99854 51.07792
#
# Poissons Ratio (x) = 0.17239 0.36570
# Poissons Ratio (y) = 0.06810 0.27922
# Poissons Ratio (z) = 0.24040 0.46465
#
# Static dielectric constant tensor:
#      x y z
#    x 3.148690 0.000000 0.000000 
#    y 0.000000 3.726370 0.000000 
#    z 0.000000 0.000000 3.533990 
# 
# 
# High freq. dielectric constant tensor:
#      x y z
#    x 1.696630 0.000000 0.000000 
#    y 0.000000 1.750290 0.000000 
#    z 0.000000 0.000000 1.736610 
# 
# From -- ./inp_files/5245.got.cif
#   From: 2010.03.12/outbox.cif.g09.slc.cpg/sg49_3_cif.got.tgz:5245.got - 2010.04.14 03:58:27.
