data_PCOD8203640
_publ_section_title
;
Structure prediction by ZEFSAII (Michael W. Deem and Ramdas Pophale) SiO2 
 PCOD8203640
Probable space group: P C C M
;
_chemical_formula_sum "Si O2"
_cell_formula_units_Z 56
_cell_length_a 22.777788
_cell_length_b 14.802173
_cell_length_c 8.626237
_cell_angle_alpha 90.000000
_cell_angle_beta 90.000000
_cell_angle_gamma 90.000000
_cell_volume 2908.428610
_symmetry_space_group_name_H-M "P C C M"
_symmetry_group_IT_number 49
_symmetry_cell_setting 'orthorhombic'
loop_
_space_group_symop_operation_xyz
x,y,z
-x,-y,z
x,-y,1/2-z
-x,y,1/2-z
-x,-y,-z
x,y,-z
-x,y,1/2+z
x,-y,1/2+z
loop_
_atom_site_type_symbol
_atom_site_label
_atom_site_fract_x
_atom_site_fract_y
_atom_site_fract_z
Si Si1 0.212418 0.408096 0.680238
Si Si2 0.828789 0.216037 0.819123
Si Si3 0.732611 0.906376 0.817905
Si Si4 0.439752 0.726977 0.316858
Si Si5 0.062300 0.095712 0.681649
Si Si6 0.393765 0.903539 0.816123
Si Si7 0.345560 0.594459 0.816240
O O1 0.185207 0.500000 0.750000
O O2 0.215545 0.424360 0.500000
O O3 0.171047 0.322723 0.721542
O O4 0.278604 0.390540 0.741588
O O5 0.779465 0.171107 0.713468
O O6 0.891632 0.174014 0.775331
O O7 0.813758 0.199967 0.000000
O O8 0.672883 0.881158 0.731013
O O9 0.758104 0.000000 0.750000
O O10 0.720236 0.916158 0.000000
O O11 0.500000 0.684505 0.250000
O O12 0.440495 0.721804 0.500000
O O13 0.436249 0.829898 0.259157
O O14 0.383779 0.674397 0.253097
O O15 0.055612 0.082973 0.500000
O O16 0.000000 0.125879 0.750000
O O17 0.083702 0.000000 0.750000
O O18 0.413479 0.000000 0.750000
O O19 0.399920 0.901930 0.000000
O O20 0.369663 0.500000 0.750000
O O21 0.351177 0.595729 0.000000
#
# Coordination Sequence:
#
# PCOD8203640 Si02
#       7
#     8   8   8   8   8   8   8
#     4   9  19  35  56  81 110 139 173 216 267 321
#     4  10  20  34  53  79 110 145 181 225 274 323
#     4  11  21  33  52  80 111 143 177 218 267 324
#     4  12  25  41  59  82 108 139 181 226 272 327
#     4  10  20  34  53  76 108 147 188 228 271 318
#     4  11  22  39  59  80 108 143 180 222 271 324
#     4  10  20  37  60  85 112 144 176 218 273 331
#
# _framework density 19.254383000000001
#
# number of rings (size 3 to 8) (size 9 to 14) (size 15 to 20)
#    0.000    1.571    0.000    7.286    0.000    5.143 
#    0.000    2.857    0.000    0.429    0.000    3.000 
#    0.000    0.000    0.000    0.000    0.000    0.000 
#
# Total GULP energy -694592.167067 kJ/mol
# GULP energy per Si atom -12403.431555 kJ/mol
# Density = 1.921056 g / cm^3
# Si number density = 19.254383 Si / 1000 Ang^3
#
#
#
# Elastic Constant Matrix: (Units=GPa)
#
#
# Indices 1 2 3 4 5 6 
#
# 1 73.2115 56.8093 26.9750 0.0000 0.0000 0.0000
# 2 56.8093 126.7729 37.0880 0.0000 0.0000 0.0000
# 3 26.9750 37.0880 101.4690 0.0000 0.0000 0.0000
# 4 0.0000 0.0000 0.0000 32.8010 0.0000 0.0000
# 5 0.0000 0.0000 0.0000 0.0000 19.5438 0.0000
# 6 0.0000 0.0000 0.0000 0.0000 0.0000 25.6484
#
#
#
# Elastic Compliance Matrix: (Units=1/GPa)
#
#
# Indices 1 2 3 4 5 6 
#
# 1 0.021473 -0.008904 -0.002454 0.000000 0.000000 0.000000
# 2 -0.008904 0.012525 -0.002211 0.000000 0.000000 0.000000
# 3 -0.002454 -0.002211 0.011316 0.000000 0.000000 0.000000
# 4 0.000000 0.000000 0.000000 0.030487 0.000000 0.000000
# 5 0.000000 0.000000 0.000000 0.000000 0.051167 0.000000
# 6 0.000000 0.000000 0.000000 0.000000 0.000000 0.038989
#
#
# Mechanical properties :
#
#
# Convention : Reuss Voigt Hill
#
# Bulk Modulus (GPa) = 55.01956 60.35533 57.68744
# Shear Modulus (GPa) = 25.10636 27.63738 26.37187
#
# Velocity S-wave (km/s) = 3.61491 3.79275 3.70490
# Velocity P-wave (km/s) = 6.78679 7.11297 6.95179
#
# Compressibility (1/GPa) = 0.01817536
#
# Stress axis : x y z
#
# Youngs Moduli (GPa) = 46.57091 79.83920 88.37329
#
# Poissons Ratio (x) = 0.71092 0.21684
# Poissons Ratio (y) = 0.41469 0.19538
# Poissons Ratio (z) = 0.11427 0.17652
#
# Static dielectric constant tensor:
#      x y z
#    x 3.483300 0.000000 0.000000 
#    y 0.000000 3.656940 0.000000 
#    z 0.000000 0.000000 3.572920 
# 
# 
# High freq. dielectric constant tensor:
#      x y z
#    x 1.730740 0.000000 0.000000 
#    y 0.000000 1.751800 0.000000 
#    z 0.000000 0.000000 1.760260 
# 
# From -- ./inp_files/5767.got.cif
#   From: 2010.03.12/outbox.cif.g09.slc.cpg/sg49_3_cif.got.tgz:5767.got - 2010.04.14 03:58:27.
