data_PCOD8203493
_publ_section_title
;
Structure prediction by ZEFSAII (Michael W. Deem and Ramdas Pophale) SiO2 
 PCOD8203493
Probable space group: P C C M
;
_chemical_formula_sum "Si O2"
_cell_formula_units_Z 56
_cell_length_a 22.582823
_cell_length_b 14.619561
_cell_length_c 8.741532
_cell_angle_alpha 90.000000
_cell_angle_beta 90.000000
_cell_angle_gamma 90.000000
_cell_volume 2886.025168
_symmetry_space_group_name_H-M "P C C M"
_symmetry_group_IT_number 49
_symmetry_cell_setting 'orthorhombic'
loop_
_space_group_symop_operation_xyz
x,y,z
-x,-y,z
x,-y,1/2-z
-x,y,1/2-z
-x,-y,-z
x,y,-z
-x,y,1/2+z
x,-y,1/2+z
loop_
_atom_site_type_symbol
_atom_site_label
_atom_site_fract_x
_atom_site_fract_y
_atom_site_fract_z
Si Si1 0.162496 0.713471 0.678061
Si Si2 0.936445 0.404198 0.180955
Si Si3 0.601595 0.407430 0.819210
Si Si4 0.210221 0.909337 0.320005
Si Si5 0.273869 0.651910 0.832580
Si Si6 0.673936 0.147887 0.169911
Si Si7 0.561396 0.218770 0.681406
O O1 0.147439 0.706729 0.500000
O O2 0.107490 0.677651 0.775566
O O3 0.174968 0.817950 0.730951
O O4 0.220152 0.650563 0.711712
O O5 0.912943 0.500000 0.250000
O O6 0.000000 0.379419 0.250000
O O7 0.941598 0.413612 0.000000
O O8 0.573372 0.500000 0.750000
O O9 0.672142 0.412689 0.781002
O O10 0.571018 0.322212 0.737691
O O11 0.590164 0.399895 0.000000
O O12 0.210554 0.916349 0.500000
O O13 0.277705 0.910465 0.261236
O O14 0.178644 0.000000 0.250000
O O15 0.302627 0.750517 0.844782
O O16 0.248866 0.623278 0.000000
O O17 0.612121 0.149246 0.260883
O O18 0.664624 0.106218 0.000000
O O19 0.500000 0.181890 0.750000
O O20 0.559837 0.217663 0.500000
#
# Coordination Sequence:
#
# PCOD8203493 Si02
#       7
#     8   8   8   8   8   8   8
#     4  10  20  34  54  82 114 147 186 228 273 323
#     4  11  22  38  59  82 112 149 191 235 278 322
#     4  10  20  33  47  66  93 126 165 212 267 324
#     4  10  20  34  56  86 118 150 183 223 271 327
#     4   8  16  30  47  68  96 129 165 207 258 313
#     4   9  17  32  52  74 101 131 166 209 258 312
#     4  11  21  34  51  70  93 125 168 214 263 320
#
# _framework density 19.403849999999998
#
# number of rings (size 3 to 8) (size 9 to 14) (size 15 to 20)
#    0.000    2.143    0.000    5.571    0.000    6.571 
#    0.000    2.857    0.000    0.857    0.000    6.000 
#    0.000    0.000    0.000    0.000    0.000    0.000 
#
# Total GULP energy -694264.715210 kJ/mol
# GULP energy per Si atom -12397.584200 kJ/mol
# Density = 1.935969 g / cm^3
# Si number density = 19.403850 Si / 1000 Ang^3
#
#
#
# Elastic Constant Matrix: (Units=GPa)
#
#
# Indices 1 2 3 4 5 6 
#
# 1 98.4435 37.3678 53.7973 0.0000 0.0000 0.0000
# 2 37.3678 69.6170 37.1838 0.0000 0.0000 0.0000
# 3 53.7973 37.1838 136.5752 0.0000 0.0000 0.0000
# 4 0.0000 0.0000 0.0000 26.6850 0.0000 0.0000
# 5 0.0000 0.0000 0.0000 0.0000 33.7281 0.0000
# 6 0.0000 0.0000 0.0000 0.0000 0.0000 18.2480
#
#
#
# Elastic Compliance Matrix: (Units=1/GPa)
#
#
# Indices 1 2 3 4 5 6 
#
# 1 0.014583 -0.005569 -0.004228 0.000000 0.000000 0.000000
# 2 -0.005569 0.018935 -0.002962 0.000000 0.000000 0.000000
# 3 -0.004228 -0.002962 0.009794 0.000000 0.000000 0.000000
# 4 0.000000 0.000000 0.000000 0.037474 0.000000 0.000000
# 5 0.000000 0.000000 0.000000 0.000000 0.029649 0.000000
# 6 0.000000 0.000000 0.000000 0.000000 0.000000 0.054801
#
#
# Mechanical properties :
#
#
# Convention : Reuss Voigt Hill
#
# Bulk Modulus (GPa) = 56.19754 62.37038 59.28396
# Shear Modulus (GPa) = 25.42146 27.48466 26.45306
#
# Velocity S-wave (km/s) = 3.62349 3.76766 3.69628
# Velocity P-wave (km/s) = 6.82138 7.15123 6.98825
#
# Compressibility (1/GPa) = 0.01779437
#
# Stress axis : x y z
#
# Youngs Moduli (GPa) = 68.57529 52.81090 102.10686
#
# Poissons Ratio (x) = 0.29411 0.43169
# Poissons Ratio (y) = 0.38191 0.30240
# Poissons Ratio (z) = 0.28992 0.15641
#
# Static dielectric constant tensor:
#      x y z
#    x 3.506190 0.000000 0.000000 
#    y 0.000000 3.518520 0.000000 
#    z 0.000000 0.000000 3.634600 
# 
# 
# High freq. dielectric constant tensor:
#      x y z
#    x 1.737560 0.000000 0.000000 
#    y 0.000000 1.738020 0.000000 
#    z 0.000000 0.000000 1.769480 
# 
# From -- ./inp_files/5798.got.cif
#   From: 2010.03.12/outbox.cif.g09.slc.cpg/sg49_3_cif.got.tgz:5798.got - 2010.04.14 03:58:27.
