data_PCOD8203974
_publ_section_title
;
Structure prediction by ZEFSAII (Michael W. Deem and Ramdas Pophale) SiO2 
 PCOD8203974
Probable space group: P C C M
;
_chemical_formula_sum "Si O2"
_cell_formula_units_Z 48
_cell_length_a 14.476009
_cell_length_b 18.270051
_cell_length_c 9.388132
_cell_angle_alpha 90.000000
_cell_angle_beta 90.000000
_cell_angle_gamma 90.000000
_cell_volume 2482.948955
_symmetry_space_group_name_H-M "P C C M"
_symmetry_group_IT_number 49
_symmetry_cell_setting 'orthorhombic'
loop_
_space_group_symop_operation_xyz
x,y,z
-x,-y,z
x,-y,1/2-z
-x,y,1/2-z
-x,-y,-z
x,y,-z
-x,y,1/2+z
x,-y,1/2+z
loop_
_atom_site_type_symbol
_atom_site_label
_atom_site_fract_x
_atom_site_fract_y
_atom_site_fract_z
Si Si1 0.414855 0.353593 0.160820
Si Si2 0.786220 0.817408 0.163730
Si Si3 0.106955 0.570471 0.500000
Si Si4 0.098859 0.603124 0.000000
Si Si5 0.419806 0.181449 0.155290
Si Si6 0.901941 0.929638 0.673487
Si Si7 0.789783 0.650500 0.766506
O O1 0.500000 0.389253 0.250000
O O2 0.433104 0.267964 0.146971
O O3 0.319425 0.368000 0.246630
O O4 0.409784 0.386840 0.000000
O O5 0.682127 0.836717 0.212577
O O6 0.847890 0.856961 0.281975
O O7 0.803818 0.730971 0.169064
O O8 0.805549 0.842642 0.000000
O O9 0.099881 0.483823 0.500000
O O10 0.165759 0.589452 0.636182
O O11 0.011297 0.617629 0.500000
O O12 0.152723 0.643305 0.875597
O O13 0.500000 0.145117 0.250000
O O14 0.431755 0.146646 0.000000
O O15 0.908446 0.936649 0.500000
O O16 0.000000 0.922756 0.750000
O O17 0.853199 0.000000 0.750000
#
# Coordination Sequence:
#
# PCOD8203974 Si02
#       7
#     8   8   4   4   8   8   8
#     4   9  17  31  54  81 112 148 184 231 293 350
#     4  10  20  37  58  85 121 153 189 239 292 335
#     4  11  22  46  57  79 112 158 195 246 299 359
#     4  11  26  36  63  85 108 150 209 240 295 361
#     4   8  15  28  48  77 111 148 183 227 279 334
#     4  11  23  40  61  85 117 157 197 234 285 347
#     4  11  21  39  60  86 119 150 193 251 297 344
#
# _framework density 19.331851
#
# number of rings (size 3 to 8) (size 9 to 14) (size 15 to 20)
#    0.000    2.000    1.667    4.000    2.333    3.333 
#    3.000    0.000    0.000    3.500    0.000    3.500 
#    0.000    0.000    0.000    0.000    0.000    0.000 
#
# Total GULP energy -594694.370404 kJ/mol
# GULP energy per Si atom -12389.466050 kJ/mol
# Density = 1.928785 g / cm^3
# Si number density = 19.331851 Si / 1000 Ang^3
#
#
#
# Elastic Constant Matrix: (Units=GPa)
#
#
# Indices 1 2 3 4 5 6 
#
# 1 115.8855 27.4537 43.4500 0.0000 0.0000 0.0000
# 2 27.4537 36.1583 18.5135 0.0000 0.0000 0.0000
# 3 43.4500 18.5135 114.0654 0.0000 0.0000 0.0000
# 4 0.0000 0.0000 0.0000 28.1648 0.0000 0.0000
# 5 0.0000 0.0000 0.0000 0.0000 39.9246 0.0000
# 6 0.0000 0.0000 0.0000 0.0000 0.0000 4.2508
#
#
#
# Elastic Compliance Matrix: (Units=1/GPa)
#
#
# Indices 1 2 3 4 5 6 
#
# 1 0.011523 -0.007091 -0.003239 0.000000 0.000000 0.000000
# 2 -0.007091 0.034526 -0.002903 0.000000 0.000000 0.000000
# 3 -0.003239 -0.002903 0.010472 0.000000 0.000000 0.000000
# 4 0.000000 0.000000 0.000000 0.035505 0.000000 0.000000
# 5 0.000000 0.000000 0.000000 0.000000 0.025047 0.000000
# 6 0.000000 0.000000 0.000000 0.000000 0.000000 0.235249
#
#
# Mechanical properties :
#
#
# Convention : Reuss Voigt Hill
#
# Bulk Modulus (GPa) = 33.27045 49.43819 41.35432
# Shear Modulus (GPa) = 12.85987 26.24751 19.55369
#
# Velocity S-wave (km/s) = 2.58198 3.68874 3.18382
# Velocity P-wave (km/s) = 5.11237 6.61599 5.91218
#
# Compressibility (1/GPa) = 0.03005670
#
# Stress axis : x y z
#
# Youngs Moduli (GPa) = 86.78004 28.96334 95.49578
#
# Poissons Ratio (x) = 0.20538 0.30927
# Poissons Ratio (y) = 0.61537 0.27719
# Poissons Ratio (z) = 0.28104 0.08407
#
# Static dielectric constant tensor:
#      x y z
#    x 3.815250 0.000000 0.000000 
#    y 0.000000 3.264030 0.000000 
#    z 0.000000 0.000000 3.707340 
# 
# 
# High freq. dielectric constant tensor:
#      x y z
#    x 1.763370 0.000000 0.000000 
#    y 0.000000 1.713540 0.000000 
#    z 0.000000 0.000000 1.760500 
# 
# From -- ./inp_files/3764.got.cif
#   From: 2010.03.12/outbox.cif.g09.slc.cpg/sg49_2_cif.got.tgz:3764.got - 2010.04.14 03:58:27.
