data_PCOD8203623
_publ_section_title
;
Structure prediction by ZEFSAII (Michael W. Deem and Ramdas Pophale) SiO2 
 PCOD8203623
Probable space group: P C C M
;
_chemical_formula_sum "Si O2"
_cell_formula_units_Z 64
_cell_length_a 25.695996
_cell_length_b 14.591920
_cell_length_c 8.951156
_cell_angle_alpha 90.000000
_cell_angle_beta 90.000000
_cell_angle_gamma 90.000000
_cell_volume 3356.271012
_symmetry_space_group_name_H-M "P C C M"
_symmetry_group_IT_number 49
_symmetry_cell_setting 'orthorhombic'
loop_
_space_group_symop_operation_xyz
x,y,z
-x,-y,z
x,-y,1/2-z
-x,y,1/2-z
-x,-y,-z
x,y,-z
-x,y,1/2+z
x,-y,1/2+z
loop_
_atom_site_type_symbol
_atom_site_label
_atom_site_fract_x
_atom_site_fract_y
_atom_site_fract_z
Si Si1 0.707394 0.407349 0.669705
Si Si2 0.448193 0.770279 0.177256
Si Si3 0.594955 0.400702 0.325086
Si Si4 0.179256 0.598362 0.323733
Si Si5 0.851642 0.773234 0.325566
Si Si6 0.239766 0.095944 0.675853
Si Si7 0.357126 0.095356 0.324704
Si Si8 0.946527 0.904420 0.676288
O O1 0.695545 0.500000 0.750000
O O2 0.716086 0.434049 0.500000
O O3 0.653081 0.353548 0.694331
O O4 0.762361 0.365173 0.723855
O O5 0.500000 0.814630 0.250000
O O6 0.443818 0.667819 0.242303
O O7 0.398407 0.829237 0.229036
O O8 0.453569 0.766821 0.000000
O O9 0.589363 0.500000 0.250000
O O10 0.580961 0.409369 0.500000
O O11 0.167370 0.500000 0.250000
O O12 0.170758 0.589433 0.500000
O O13 0.141673 0.676415 0.258996
O O14 0.846624 0.752919 0.500000
O O15 0.800713 0.827688 0.266703
O O16 0.902758 0.830497 0.286916
O O17 0.233961 0.082212 0.500000
O O18 0.298482 0.126274 0.721160
O O19 0.224874 0.000000 0.750000
O O20 0.360500 0.080191 0.500000
O O21 0.372279 0.000000 0.250000
O O22 0.954072 0.918627 0.500000
O O23 0.000000 0.869209 0.750000
O O24 0.929332 0.000000 0.750000
#
# Coordination Sequence:
#
# PCOD8203623 Si02
#       8
#     8   8   8   8   8   8   8   8
#     4   8  16  30  48  73 102 134 173 213 258 312
#     4  11  24  40  57  80 105 136 178 223 271 324
#     4  10  20  36  57  81 109 140 175 218 267 322
#     4  10  20  34  52  77 111 150 190 229 273 323
#     4  10  21  34  53  82 115 150 188 229 277 326
#     4   9  18  34  54  80 112 143 174 216 267 325
#     4   9  20  38  59  81 106 138 175 216 269 325
#     4  10  20  35  56  83 115 153 193 236 281 329
#
# _framework density 19.068783
#
# number of rings (size 3 to 8) (size 9 to 14) (size 15 to 20)
#    0.000    2.375    0.000    2.250    1.750    4.000 
#    0.000    2.500    0.000    0.375    0.000    2.625 
#    0.000    0.000    0.000    0.000    0.000    0.000 
#
# Total GULP energy -793157.956459 kJ/mol
# GULP energy per Si atom -12393.093070 kJ/mol
# Density = 1.902538 g / cm^3
# Si number density = 19.068783 Si / 1000 Ang^3
#
#
#
# Elastic Constant Matrix: (Units=GPa)
#
#
# Indices 1 2 3 4 5 6 
#
# 1 109.3450 72.1299 49.8734 0.0000 0.0000 0.0000
# 2 72.1299 117.0459 50.6283 0.0000 0.0000 0.0000
# 3 49.8734 50.6283 72.4714 0.0000 0.0000 0.0000
# 4 0.0000 0.0000 0.0000 32.5030 0.0000 0.0000
# 5 0.0000 0.0000 0.0000 0.0000 27.1831 0.0000
# 6 0.0000 0.0000 0.0000 0.0000 0.0000 25.6060
#
#
#
# Elastic Compliance Matrix: (Units=1/GPa)
#
#
# Indices 1 2 3 4 5 6 
#
# 1 0.017241 -0.007871 -0.006366 0.000000 0.000000 0.000000
# 2 -0.007871 0.015837 -0.005647 0.000000 0.000000 0.000000
# 3 -0.006366 -0.005647 0.022125 0.000000 0.000000 0.000000
# 4 0.000000 0.000000 0.000000 0.030766 0.000000 0.000000
# 5 0.000000 0.000000 0.000000 0.000000 0.036788 0.000000
# 6 0.000000 0.000000 0.000000 0.000000 0.000000 0.039053
#
#
# Mechanical properties :
#
#
# Convention : Reuss Voigt Hill
#
# Bulk Modulus (GPa) = 64.79162 71.56950 68.18056
# Shear Modulus (GPa) = 24.18688 25.47381 24.83035
#
# Velocity S-wave (km/s) = 3.56533 3.65895 3.61244
# Velocity P-wave (km/s) = 7.14145 7.44744 7.29605
#
# Compressibility (1/GPa) = 0.01543409
#
# Stress axis : x y z
#
# Youngs Moduli (GPa) = 57.99964 63.14381 45.19868
#
# Poissons Ratio (x) = 0.49703 0.28775
# Poissons Ratio (y) = 0.45653 0.25522
# Poissons Ratio (z) = 0.36925 0.35655
#
# Static dielectric constant tensor:
#      x y z
#    x 3.683540 0.000000 0.000000 
#    y 0.000000 3.281540 0.000000 
#    z 0.000000 0.000000 3.420270 
# 
# 
# High freq. dielectric constant tensor:
#      x y z
#    x 1.739630 0.000000 0.000000 
#    y 0.000000 1.725890 0.000000 
#    z 0.000000 0.000000 1.745350 
# 
# From -- ./inp_files/6515.got.cif
#   From: 2010.03.12/outbox.cif.g09.slc.cpg/sg49_4_cif.got.tgz:6515.got - 2010.04.14 03:58:27.
