data_PCOD8203094
_publ_section_title
;
Structure prediction by ZEFSAII (Michael W. Deem and Ramdas Pophale) SiO2 
 PCOD8203094
Probable space group: P C C M
;
_chemical_formula_sum "Si O2"
_cell_formula_units_Z 58
_cell_length_a 14.448336
_cell_length_b 26.394920
_cell_length_c 8.938485
_cell_angle_alpha 90.000000
_cell_angle_beta 90.000000
_cell_angle_gamma 90.000000
_cell_volume 3408.804531
_symmetry_space_group_name_H-M "P C C M"
_symmetry_group_IT_number 49
_symmetry_cell_setting 'orthorhombic'
loop_
_space_group_symop_operation_xyz
x,y,z
-x,-y,z
x,-y,1/2-z
-x,y,1/2-z
-x,-y,-z
x,y,-z
-x,y,1/2+z
x,-y,1/2+z
loop_
_atom_site_type_symbol
_atom_site_label
_atom_site_fract_x
_atom_site_fract_y
_atom_site_fract_z
Si Si1 0.908239 0.322455 0.825498
Si Si2 0.500000 0.000000 0.250000
Si Si3 0.267980 0.828974 0.671947
Si Si4 0.091691 0.207421 0.675405
Si Si5 0.292760 0.641666 0.177943
Si Si6 0.403549 0.445647 0.180206
Si Si7 0.415321 0.902049 0.663580
Si Si8 0.599329 0.265774 0.675579
O O1 0.893909 0.264984 0.768009
O O2 0.816092 0.353212 0.783764
O O3 0.000000 0.346648 0.750000
O O4 0.926742 0.323001 0.000000
O O5 0.429616 0.963406 0.341709
O O6 0.235213 0.829892 0.500000
O O7 0.179168 0.825272 0.775727
O O8 0.316777 0.882158 0.724411
O O9 0.340363 0.784209 0.701579
O O10 0.080506 0.204082 0.500000
O O11 0.000000 0.184102 0.750000
O O12 0.323291 0.591638 0.265913
O O13 0.349711 0.688798 0.240047
O O14 0.309273 0.637077 0.000000
O O15 0.380192 0.500000 0.250000
O O16 0.500000 0.425607 0.250000
O O17 0.409614 0.448375 0.000000
O O18 0.500000 0.876064 0.750000
O O19 0.422400 0.878632 0.500000
O O20 0.500000 0.257343 0.750000
O O21 0.588705 0.278893 0.500000
#
# Coordination Sequence:
#
# PCOD8203094 Si02
#       8
#     8   2   8   8   8   8   8   8
#     4   9  19  33  52  75 102 134 172 213 256 305
#     4   8  18  32  54  72 104 136 182 220 268 300
#     4  10  20  33  48  72 103 138 174 213 258 307
#     4  10  19  33  51  74 101 137 175 216 259 308
#     4  11  21  36  54  76 105 137 174 214 257 309
#     4  11  22  38  58  81 105 136 174 217 263 309
#     4   9  18  31  49  72 101 135 174 216 258 302
#     4  11  22  33  47  69 102 140 174 209 252 305
#
# _framework density 17.014762999999999
#
# number of rings (size 3 to 8) (size 9 to 14) (size 15 to 20)
#    0.414    1.517    1.379    3.931    0.000    2.759 
#    0.000    0.000    0.000    0.414    0.000    3.379 
#    0.000    3.310    0.000    0.000    0.000    0.000 
#
# Total GULP energy -718820.257932 kJ/mol
# GULP energy per Si atom -12393.452723 kJ/mol
# Density = 1.697604 g / cm^3
# Si number density = 17.014763 Si / 1000 Ang^3
#
#
#
# Elastic Constant Matrix: (Units=GPa)
#
#
# Indices 1 2 3 4 5 6 
#
# 1 142.1132 53.7183 57.8849 0.0000 0.0000 0.0000
# 2 53.7183 75.3849 32.3969 0.0000 0.0000 0.0000
# 3 57.8849 32.3969 94.5954 0.0000 0.0000 0.0000
# 4 0.0000 0.0000 0.0000 11.2715 0.0000 0.0000
# 5 0.0000 0.0000 0.0000 0.0000 33.5953 0.0000
# 6 0.0000 0.0000 0.0000 0.0000 0.0000 18.9984
#
#
#
# Elastic Compliance Matrix: (Units=1/GPa)
#
#
# Indices 1 2 3 4 5 6 
#
# 1 0.011258 -0.005935 -0.004856 0.000000 0.000000 0.000000
# 2 -0.005935 0.018684 -0.002767 0.000000 0.000000 0.000000
# 3 -0.004856 -0.002767 0.014491 0.000000 0.000000 0.000000
# 4 0.000000 0.000000 0.000000 0.088719 0.000000 0.000000
# 5 0.000000 0.000000 0.000000 0.000000 0.029766 0.000000
# 6 0.000000 0.000000 0.000000 0.000000 0.000000 0.052636
#
#
# Mechanical properties :
#
#
# Convention : Reuss Voigt Hill
#
# Bulk Modulus (GPa) = 57.75189 66.67708 62.21448
# Shear Modulus (GPa) = 20.12532 23.97927 22.05229
#
# Velocity S-wave (km/s) = 3.44294 3.75817 3.60400
# Velocity P-wave (km/s) = 7.05840 7.62264 7.34594
#
# Compressibility (1/GPa) = 0.01731545
#
# Stress axis : x y z
#
# Youngs Moduli (GPa) = 88.82304 53.52221 69.01007
#
# Poissons Ratio (x) = 0.31768 0.33514
# Poissons Ratio (y) = 0.52721 0.19093
# Poissons Ratio (z) = 0.43136 0.14808
#
# Static dielectric constant tensor:
#      x y z
#    x 3.288430 0.000000 0.000000 
#    y 0.000000 3.056300 0.000000 
#    z 0.000000 0.000000 3.239720 
# 
# 
# High freq. dielectric constant tensor:
#      x y z
#    x 1.657070 0.000000 0.000000 
#    y 0.000000 1.630660 0.000000 
#    z 0.000000 0.000000 1.667080 
# 
# From -- ./inp_files/4479.got.cif
#   From: 2010.03.12/outbox.cif.g09.slc.cpg/sg49_3_cif.got.tgz:4479.got - 2010.04.14 03:58:27.
