data_PCOD8203919
_publ_section_title
;
Structure prediction by ZEFSAII (Michael W. Deem and Ramdas Pophale) SiO2 
 PCOD8203919
Probable space group: P C C M
;
_chemical_formula_sum "Si O2"
_cell_formula_units_Z 64
_cell_length_a 8.972057
_cell_length_b 24.003875
_cell_length_c 15.433350
_cell_angle_alpha 90.000000
_cell_angle_beta 90.000000
_cell_angle_gamma 90.000000
_cell_volume 3323.790069
_symmetry_space_group_name_H-M "P C C M"
_symmetry_group_IT_number 49
_symmetry_cell_setting 'orthorhombic'
loop_
_space_group_symop_operation_xyz
x,y,z
-x,-y,z
x,-y,1/2-z
-x,y,1/2-z
-x,-y,-z
x,y,-z
-x,y,1/2+z
x,-y,1/2+z
loop_
_atom_site_type_symbol
_atom_site_label
_atom_site_fract_x
_atom_site_fract_y
_atom_site_fract_z
Si Si1 0.673875 0.619518 0.597752
Si Si2 0.828276 0.889363 0.096946
Si Si3 0.676456 0.500000 0.846764
Si Si4 0.323987 1.000000 0.848911
Si Si5 0.823358 0.811658 0.250000
Si Si6 0.171723 0.110637 0.596946
Si Si7 0.177083 0.313708 0.750000
Si Si8 0.673875 0.619518 0.097752
O O1 0.702883 0.640529 0.500000
O O2 0.730727 0.555599 0.604340
O O3 0.765711 0.657253 0.663224
O O4 0.500000 0.623446 0.622442
O O5 0.736536 0.945910 0.103115
O O6 0.765213 0.843837 0.164486
O O7 1.000000 0.903062 0.117990
O O8 0.810073 0.864953 0.000000
O O9 0.500000 0.500000 0.843555
O O10 0.743504 0.500000 0.750000
O O11 0.730727 0.555599 0.895660
O O12 0.500000 0.000000 0.855673
O O13 0.268308 0.000000 0.750000
O O14 0.263464 0.945910 0.896885
O O15 0.765213 0.843837 0.335514
O O16 0.759356 0.749234 0.250000
O O17 0.000000 0.808705 0.250000
O O18 0.189927 0.135047 0.500000
O O19 0.234289 0.342747 0.836776
O O20 0.000000 0.315473 0.750000
O O21 0.702883 0.640529 0.000000
#
# Coordination Sequence:
#
# PCOD8203919 Si02
#       8
#     8   8   8   8   8   8   8   8
#     4  10  20  36  59  85 112 145 187 233 280 333
#     4  10  20  36  60  84 104 136 183 227 266 313
#     4   9  15  29  57  85 109 140 183 234 279 326
#     4  11  22  35  54  83 117 148 171 206 271 335
#     4   9  20  38  57  78 106 143 186 231 268 309
#     4  10  20  36  60  84 104 136 183 227 266 313
#     4  11  23  38  57  82 114 151 188 231 284 335
#     4  10  20  36  59  85 112 145 187 233 280 333
#
# _framework density 19.255126000000001
#
# number of rings (size 3 to 8) (size 9 to 14) (size 15 to 20)
#    0.000    2.000    2.500    1.500    0.000    5.500 
#    0.000    6.250    0.000    1.500    0.000    0.000 
#    0.000    0.000    0.000    0.000    0.000    0.000 
#
# Total GULP energy -793630.295814 kJ/mol
# GULP energy per Si atom -12400.473372 kJ/mol
# Density = 1.921130 g / cm^3
# Si number density = 19.255126 Si / 1000 Ang^3
#
#
#
# Elastic Constant Matrix: (Units=GPa)
#
#
# Indices 1 2 3 4 5 6 
#
# 1 49.1707 38.4399 38.5608 0.0000 0.0000 0.0000
# 2 38.4399 159.9707 71.6841 0.0000 0.0000 0.0000
# 3 38.5608 71.6841 150.0240 0.0000 0.0000 0.0000
# 4 0.0000 0.0000 0.0000 4.8209 0.0000 0.0000
# 5 0.0000 0.0000 0.0000 0.0000 24.4326 0.0000
# 6 0.0000 0.0000 0.0000 0.0000 0.0000 77.8927
#
#
#
# Elastic Compliance Matrix: (Units=1/GPa)
#
#
# Indices 1 2 3 4 5 6 
#
# 1 0.027722 -0.004413 -0.005017 0.000000 0.000000 0.000000
# 2 -0.004413 0.008657 -0.003002 0.000000 0.000000 0.000000
# 3 -0.005017 -0.003002 0.009389 0.000000 0.000000 0.000000
# 4 0.000000 0.000000 0.000000 0.207432 0.000000 0.000000
# 5 0.000000 0.000000 0.000000 0.000000 0.040929 0.000000
# 6 0.000000 0.000000 0.000000 0.000000 0.000000 0.012838
#
#
# Mechanical properties :
#
#
# Convention : Reuss Voigt Hill
#
# Bulk Modulus (GPa) = 47.83765 72.94833 60.39299
# Shear Modulus (GPa) = 14.75803 35.46126 25.10964
#
# Velocity S-wave (km/s) = 2.77148 4.29610 3.61508
# Velocity P-wave (km/s) = 5.92786 7.91050 6.98984
#
# Compressibility (1/GPa) = 0.02090404
#
# Stress axis : x y z
#
# Youngs Moduli (GPa) = 36.07298 115.51501 106.50276
#
# Poissons Ratio (x) = 0.50981 0.53427
# Poissons Ratio (y) = 0.15920 0.31973
# Poissons Ratio (z) = 0.18096 0.34678
#
# Static dielectric constant tensor:
#      x y z
#    x 3.174840 0.000000 0.000000 
#    y 0.000000 3.646690 0.000000 
#    z 0.000000 0.000000 3.714690 
# 
# 
# High freq. dielectric constant tensor:
#      x y z
#    x 1.714250 0.000000 0.000000 
#    y 0.000000 1.746480 0.000000 
#    z 0.000000 0.000000 1.767120 
# 
# From -- ./inp_files/12107.got.cif
#   From: 2010.03.12/outbox.cif.g09.slc.cpg/sg49_7_cif.got.tgz:12107.got - 2010.04.14 03:58:27.
