data_PCOD8203092
_publ_section_title
;
Structure prediction by ZEFSAII (Michael W. Deem and Ramdas Pophale) SiO2 
 PCOD8203092
Probable space group: P C C M
;
_chemical_formula_sum "Si O2"
_cell_formula_units_Z 64
_cell_length_a 19.765714
_cell_length_b 19.865721
_cell_length_c 8.584333
_cell_angle_alpha 90.000000
_cell_angle_beta 90.000000
_cell_angle_gamma 90.000000
_cell_volume 3370.725567
_symmetry_space_group_name_H-M "P C C M"
_symmetry_group_IT_number 49
_symmetry_cell_setting 'orthorhombic'
loop_
_space_group_symop_operation_xyz
x,y,z
-x,-y,z
x,-y,1/2-z
-x,y,1/2-z
-x,-y,-z
x,y,-z
-x,y,1/2+z
x,-y,1/2+z
loop_
_atom_site_type_symbol
_atom_site_label
_atom_site_fract_x
_atom_site_fract_y
_atom_site_fract_z
Si Si1 0.069942 0.206788 0.683170
Si Si2 0.071583 0.572353 0.817518
Si Si3 0.248331 0.105537 0.322968
Si Si4 0.429694 0.785315 0.814186
Si Si5 0.707122 0.242917 0.680760
Si Si6 0.837889 0.315952 0.679028
Si Si7 0.887332 0.069820 0.318175
Si Si8 0.602790 0.932693 0.324373
O O1 0.073522 0.219698 0.500000
O O2 0.130184 0.245285 0.768873
O O3 0.075522 0.128257 0.722852
O O4 0.000000 0.235919 0.750000
O O5 0.091217 0.500000 0.750000
O O6 0.132455 0.623235 0.780160
O O7 0.000000 0.598629 0.750000
O O8 0.063017 0.565819 0.000000
O O9 0.220181 0.103501 0.500000
O O10 0.262777 0.182507 0.281606
O O11 0.193441 0.073599 0.207526
O O12 0.316424 0.062619 0.307706
O O13 0.500000 0.755135 0.750000
O O14 0.368369 0.740709 0.743419
O O15 0.423111 0.862446 0.749489
O O16 0.425952 0.781983 0.000000
O O17 0.704324 0.221827 0.500000
O O18 0.756643 0.307654 0.703022
O O19 0.855600 0.330225 0.500000
O O20 0.904178 0.076208 0.500000
O O21 0.915666 0.000000 0.250000
O O22 0.578227 0.932501 0.500000
O O23 0.570680 0.000000 0.250000
#
# Coordination Sequence:
#
# PCOD8203092 Si02
#       8
#     8   8   8   8   8   8   8   8
#     4  12  25  41  59  79 105 138 179 229 282 337
#     4  11  22  38  60  88 125 166 203 239 280 328
#     4  10  19  33  51  73 100 130 169 218 275 333
#     4  10  21  36  52  72 102 136 177 223 280 341
#     4  10  20  34  56  81 108 140 179 226 276 327
#     4  11  22  38  60  88 118 150 191 233 276 330
#     4  12  24  38  54  74  98 130 173 224 284 344
#     4   9  19  31  45  67  93 125 164 212 264 330
#
# _framework density 18.987010000000001
#
# number of rings (size 3 to 8) (size 9 to 14) (size 15 to 20)
#    0.000    1.375    1.250    6.750    0.000    6.000 
#    0.000    2.500    0.000    0.000    0.000    0.000 
#    0.000    0.500    0.000    5.250    0.000    2.250 
#
# Total GULP energy -793655.786389 kJ/mol
# GULP energy per Si atom -12400.871662 kJ/mol
# Density = 1.894379 g / cm^3
# Si number density = 18.987010 Si / 1000 Ang^3
#
#
#
# Elastic Constant Matrix: (Units=GPa)
#
#
# Indices 1 2 3 4 5 6 
#
# 1 104.5905 31.4564 31.2574 0.0000 0.0000 0.0000
# 2 31.4564 72.2910 22.2762 0.0000 0.0000 0.0000
# 3 31.2574 22.2762 96.1555 0.0000 0.0000 0.0000
# 4 0.0000 0.0000 0.0000 25.4158 0.0000 0.0000
# 5 0.0000 0.0000 0.0000 0.0000 26.3490 0.0000
# 6 0.0000 0.0000 0.0000 0.0000 0.0000 12.7117
#
#
#
# Elastic Compliance Matrix: (Units=1/GPa)
#
#
# Indices 1 2 3 4 5 6 
#
# 1 0.011669 -0.004209 -0.002818 0.000000 0.000000 0.000000
# 2 -0.004209 0.016415 -0.002434 0.000000 0.000000 0.000000
# 3 -0.002818 -0.002434 0.011880 0.000000 0.000000 0.000000
# 4 0.000000 0.000000 0.000000 0.039346 0.000000 0.000000
# 5 0.000000 0.000000 0.000000 0.000000 0.037952 0.000000
# 6 0.000000 0.000000 0.000000 0.000000 0.000000 0.078668
#
#
# Mechanical properties :
#
#
# Convention : Reuss Voigt Hill
#
# Bulk Modulus (GPa) = 47.52833 49.22409 48.37621
# Shear Modulus (GPa) = 22.53604 25.43176 23.98390
#
# Velocity S-wave (km/s) = 3.44891 3.66379 3.55797
# Velocity P-wave (km/s) = 6.39893 6.62414 6.51251
#
# Compressibility (1/GPa) = 0.02104008
#
# Stress axis : x y z
#
# Youngs Moduli (GPa) = 85.69488 60.92071 84.17567
#
# Poissons Ratio (x) = 0.25643 0.23722
# Poissons Ratio (y) = 0.36072 0.20492
# Poissons Ratio (z) = 0.24150 0.14831
#
# Static dielectric constant tensor:
#      x y z
#    x 3.633190 0.000000 0.000000 
#    y 0.000000 3.142170 0.000000 
#    z 0.000000 0.000000 3.521190 
# 
# 
# High freq. dielectric constant tensor:
#      x y z
#    x 1.738540 0.000000 0.000000 
#    y 0.000000 1.691700 0.000000 
#    z 0.000000 0.000000 1.752250 
# 
# From -- ./inp_files/6011.got.cif
#   From: 2010.03.12/outbox.cif.g09.slc.cpg/sg49_4_cif.got.tgz:6011.got - 2010.04.14 03:58:27.
