data_PCOD8203457
_publ_section_title
;
Structure prediction by ZEFSAII (Michael W. Deem and Ramdas Pophale) SiO2 
 PCOD8203457
Probable space group: P C C M
;
_chemical_formula_sum "Si O2"
_cell_formula_units_Z 64
_cell_length_a 27.084502
_cell_length_b 18.190905
_cell_length_c 8.914400
_cell_angle_alpha 90.000000
_cell_angle_beta 90.000000
_cell_angle_gamma 90.000000
_cell_volume 4392.050024
_symmetry_space_group_name_H-M "P C C M"
_symmetry_group_IT_number 49
_symmetry_cell_setting 'orthorhombic'
loop_
_space_group_symop_operation_xyz
x,y,z
-x,-y,z
x,-y,1/2-z
-x,y,1/2-z
-x,-y,-z
x,y,-z
-x,y,1/2+z
x,-y,1/2+z
loop_
_atom_site_type_symbol
_atom_site_label
_atom_site_fract_x
_atom_site_fract_y
_atom_site_fract_z
Si Si1 0.251578 0.841096 0.322858
Si Si2 0.645622 0.577992 0.674692
Si Si3 0.601607 0.796806 0.831210
Si Si4 0.154638 0.078035 0.825569
Si Si5 0.549989 0.330294 0.177443
Si Si6 0.698705 0.300928 0.334488
Si Si7 0.342334 0.078897 0.678791
Si Si8 0.046615 0.920509 0.675699
O O1 0.262126 0.852842 0.500000
O O2 0.196351 0.864120 0.275349
O O3 0.257472 0.754244 0.281787
O O4 0.289293 0.890905 0.229986
O O5 0.651827 0.500000 0.750000
O O6 0.648896 0.566166 0.500000
O O7 0.593568 0.613696 0.722886
O O8 0.691003 0.630844 0.722888
O O9 0.559593 0.750410 0.746022
O O10 0.650572 0.749031 0.838234
O O11 0.612896 0.870280 0.737666
O O12 0.583757 0.816213 0.000000
O O13 0.100699 0.113946 0.788621
O O14 0.163834 0.000000 0.750000
O O15 0.158512 0.061339 0.000000
O O16 0.500000 0.362342 0.250000
O O17 0.544646 0.323607 0.000000
O O18 0.709641 0.333027 0.500000
O O19 0.343829 0.074813 0.500000
O O20 0.351112 0.000000 0.750000
O O21 0.036976 0.926552 0.500000
O O22 0.000000 0.876241 0.750000
O O23 0.047636 0.000000 0.750000
#
# Coordination Sequence:
#
# PCOD8203457 Si02
#       8
#     8   8   8   8   8   8   8   8
#     4   9  17  29  42  58  80 106 134 166 205 247
#     4  10  20  32  47  66  88 110 135 162 189 222
#     4   9  17  31  48  64  82 106 134 164 196 234
#     4   9  17  26  36  52  75 102 135 174 215 251
#     4  10  20  33  49  69  89 111 135 161 192 229
#     4   8  15  28  45  61  80 105 131 158 192 233
#     4  11  20  29  42  61  83 106 133 166 203 243
#     4   9  15  23  34  47  65  93 130 172 212 251
#
# _framework density 14.571783
#
# number of rings (size 3 to 8) (size 9 to 14) (size 15 to 20)
#    0.000    2.625    0.000    4.125    0.000    6.750 
#    0.000    1.250    0.000    0.375    0.000    2.625 
#    0.000    0.000    0.000    0.000    0.000    0.625 
#
# Total GULP energy -793173.225269 kJ/mol
# GULP energy per Si atom -12393.331645 kJ/mol
# Density = 1.453862 g / cm^3
# Si number density = 14.571783 Si / 1000 Ang^3
#
#
#
# Elastic Constant Matrix: (Units=GPa)
#
#
# Indices 1 2 3 4 5 6 
#
# 1 70.6260 41.5335 24.7272 0.0000 0.0000 0.0000
# 2 41.5335 92.0311 42.0139 0.0000 0.0000 0.0000
# 3 24.7272 42.0139 73.9081 0.0000 0.0000 0.0000
# 4 0.0000 0.0000 0.0000 20.9940 0.0000 0.0000
# 5 0.0000 0.0000 0.0000 0.0000 10.8548 0.0000
# 6 0.0000 0.0000 0.0000 0.0000 0.0000 10.5356
#
#
#
# Elastic Compliance Matrix: (Units=1/GPa)
#
#
# Indices 1 2 3 4 5 6 
#
# 1 0.019503 -0.007864 -0.002055 0.000000 0.000000 0.000000
# 2 -0.007864 0.017845 -0.007513 0.000000 0.000000 0.000000
# 3 -0.002055 -0.007513 0.018489 0.000000 0.000000 0.000000
# 4 0.000000 0.000000 0.000000 0.047633 0.000000 0.000000
# 5 0.000000 0.000000 0.000000 0.000000 0.092125 0.000000
# 6 0.000000 0.000000 0.000000 0.000000 0.000000 0.094916
#
#
# Mechanical properties :
#
#
# Convention : Reuss Voigt Hill
#
# Bulk Modulus (GPa) = 47.68001 50.34604 49.01303
# Shear Modulus (GPa) = 15.04375 17.02960 16.03667
#
# Velocity S-wave (km/s) = 3.21657 3.42229 3.32102
# Velocity P-wave (km/s) = 6.82546 7.08812 6.95803
#
# Compressibility (1/GPa) = 0.02097315
#
# Stress axis : x y z
#
# Youngs Moduli (GPa) = 51.27442 56.03957 54.08713
#
# Poissons Ratio (x) = 0.44067 0.11115
# Poissons Ratio (y) = 0.40320 0.40636
# Poissons Ratio (z) = 0.10537 0.42103
#
# Static dielectric constant tensor:
#      x y z
#    x 3.334100 0.000000 0.000000 
#    y 0.000000 2.744930 0.000000 
#    z 0.000000 0.000000 2.981010 
# 
# 
# High freq. dielectric constant tensor:
#      x y z
#    x 1.537520 0.000000 0.000000 
#    y 0.000000 1.524100 0.000000 
#    z 0.000000 0.000000 1.571280 
# 
# From -- ./inp_files/6796.got.cif
#   From: 2010.03.12/outbox.cif.g09.slc.cpg/sg49_4_cif.got.tgz:6796.got - 2010.04.14 03:58:27.
