data_PCOD8203912
_publ_section_title
;
Structure prediction by ZEFSAII (Michael W. Deem and Ramdas Pophale) SiO2 
 PCOD8203912
Probable space group: P C C M
;
_chemical_formula_sum "Si O2"
_cell_formula_units_Z 28
_cell_length_a 10.530286
_cell_length_b 8.194979
_cell_length_c 14.279970
_cell_angle_alpha 90.000000
_cell_angle_beta 90.000000
_cell_angle_gamma 90.000000
_cell_volume 1232.296760
_symmetry_space_group_name_H-M "P C C M"
_symmetry_group_IT_number 49
_symmetry_cell_setting 'orthorhombic'
loop_
_space_group_symop_operation_xyz
x,y,z
-x,-y,z
x,-y,1/2-z
-x,y,1/2-z
-x,-y,-z
x,y,-z
-x,y,1/2+z
x,-y,1/2+z
loop_
_atom_site_type_symbol
_atom_site_label
_atom_site_fract_x
_atom_site_fract_y
_atom_site_fract_z
Si Si1 0.219582 0.304788 0.500000
Si Si2 0.687763 0.964021 0.000000
Si Si3 0.368192 0.846310 0.697075
Si Si4 0.816185 0.559152 0.844303
Si Si5 0.937002 0.242561 0.500000
O O1 0.242578 0.413551 0.592688
O O2 0.085626 0.204399 0.500000
O O3 0.321391 0.159982 0.500000
O O4 0.612237 0.895810 0.911050
O O5 0.836863 0.905485 0.000000
O O6 0.500000 0.815331 0.750000
O O7 0.291611 0.678790 0.696861
O O8 0.298141 0.000000 0.750000
O O9 0.885900 0.500000 0.750000
O O10 0.919195 0.650610 0.906782
#
# Coordination Sequence:
#
# PCOD8203912 Si02
#       5
#     4   4   8   8   4
#     4  11  21  37  63  91 122 157 197 251 308 360
#     4  10  21  41  62  88 123 157 201 252 295 359
#     4  10  22  40  62  84 114 161 209 251 308 370
#     4  10  20  36  58  88 123 154 197 253 304 361
#     4   9  21  37  59  90 121 163 200 231 299 373
#
# _framework density 22.721796999999999
#
# number of rings (size 3 to 8) (size 9 to 14) (size 15 to 20)
#    0.000    2.000    0.000    4.714    0.000    5.143 
#    0.000    4.286    0.000   22.286    0.000    0.000 
#    0.000    0.000    0.000    0.000    0.000    0.000 
#
# Total GULP energy -346937.322640 kJ/mol
# GULP energy per Si atom -12390.618666 kJ/mol
# Density = 2.267008 g / cm^3
# Si number density = 22.721797 Si / 1000 Ang^3
#
#
#
# Elastic Constant Matrix: (Units=GPa)
#
#
# Indices 1 2 3 4 5 6 
#
# 1 85.7609 38.4376 30.0875 0.0000 0.0000 0.0000
# 2 38.4376 104.1292 46.7782 0.0000 0.0000 0.0000
# 3 30.0875 46.7782 206.5618 0.0000 0.0000 0.0000
# 4 0.0000 0.0000 0.0000 42.5920 0.0000 0.0000
# 5 0.0000 0.0000 0.0000 0.0000 39.5456 0.0000
# 6 0.0000 0.0000 0.0000 0.0000 0.0000 27.8830
#
#
#
# Elastic Compliance Matrix: (Units=1/GPa)
#
#
# Indices 1 2 3 4 5 6 
#
# 1 0.014147 -0.004783 -0.000977 0.000000 0.000000 0.000000
# 2 -0.004783 0.012308 -0.002091 0.000000 0.000000 0.000000
# 3 -0.000977 -0.002091 0.005457 0.000000 0.000000 0.000000
# 4 0.000000 0.000000 0.000000 0.023479 0.000000 0.000000
# 5 0.000000 0.000000 0.000000 0.000000 0.025287 0.000000
# 6 0.000000 0.000000 0.000000 0.000000 0.000000 0.035864
#
#
# Mechanical properties :
#
#
# Convention : Reuss Voigt Hill
#
# Bulk Modulus (GPa) = 61.69056 69.67317 65.68186
# Shear Modulus (GPa) = 36.32463 40.74738 38.53600
#
# Velocity S-wave (km/s) = 4.00267 4.23935 4.12271
# Velocity P-wave (km/s) = 6.96930 7.39547 7.18555
#
# Compressibility (1/GPa) = 0.01620993
#
# Stress axis : x y z
#
# Youngs Moduli (GPa) = 70.68655 81.24661 183.25121
#
# Poissons Ratio (x) = 0.38860 0.17912
# Poissons Ratio (y) = 0.33809 0.38311
# Poissons Ratio (z) = 0.06909 0.16986
#
# Static dielectric constant tensor:
#      x y z
#    x 3.543270 0.000000 0.000000 
#    y 0.000000 4.321110 0.000000 
#    z 0.000000 0.000000 4.376870 
# 
# 
# High freq. dielectric constant tensor:
#      x y z
#    x 1.861840 0.000000 0.000000 
#    y 0.000000 1.907430 0.000000 
#    z 0.000000 0.000000 1.921890 
# 
# From -- ./inp_files/12344.got.cif
#   From: 2010.03.12/outbox.cif.g09.slc.cpg/sg49_7_cif.got.tgz:12344.got - 2010.04.14 03:58:27.
