data_PCOD8203081
_publ_section_title
;
Structure prediction by ZEFSAII (Michael W. Deem and Ramdas Pophale) SiO2 
 PCOD8203081
Probable space group: P C C M
;
_chemical_formula_sum "Si O2"
_cell_formula_units_Z 56
_cell_length_a 15.210176
_cell_length_b 20.859355
_cell_length_c 8.774428
_cell_angle_alpha 90.000000
_cell_angle_beta 90.000000
_cell_angle_gamma 90.000000
_cell_volume 2783.901912
_symmetry_space_group_name_H-M "P C C M"
_symmetry_group_IT_number 49
_symmetry_cell_setting 'orthorhombic'
loop_
_space_group_symop_operation_xyz
x,y,z
-x,-y,z
x,-y,1/2-z
-x,y,1/2-z
-x,-y,-z
x,y,-z
-x,y,1/2+z
x,-y,1/2+z
loop_
_atom_site_type_symbol
_atom_site_label
_atom_site_fract_x
_atom_site_fract_y
_atom_site_fract_z
Si Si1 0.408758 0.704293 0.682401
Si Si2 0.380970 0.438329 0.165690
Si Si3 0.716657 0.182553 0.680576
Si Si4 0.823061 0.438900 0.668006
Si Si5 0.088514 0.803890 0.320829
Si Si6 0.084679 0.666237 0.179202
Si Si7 0.594430 0.933254 0.818531
O O1 0.500000 0.731534 0.750000
O O2 0.411364 0.705303 0.500000
O O3 0.396134 0.631266 0.745826
O O4 0.329605 0.751390 0.739766
O O5 0.423644 0.500000 0.250000
O O6 0.278859 0.451467 0.147463
O O7 0.425904 0.435480 0.000000
O O8 0.720451 0.186303 0.500000
O O9 0.816751 0.171158 0.741864
O O10 0.660828 0.121806 0.735744
O O11 0.867628 0.500000 0.750000
O O12 0.865423 0.428244 0.500000
O O13 0.832646 0.377588 0.778386
O O14 0.081140 0.813297 0.500000
O O15 0.089518 0.730062 0.277455
O O16 0.000000 0.837224 0.250000
O O17 0.000000 0.628956 0.250000
O O18 0.079402 0.680502 0.000000
O O19 0.500000 0.916131 0.750000
O O20 0.629650 0.000000 0.750000
O O21 0.587361 0.938297 0.000000
#
# Coordination Sequence:
#
# PCOD8203081 Si02
#       7
#     8   8   8   8   8   8   8
#     4  10  20  35  52  75 103 137 176 219 266 317
#     4   9  19  34  52  69  93 128 169 212 262 316
#     4   9  19  35  57  80 110 147 182 219 271 325
#     4  10  19  33  50  68  89 119 159 209 263 321
#     4  10  19  35  56  79 105 137 175 220 267 317
#     4  11  21  33  48  69  95 126 162 206 260 322
#     4  10  19  34  56  85 118 155 190 225 266 318
#
# _framework density 20.115652000000001
#
# number of rings (size 3 to 8) (size 9 to 14) (size 15 to 20)
#    0.000    2.143    0.000    5.143    0.000    4.000 
#    0.000    9.286    0.000    0.429    0.000    3.000 
#    0.000    0.000    0.000    0.000    0.000    0.000 
#
# Total GULP energy -693833.752204 kJ/mol
# GULP energy per Si atom -12389.888432 kJ/mol
# Density = 2.006987 g / cm^3
# Si number density = 20.115652 Si / 1000 Ang^3
#
#
#
# Elastic Constant Matrix: (Units=GPa)
#
#
# Indices 1 2 3 4 5 6 
#
# 1 120.1348 62.1624 32.0555 0.0000 0.0000 0.0000
# 2 62.1624 114.1567 22.7670 0.0000 0.0000 0.0000
# 3 32.0555 22.7670 63.1261 0.0000 0.0000 0.0000
# 4 0.0000 0.0000 0.0000 15.4428 0.0000 0.0000
# 5 0.0000 0.0000 0.0000 0.0000 25.1872 0.0000
# 6 0.0000 0.0000 0.0000 0.0000 0.0000 25.0001
#
#
#
# Elastic Compliance Matrix: (Units=1/GPa)
#
#
# Indices 1 2 3 4 5 6 
#
# 1 0.012549 -0.005994 -0.004211 0.000000 0.000000 0.000000
# 2 -0.005994 0.012301 -0.001393 0.000000 0.000000 0.000000
# 3 -0.004211 -0.001393 0.018482 0.000000 0.000000 0.000000
# 4 0.000000 0.000000 0.000000 0.064755 0.000000 0.000000
# 5 0.000000 0.000000 0.000000 0.000000 0.039703 0.000000
# 6 0.000000 0.000000 0.000000 0.000000 0.000000 0.040000
#
#
# Mechanical properties :
#
#
# Convention : Reuss Voigt Hill
#
# Bulk Modulus (GPa) = 49.65845 59.04304 54.35075
# Shear Modulus (GPa) = 22.96774 25.15488 24.06131
#
# Velocity S-wave (km/s) = 3.38270 3.54010 3.46229
# Velocity P-wave (km/s) = 6.32431 6.79155 6.56209
#
# Compressibility (1/GPa) = 0.02013756
#
# Stress axis : x y z
#
# Youngs Moduli (GPa) = 79.68901 81.29152 54.10687
#
# Poissons Ratio (x) = 0.48722 0.22783
# Poissons Ratio (y) = 0.47762 0.07538
# Poissons Ratio (z) = 0.33554 0.11325
#
# Static dielectric constant tensor:
#      x y z
#    x 4.307480 0.000000 0.000000 
#    y 0.000000 3.564750 0.000000 
#    z 0.000000 0.000000 3.687160 
# 
# 
# High freq. dielectric constant tensor:
#      x y z
#    x 1.790940 0.000000 0.000000 
#    y 0.000000 1.761490 0.000000 
#    z 0.000000 0.000000 1.773500 
# 
# From -- ./inp_files/4032.got.cif
#   From: 2010.03.12/outbox.cif.g09.slc.cpg/sg49_3_cif.got.tgz:4032.got - 2010.04.14 03:58:27.
