data_PCOD8203620
_publ_section_title
;
Structure prediction by ZEFSAII (Michael W. Deem and Ramdas Pophale) SiO2 
 PCOD8203620
Probable space group: P C C M
;
_chemical_formula_sum "Si O2"
_cell_formula_units_Z 58
_cell_length_a 12.853816
_cell_length_b 25.681710
_cell_length_c 9.013624
_cell_angle_alpha 90.000000
_cell_angle_beta 90.000000
_cell_angle_gamma 90.000000
_cell_volume 2975.469165
_symmetry_space_group_name_H-M "P C C M"
_symmetry_group_IT_number 49
_symmetry_cell_setting 'orthorhombic'
loop_
_space_group_symop_operation_xyz
x,y,z
-x,-y,z
x,-y,1/2-z
-x,y,1/2-z
-x,-y,-z
x,y,-z
-x,y,1/2+z
x,-y,1/2+z
loop_
_atom_site_type_symbol
_atom_site_label
_atom_site_fract_x
_atom_site_fract_y
_atom_site_fract_z
Si Si1 0.898100 0.809346 0.169617
Si Si2 0.898252 0.390192 0.823526
Si Si3 0.820648 0.919779 0.830861
Si Si4 0.000000 0.000000 0.750000
Si Si5 0.397405 0.944255 0.820649
Si Si6 0.799417 0.702310 0.827939
Si Si7 0.602429 0.659954 0.671854
Si Si8 0.693819 0.448323 0.168805
O O1 0.860544 0.864681 0.232842
O O2 0.814220 0.763934 0.193586
O O3 0.000000 0.789494 0.250000
O O4 0.927184 0.817265 0.000000
O O5 0.885119 0.332080 0.757926
O O6 0.804283 0.427273 0.771699
O O7 0.000000 0.415490 0.750000
O O8 0.905896 0.386248 0.000000
O O9 0.719249 0.928237 0.728768
O O10 0.916557 0.961932 0.832135
O O11 0.781222 0.915828 0.000000
O O12 0.500000 0.913351 0.750000
O O13 0.410224 0.000000 0.750000
O O14 0.402893 0.943314 0.000000
O O15 0.689751 0.691023 0.756439
O O16 0.802126 0.686254 0.000000
O O17 0.500000 0.680150 0.750000
O O18 0.605437 0.675435 0.500000
O O19 0.610753 0.597608 0.691580
O O20 0.655372 0.500000 0.250000
O O21 0.705372 0.464518 0.000000
#
# Coordination Sequence:
#
# PCOD8203620 Si02
#       8
#     8   8   8   2   8   8   8   8
#     4  10  22  38  57  85 120 154 189 234 285 340
#     4  10  20  34  52  77 107 143 186 230 278 331
#     4  11  23  39  59  89 125 159 200 245 291 350
#     4  12  22  36  66  86 126 164 202 238 296 344
#     4  11  22  38  61  86 113 149 193 239 286 338
#     4  10  20  36  58  82 109 144 184 230 284 338
#     4  10  21  38  59  84 111 143 186 233 284 340
#     4   9  20  35  51  75 109 145 183 229 277 331
#
# _framework density 19.492725
#
# number of rings (size 3 to 8) (size 9 to 14) (size 15 to 20)
#    0.000    1.793    1.379    4.345    0.000    7.172 
#    0.000    3.448    0.000    0.000    0.000    0.000 
#    0.000    0.000    0.000    0.000    0.000    0.000 
#
# Total GULP energy -718528.354681 kJ/mol
# GULP energy per Si atom -12388.419908 kJ/mol
# Density = 1.944836 g / cm^3
# Si number density = 19.492725 Si / 1000 Ang^3
#
#
#
# Elastic Constant Matrix: (Units=GPa)
#
#
# Indices 1 2 3 4 5 6 
#
# 1 108.9194 14.6003 40.7365 0.0000 0.0000 0.0000
# 2 14.6003 82.3868 31.3554 0.0000 0.0000 0.0000
# 3 40.7365 31.3554 95.3022 0.0000 0.0000 0.0000
# 4 0.0000 0.0000 0.0000 25.5621 0.0000 0.0000
# 5 0.0000 0.0000 0.0000 0.0000 23.8094 0.0000
# 6 0.0000 0.0000 0.0000 0.0000 0.0000 11.6278
#
#
#
# Elastic Compliance Matrix: (Units=1/GPa)
#
#
# Indices 1 2 3 4 5 6 
#
# 1 0.010931 -0.000182 -0.004612 0.000000 0.000000 0.000000
# 2 -0.000182 0.013878 -0.004488 0.000000 0.000000 0.000000
# 3 -0.004612 -0.004488 0.013941 0.000000 0.000000 0.000000
# 4 0.000000 0.000000 0.000000 0.039120 0.000000 0.000000
# 5 0.000000 0.000000 0.000000 0.000000 0.042000 0.000000
# 6 0.000000 0.000000 0.000000 0.000000 0.000000 0.086001
#
#
# Mechanical properties :
#
#
# Convention : Reuss Voigt Hill
#
# Bulk Modulus (GPa) = 49.54173 51.11031 50.32602
# Shear Modulus (GPa) = 21.62961 25.52763 23.57862
#
# Velocity S-wave (km/s) = 3.33472 3.62276 3.48172
# Velocity P-wave (km/s) = 6.34805 6.61637 6.48360
#
# Compressibility (1/GPa) = 0.02018500
#
# Stress axis : x y z
#
# Youngs Moduli (GPa) = 91.48691 72.05487 71.72953
#
# Poissons Ratio (x) = 0.01309 0.33085
# Poissons Ratio (y) = 0.01662 0.32196
# Poissons Ratio (z) = 0.42198 0.32342
#
# Static dielectric constant tensor:
#      x y z
#    x 4.565820 0.000000 0.000000 
#    y 0.000000 3.515320 0.000000 
#    z 0.000000 0.000000 3.585350 
# 
# 
# High freq. dielectric constant tensor:
#      x y z
#    x 1.770660 0.000000 0.000000 
#    y 0.000000 1.742810 0.000000 
#    z 0.000000 0.000000 1.764440 
# 
# From -- ./inp_files/3026.got.cif
#   From: 2010.03.12/outbox.cif.g09.slc.cpg/sg49_2_cif.got.tgz:3026.got - 2010.04.14 03:58:27.
