data_PCOD8203351
_publ_section_title
;
Structure prediction by ZEFSAII (Michael W. Deem and Ramdas Pophale) SiO2 
 PCOD8203351
Probable space group: P C C M
;
_chemical_formula_sum "Si O2"
_cell_formula_units_Z 58
_cell_length_a 11.443551
_cell_length_b 9.047138
_cell_length_c 29.693684
_cell_angle_alpha 90.000000
_cell_angle_beta 90.000000
_cell_angle_gamma 90.000000
_cell_volume 3074.228233
_symmetry_space_group_name_H-M "P C C M"
_symmetry_group_IT_number 49
_symmetry_cell_setting 'orthorhombic'
loop_
_space_group_symop_operation_xyz
x,y,z
-x,-y,z
x,-y,1/2-z
-x,y,1/2-z
-x,-y,-z
x,y,-z
-x,y,1/2+z
x,-y,1/2+z
loop_
_atom_site_type_symbol
_atom_site_label
_atom_site_fract_x
_atom_site_fract_y
_atom_site_fract_z
Si Si1 0.600851 0.773579 0.316644
Si Si2 0.804266 0.338170 0.764005
Si Si3 0.576844 0.642384 0.878512
Si Si4 0.249777 0.049208 0.379712
Si Si5 0.389198 0.895691 0.449593
Si Si6 0.788136 0.750777 0.164999
Si Si7 0.500000 0.000000 0.750000
Si Si8 0.037219 0.840487 0.831794
O O1 0.686565 0.652188 0.294052
O O2 0.479770 0.702911 0.332186
O O3 0.655197 0.833289 0.363192
O O4 0.583703 0.901673 0.280672
O O5 0.849487 0.500000 0.750000
O O6 0.777506 0.252123 0.718469
O O7 0.902846 0.252626 0.792182
O O8 0.500000 0.500000 0.893162
O O9 0.578432 0.750791 0.921080
O O10 0.712936 0.622665 0.861631
O O11 0.122202 0.125517 0.374624
O O12 0.279726 0.991138 0.429833
O O13 0.265690 0.908785 0.347262
O O14 0.354751 0.846075 0.500000
O O15 0.500000 0.000000 0.449975
O O16 0.925375 0.746738 0.150413
O O17 0.000000 0.000000 0.811423
#
# Coordination Sequence:
#
# PCOD8203351 Si02
#       8
#     8   8   8   8   8   8   2   8
#     4  11  20  32  49  75 106 145 189 225 277 319
#     4  11  22  34  50  73 109 149 196 241 275 318
#     4  11  22  36  54  77 115 146 177 225 286 352
#     4   9  18  34  54  77 105 135 175 227 276 330
#     4  10  19  35  61  87 109 132 174 230 282 346
#     4  10  20  33  50  73 105 148 187 225 271 313
#     4  12  20  28  50  76 108 148 198 236 264 322
#     4   9  20  35  54  75 105 146 190 236 279 325
#
# _framework density 18.866523000000001
#
# number of rings (size 3 to 8) (size 9 to 14) (size 15 to 20)
#    0.000    1.793    1.379    4.552    0.000    7.448 
#    0.000    1.379    0.000   10.345    0.000    0.000 
#    0.000    2.207    0.000    0.138    0.000    0.000 
#
# Total GULP energy -718628.178119 kJ/mol
# GULP energy per Si atom -12390.141002 kJ/mol
# Density = 1.882358 g / cm^3
# Si number density = 18.866523 Si / 1000 Ang^3
#
#
#
# Elastic Constant Matrix: (Units=GPa)
#
#
# Indices 1 2 3 4 5 6 
#
# 1 117.3288 46.3669 61.2219 0.0000 0.0000 0.0000
# 2 46.3669 78.6832 45.6540 0.0000 0.0000 0.0000
# 3 61.2219 45.6540 114.3465 0.0000 0.0000 0.0000
# 4 0.0000 0.0000 0.0000 10.6907 0.0000 0.0000
# 5 0.0000 0.0000 0.0000 0.0000 18.5679 0.0000
# 6 0.0000 0.0000 0.0000 0.0000 0.0000 29.5566
#
#
#
# Elastic Compliance Matrix: (Units=1/GPa)
#
#
# Indices 1 2 3 4 5 6 
#
# 1 0.013055 -0.004734 -0.005099 0.000000 0.000000 0.000000
# 2 -0.004734 0.018258 -0.004755 0.000000 0.000000 0.000000
# 3 -0.005099 -0.004755 0.013374 0.000000 0.000000 0.000000
# 4 0.000000 0.000000 0.000000 0.093539 0.000000 0.000000
# 5 0.000000 0.000000 0.000000 0.000000 0.053856 0.000000
# 6 0.000000 0.000000 0.000000 0.000000 0.000000 0.033833
#
#
# Mechanical properties :
#
#
# Convention : Reuss Voigt Hill
#
# Bulk Modulus (GPa) = 64.47598 68.53822 66.50710
# Shear Modulus (GPa) = 19.21138 22.23745 20.72441
#
# Velocity S-wave (km/s) = 3.19451 3.43690 3.31792
# Velocity P-wave (km/s) = 6.91777 7.22195 7.07150
#
# Compressibility (1/GPa) = 0.01550965
#
# Stress axis : x y z
#
# Youngs Moduli (GPa) = 76.59999 54.77076 74.77141
#
# Poissons Ratio (x) = 0.25929 0.38129
# Poissons Ratio (y) = 0.36264 0.35553
# Poissons Ratio (z) = 0.39062 0.26043
#
# Static dielectric constant tensor:
#      x y z
#    x 3.736610 0.000000 0.000000 
#    y 0.000000 3.396140 0.000000 
#    z 0.000000 0.000000 3.353560 
# 
# 
# High freq. dielectric constant tensor:
#      x y z
#    x 1.744620 0.000000 0.000000 
#    y 0.000000 1.722360 0.000000 
#    z 0.000000 0.000000 1.697120 
# 
# From -- ./inp_files/24859.got.cif
#   From: 2010.03.12/outbox.cif.g09.slc.cpg/sg49_13_cif.got.tgz:24859.got - 2010.04.14 03:58:27.
