data_PCOD8203471
_publ_section_title
;
Structure prediction by ZEFSAII (Michael W. Deem and Ramdas Pophale) SiO2 
 PCOD8203471
Probable space group: P C C M
;
_chemical_formula_sum "Si O2"
_cell_formula_units_Z 40
_cell_length_a 5.143559
_cell_length_b 15.357832
_cell_length_c 24.255134
_cell_angle_alpha 90.000000
_cell_angle_beta 90.000000
_cell_angle_gamma 90.000000
_cell_volume 1916.007994
_symmetry_space_group_name_H-M "P C C M"
_symmetry_group_IT_number 49
_symmetry_cell_setting 'orthorhombic'
loop_
_space_group_symop_operation_xyz
x,y,z
-x,-y,z
x,-y,1/2-z
-x,y,1/2-z
-x,-y,-z
x,y,-z
-x,y,1/2+z
x,-y,1/2+z
loop_
_atom_site_type_symbol
_atom_site_label
_atom_site_fract_x
_atom_site_fract_y
_atom_site_fract_z
Si Si1 0.914250 0.409128 0.128988
Si Si2 0.099526 0.766566 0.936095
Si Si3 0.253866 0.096820 0.225154
Si Si4 0.604929 0.181793 0.622068
Si Si5 0.413651 0.357591 0.187311
O O1 0.913283 0.333120 0.083632
O O2 0.625789 0.414406 0.154045
O O3 0.000000 0.500000 0.099809
O O4 0.124937 0.395499 0.178064
O O5 0.318861 0.824719 0.904805
O O6 0.816753 0.807897 0.926141
O O7 0.168150 0.768097 0.000000
O O8 0.500000 0.147776 0.250000
O O9 0.294467 0.098824 0.158657
O O10 0.000000 0.145802 0.250000
O O11 0.247469 0.000000 0.250000
O O12 0.600618 0.259780 0.665430
O O13 0.500000 0.359666 0.250000
#
# Coordination Sequence:
#
# PCOD8203471 Si02
#       5
#     8   8   8   8   8
#     4  10  21  34  49  73 103 139 186 234 277 328
#     4  10  21  37  56  78 104 143 192 237 279 315
#     4  10  20  34  56  89 119 145 172 210 271 336
#     4  10  20  35  55  81 112 140 181 228 265 327
#     4  10  20  32  49  73 105 143 177 217 275 339
#
# _framework density 20.876740000000002
#
# number of rings (size 3 to 8) (size 9 to 14) (size 15 to 20)
#    0.000    2.000    0.000    3.600    0.000    6.000 
#    0.000    0.000    0.000    7.200    0.000   56.000 
#    0.000    0.000    0.000    0.000    0.000    0.000 
#
# Total GULP energy -495550.417623 kJ/mol
# GULP energy per Si atom -12388.760441 kJ/mol
# Density = 2.082922 g / cm^3
# Si number density = 20.876740 Si / 1000 Ang^3
#
#
#
# Elastic Constant Matrix: (Units=GPa)
#
#
# Indices 1 2 3 4 5 6 
#
# 1 153.5229 19.0419 36.2417 0.0000 0.0000 0.0000
# 2 19.0419 58.5807 30.0522 0.0000 0.0000 0.0000
# 3 36.2417 30.0522 118.2963 0.0000 0.0000 0.0000
# 4 0.0000 0.0000 0.0000 22.4472 0.0000 0.0000
# 5 0.0000 0.0000 0.0000 0.0000 -51.1784 0.0000
# 6 0.0000 0.0000 0.0000 0.0000 0.0000 8.2451
#
#
#
# Elastic Compliance Matrix: (Units=1/GPa)
#
#
# Indices 1 2 3 4 5 6 
#
# 1 0.007116 -0.001374 -0.001831 0.000000 0.000000 0.000000
# 2 -0.001374 0.019894 -0.004633 0.000000 0.000000 0.000000
# 3 -0.001831 -0.004633 0.010191 0.000000 0.000000 0.000000
# 4 0.000000 0.000000 0.000000 0.044549 0.000000 0.000000
# 5 0.000000 0.000000 0.000000 0.000000 -0.019540 0.000000
# 6 0.000000 0.000000 0.000000 0.000000 0.000000 0.121284
#
#
# Mechanical properties :
#
#
# Convention : Reuss Voigt Hill
#
# Bulk Modulus (GPa) = 46.45642 55.67460 51.06551
# Shear Modulus (GPa) = 24.23108 12.24038 18.23573
#
# Velocity S-wave (km/s) = 3.41056 2.42402 2.95870
# Velocity P-wave (km/s) = 6.14901 5.87883 6.01544
#
# Compressibility (1/GPa) = 0.02152555
#
# Stress axis : x y z
#
# Youngs Moduli (GPa) = 140.52112 50.26701 98.12264
#
# Poissons Ratio (x) = 0.06906 0.17968
# Poissons Ratio (y) = 0.19305 0.45460
# Poissons Ratio (z) = 0.25732 0.23289
#
# Static dielectric constant tensor:
#      x y z
#    x 0.952550 0.000000 0.000000 
#    y 0.000000 3.905020 0.000000 
#    z 0.000000 0.000000 3.497750 
# 
# 
# High freq. dielectric constant tensor:
#      x y z
#    x 1.850600 0.000000 0.000000 
#    y 0.000000 1.790220 0.000000 
#    z 0.000000 0.000000 1.792060 
# 
# From -- ./inp_files/23861.got.cif
#   From: 2010.03.12/outbox.cif.g09.slc.cpg/sg49_12_cif.got.tgz:23861.got - 2010.04.14 03:58:27.
