data_PCOD8203029
_publ_section_title
;
Structure prediction by ZEFSAII (Michael W. Deem and Ramdas Pophale) SiO2 
 PCOD8203029
Probable space group: P C C M
;
_chemical_formula_sum "Si O2"
_cell_formula_units_Z 64
_cell_length_a 15.957683
_cell_length_b 22.304131
_cell_length_c 9.048313
_cell_angle_alpha 90.000000
_cell_angle_beta 90.000000
_cell_angle_gamma 90.000000
_cell_volume 3220.495941
_symmetry_space_group_name_H-M "P C C M"
_symmetry_group_IT_number 49
_symmetry_cell_setting 'orthorhombic'
loop_
_space_group_symop_operation_xyz
x,y,z
-x,-y,z
x,-y,1/2-z
-x,y,1/2-z
-x,-y,-z
x,y,-z
-x,y,1/2+z
x,-y,1/2+z
loop_
_atom_site_type_symbol
_atom_site_label
_atom_site_fract_x
_atom_site_fract_y
_atom_site_fract_z
Si Si1 0.259097 0.060459 0.324783
Si Si2 0.716409 0.176490 0.671708
Si Si3 0.130306 0.777185 0.163861
Si Si4 0.584496 0.595308 0.826466
Si Si5 0.086358 0.642343 0.174708
Si Si6 0.923616 0.095056 0.837404
Si Si7 0.420582 0.268887 0.172017
Si Si8 0.227160 0.561547 0.322497
O O1 0.268396 0.056622 0.500000
O O2 0.310418 0.117403 0.263673
O O3 0.164307 0.073087 0.269016
O O4 0.293356 0.000000 0.250000
O O5 0.711432 0.160351 0.500000
O O6 0.805767 0.204243 0.709245
O O7 0.656637 0.229606 0.721462
O O8 0.088113 0.713890 0.202472
O O9 0.065075 0.832479 0.160835
O O10 0.172925 0.773318 0.000000
O O11 0.500000 0.567082 0.750000
O O12 0.593752 0.663568 0.773017
O O13 0.673969 0.566989 0.778717
O O14 0.570696 0.588221 0.000000
O O15 0.168427 0.613444 0.252592
O O16 0.000000 0.618402 0.250000
O O17 0.085860 0.626735 0.000000
O O18 0.000000 0.065581 0.750000
O O19 0.928611 0.068232 0.000000
O O20 0.500000 0.239646 0.250000
O O21 0.436221 0.267600 0.000000
O O22 0.194576 0.500000 0.250000
O O23 0.216382 0.562222 0.500000
#
# Coordination Sequence:
#
# PCOD8203029 Si02
#       8
#     8   8   8   8   8   8   8   8
#     4  10  21  36  51  70  97 132 177 221 264 314
#     4  10  19  32  53  79 107 140 177 218 265 315
#     4   9  19  34  52  78 109 139 174 216 266 324
#     4   9  19  36  59  87 119 151 183 223 272 331
#     4  11  23  39  60  85 113 148 190 237 289 340
#     4   9  18  31  47  70 100 131 164 205 253 307
#     4   9  18  32  52  81 112 140 170 205 253 313
#     4  11  24  42  61  83 113 149 192 238 282 332
#
# _framework density 19.872714999999999
#
# number of rings (size 3 to 8) (size 9 to 14) (size 15 to 20)
#    0.000    2.250    0.000    3.375    0.000    7.250 
#    0.000    6.250    0.000    0.375    0.000    2.625 
#    0.000    0.000    0.000    0.000    0.000    0.000 
#
# Total GULP energy -793127.793076 kJ/mol
# GULP energy per Si atom -12392.621767 kJ/mol
# Density = 1.982748 g / cm^3
# Si number density = 19.872715 Si / 1000 Ang^3
#
#
#
# Elastic Constant Matrix: (Units=GPa)
#
#
# Indices 1 2 3 4 5 6 
#
# 1 67.0710 12.6976 31.6806 0.0000 0.0000 0.0000
# 2 12.6976 70.8737 34.4838 0.0000 0.0000 0.0000
# 3 31.6806 34.4838 68.4818 0.0000 0.0000 0.0000
# 4 0.0000 0.0000 0.0000 29.3661 0.0000 0.0000
# 5 0.0000 0.0000 0.0000 0.0000 33.7960 0.0000
# 6 0.0000 0.0000 0.0000 0.0000 0.0000 14.5102
#
#
#
# Elastic Compliance Matrix: (Units=1/GPa)
#
#
# Indices 1 2 3 4 5 6 
#
# 1 0.019151 0.001165 -0.009446 0.000000 0.000000 0.000000
# 2 0.001165 0.018759 -0.009985 0.000000 0.000000 0.000000
# 3 -0.009446 -0.009985 0.024000 0.000000 0.000000 0.000000
# 4 0.000000 0.000000 0.000000 0.034053 0.000000 0.000000
# 5 0.000000 0.000000 0.000000 0.000000 0.029589 0.000000
# 6 0.000000 0.000000 0.000000 0.000000 0.000000 0.068917
#
#
# Mechanical properties :
#
#
# Convention : Reuss Voigt Hill
#
# Bulk Modulus (GPa) = 39.40428 40.46117 39.93273
# Shear Modulus (GPa) = 20.88022 24.03875 22.45949
#
# Velocity S-wave (km/s) = 3.24496 3.48176 3.36544
# Velocity P-wave (km/s) = 5.82332 6.04714 5.93628
#
# Compressibility (1/GPa) = 0.02537795
#
# Stress axis : x y z
#
# Youngs Moduli (GPa) = 52.21712 53.30739 41.66634
#
# Poissons Ratio (x) = -0.06210 0.39358
# Poissons Ratio (y) = -0.06083 0.41604
# Poissons Ratio (z) = 0.49324 0.53227
#
# Static dielectric constant tensor:
#      x y z
#    x 3.468510 0.000000 0.000000 
#    y 0.000000 3.725140 0.000000 
#    z 0.000000 0.000000 3.585930 
# 
# 
# High freq. dielectric constant tensor:
#      x y z
#    x 1.754000 0.000000 0.000000 
#    y 0.000000 1.776600 0.000000 
#    z 0.000000 0.000000 1.778480 
# 
# From -- ./inp_files/4385.got.cif
#   From: 2010.03.12/outbox.cif.g09.slc.cpg/sg49_3_cif.got.tgz:4385.got - 2010.04.14 03:58:27.
