data_PCOD8203969
_publ_section_title
;
Structure prediction by ZEFSAII (Michael W. Deem and Ramdas Pophale) SiO2 
 PCOD8203969
Probable space group: P C C M
;
_chemical_formula_sum "Si O2"
_cell_formula_units_Z 64
_cell_length_a 8.745826
_cell_length_b 21.659766
_cell_length_c 17.260453
_cell_angle_alpha 90.000000
_cell_angle_beta 90.000000
_cell_angle_gamma 90.000000
_cell_volume 3269.691533
_symmetry_space_group_name_H-M "P C C M"
_symmetry_group_IT_number 49
_symmetry_cell_setting 'orthorhombic'
loop_
_space_group_symop_operation_xyz
x,y,z
-x,-y,z
x,-y,1/2-z
-x,y,1/2-z
-x,-y,-z
x,y,-z
-x,y,1/2+z
x,-y,1/2+z
loop_
_atom_site_type_symbol
_atom_site_label
_atom_site_fract_x
_atom_site_fract_y
_atom_site_fract_z
Si Si1 0.813821 0.372404 0.410859
Si Si2 0.828199 0.992003 0.909270
Si Si3 0.705875 0.238601 0.089854
Si Si4 0.358041 0.245108 0.911716
Si Si5 0.676305 0.570892 0.234949
Si Si6 0.326243 0.889953 0.158484
Si Si7 0.100724 0.338439 0.322288
Si Si8 0.684389 0.123031 0.666738
O O1 0.799605 0.394911 0.500000
O O2 0.742378 0.305144 0.399406
O O3 0.718811 0.417753 0.355087
O O4 0.991779 0.370553 0.386367
O O5 0.778167 0.924079 0.885141
O O6 0.724747 0.043962 0.871146
O O7 0.812319 0.999434 0.000000
O O8 0.000000 0.000000 0.880189
O O9 0.533137 0.256889 0.114247
O O10 0.737239 0.166238 0.106241
O O11 0.818182 0.279350 0.141299
O O12 0.738059 0.252479 0.000000
O O13 0.279131 0.192331 0.860605
O O14 0.358636 0.222251 0.000000
O O15 0.713580 0.500000 0.250000
O O16 0.500000 0.586981 0.250000
O O17 0.776320 0.611642 0.293562
O O18 0.263159 0.881633 0.244874
O O19 0.507514 0.891308 0.155749
O O20 0.000000 0.315231 0.250000
#
# Coordination Sequence:
#
# PCOD8203969 Si02
#       8
#     8   8   8   8   8   8   8   8
#     4  10  21  38  60  90 128 162 198 244 302 359
#     4  11  24  40  55  76 108 148 189 236 293 351
#     4  10  20  37  58  84 117 153 197 243 288 343
#     4   9  19  35  59  88 115 151 194 242 292 342
#     4  10  22  42  65  90 120 160 206 253 294 345
#     4  10  22  37  58  83 111 143 189 240 290 342
#     4  10  22  36  58  89 122 159 197 239 294 355
#     4  10  21  37  59  85 109 143 189 239 288 348
#
# _framework density 19.573712
#
# number of rings (size 3 to 8) (size 9 to 14) (size 15 to 20)
#    0.000    2.000    0.000    2.625    3.500    7.250 
#    0.000    5.000    0.000    0.000    0.000    0.000 
#    0.000    0.000    0.000    0.000    0.000    0.000 
#
# Total GULP energy -793809.053263 kJ/mol
# GULP energy per Si atom -12403.266457 kJ/mol
# Density = 1.952916 g / cm^3
# Si number density = 19.573712 Si / 1000 Ang^3
#
#
#
# Elastic Constant Matrix: (Units=GPa)
#
#
# Indices 1 2 3 4 5 6 
#
# 1 81.3568 47.2451 42.3612 0.0000 0.0000 0.0000
# 2 47.2451 99.2791 55.1730 0.0000 0.0000 0.0000
# 3 42.3612 55.1730 92.7923 0.0000 0.0000 0.0000
# 4 0.0000 0.0000 0.0000 34.9695 0.0000 0.0000
# 5 0.0000 0.0000 0.0000 0.0000 19.9360 0.0000
# 6 0.0000 0.0000 0.0000 0.0000 0.0000 10.7053
#
#
#
# Elastic Compliance Matrix: (Units=1/GPa)
#
#
# Indices 1 2 3 4 5 6 
#
# 1 0.018282 -0.006066 -0.004739 0.000000 0.000000 0.000000
# 2 -0.006066 0.017056 -0.007372 0.000000 0.000000 0.000000
# 3 -0.004739 -0.007372 0.017324 0.000000 0.000000 0.000000
# 4 0.000000 0.000000 0.000000 0.028596 0.000000 0.000000
# 5 0.000000 0.000000 0.000000 0.000000 0.050160 0.000000
# 6 0.000000 0.000000 0.000000 0.000000 0.000000 0.093411
#
#
# Mechanical properties :
#
#
# Convention : Reuss Voigt Hill
#
# Bulk Modulus (GPa) = 61.32380 62.55410 61.93895
# Shear Modulus (GPa) = 18.75324 21.69876 20.22600
#
# Velocity S-wave (km/s) = 3.09865 3.33313 3.21802
# Velocity P-wave (km/s) = 6.64830 6.84402 6.74687
#
# Compressibility (1/GPa) = 0.01630688
#
# Stress axis : x y z
#
# Youngs Moduli (GPa) = 54.69890 58.62881 57.72484
#
# Poissons Ratio (x) = 0.35566 0.27356
# Poissons Ratio (y) = 0.33182 0.42556
# Poissons Ratio (z) = 0.25922 0.43222
#
# Static dielectric constant tensor:
#      x y z
#    x 3.647760 0.000000 0.000000 
#    y 0.000000 3.444760 0.000000 
#    z 0.000000 0.000000 3.764050 
# 
# 
# High freq. dielectric constant tensor:
#      x y z
#    x 1.765010 0.000000 0.000000 
#    y 0.000000 1.759220 0.000000 
#    z 0.000000 0.000000 1.773760 
# 
# From -- ./inp_files/16564.got.cif
#   From: 2010.03.12/outbox.cif.g09.slc.cpg/sg49_9_cif.got.tgz:16564.got - 2010.04.14 03:58:27.
