data_PCOD8203546
_publ_section_title
;
Structure prediction by ZEFSAII (Michael W. Deem and Ramdas Pophale) SiO2 
 PCOD8203546
Probable space group: P C C M
;
_chemical_formula_sum "Si O2"
_cell_formula_units_Z 64
_cell_length_a 16.829310
_cell_length_b 12.158171
_cell_length_c 16.569107
_cell_angle_alpha 90.000000
_cell_angle_beta 90.000000
_cell_angle_gamma 90.000000
_cell_volume 3390.265109
_symmetry_space_group_name_H-M "P C C M"
_symmetry_group_IT_number 49
_symmetry_cell_setting 'orthorhombic'
loop_
_space_group_symop_operation_xyz
x,y,z
-x,-y,z
x,-y,1/2-z
-x,y,1/2-z
-x,-y,-z
x,y,-z
-x,y,1/2+z
x,-y,1/2+z
loop_
_atom_site_type_symbol
_atom_site_label
_atom_site_fract_x
_atom_site_fract_y
_atom_site_fract_z
Si Si1 0.559034 0.347614 0.404211
Si Si2 0.610323 0.412354 0.095604
Si Si3 0.878297 0.814231 0.406313
Si Si4 0.052995 0.770501 0.404921
Si Si5 0.778203 0.623543 0.660766
Si Si6 0.301868 0.791020 0.592367
Si Si7 0.822583 0.044659 0.595447
Si Si8 0.817901 0.623679 0.844763
O O1 0.565332 0.348524 0.500000
O O2 0.594625 0.463581 0.374200
O O3 0.466408 0.337733 0.379629
O O4 0.613351 0.247213 0.368288
O O5 0.684596 0.366010 0.144541
O O6 0.626169 0.406572 0.000000
O O7 0.890977 0.839222 0.500000
O O8 0.820820 0.712090 0.394914
O O9 0.964715 0.787826 0.368735
O O10 0.838730 0.924032 0.366759
O O11 0.051291 0.746712 0.500000
O O12 0.102187 0.879751 0.383458
O O13 0.092280 0.664856 0.361006
O O14 0.793545 0.650437 0.753479
O O15 0.812410 0.505068 0.635744
O O16 0.318469 0.818805 0.500000
O O17 0.258412 0.898272 0.632141
O O18 0.241294 0.688281 0.596059
O O19 0.811143 0.037362 0.500000
#
# Coordination Sequence:
#
# PCOD8203546 Si02
#       8
#     8   8   8   8   8   8   8   8
#     4   8  14  25  48  77  99 125 166 210 247 284
#     4   9  16  28  47  73 102 132 167 206 247 291
#     4  10  20  33  51  75  98 127 164 202 257 309
#     4   9  18  34  55  73  92 122 168 220 251 289
#     4  11  22  33  46  66 105 140 160 202 253 305
#     4   9  15  29  54  75  95 126 167 211 249 294
#     4   8  15  29  52  78  98 119 156 210 257 293
#     4  10  21  34  47  68  97 133 170 202 250 306
#
# _framework density 18.877579000000001
#
# number of rings (size 3 to 8) (size 9 to 14) (size 15 to 20)
#    0.000    2.750    1.250    2.625    0.000    4.000 
#    0.000    5.625    0.000    3.750    0.000    4.375 
#    0.000    4.000    0.000    0.250    0.000    0.000 
#
# Total GULP energy -793094.896052 kJ/mol
# GULP energy per Si atom -12392.107751 kJ/mol
# Density = 1.883461 g / cm^3
# Si number density = 18.877579 Si / 1000 Ang^3
#
#
#
# Elastic Constant Matrix: (Units=GPa)
#
#
# Indices 1 2 3 4 5 6 
#
# 1 171.7799 86.0418 24.1352 0.0000 0.0000 0.0000
# 2 86.0418 110.5291 14.6849 0.0000 0.0000 0.0000
# 3 24.1352 14.6849 20.6311 0.0000 0.0000 0.0000
# 4 0.0000 0.0000 0.0000 11.8004 0.0000 0.0000
# 5 0.0000 0.0000 0.0000 0.0000 14.0540 0.0000
# 6 0.0000 0.0000 0.0000 0.0000 0.0000 33.9010
#
#
#
# Elastic Compliance Matrix: (Units=1/GPa)
#
#
# Indices 1 2 3 4 5 6 
#
# 1 0.010399 -0.007156 -0.007072 0.000000 0.000000 0.000000
# 2 -0.007156 0.014916 -0.002246 0.000000 0.000000 0.000000
# 3 -0.007072 -0.002246 0.058343 0.000000 0.000000 0.000000
# 4 0.000000 0.000000 0.000000 0.084743 0.000000 0.000000
# 5 0.000000 0.000000 0.000000 0.000000 0.071154 0.000000
# 6 0.000000 0.000000 0.000000 0.000000 0.000000 0.029498
#
#
# Mechanical properties :
#
#
# Convention : Reuss Voigt Hill
#
# Bulk Modulus (GPa) = 19.71993 61.40710 40.56352
# Shear Modulus (GPa) = 15.67870 23.82295 19.75083
#
# Velocity S-wave (km/s) = 2.88505 3.55628 3.23810
# Velocity P-wave (km/s) = 4.64402 7.03296 5.95942
#
# Compressibility (1/GPa) = 0.05071013
#
# Stress axis : x y z
#
# Youngs Moduli (GPa) = 96.16093 67.04121 17.14015
#
# Poissons Ratio (x) = 0.47973 0.12122
# Poissons Ratio (y) = 0.68810 0.03850
# Poissons Ratio (z) = 0.68007 0.15058
#
# Static dielectric constant tensor:
#      x y z
#    x 3.814990 0.000000 0.000000 
#    y 0.000000 3.561390 0.000000 
#    z 0.000000 0.000000 3.036770 
# 
# 
# High freq. dielectric constant tensor:
#      x y z
#    x 1.739150 0.000000 0.000000 
#    y 0.000000 1.714340 0.000000 
#    z 0.000000 0.000000 1.694400 
# 
# From -- ./inp_files/14162.got.cif
#   From: 2010.03.12/outbox.cif.g09.slc.cpg/sg49_8_cif.got.tgz:14162.got - 2010.04.14 03:58:27.
