data_PCOD8203646
_publ_section_title
;
Structure prediction by ZEFSAII (Michael W. Deem and Ramdas Pophale) SiO2 
 PCOD8203646
Probable space group: P C C M
;
_chemical_formula_sum "Si O2"
_cell_formula_units_Z 48
_cell_length_a 31.239266
_cell_length_b 9.195220
_cell_length_c 8.957238
_cell_angle_alpha 90.000000
_cell_angle_beta 90.000000
_cell_angle_gamma 90.000000
_cell_volume 2572.983845
_symmetry_space_group_name_H-M "P C C M"
_symmetry_group_IT_number 49
_symmetry_cell_setting 'orthorhombic'
loop_
_space_group_symop_operation_xyz
x,y,z
-x,-y,z
x,-y,1/2-z
-x,y,1/2-z
-x,-y,-z
x,y,-z
-x,y,1/2+z
x,-y,1/2+z
loop_
_atom_site_type_symbol
_atom_site_label
_atom_site_fract_x
_atom_site_fract_y
_atom_site_fract_z
Si Si1 0.040036 0.343727 0.826043
Si Si2 0.365317 0.156849 0.325669
Si Si3 0.706226 0.654461 0.824173
Si Si4 0.460392 0.155043 0.327806
Si Si5 0.865814 0.655113 0.174170
Si Si6 0.211760 0.846318 0.674403
O O1 0.041508 0.500000 0.750000
O O2 0.086947 0.273991 0.796916
O O3 0.000000 0.255575 0.750000
O O4 0.030471 0.358901 0.000000
O O5 0.353706 0.139777 0.500000
O O6 0.335199 0.272319 0.246896
O O7 0.413275 0.223770 0.305921
O O8 0.359858 0.000000 0.250000
O O9 0.714061 0.500000 0.750000
O O10 0.747311 0.750520 0.785620
O O11 0.699203 0.636190 0.000000
O O12 0.500000 0.244309 0.250000
O O13 0.471662 0.137116 0.500000
O O14 0.458396 0.000000 0.250000
O O15 0.860047 0.500000 0.250000
O O16 0.830675 0.766705 0.237862
O O17 0.858302 0.627582 0.000000
O O18 0.207211 0.872988 0.500000
O O19 0.217631 0.000000 0.750000
#
# Coordination Sequence:
#
# PCOD8203646 Si02
#       6
#     8   8   8   8   8   8
#     4   9  15  24  41  66  97 129 162 202 245 290
#     4  10  20  34  53  79 110 142 177 216 259 306
#     4  11  23  38  57  79 104 135 171 213 260 311
#     4   9  16  26  44  71 103 137 172 212 254 297
#     4   9  18  32  50  74 103 133 167 208 252 298
#     4  10  22  38  55  77 103 132 168 209 254 304
#
# _framework density 18.655384000000002
#
# number of rings (size 3 to 8) (size 9 to 14) (size 15 to 20)
#    0.000    2.333    0.000    4.000    0.000    6.000 
#    0.000    0.000    0.000    1.000    0.000    7.000 
#    0.000    0.000    0.000    0.000    0.000    0.000 
#
# Total GULP energy -594834.553697 kJ/mol
# GULP energy per Si atom -12392.386535 kJ/mol
# Density = 1.861292 g / cm^3
# Si number density = 18.655384 Si / 1000 Ang^3
#
#
#
# Elastic Constant Matrix: (Units=GPa)
#
#
# Indices 1 2 3 4 5 6 
#
# 1 174.0916 62.6722 80.5401 0.0000 0.0000 0.0000
# 2 62.6722 93.3811 50.0773 0.0000 0.0000 0.0000
# 3 80.5401 50.0773 110.5569 0.0000 0.0000 0.0000
# 4 0.0000 0.0000 0.0000 24.9462 0.0000 0.0000
# 5 0.0000 0.0000 0.0000 0.0000 30.1315 0.0000
# 6 0.0000 0.0000 0.0000 0.0000 0.0000 32.8927
#
#
#
# Elastic Compliance Matrix: (Units=1/GPa)
#
#
# Indices 1 2 3 4 5 6 
#
# 1 0.009459 -0.003504 -0.005304 0.000000 0.000000 0.000000
# 2 -0.003504 0.015443 -0.004442 0.000000 0.000000 0.000000
# 3 -0.005304 -0.004442 0.014921 0.000000 0.000000 0.000000
# 4 0.000000 0.000000 0.000000 0.040086 0.000000 0.000000
# 5 0.000000 0.000000 0.000000 0.000000 0.033188 0.000000
# 6 0.000000 0.000000 0.000000 0.000000 0.000000 0.030402
#
#
# Mechanical properties :
#
#
# Convention : Reuss Voigt Hill
#
# Bulk Modulus (GPa) = 75.05909 84.95654 80.00782
# Shear Modulus (GPa) = 28.66311 29.91008 29.28660
#
# Velocity S-wave (km/s) = 3.92401 4.00846 3.96646
# Velocity P-wave (km/s) = 7.80079 8.18917 7.99734
#
# Compressibility (1/GPa) = 0.01332284
#
# Stress axis : x y z
#
# Youngs Moduli (GPa) = 105.71577 64.75496 67.01997
#
# Poissons Ratio (x) = 0.22692 0.35546
# Poissons Ratio (y) = 0.37046 0.29770
# Poissons Ratio (z) = 0.56069 0.28764
#
# Static dielectric constant tensor:
#      x y z
#    x 4.707410 0.000000 0.000000 
#    y 0.000000 2.946790 0.000000 
#    z 0.000000 0.000000 3.534210 
# 
# 
# High freq. dielectric constant tensor:
#      x y z
#    x 1.757900 0.000000 0.000000 
#    y 0.000000 1.669870 0.000000 
#    z 0.000000 0.000000 1.735780 
# 
# From -- ./inp_files/6855.got.cif
#   From: 2010.03.12/outbox.cif.g09.slc.cpg/sg49_4_cif.got.tgz:6855.got - 2010.04.14 03:58:27.
