data_PCOD8203713
_publ_section_title
;
Structure prediction by ZEFSAII (Michael W. Deem and Ramdas Pophale) SiO2 
 PCOD8203713
Probable space group: P C C M
;
_chemical_formula_sum "Si O2"
_cell_formula_units_Z 64
_cell_length_a 19.439217
_cell_length_b 20.575858
_cell_length_c 8.570340
_cell_angle_alpha 90.000000
_cell_angle_beta 90.000000
_cell_angle_gamma 90.000000
_cell_volume 3427.952326
_symmetry_space_group_name_H-M "P C C M"
_symmetry_group_IT_number 49
_symmetry_cell_setting 'orthorhombic'
loop_
_space_group_symop_operation_xyz
x,y,z
-x,-y,z
x,-y,1/2-z
-x,y,1/2-z
-x,-y,-z
x,y,-z
-x,y,1/2+z
x,-y,1/2+z
loop_
_atom_site_type_symbol
_atom_site_label
_atom_site_fract_x
_atom_site_fract_y
_atom_site_fract_z
Si Si1 0.572694 0.768148 0.318521
Si Si2 0.572727 0.384121 0.181965
Si Si3 0.709950 0.431575 0.683676
Si Si4 0.794434 0.066670 0.683162
Si Si5 0.206155 0.687012 0.182321
Si Si6 0.071761 0.266025 0.183271
Si Si7 0.927702 0.124443 0.183977
Si Si8 0.288411 0.194198 0.817948
O O1 0.500000 0.791300 0.250000
O O2 0.575773 0.785285 0.500000
O O3 0.584050 0.692031 0.288190
O O4 0.631558 0.807312 0.227587
O O5 0.500000 0.407002 0.250000
O O6 0.629751 0.423479 0.276628
O O7 0.577602 0.401391 0.000000
O O8 0.736531 0.500000 0.750000
O O9 0.721837 0.427616 0.500000
O O10 0.752591 0.376200 0.768880
O O11 0.805768 0.061866 0.500000
O O12 0.868109 0.075900 0.764442
O O13 0.742625 0.124501 0.727091
O O14 0.762291 0.000000 0.750000
O O15 0.133186 0.685743 0.270866
O O16 0.249709 0.750868 0.220792
O O17 0.191810 0.685463 0.000000
O O18 0.089582 0.195533 0.250760
O O19 0.000000 0.293348 0.250000
O O20 0.065256 0.259909 0.000000
O O21 0.000000 0.098361 0.250000
O O22 0.932594 0.128604 0.000000
O O23 0.279109 0.209876 0.000000
#
# Coordination Sequence:
#
# PCOD8203713 Si02
#       8
#     8   8   8   8   8   8   8   8
#     4  10  20  34  57  86 119 151 190 238 290 345
#     4  10  20  35  55  83 117 155 197 238 284 344
#     4  12  25  41  60  84 118 157 197 244 293 347
#     4  11  24  40  58  83 117 155 198 242 293 350
#     4  12  23  38  61  89 118 154 197 241 291 345
#     4  11  21  36  58  88 120 153 193 241 293 343
#     4  11  21  35  56  82 116 155 196 239 287 345
#     4  11  22  37  60  87 117 152 194 242 292 345
#
# _framework density 18.670038000000002
#
# number of rings (size 3 to 8) (size 9 to 14) (size 15 to 20)
#    0.000    1.000    2.500    6.750    0.000    3.000 
#    0.000    2.500    0.000    0.750    0.000    5.250 
#    0.000    0.000    0.000    0.000    0.000    0.000 
#
# Total GULP energy -794017.967810 kJ/mol
# GULP energy per Si atom -12406.530747 kJ/mol
# Density = 1.862754 g / cm^3
# Si number density = 18.670038 Si / 1000 Ang^3
#
#
#
# Elastic Constant Matrix: (Units=GPa)
#
#
# Indices 1 2 3 4 5 6 
#
# 1 105.1589 41.6158 25.8975 0.0000 0.0000 0.0000
# 2 41.6158 89.3044 34.9801 0.0000 0.0000 0.0000
# 3 25.8975 34.9801 112.6174 0.0000 0.0000 0.0000
# 4 0.0000 0.0000 0.0000 28.1488 0.0000 0.0000
# 5 0.0000 0.0000 0.0000 0.0000 31.3460 0.0000
# 6 0.0000 0.0000 0.0000 0.0000 0.0000 18.7120
#
#
#
# Elastic Compliance Matrix: (Units=1/GPa)
#
#
# Indices 1 2 3 4 5 6 
#
# 1 0.011788 -0.005045 -0.001144 0.000000 0.000000 0.000000
# 2 -0.005045 0.014908 -0.003470 0.000000 0.000000 0.000000
# 3 -0.001144 -0.003470 0.010221 0.000000 0.000000 0.000000
# 4 0.000000 0.000000 0.000000 0.035526 0.000000 0.000000
# 5 0.000000 0.000000 0.000000 0.000000 0.031902 0.000000
# 6 0.000000 0.000000 0.000000 0.000000 0.000000 0.053442
#
#
# Mechanical properties :
#
#
# Convention : Reuss Voigt Hill
#
# Bulk Modulus (GPa) = 56.82481 56.89640 56.86061
# Shear Modulus (GPa) = 27.32696 29.28051 28.30373
#
# Velocity S-wave (km/s) = 3.82996 3.96449 3.89781
# Velocity P-wave (km/s) = 7.07535 7.17615 7.12593
#
# Compressibility (1/GPa) = 0.01759795
#
# Stress axis : x y z
#
# Youngs Moduli (GPa) = 84.83490 67.07808 97.84205
#
# Poissons Ratio (x) = 0.33841 0.11189
# Poissons Ratio (y) = 0.42800 0.33955
# Poissons Ratio (z) = 0.09702 0.23279
#
# Static dielectric constant tensor:
#      x y z
#    x 3.613190 0.000000 0.000000 
#    y 0.000000 3.302350 0.000000 
#    z 0.000000 0.000000 3.571050 
# 
# 
# High freq. dielectric constant tensor:
#      x y z
#    x 1.730230 0.000000 0.000000 
#    y 0.000000 1.699590 0.000000 
#    z 0.000000 0.000000 1.747060 
# 
# From -- ./inp_files/5347.got.cif
#   From: 2010.03.12/outbox.cif.g09.slc.cpg/sg49_3_cif.got.tgz:5347.got - 2010.04.14 03:58:27.
