data_PCOD8203269
_publ_section_title
;
Structure prediction by ZEFSAII (Michael W. Deem and Ramdas Pophale) SiO2 
 PCOD8203269
Probable space group: P C C M
;
_chemical_formula_sum "Si O2"
_cell_formula_units_Z 56
_cell_length_a 14.004475
_cell_length_b 12.101586
_cell_length_c 16.303299
_cell_angle_alpha 90.000000
_cell_angle_beta 90.000000
_cell_angle_gamma 90.000000
_cell_volume 2763.023748
_symmetry_space_group_name_H-M "P C C M"
_symmetry_group_IT_number 49
_symmetry_cell_setting 'orthorhombic'
loop_
_space_group_symop_operation_xyz
x,y,z
-x,-y,z
x,-y,1/2-z
-x,y,1/2-z
-x,-y,-z
x,y,-z
-x,y,1/2+z
x,-y,1/2+z
loop_
_atom_site_type_symbol
_atom_site_label
_atom_site_fract_x
_atom_site_fract_y
_atom_site_fract_z
Si Si1 0.091472 0.925048 0.091517
Si Si2 0.372947 0.768328 0.595566
Si Si3 0.103077 0.529713 0.095193
Si Si4 0.899830 0.276224 0.207447
Si Si5 0.751748 0.395331 0.690153
Si Si6 0.463701 0.885828 0.843261
Si Si7 0.721463 0.994990 0.843694
O O1 0.094431 0.843798 0.168554
O O2 0.188470 0.995813 0.095956
O O3 0.085117 0.871116 0.000000
O O4 0.000000 0.000000 0.106141
O O5 0.347070 0.752193 0.500000
O O6 0.340721 0.660194 0.647779
O O7 0.488437 0.783292 0.606891
O O8 0.327275 0.878958 0.633619
O O9 0.128970 0.646475 0.132402
O O10 0.180600 0.438437 0.117990
O O11 0.000000 0.500000 0.132167
O O12 0.098736 0.543649 0.000000
O O13 0.811260 0.294473 0.269089
O O14 0.000000 0.306390 0.250000
O O15 0.725472 0.500000 0.750000
O O16 0.500000 0.876793 0.750000
O O17 0.500000 0.000000 0.882714
O O18 0.349013 0.896924 0.852712
O O19 0.756393 0.000000 0.750000
#
# Coordination Sequence:
#
# PCOD8203269 Si02
#       7
#     8   8   8   8   8   8   8
#     4  11  27  42  54  84 129 170 209 249 304 373
#     4  11  22  36  62  98 125 156 201 262 323 370
#     4  10  19  34  57  81 113 151 200 268 319 357
#     4  11  22  37  57  80 112 163 217 251 299 375
#     4  10  22  38  59  88 121 158 214 264 317 379
#     4   9  17  36  60  91 126 157 200 249 302 368
#     4  11  21  38  64  91 128 168 209 252 303 372
#
# _framework density 20.267651000000001
#
# number of rings (size 3 to 8) (size 9 to 14) (size 15 to 20)
#    0.000    1.571    4.286    2.143    4.000    3.143 
#    0.000    0.000    0.000    0.429    0.000    1.000 
#    0.000    0.000    0.000    0.000    0.000    0.000 
#
# Total GULP energy -693734.013219 kJ/mol
# GULP energy per Si atom -12388.107379 kJ/mol
# Density = 2.022152 g / cm^3
# Si number density = 20.267651 Si / 1000 Ang^3
#
#
#
# Elastic Constant Matrix: (Units=GPa)
#
#
# Indices 1 2 3 4 5 6 
#
# 1 117.5735 38.5006 28.9540 0.0000 0.0000 0.0000
# 2 38.5006 75.0131 37.4280 0.0000 0.0000 0.0000
# 3 28.9540 37.4280 86.7357 0.0000 0.0000 0.0000
# 4 0.0000 0.0000 0.0000 20.5689 0.0000 0.0000
# 5 0.0000 0.0000 0.0000 0.0000 14.4504 0.0000
# 6 0.0000 0.0000 0.0000 0.0000 0.0000 32.1540
#
#
#
# Elastic Compliance Matrix: (Units=1/GPa)
#
#
# Indices 1 2 3 4 5 6 
#
# 1 0.010372 -0.004582 -0.001485 0.000000 0.000000 0.000000
# 2 -0.004582 0.019013 -0.006675 0.000000 0.000000 0.000000
# 3 -0.001485 -0.006675 0.014905 0.000000 0.000000 0.000000
# 4 0.000000 0.000000 0.000000 0.048617 0.000000 0.000000
# 5 0.000000 0.000000 0.000000 0.000000 0.069202 0.000000
# 6 0.000000 0.000000 0.000000 0.000000 0.000000 0.031100
#
#
# Mechanical properties :
#
#
# Convention : Reuss Voigt Hill
#
# Bulk Modulus (GPa) = 53.17465 54.34305 53.75885
# Shear Modulus (GPa) = 22.22590 25.06397 23.64493
#
# Velocity S-wave (km/s) = 3.31512 3.52042 3.41931
# Velocity P-wave (km/s) = 6.39895 6.58752 6.49391
#
# Compressibility (1/GPa) = 0.01880595
#
# Stress axis : x y z
#
# Youngs Moduli (GPa) = 96.41802 52.59450 67.09019
#
# Poissons Ratio (x) = 0.24101 0.09962
# Poissons Ratio (y) = 0.44182 0.44782
# Poissons Ratio (z) = 0.14317 0.35107
#
# Static dielectric constant tensor:
#      x y z
#    x 3.912150 0.000000 0.000000 
#    y 0.000000 3.479890 0.000000 
#    z 0.000000 0.000000 3.696660 
# 
# 
# High freq. dielectric constant tensor:
#      x y z
#    x 1.784890 0.000000 0.000000 
#    y 0.000000 1.766760 0.000000 
#    z 0.000000 0.000000 1.798090 
# 
# From -- ./inp_files/13562.got.cif
#   From: 2010.03.12/outbox.cif.g09.slc.cpg/sg49_7_cif.got.tgz:13562.got - 2010.04.14 03:58:27.
