data_PCOD8203882
_publ_section_title
;
Structure prediction by ZEFSAII (Michael W. Deem and Ramdas Pophale) SiO2 
 PCOD8203882
Probable space group: P C C M
;
_chemical_formula_sum "Si O2"
_cell_formula_units_Z 40
_cell_length_a 25.591260
_cell_length_b 9.565757
_cell_length_c 8.672200
_cell_angle_alpha 90.000000
_cell_angle_beta 90.000000
_cell_angle_gamma 90.000000
_cell_volume 2122.952604
_symmetry_space_group_name_H-M "P C C M"
_symmetry_group_IT_number 49
_symmetry_cell_setting 'orthorhombic'
loop_
_space_group_symop_operation_xyz
x,y,z
-x,-y,z
x,-y,1/2-z
-x,y,1/2-z
-x,-y,-z
x,y,-z
-x,y,1/2+z
x,-y,1/2+z
loop_
_atom_site_type_symbol
_atom_site_label
_atom_site_fract_x
_atom_site_fract_y
_atom_site_fract_z
Si Si1 0.053829 0.651203 0.318020
Si Si2 0.742894 0.151629 0.816964
Si Si3 0.350932 0.653451 0.181767
Si Si4 0.444507 0.149744 0.683005
Si Si5 0.147641 0.850255 0.317653
O O1 0.065345 0.500000 0.250000
O O2 0.048362 0.640690 0.500000
O O3 0.101475 0.748155 0.266723
O O4 0.000000 0.713649 0.250000
O O5 0.699652 0.261704 0.759865
O O6 0.798388 0.206112 0.754052
O O7 0.728898 0.000000 0.750000
O O8 0.744801 0.139600 0.000000
O O9 0.350828 0.500000 0.250000
O O10 0.402468 0.735790 0.236815
O O11 0.350012 0.640568 0.000000
O O12 0.500000 0.198333 0.750000
O O13 0.448028 0.136899 0.500000
O O14 0.427621 0.000000 0.750000
O O15 0.154000 0.860743 0.500000
O O16 0.133169 0.000000 0.250000
#
# Coordination Sequence:
#
# PCOD8203882 Si02
#       5
#     8   8   8   8   8
#     4  10  21  36  55  78 106 140 178 216 261 313
#     4  10  20  36  57  80 105 138 177 218 263 314
#     4  10  23  38  54  79 110 142 178 218 264 314
#     4  10  20  36  57  82 108 139 179 220 263 314
#     4  10  21  36  55  81 108 138 175 218 265 313
#
# _framework density 18.841683
#
# number of rings (size 3 to 8) (size 9 to 14) (size 15 to 20)
#    0.000    2.000    0.000    5.400    0.000    8.000 
#    0.000    8.000    0.000    0.000    0.000    0.000 
#    0.000    0.000    0.000    0.000    0.000    0.000 
#
# Total GULP energy -496089.922162 kJ/mol
# GULP energy per Si atom -12402.248054 kJ/mol
# Density = 1.879880 g / cm^3
# Si number density = 18.841683 Si / 1000 Ang^3
#
#
#
# Elastic Constant Matrix: (Units=GPa)
#
#
# Indices 1 2 3 4 5 6 
#
# 1 191.4804 122.6870 60.3522 0.0000 0.0000 0.0000
# 2 122.6870 136.8074 45.5525 0.0000 0.0000 0.0000
# 3 60.3522 45.5525 79.1058 0.0000 0.0000 0.0000
# 4 0.0000 0.0000 0.0000 31.1968 0.0000 0.0000
# 5 0.0000 0.0000 0.0000 0.0000 35.6599 0.0000
# 6 0.0000 0.0000 0.0000 0.0000 0.0000 30.5116
#
#
#
# Elastic Compliance Matrix: (Units=1/GPa)
#
#
# Indices 1 2 3 4 5 6 
#
# 1 0.013244 -0.010532 -0.004039 0.000000 0.000000 0.000000
# 2 -0.010532 0.017419 -0.001995 0.000000 0.000000 0.000000
# 3 -0.004039 -0.001995 0.016872 0.000000 0.000000 0.000000
# 4 0.000000 0.000000 0.000000 0.032055 0.000000 0.000000
# 5 0.000000 0.000000 0.000000 0.000000 0.028043 0.000000
# 6 0.000000 0.000000 0.000000 0.000000 0.000000 0.032774
#
#
# Mechanical properties :
#
#
# Convention : Reuss Voigt Hill
#
# Bulk Modulus (GPa) = 69.43786 96.06410 82.75098
# Shear Modulus (GPa) = 28.03644 31.39378 29.71511
#
# Velocity S-wave (km/s) = 3.86165 4.08632 3.97557
# Velocity P-wave (km/s) = 7.53767 8.56502 8.06771
#
# Compressibility (1/GPa) = 0.01440137
#
# Stress axis : x y z
#
# Youngs Moduli (GPa) = 75.50844 57.40979 59.26953
#
# Poissons Ratio (x) = 0.60462 0.23941
# Poissons Ratio (y) = 0.79523 0.11827
# Poissons Ratio (z) = 0.30500 0.11456
#
# Static dielectric constant tensor:
#      x y z
#    x 3.803770 0.000000 0.000000 
#    y 0.000000 3.558190 0.000000 
#    z 0.000000 0.000000 3.505390 
# 
# 
# High freq. dielectric constant tensor:
#      x y z
#    x 1.748420 0.000000 0.000000 
#    y 0.000000 1.726770 0.000000 
#    z 0.000000 0.000000 1.743260 
# 
# From -- ./inp_files/1911.got.cif
#   From: 2010.03.12/outbox.cif.g09.slc.cpg/sg49_1_cif.got.tgz:1911.got - 2010.04.14 03:58:27.
