data_PCOD8203734
_publ_section_title
;
Structure prediction by ZEFSAII (Michael W. Deem and Ramdas Pophale) SiO2 
 PCOD8203734
Probable space group: P C C M
;
_chemical_formula_sum "Si O2"
_cell_formula_units_Z 56
_cell_length_a 15.624042
_cell_length_b 19.769987
_cell_length_c 9.003116
_cell_angle_alpha 90.000000
_cell_angle_beta 90.000000
_cell_angle_gamma 90.000000
_cell_volume 2780.946457
_symmetry_space_group_name_H-M "P C C M"
_symmetry_group_IT_number 49
_symmetry_cell_setting 'orthorhombic'
loop_
_space_group_symop_operation_xyz
x,y,z
-x,-y,z
x,-y,1/2-z
-x,y,1/2-z
-x,-y,-z
x,y,-z
-x,y,1/2+z
x,-y,1/2+z
loop_
_atom_site_type_symbol
_atom_site_label
_atom_site_fract_x
_atom_site_fract_y
_atom_site_fract_z
Si Si1 0.591972 0.204832 0.822101
Si Si2 0.592083 0.338447 0.676224
Si Si3 0.087808 0.816382 0.674929
Si Si4 0.088693 0.337854 0.825147
Si Si5 0.157059 0.062781 0.663216
Si Si6 0.752807 0.428299 0.674177
Si Si7 0.646527 0.061383 0.160524
O O1 0.500000 0.203553 0.750000
O O2 0.635131 0.271010 0.747938
O O3 0.637061 0.135810 0.766973
O O4 0.590967 0.212795 0.000000
O O5 0.500000 0.356252 0.750000
O O6 0.579521 0.328816 0.500000
O O7 0.660138 0.397099 0.712880
O O8 0.082798 0.826174 0.500000
O O9 0.110316 0.739533 0.718941
O O10 0.156541 0.867626 0.743702
O O11 0.000000 0.839257 0.750000
O O12 0.168562 0.382051 0.767350
O O13 0.000000 0.361957 0.750000
O O14 0.075469 0.344846 0.000000
O O15 0.114149 0.071546 0.500000
O O16 0.255054 0.043397 0.640523
O O17 0.111971 0.000000 0.750000
O O18 0.760574 0.500000 0.750000
O O19 0.762454 0.437908 0.500000
O O20 0.601701 0.000000 0.250000
O O21 0.600745 0.063498 0.000000
#
# Coordination Sequence:
#
# PCOD8203734 Si02
#       7
#     8   8   8   8   8   8   8
#     4  10  20  35  54  80 109 142 185 230 278 332
#     4  10  21  38  60  86 118 153 192 238 286 338
#     4  10  20  35  56  80 107 141 181 227 277 330
#     4   9  20  39  60  86 119 152 191 234 283 339
#     4  10  20  35  52  75 106 141 183 229 278 331
#     4  10  23  41  61  89 120 153 192 231 279 342
#     4   9  20  35  51  74 106 142 183 229 277 331
#
# _framework density 20.137028999999998
#
# number of rings (size 3 to 8) (size 9 to 14) (size 15 to 20)
#    0.000    2.286    0.000    2.571    2.000    5.143 
#    0.000    5.714    0.000    0.000    0.000    0.000 
#    0.000    0.000    0.000    0.000    0.000    0.000 
#
# Total GULP energy -694048.208833 kJ/mol
# GULP energy per Si atom -12393.718015 kJ/mol
# Density = 2.009120 g / cm^3
# Si number density = 20.137029 Si / 1000 Ang^3
#
#
#
# Elastic Constant Matrix: (Units=GPa)
#
#
# Indices 1 2 3 4 5 6 
#
# 1 57.8747 50.1427 30.1087 0.0000 0.0000 0.0000
# 2 50.1427 151.9902 60.0918 0.0000 0.0000 0.0000
# 3 30.1087 60.0918 94.8891 0.0000 0.0000 0.0000
# 4 0.0000 0.0000 0.0000 37.9869 0.0000 0.0000
# 5 0.0000 0.0000 0.0000 0.0000 21.6275 0.0000
# 6 0.0000 0.0000 0.0000 0.0000 0.0000 19.2221
#
#
#
# Elastic Compliance Matrix: (Units=1/GPa)
#
#
# Indices 1 2 3 4 5 6 
#
# 1 0.025097 -0.006845 -0.003628 0.000000 0.000000 0.000000
# 2 -0.006845 0.010644 -0.004569 0.000000 0.000000 0.000000
# 3 -0.003628 -0.004569 0.014583 0.000000 0.000000 0.000000
# 4 0.000000 0.000000 0.000000 0.026325 0.000000 0.000000
# 5 0.000000 0.000000 0.000000 0.000000 0.046237 0.000000
# 6 0.000000 0.000000 0.000000 0.000000 0.000000 0.052023
#
#
# Mechanical properties :
#
#
# Convention : Reuss Voigt Hill
#
# Bulk Modulus (GPa) = 49.40799 65.04894 57.22847
# Shear Modulus (GPa) = 23.61377 26.72802 25.17090
#
# Velocity S-wave (km/s) = 3.42812 3.64717 3.53934
# Velocity P-wave (km/s) = 6.34496 7.07878 6.72189
#
# Compressibility (1/GPa) = 0.02023964
#
# Stress axis : x y z
#
# Youngs Moduli (GPa) = 39.84542 93.95046 68.57201
#
# Poissons Ratio (x) = 0.64310 0.24881
# Poissons Ratio (y) = 0.27275 0.31328
# Poissons Ratio (z) = 0.14458 0.42923
#
# Static dielectric constant tensor:
#      x y z
#    x 3.479680 0.000000 0.000000 
#    y 0.000000 4.272120 0.000000 
#    z 0.000000 0.000000 3.958680 
# 
# 
# High freq. dielectric constant tensor:
#      x y z
#    x 1.770120 0.000000 0.000000 
#    y 0.000000 1.792740 0.000000 
#    z 0.000000 0.000000 1.790580 
# 
# From -- ./inp_files/4043.got.cif
#   From: 2010.03.12/outbox.cif.g09.slc.cpg/sg49_3_cif.got.tgz:4043.got - 2010.04.14 03:58:27.
