data_PCOD8203363
_publ_section_title
;
Structure prediction by ZEFSAII (Michael W. Deem and Ramdas Pophale) SiO2 
 PCOD8203363
Probable space group: P C C M
;
_chemical_formula_sum "Si O2"
_cell_formula_units_Z 58
_cell_length_a 18.848834
_cell_length_b 19.040263
_cell_length_c 8.976924
_cell_angle_alpha 90.000000
_cell_angle_beta 90.000000
_cell_angle_gamma 90.000000
_cell_volume 3221.699139
_symmetry_space_group_name_H-M "P C C M"
_symmetry_group_IT_number 49
_symmetry_cell_setting 'orthorhombic'
loop_
_space_group_symop_operation_xyz
x,y,z
-x,-y,z
x,-y,1/2-z
-x,y,1/2-z
-x,-y,-z
x,y,-z
-x,y,1/2+z
x,-y,1/2+z
loop_
_atom_site_type_symbol
_atom_site_label
_atom_site_fract_x
_atom_site_fract_y
_atom_site_fract_z
Si Si1 0.572135 0.253807 0.822703
Si Si2 0.195559 0.573822 0.174640
Si Si3 0.392424 0.887407 0.333733
Si Si4 0.237508 0.070152 0.174978
Si Si5 0.926835 0.315867 0.172093
Si Si6 0.295214 0.321428 0.173520
Si Si7 0.500000 0.000000 0.250000
Si Si8 0.170566 0.786682 0.671203
O O1 0.500000 0.282572 0.750000
O O2 0.581708 0.172595 0.777759
O O3 0.633519 0.303312 0.760366
O O4 0.568640 0.258951 0.000000
O O5 0.179566 0.500000 0.250000
O O6 0.126619 0.620824 0.205089
O O7 0.263583 0.608282 0.253538
O O8 0.210945 0.565198 0.000000
O O9 0.382128 0.855166 0.500000
O O10 0.317833 0.915806 0.270808
O O11 0.449258 0.950246 0.347980
O O12 0.186407 0.134029 0.223114
O O13 0.207395 0.000000 0.250000
O O14 0.236529 0.059505 0.000000
O O15 0.894243 0.243202 0.232879
O O16 0.000000 0.335141 0.250000
O O17 0.941981 0.305316 0.000000
O O18 0.242218 0.256766 0.197715
O O19 0.310693 0.335067 0.000000
O O20 0.147286 0.782942 0.500000
#
# Coordination Sequence:
#
# PCOD8203363 Si02
#       8
#     8   8   8   8   8   8   2   8
#     4  12  24  36  53  76 104 140 185 236 286 337
#     4  10  21  37  58  89 122 155 190 222 263 318
#     4  11  22  35  48  70 101 138 183 228 282 339
#     4  10  20  34  50  73 103 138 181 230 281 334
#     4  10  21  36  57  86 118 150 186 223 265 322
#     4  10  19  36  59  81 109 145 186 234 281 329
#     4  12  22  32  52  70 106 148 186 228 286 356
#     4   9  18  34  55  77 106 144 184 228 277 329
#
# _framework density 18.002922999999999
#
# number of rings (size 3 to 8) (size 9 to 14) (size 15 to 20)
#    0.000    1.655    2.759    2.690    0.000    4.138 
#    0.000    1.379    0.000    0.828    0.000    5.793 
#    0.000    0.000    0.000    0.000    0.000    0.000 
#
# Total GULP energy -719359.726536 kJ/mol
# GULP energy per Si atom -12402.753906 kJ/mol
# Density = 1.796195 g / cm^3
# Si number density = 18.002923 Si / 1000 Ang^3
#
#
#
# Elastic Constant Matrix: (Units=GPa)
#
#
# Indices 1 2 3 4 5 6 
#
# 1 95.6386 54.4068 61.3810 0.0000 0.0000 0.0000
# 2 54.4068 107.0029 54.5802 0.0000 0.0000 0.0000
# 3 61.3810 54.5802 122.2307 0.0000 0.0000 0.0000
# 4 0.0000 0.0000 0.0000 31.4255 0.0000 0.0000
# 5 0.0000 0.0000 0.0000 0.0000 30.9191 0.0000
# 6 0.0000 0.0000 0.0000 0.0000 0.0000 14.5620
#
#
#
# Elastic Compliance Matrix: (Units=1/GPa)
#
#
# Indices 1 2 3 4 5 6 
#
# 1 0.017859 -0.005835 -0.006363 0.000000 0.000000 0.000000
# 2 -0.005835 0.014009 -0.003325 0.000000 0.000000 0.000000
# 3 -0.006363 -0.003325 0.012861 0.000000 0.000000 0.000000
# 4 0.000000 0.000000 0.000000 0.031821 0.000000 0.000000
# 5 0.000000 0.000000 0.000000 0.000000 0.032342 0.000000
# 6 0.000000 0.000000 0.000000 0.000000 0.000000 0.068672
#
#
# Mechanical properties :
#
#
# Convention : Reuss Voigt Hill
#
# Bulk Modulus (GPa) = 73.08362 73.95645 73.52003
# Shear Modulus (GPa) = 23.45527 25.68159 24.56843
#
# Velocity S-wave (km/s) = 3.61343 3.78103 3.69818
# Velocity P-wave (km/s) = 7.62186 7.76087 7.69168
#
# Compressibility (1/GPa) = 0.01368296
#
# Stress axis : x y z
#
# Youngs Moduli (GPa) = 55.99364 71.38513 77.75309
#
# Poissons Ratio (x) = 0.41654 0.49473
# Poissons Ratio (y) = 0.32673 0.25853
# Poissons Ratio (z) = 0.35628 0.23736
#
# Static dielectric constant tensor:
#      x y z
#    x 3.297110 0.000000 0.000000 
#    y 0.000000 3.265950 0.000000 
#    z 0.000000 0.000000 3.341730 
# 
# 
# High freq. dielectric constant tensor:
#      x y z
#    x 1.686970 0.000000 0.000000 
#    y 0.000000 1.685060 0.000000 
#    z 0.000000 0.000000 1.704720 
# 
# From -- ./inp_files/5117.got.cif
#   From: 2010.03.12/outbox.cif.g09.slc.cpg/sg49_3_cif.got.tgz:5117.got - 2010.04.14 03:58:27.
