data_PCOD8203185
_publ_section_title
;
Structure prediction by ZEFSAII (Michael W. Deem and Ramdas Pophale) SiO2 
 PCOD8203185
Probable space group: P C C M
;
_chemical_formula_sum "Si O2"
_cell_formula_units_Z 64
_cell_length_a 12.105116
_cell_length_b 16.306309
_cell_length_c 16.955186
_cell_angle_alpha 90.000000
_cell_angle_beta 90.000000
_cell_angle_gamma 90.000000
_cell_volume 3346.780129
_symmetry_space_group_name_H-M "P C C M"
_symmetry_group_IT_number 49
_symmetry_cell_setting 'orthorhombic'
loop_
_space_group_symop_operation_xyz
x,y,z
-x,-y,z
x,-y,1/2-z
-x,y,1/2-z
-x,-y,-z
x,y,-z
-x,y,1/2+z
x,-y,1/2+z
loop_
_atom_site_type_symbol
_atom_site_label
_atom_site_fract_x
_atom_site_fract_y
_atom_site_fract_z
Si Si1 0.879329 0.034697 0.593277
Si Si2 0.115859 0.752717 0.842487
Si Si3 0.738768 0.886358 0.409640
Si Si4 0.335749 0.303752 0.907015
Si Si5 0.561859 0.232673 0.093103
Si Si6 0.866554 0.788441 0.163909
Si Si7 0.622561 0.519777 0.158483
Si Si8 0.268381 0.630515 0.908414
O O1 0.867687 0.050907 0.500000
O O2 0.859926 0.116957 0.641191
O O3 0.786378 0.970938 0.626669
O O4 0.000000 0.000000 0.613479
O O5 0.167313 0.816547 0.904475
O O6 0.156325 0.781122 0.756405
O O7 0.160855 0.661609 0.860703
O O8 0.985369 0.750122 0.854733
O O9 0.717198 0.906296 0.500000
O O10 0.624411 0.848982 0.371618
O O11 0.434885 0.242116 0.879649
O O12 0.220861 0.261404 0.887529
O O13 0.346060 0.386748 0.857663
O O14 0.344504 0.322923 0.000000
O O15 0.626850 0.314689 0.119192
O O16 0.568425 0.224291 0.000000
O O17 0.500000 0.500000 0.126712
O O18 0.632454 0.500000 0.250000
O O19 0.709384 0.463783 0.111667
O O20 0.243509 0.639950 0.000000
#
# Coordination Sequence:
#
# PCOD8203185 Si02
#       8
#     8   8   8   8   8   8   8   8
#     4  10  19  33  56  84 112 145 196 247 285 338
#     4  10  21  37  55  81 112 152 190 236 294 355
#     4   9  17  33  56  81 109 145 194 240 279 336
#     4  11  22  37  58  85 120 153 190 238 291 344
#     4   8  16  31  53  81 110 145 185 231 282 330
#     4  11  23  37  53  82 120 152 187 241 303 350
#     4  11  22  36  57  89 121 153 187 234 287 341
#     4  10  19  35  60  83 110 148 200 240 270 334
#
# _framework density 19.122858000000001
#
# number of rings (size 3 to 8) (size 9 to 14) (size 15 to 20)
#    0.000    2.000    2.500    2.625    0.000    2.500 
#    0.000    1.250    0.000    6.750    0.000    3.500 
#    0.000    0.000    0.000    0.000    0.000    0.000 
#
# Total GULP energy -793362.405074 kJ/mol
# GULP energy per Si atom -12396.287579 kJ/mol
# Density = 1.907933 g / cm^3
# Si number density = 19.122858 Si / 1000 Ang^3
#
#
#
# Elastic Constant Matrix: (Units=GPa)
#
#
# Indices 1 2 3 4 5 6 
#
# 1 117.6078 71.4250 39.9369 0.0000 0.0000 0.0000
# 2 71.4250 128.2374 45.3553 0.0000 0.0000 0.0000
# 3 39.9369 45.3553 53.7618 0.0000 0.0000 0.0000
# 4 0.0000 0.0000 0.0000 26.9697 0.0000 0.0000
# 5 0.0000 0.0000 0.0000 0.0000 23.1116 0.0000
# 6 0.0000 0.0000 0.0000 0.0000 0.0000 35.0025
#
#
#
# Elastic Compliance Matrix: (Units=1/GPa)
#
#
# Indices 1 2 3 4 5 6 
#
# 1 0.013866 -0.005815 -0.005395 0.000000 0.000000 0.000000
# 2 -0.005815 0.013553 -0.007114 0.000000 0.000000 0.000000
# 3 -0.005395 -0.007114 0.028610 0.000000 0.000000 0.000000
# 4 0.000000 0.000000 0.000000 0.037079 0.000000 0.000000
# 5 0.000000 0.000000 0.000000 0.000000 0.043268 0.000000
# 6 0.000000 0.000000 0.000000 0.000000 0.000000 0.028569
#
#
# Mechanical properties :
#
#
# Convention : Reuss Voigt Hill
#
# Bulk Modulus (GPa) = 51.59629 68.11570 59.85600
# Shear Modulus (GPa) = 24.03225 26.54277 25.28751
#
# Velocity S-wave (km/s) = 3.54888 3.72965 3.64039
# Velocity P-wave (km/s) = 6.62064 7.36508 7.00276
#
# Compressibility (1/GPa) = 0.01938124
#
# Stress axis : x y z
#
# Youngs Moduli (GPa) = 72.11658 73.78402 34.95323
#
# Poissons Ratio (x) = 0.42907 0.18856
# Poissons Ratio (y) = 0.41937 0.24866
# Poissons Ratio (z) = 0.38905 0.52490
#
# Static dielectric constant tensor:
#      x y z
#    x 3.729120 0.000000 0.000000 
#    y 0.000000 3.551240 0.000000 
#    z 0.000000 0.000000 3.351890 
# 
# 
# High freq. dielectric constant tensor:
#      x y z
#    x 1.737900 0.000000 0.000000 
#    y 0.000000 1.737760 0.000000 
#    z 0.000000 0.000000 1.731520 
# 
# From -- ./inp_files/17327.got.cif
#   From: 2010.03.12/outbox.cif.g09.slc.cpg/sg49_9_cif.got.tgz:17327.got - 2010.04.14 03:58:27.
