data_PCOD8203568
_publ_section_title
;
Structure prediction by ZEFSAII (Michael W. Deem and Ramdas Pophale) SiO2 
 PCOD8203568
Probable space group: P C C M
;
_chemical_formula_sum "Si O2"
_cell_formula_units_Z 58
_cell_length_a 16.941863
_cell_length_b 18.192205
_cell_length_c 9.149554
_cell_angle_alpha 90.000000
_cell_angle_beta 90.000000
_cell_angle_gamma 90.000000
_cell_volume 2819.982618
_symmetry_space_group_name_H-M "P C C M"
_symmetry_group_IT_number 49
_symmetry_cell_setting 'orthorhombic'
loop_
_space_group_symop_operation_xyz
x,y,z
-x,-y,z
x,-y,1/2-z
-x,y,1/2-z
-x,-y,-z
x,y,-z
-x,y,1/2+z
x,-y,1/2+z
loop_
_atom_site_type_symbol
_atom_site_label
_atom_site_fract_x
_atom_site_fract_y
_atom_site_fract_z
Si Si1 0.584821 0.428051 0.177061
Si Si2 0.075390 0.174089 0.168795
Si Si3 0.219730 0.930177 0.668239
Si Si4 0.165627 0.285522 0.665936
Si Si5 0.078102 0.428180 0.667515
Si Si6 0.340780 0.724162 0.829286
Si Si7 0.500000 0.000000 0.750000
Si Si8 0.372120 0.114901 0.663282
O O1 0.628381 0.500000 0.250000
O O2 0.500000 0.426656 0.250000
O O3 0.622322 0.350909 0.233588
O O4 0.581946 0.434624 0.000000
O O5 0.155947 0.131424 0.199199
O O6 0.094376 0.252818 0.237790
O O7 0.000000 0.138023 0.250000
O O8 0.053988 0.180222 0.000000
O O9 0.229605 0.948951 0.500000
O O10 0.306607 0.911613 0.724787
O O11 0.184903 0.000000 0.750000
O O12 0.158381 0.255672 0.500000
O O13 0.151328 0.372357 0.672837
O O14 0.251748 0.266380 0.733135
O O15 0.109447 0.500000 0.750000
O O16 0.055630 0.445519 0.500000
O O17 0.000000 0.398380 0.750000
O O18 0.391665 0.799085 0.794450
O O19 0.333412 0.711035 0.000000
O O20 0.445728 0.057900 0.660708
O O21 0.336603 0.115240 0.500000
#
# Coordination Sequence:
#
# PCOD8203568 Si02
#       8
#     8   8   8   8   8   8   2   8
#     4  10  20  37  60  86 119 158 205 252 308 371
#     4  11  24  40  61  91 121 157 203 253 304 366
#     4  11  24  42  65  92 124 160 203 252 306 363
#     4  10  20  37  60  85 114 154 200 248 301 364
#     4  10  20  33  52  78 111 151 195 243 295 350
#     4   9  20  38  61  86 118 163 201 243 308 372
#     4  12  26  36  68 110 130 160 218 248 310 372
#     4  11  23  42  65  92 131 170 207 255 312 370
#
# _framework density 20.567501
#
# number of rings (size 3 to 8) (size 9 to 14) (size 15 to 20)
#    0.000    1.655    2.069    3.103    0.966    5.241 
#    0.000    4.138    0.000    0.000    0.000    0.000 
#    0.000    0.000    0.000    0.000    0.000    0.000 
#
# Total GULP energy -718611.018561 kJ/mol
# GULP energy per Si atom -12389.845148 kJ/mol
# Density = 2.052069 g / cm^3
# Si number density = 20.567501 Si / 1000 Ang^3
#
#
#
# Elastic Constant Matrix: (Units=GPa)
#
#
# Indices 1 2 3 4 5 6 
#
# 1 91.3064 46.5752 45.3584 0.0000 0.0000 0.0000
# 2 46.5752 139.7999 49.6238 0.0000 0.0000 0.0000
# 3 45.3584 49.6238 105.0248 0.0000 0.0000 0.0000
# 4 0.0000 0.0000 0.0000 26.6927 0.0000 0.0000
# 5 0.0000 0.0000 0.0000 0.0000 22.9645 0.0000
# 6 0.0000 0.0000 0.0000 0.0000 0.0000 150.0143
#
#
#
# Elastic Compliance Matrix: (Units=1/GPa)
#
#
# Indices 1 2 3 4 5 6 
#
# 1 0.015087 -0.003260 -0.004975 0.000000 0.000000 0.000000
# 2 -0.003260 0.009299 -0.002986 0.000000 0.000000 0.000000
# 3 -0.004975 -0.002986 0.013081 0.000000 0.000000 0.000000
# 4 0.000000 0.000000 0.000000 0.037463 0.000000 0.000000
# 5 0.000000 0.000000 0.000000 0.000000 0.043546 0.000000
# 6 0.000000 0.000000 0.000000 0.000000 0.000000 0.006666
#
#
# Mechanical properties :
#
#
# Convention : Reuss Voigt Hill
#
# Bulk Modulus (GPa) = 66.55834 68.80510 67.68172
# Shear Modulus (GPa) = 32.76703 52.90586 42.83644
#
# Velocity S-wave (km/s) = 3.99575 5.07729 4.56864
# Velocity P-wave (km/s) = 7.32934 8.24001 7.79798
#
# Compressibility (1/GPa) = 0.01502441
#
# Stress axis : x y z
#
# Youngs Moduli (GPa) = 66.28339 107.53770 76.44650
#
# Poissons Ratio (x) = 0.35059 0.38034
# Poissons Ratio (y) = 0.21610 0.22825
# Poissons Ratio (z) = 0.32978 0.32108
#
# Static dielectric constant tensor:
#      x y z
#    x 3.609700 0.000000 0.000000 
#    y 0.000000 4.390320 0.000000 
#    z 0.000000 0.000000 3.641790 
# 
# 
# High freq. dielectric constant tensor:
#      x y z
#    x 1.792960 0.000000 0.000000 
#    y 0.000000 1.821040 0.000000 
#    z 0.000000 0.000000 1.795040 
# 
# From -- ./inp_files/5070.got.cif
#   From: 2010.03.12/outbox.cif.g09.slc.cpg/sg49_3_cif.got.tgz:5070.got - 2010.04.14 03:58:27.
