data_PCOD8203853
_publ_section_title
;
Structure prediction by ZEFSAII (Michael W. Deem and Ramdas Pophale) SiO2 
 PCOD8203853
Probable space group: P C C M
;
_chemical_formula_sum "Si O2"
_cell_formula_units_Z 48
_cell_length_a 8.817078
_cell_length_b 29.175942
_cell_length_c 9.352960
_cell_angle_alpha 90.000000
_cell_angle_beta 90.000000
_cell_angle_gamma 90.000000
_cell_volume 2406.016752
_symmetry_space_group_name_H-M "P C C M"
_symmetry_group_IT_number 49
_symmetry_cell_setting 'orthorhombic'
loop_
_space_group_symop_operation_xyz
x,y,z
-x,-y,z
x,-y,1/2-z
-x,y,1/2-z
-x,-y,-z
x,y,-z
-x,y,1/2+z
x,-y,1/2+z
loop_
_atom_site_type_symbol
_atom_site_label
_atom_site_fract_x
_atom_site_fract_y
_atom_site_fract_z
Si Si1 0.677771 0.611511 0.767087
Si Si2 0.689080 0.441284 0.000000
Si Si3 0.847570 0.297094 0.667166
Si Si4 0.655733 0.045862 0.828223
Si Si5 0.670330 0.457633 0.500000
Si Si6 0.150158 0.133156 0.662768
Si Si7 0.658150 0.778125 0.331134
O O1 0.500000 0.619652 0.750000
O O2 0.746879 0.592404 0.622337
O O3 0.741804 0.658814 0.824688
O O4 0.727617 0.569562 0.864514
O O5 0.754908 0.492872 0.000000
O O6 0.512075 0.454732 0.000000
O O7 0.874443 0.283990 0.500000
O O8 0.773902 0.255587 0.753655
O O9 0.000000 0.309445 0.750000
O O10 0.500000 0.060301 0.750000
O O11 0.780205 0.084242 0.795058
O O12 0.715897 0.000000 0.750000
O O13 0.631298 0.039221 0.000000
O O14 0.097525 0.133527 0.500000
O O15 0.278896 0.170869 0.689989
O O16 0.000000 0.144293 0.750000
O O17 0.500000 0.774198 0.250000
O O18 0.640019 0.765852 0.500000
#
# Coordination Sequence:
#
# PCOD8203853 Si02
#       7
#     8   4   8   8   4   8   8
#     4  10  20  35  59  87 118 151 194 242 297 352
#     4   9  18  28  59  87 119 147 195 239 294 345
#     4  12  26  43  62  86 121 159 200 247 302 362
#     4  10  20  36  58  87 121 161 211 259 309 359
#     4   9  16  34  51  89 119 153 187 245 290 347
#     4  10  23  40  60  89 125 164 204 250 304 364
#     4  11  24  43  68  95 122 155 199 248 303 361
#
# _framework density 19.949985999999999
#
# number of rings (size 3 to 8) (size 9 to 14) (size 15 to 20)
#    0.000    1.667    0.833    4.000    2.333    6.333 
#    0.000    1.667    0.000    3.000    0.000    0.000 
#    0.000    0.000    0.000    0.000    0.000    0.000 
#
# Total GULP energy -594813.650018 kJ/mol
# GULP energy per Si atom -12391.951042 kJ/mol
# Density = 1.990458 g / cm^3
# Si number density = 19.949986 Si / 1000 Ang^3
#
#
#
# Elastic Constant Matrix: (Units=GPa)
#
#
# Indices 1 2 3 4 5 6 
#
# 1 52.9088 18.8948 35.0603 0.0000 0.0000 0.0000
# 2 18.8948 92.6693 41.8449 0.0000 0.0000 0.0000
# 3 35.0603 41.8449 155.2187 0.0000 0.0000 0.0000
# 4 0.0000 0.0000 0.0000 40.2319 0.0000 0.0000
# 5 0.0000 0.0000 0.0000 0.0000 32.5087 0.0000
# 6 0.0000 0.0000 0.0000 0.0000 0.0000 -8.4695
#
#
#
# Elastic Compliance Matrix: (Units=1/GPa)
#
#
# Indices 1 2 3 4 5 6 
#
# 1 0.022782 -0.002643 -0.004433 0.000000 0.000000 0.000000
# 2 -0.002643 0.012593 -0.002798 0.000000 0.000000 0.000000
# 3 -0.004433 -0.002798 0.008198 0.000000 0.000000 0.000000
# 4 0.000000 0.000000 0.000000 0.024856 0.000000 0.000000
# 5 0.000000 0.000000 0.000000 0.000000 0.030761 0.000000
# 6 0.000000 0.000000 0.000000 0.000000 0.000000 -0.118071
#
#
# Mechanical properties :
#
#
# Convention : Reuss Voigt Hill
#
# Bulk Modulus (GPa) = 41.97341 54.71075 48.34208
# Shear Modulus (GPa) = 567.51465 26.52068 297.01766
#
# Velocity S-wave (km/s) = 16.88450 3.64999 12.21492
# Velocity P-wave (km/s) = 20.02998 6.72657 14.94066
#
# Compressibility (1/GPa) = 0.02382461
#
# Stress axis : x y z
#
# Youngs Moduli (GPa) = 43.89391 79.40638 121.97772
#
# Poissons Ratio (x) = 0.20989 0.54077
# Poissons Ratio (y) = 0.11602 0.34129
# Poissons Ratio (z) = 0.19460 0.22218
#
# Static dielectric constant tensor:
#      x y z
#    x 3.430830 0.000000 0.000000 
#    y 0.000000 3.826580 0.000000 
#    z 0.000000 0.000000 4.141670 
# 
# 
# High freq. dielectric constant tensor:
#      x y z
#    x 1.754650 0.000000 0.000000 
#    y 0.000000 1.795220 0.000000 
#    z 0.000000 0.000000 1.799220 
# 
# From -- ./inp_files/2139.got.cif
#   From: 2010.03.12/outbox.cif.g09.slc.cpg/sg49_2_cif.got.tgz:2139.got - 2010.04.14 03:58:27.
