data_PCOD8203449
_publ_section_title
;
Structure prediction by ZEFSAII (Michael W. Deem and Ramdas Pophale) SiO2 
 PCOD8203449
Probable space group: P C C M
;
_chemical_formula_sum "Si O2"
_cell_formula_units_Z 56
_cell_length_a 22.652632
_cell_length_b 14.650417
_cell_length_c 8.703908
_cell_angle_alpha 90.000000
_cell_angle_beta 90.000000
_cell_angle_gamma 90.000000
_cell_volume 2888.570343
_symmetry_space_group_name_H-M "P C C M"
_symmetry_group_IT_number 49
_symmetry_cell_setting 'orthorhombic'
loop_
_space_group_symop_operation_xyz
x,y,z
-x,-y,z
x,-y,1/2-z
-x,y,1/2-z
-x,-y,-z
x,y,-z
-x,y,1/2+z
x,-y,1/2+z
loop_
_atom_site_type_symbol
_atom_site_label
_atom_site_fract_x
_atom_site_fract_y
_atom_site_fract_z
Si Si1 0.171253 0.650300 0.168266
Si Si2 0.060976 0.283579 0.179535
Si Si3 0.336850 0.781663 0.682428
Si Si4 0.777549 0.149406 0.829019
Si Si5 0.564435 0.904204 0.683460
Si Si6 0.704114 0.406467 0.816587
Si Si7 0.108191 0.090467 0.181363
O O1 0.113791 0.646665 0.277062
O O2 0.194987 0.751720 0.155127
O O3 0.226440 0.592481 0.233200
O O4 0.151956 0.614830 0.000000
O O5 0.074812 0.181240 0.241602
O O6 0.000000 0.319153 0.250000
O O7 0.054120 0.283082 0.000000
O O8 0.342485 0.782070 0.500000
O O9 0.282642 0.846228 0.732642
O O10 0.395244 0.821223 0.760287
O O11 0.329684 0.678159 0.740902
O O12 0.824282 0.087166 0.739518
O O13 0.765049 0.109768 0.000000
O O14 0.500000 0.884857 0.750000
O O15 0.562606 0.908738 0.500000
O O16 0.588965 0.000000 0.750000
O O17 0.676253 0.500000 0.750000
O O18 0.697623 0.400022 0.000000
O O19 0.076362 0.000000 0.250000
O O20 0.107256 0.086918 0.000000
#
# Coordination Sequence:
#
# PCOD8203449 Si02
#       7
#     8   8   8   8   8   8   8
#     4   8  16  31  50  71  98 128 162 203 254 310
#     4  10  20  32  48  67  89 121 165 211 261 318
#     4  11  21  35  56  84 116 151 189 232 278 328
#     4   9  17  31  49  70  96 128 165 210 261 317
#     4  11  22  39  60  85 116 153 197 241 283 328
#     4  10  20  35  57  87 118 150 183 224 275 332
#     4  10  20  32  45  64  90 124 163 209 264 324
#
# _framework density 19.386752999999999
#
# number of rings (size 3 to 8) (size 9 to 14) (size 15 to 20)
#    0.000    2.143    0.000    5.571    0.000    6.571 
#    0.000    4.286    0.000    0.857    0.000    6.000 
#    0.000    0.000    0.000    0.000    0.000    0.000 
#
# Total GULP energy -694220.779596 kJ/mol
# GULP energy per Si atom -12396.799636 kJ/mol
# Density = 1.934263 g / cm^3
# Si number density = 19.386753 Si / 1000 Ang^3
#
#
#
# Elastic Constant Matrix: (Units=GPa)
#
#
# Indices 1 2 3 4 5 6 
#
# 1 95.2809 35.9469 47.5188 0.0000 0.0000 0.0000
# 2 35.9469 64.0456 31.7433 0.0000 0.0000 0.0000
# 3 47.5188 31.7433 128.9013 0.0000 0.0000 0.0000
# 4 0.0000 0.0000 0.0000 23.6761 0.0000 0.0000
# 5 0.0000 0.0000 0.0000 0.0000 30.5865 0.0000
# 6 0.0000 0.0000 0.0000 0.0000 0.0000 59.5319
#
#
#
# Elastic Compliance Matrix: (Units=1/GPa)
#
#
# Indices 1 2 3 4 5 6 
#
# 1 0.014857 -0.006406 -0.003899 0.000000 0.000000 0.000000
# 2 -0.006406 0.020547 -0.002698 0.000000 0.000000 0.000000
# 3 -0.003899 -0.002698 0.009860 0.000000 0.000000 0.000000
# 4 0.000000 0.000000 0.000000 0.042237 0.000000 0.000000
# 5 0.000000 0.000000 0.000000 0.000000 0.032694 0.000000
# 6 0.000000 0.000000 0.000000 0.000000 0.000000 0.016798
#
#
# Mechanical properties :
#
#
# Convention : Reuss Voigt Hill
#
# Bulk Modulus (GPa) = 51.93172 57.62731 54.77951
# Shear Modulus (GPa) = 29.51278 34.29347 31.90312
#
# Velocity S-wave (km/s) = 3.90592 4.21041 4.06102
# Velocity P-wave (km/s) = 6.86928 7.30933 7.09272
#
# Compressibility (1/GPa) = 0.01925605
#
# Stress axis : x y z
#
# Youngs Moduli (GPa) = 67.30924 48.66943 101.42170
#
# Poissons Ratio (x) = 0.31178 0.39548
# Poissons Ratio (y) = 0.43119 0.27367
# Poissons Ratio (z) = 0.26246 0.13133
#
# Static dielectric constant tensor:
#      x y z
#    x 3.518120 0.000000 0.000000 
#    y 0.000000 3.524690 0.000000 
#    z 0.000000 0.000000 3.633890 
# 
# 
# High freq. dielectric constant tensor:
#      x y z
#    x 1.735920 0.000000 0.000000 
#    y 0.000000 1.737790 0.000000 
#    z 0.000000 0.000000 1.767950 
# 
# From -- ./inp_files/5821.got.cif
#   From: 2010.03.12/outbox.cif.g09.slc.cpg/sg49_3_cif.got.tgz:5821.got - 2010.04.14 03:58:27.
