data_PCOD8203637
_publ_section_title
;
Structure prediction by ZEFSAII (Michael W. Deem and Ramdas Pophale) SiO2 
 PCOD8203637
Probable space group: P C C M
;
_chemical_formula_sum "Si O2"
_cell_formula_units_Z 48
_cell_length_a 15.604721
_cell_length_b 9.254668
_cell_length_c 15.197324
_cell_angle_alpha 90.000000
_cell_angle_beta 90.000000
_cell_angle_gamma 90.000000
_cell_volume 2194.744525
_symmetry_space_group_name_H-M "P C C M"
_symmetry_group_IT_number 49
_symmetry_cell_setting 'orthorhombic'
loop_
_space_group_symop_operation_xyz
x,y,z
-x,-y,z
x,-y,1/2-z
-x,y,1/2-z
-x,-y,-z
x,y,-z
-x,y,1/2+z
x,-y,1/2+z
loop_
_atom_site_type_symbol
_atom_site_label
_atom_site_fract_x
_atom_site_fract_y
_atom_site_fract_z
Si Si1 0.420307 0.428566 0.154389
Si Si2 0.764273 0.884789 0.102639
Si Si3 0.767160 0.434212 0.346500
Si Si4 0.428530 0.113155 0.102470
Si Si5 0.916375 0.916074 0.604865
Si Si6 0.073192 0.597563 0.901048
O O1 0.500000 0.500000 0.100784
O O2 0.418269 0.500000 0.250000
O O3 0.327516 0.460157 0.110739
O O4 0.438192 0.257839 0.159696
O O5 0.782347 0.737810 0.156347
O O6 0.668014 0.947154 0.117331
O O7 0.830675 0.003888 0.138758
O O8 0.779808 0.849864 0.000000
O O9 0.775196 0.500000 0.250000
O O10 0.837024 0.513633 0.405584
O O11 0.500000 0.000000 0.135994
O O12 0.443702 0.150418 0.000000
O O13 0.914135 0.911060 0.500000
O O14 0.917587 0.753962 0.645300
O O15 0.000000 0.000000 0.639464
O O16 0.000000 0.500000 0.852895
O O17 0.041429 0.626652 0.000000
#
# Coordination Sequence:
#
# PCOD8203637 Si02
#       6
#     8   8   8   8   8   8
#     4   9  19  36  54  74 105 144 184 221 265 328
#     4   9  17  32  53  76 106 140 172 213 267 322
#     4  10  20  34  53  76 104 139 176 218 265 316
#     4   9  18  32  52  80 110 139 175 224 279 326
#     4   9  17  30  50  74  98 129 170 212 253 305
#     4  10  20  34  54  79 105 136 176 220 267 320
#
# _framework density 21.870426999999999
#
# number of rings (size 3 to 8) (size 9 to 14) (size 15 to 20)
#    0.000    2.667    0.000    1.500    0.000    5.333 
#    0.000    4.167    0.000   11.000    0.000    0.000 
#    0.000    0.000    0.000    0.000    0.000    0.000 
#
# Total GULP energy -594868.961084 kJ/mol
# GULP energy per Si atom -12393.103356 kJ/mol
# Density = 2.182065 g / cm^3
# Si number density = 21.870427 Si / 1000 Ang^3
#
#
#
# Elastic Constant Matrix: (Units=GPa)
#
#
# Indices 1 2 3 4 5 6 
#
# 1 212.8178 123.5859 6.9365 0.0000 0.0000 0.0000
# 2 123.5859 191.3713 24.2885 0.0000 0.0000 0.0000
# 3 6.9365 24.2885 29.4938 0.0000 0.0000 0.0000
# 4 0.0000 0.0000 0.0000 26.4934 0.0000 0.0000
# 5 0.0000 0.0000 0.0000 0.0000 5.5960 0.0000
# 6 0.0000 0.0000 0.0000 0.0000 0.0000 49.4614
#
#
#
# Elastic Compliance Matrix: (Units=1/GPa)
#
#
# Indices 1 2 3 4 5 6 
#
# 1 0.007686 -0.005287 0.002546 0.000000 0.000000 0.000000
# 2 -0.005287 0.009472 -0.006557 0.000000 0.000000 0.000000
# 3 0.002546 -0.006557 0.038706 0.000000 0.000000 0.000000
# 4 0.000000 0.000000 0.000000 0.037745 0.000000 0.000000
# 5 0.000000 0.000000 0.000000 0.000000 0.178698 0.000000
# 6 0.000000 0.000000 0.000000 0.000000 0.000000 0.020218
#
#
# Mechanical properties :
#
#
# Convention : Reuss Voigt Hill
#
# Bulk Modulus (GPa) = 26.83191 82.58941 54.71066
# Shear Modulus (GPa) = 15.45391 34.90162 25.17776
#
# Velocity S-wave (km/s) = 2.66110 3.99913 3.39665
# Velocity P-wave (km/s) = 4.66231 7.69214 6.36028
#
# Compressibility (1/GPa) = 0.03726906
#
# Stress axis : x y z
#
# Youngs Moduli (GPa) = 130.10901 105.57827 25.83567
#
# Poissons Ratio (x) = 0.55815 -0.06578
# Poissons Ratio (y) = 0.68783 0.16940
# Poissons Ratio (z) = -0.33125 0.69224
#
# Static dielectric constant tensor:
#      x y z
#    x 4.675750 0.000000 0.000000 
#    y 0.000000 4.060510 0.000000 
#    z 0.000000 0.000000 3.345630 
# 
# 
# High freq. dielectric constant tensor:
#      x y z
#    x 1.881740 0.000000 0.000000 
#    y 0.000000 1.860150 0.000000 
#    z 0.000000 0.000000 1.813340 
# 
# From -- ./inp_files/16279.got.cif
#   From: 2010.03.12/outbox.cif.g09.slc.cpg/sg49_9_cif.got.tgz:16279.got - 2010.04.14 03:58:27.
