data_PCOD8203490
_publ_section_title
;
Structure prediction by ZEFSAII (Michael W. Deem and Ramdas Pophale) SiO2 
 PCOD8203490
Probable space group: P C C M
;
_chemical_formula_sum "Si O2"
_cell_formula_units_Z 56
_cell_length_a 22.515356
_cell_length_b 14.710542
_cell_length_c 8.704692
_cell_angle_alpha 90.000000
_cell_angle_beta 90.000000
_cell_angle_gamma 90.000000
_cell_volume 2883.107936
_symmetry_space_group_name_H-M "P C C M"
_symmetry_group_IT_number 49
_symmetry_cell_setting 'orthorhombic'
loop_
_space_group_symop_operation_xyz
x,y,z
-x,-y,z
x,-y,1/2-z
-x,y,1/2-z
-x,-y,-z
x,y,-z
-x,y,1/2+z
x,-y,1/2+z
loop_
_atom_site_type_symbol
_atom_site_label
_atom_site_fract_x
_atom_site_fract_y
_atom_site_fract_z
Si Si1 0.161814 0.720245 0.679987
Si Si2 0.935505 0.404863 0.182498
Si Si3 0.602708 0.408012 0.818630
Si Si4 0.204052 0.093008 0.316876
Si Si5 0.273614 0.653087 0.832010
Si Si6 0.670825 0.150423 0.167862
Si Si7 0.560650 0.221214 0.679837
O O1 0.149351 0.722725 0.500000
O O2 0.106281 0.677651 0.767660
O O3 0.170054 0.822178 0.742269
O O4 0.219676 0.657343 0.711723
O O5 0.910815 0.500000 0.250000
O O6 0.000000 0.383997 0.250000
O O7 0.938896 0.411847 0.000000
O O8 0.574088 0.500000 0.750000
O O9 0.673168 0.411805 0.775178
O O10 0.570667 0.321870 0.744967
O O11 0.592980 0.403116 0.000000
O O12 0.197098 0.098840 0.500000
O O13 0.273855 0.092067 0.267212
O O14 0.175890 0.000000 0.250000
O O15 0.304343 0.749414 0.851424
O O16 0.248691 0.622931 0.000000
O O17 0.614014 0.151154 0.279771
O O18 0.650535 0.114368 0.000000
O O19 0.500000 0.181283 0.750000
O O20 0.554598 0.227986 0.500000
#
# Coordination Sequence:
#
# PCOD8203490 Si02
#       7
#     8   8   8   8   8   8   8
#     4  11  21  34  55  84 116 151 190 231 277 329
#     4  11  22  39  60  84 115 152 196 241 284 328
#     4  10  20  33  47  65  92 124 162 209 264 321
#     4  10  20  35  57  86 118 150 183 225 275 331
#     4   8  16  31  48  68  97 131 166 210 261 315
#     4   8  16  32  51  72 100 130 163 205 256 310
#     4  11  21  33  50  69  91 123 166 211 260 317
#
# _framework density 19.423482
#
# number of rings (size 3 to 8) (size 9 to 14) (size 15 to 20)
#    0.000    2.143    0.000    6.857    0.000    7.143 
#    0.000    2.857    0.000    0.857    0.000    6.000 
#    0.000    0.000    0.000    0.000    0.000    0.000 
#
# Total GULP energy -694135.259034 kJ/mol
# GULP energy per Si atom -12395.272483 kJ/mol
# Density = 1.937927 g / cm^3
# Si number density = 19.423482 Si / 1000 Ang^3
#
#
#
# Elastic Constant Matrix: (Units=GPa)
#
#
# Indices 1 2 3 4 5 6 
#
# 1 89.4375 35.2393 51.9393 0.0000 0.0000 0.0000
# 2 35.2393 67.1475 35.6359 0.0000 0.0000 0.0000
# 3 51.9393 35.6359 144.0127 0.0000 0.0000 0.0000
# 4 0.0000 0.0000 0.0000 10.6000 0.0000 0.0000
# 5 0.0000 0.0000 0.0000 0.0000 84.6661 0.0000
# 6 0.0000 0.0000 0.0000 0.0000 0.0000 18.9921
#
#
#
# Elastic Compliance Matrix: (Units=1/GPa)
#
#
# Indices 1 2 3 4 5 6 
#
# 1 0.016100 -0.006179 -0.004277 0.000000 0.000000 0.000000
# 2 -0.006179 0.019516 -0.002601 0.000000 0.000000 0.000000
# 3 -0.004277 -0.002601 0.009130 0.000000 0.000000 0.000000
# 4 0.000000 0.000000 0.000000 0.094340 0.000000 0.000000
# 5 0.000000 0.000000 0.000000 0.000000 0.011811 0.000000
# 6 0.000000 0.000000 0.000000 0.000000 0.000000 0.052654
#
#
# Mechanical properties :
#
#
# Convention : Reuss Voigt Hill
#
# Bulk Modulus (GPa) = 53.67391 60.69185 57.18288
# Shear Modulus (GPa) = 21.19775 34.70384 27.95079
#
# Velocity S-wave (km/s) = 3.30714 4.23152 3.79756
# Velocity P-wave (km/s) = 6.50203 7.42892 6.98087
#
# Compressibility (1/GPa) = 0.01863102
#
# Stress axis : x y z
#
# Youngs Moduli (GPa) = 62.11304 51.24118 109.52848
#
# Poissons Ratio (x) = 0.31662 0.46850
# Poissons Ratio (y) = 0.38380 0.28484
# Poissons Ratio (z) = 0.26569 0.13326
#
# Static dielectric constant tensor:
#      x y z
#    x 3.591140 0.000000 0.000000 
#    y 0.000000 3.583570 0.000000 
#    z 0.000000 0.000000 3.564180 
# 
# 
# High freq. dielectric constant tensor:
#      x y z
#    x 1.740890 0.000000 0.000000 
#    y 0.000000 1.736750 0.000000 
#    z 0.000000 0.000000 1.765960 
# 
# From -- ./inp_files/5797.got.cif
#   From: 2010.03.12/outbox.cif.g09.slc.cpg/sg49_3_cif.got.tgz:5797.got - 2010.04.14 03:58:27.
