data_PCOD8203800
_publ_section_title
;
Structure prediction by ZEFSAII (Michael W. Deem and Ramdas Pophale) SiO2 
 PCOD8203800
Probable space group: P C C M
;
_chemical_formula_sum "Si O2"
_cell_formula_units_Z 64
_cell_length_a 14.794338
_cell_length_b 24.438538
_cell_length_c 8.861975
_cell_angle_alpha 90.000000
_cell_angle_beta 90.000000
_cell_angle_gamma 90.000000
_cell_volume 3204.064709
_symmetry_space_group_name_H-M "P C C M"
_symmetry_group_IT_number 49
_symmetry_cell_setting 'orthorhombic'
loop_
_space_group_symop_operation_xyz
x,y,z
-x,-y,z
x,-y,1/2-z
-x,y,1/2-z
-x,-y,-z
x,y,-z
-x,y,1/2+z
x,-y,1/2+z
loop_
_atom_site_type_symbol
_atom_site_label
_atom_site_fract_x
_atom_site_fract_y
_atom_site_fract_z
Si Si1 0.401056 0.654516 0.820907
Si Si2 0.902020 0.146546 0.178086
Si Si3 0.402951 0.761076 0.324464
Si Si4 0.240741 0.942534 0.179573
Si Si5 0.904411 0.735471 0.324415
Si Si6 0.097148 0.616833 0.822260
Si Si7 0.727975 0.442969 0.821678
Si Si8 0.402030 0.117790 0.176564
O O1 0.500000 0.647809 0.750000
O O2 0.352306 0.710530 0.759268
O O3 0.342244 0.603026 0.767310
O O4 0.407206 0.658151 0.000000
O O5 0.833366 0.100864 0.237738
O O6 0.858251 0.206571 0.222851
O O7 0.000000 0.137209 0.250000
O O8 0.914153 0.141409 0.000000
O O9 0.500000 0.763926 0.250000
O O10 0.411627 0.746834 0.500000
O O11 0.359418 0.821091 0.299456
O O12 0.338285 0.925718 0.242347
O O13 0.211666 0.000000 0.250000
O O14 0.245143 0.946263 0.000000
O O15 0.920801 0.736403 0.500000
O O16 0.859989 0.677054 0.278975
O O17 0.000000 0.735287 0.250000
O O18 0.171001 0.573023 0.765919
O O19 0.000000 0.604506 0.750000
O O20 0.083358 0.612619 0.000000
O O21 0.698298 0.500000 0.750000
O O22 0.725455 0.448526 0.000000
O O23 0.500000 0.112581 0.250000
O O24 0.409853 0.104064 0.000000
#
# Coordination Sequence:
#
# PCOD8203800 Si02
#       8
#     8   8   8   8   8   8   8   8
#     4  10  20  35  56  81 109 142 178 220 270 321
#     4   9  19  35  57  83 110 143 179 221 274 327
#     4   9  17  31  54  84 114 142 174 215 266 324
#     4  11  24  40  57  80 110 147 192 235 276 324
#     4   8  14  28  51  78 106 133 167 211 261 320
#     4   9  18  34  55  79 106 136 171 213 264 319
#     4  10  23  39  54  75 104 141 184 227 269 317
#     4  10  21  38  60  86 115 146 181 224 274 328
#
# _framework density 19.974627000000002
#
# number of rings (size 3 to 8) (size 9 to 14) (size 15 to 20)
#    0.000    2.500    0.000    2.250    0.000    6.000 
#    0.000    7.500    0.000    6.000    0.000    0.000 
#    0.000    0.000    0.000    0.000    0.000    0.000 
#
# Total GULP energy -792925.381095 kJ/mol
# GULP energy per Si atom -12389.459080 kJ/mol
# Density = 1.992916 g / cm^3
# Si number density = 19.974627 Si / 1000 Ang^3
#
#
#
# Elastic Constant Matrix: (Units=GPa)
#
#
# Indices 1 2 3 4 5 6 
#
# 1 46.4949 9.4212 12.6413 0.0000 0.0000 0.0000
# 2 9.4212 93.9307 22.7502 0.0000 0.0000 0.0000
# 3 12.6413 22.7502 54.9801 0.0000 0.0000 0.0000
# 4 0.0000 0.0000 0.0000 29.0648 0.0000 0.0000
# 5 0.0000 0.0000 0.0000 0.0000 21.7853 0.0000
# 6 0.0000 0.0000 0.0000 0.0000 0.0000 32.7430
#
#
#
# Elastic Compliance Matrix: (Units=1/GPa)
#
#
# Indices 1 2 3 4 5 6 
#
# 1 0.023052 -0.001143 -0.004827 0.000000 0.000000 0.000000
# 2 -0.001143 0.011889 -0.004657 0.000000 0.000000 0.000000
# 3 -0.004827 -0.004657 0.021225 0.000000 0.000000 0.000000
# 4 0.000000 0.000000 0.000000 0.034406 0.000000 0.000000
# 5 0.000000 0.000000 0.000000 0.000000 0.045902 0.000000
# 6 0.000000 0.000000 0.000000 0.000000 0.000000 0.030541
#
#
# Mechanical properties :
#
#
# Convention : Reuss Voigt Hill
#
# Bulk Modulus (GPa) = 28.64340 31.67009 30.15675
# Shear Modulus (GPa) = 25.01180 26.75816 25.88498
#
# Velocity S-wave (km/s) = 3.54245 3.66404 3.60376
# Velocity P-wave (km/s) = 5.57700 5.81290 5.69617
#
# Compressibility (1/GPa) = 0.03491205
#
# Stress axis : x y z
#
# Youngs Moduli (GPa) = 43.38059 84.11404 47.11393
#
# Poissons Ratio (x) = 0.09613 0.22743
# Poissons Ratio (y) = 0.04958 0.21939
# Poissons Ratio (z) = 0.20941 0.39169
#
# Static dielectric constant tensor:
#      x y z
#    x 3.397470 0.000000 0.000000 
#    y 0.000000 4.877920 0.000000 
#    z 0.000000 0.000000 3.541010 
# 
# 
# High freq. dielectric constant tensor:
#      x y z
#    x 1.757240 0.000000 0.000000 
#    y 0.000000 1.796720 0.000000 
#    z 0.000000 0.000000 1.777610 
# 
# From -- ./inp_files/4354.got.cif
#   From: 2010.03.12/outbox.cif.g09.slc.cpg/sg49_3_cif.got.tgz:4354.got - 2010.04.14 03:58:27.
