data_PCOD8203586
_publ_section_title
;
Structure prediction by ZEFSAII (Michael W. Deem and Ramdas Pophale) SiO2 
 PCOD8203586
Probable space group: P C C M
;
_chemical_formula_sum "Si O2"
_cell_formula_units_Z 56
_cell_length_a 20.151520
_cell_length_b 15.461451
_cell_length_c 8.666830
_cell_angle_alpha 90.000000
_cell_angle_beta 90.000000
_cell_angle_gamma 90.000000
_cell_volume 2700.339295
_symmetry_space_group_name_H-M "P C C M"
_symmetry_group_IT_number 49
_symmetry_cell_setting 'orthorhombic'
loop_
_space_group_symop_operation_xyz
x,y,z
-x,-y,z
x,-y,1/2-z
-x,y,1/2-z
-x,-y,-z
x,y,-z
-x,y,1/2+z
x,-y,1/2+z
loop_
_atom_site_type_symbol
_atom_site_label
_atom_site_fract_x
_atom_site_fract_y
_atom_site_fract_z
Si Si1 0.684476 0.275290 0.181292
Si Si2 0.933135 0.387255 0.679112
Si Si3 0.310510 0.911618 0.328288
Si Si4 0.062337 0.794071 0.180080
Si Si5 0.429286 0.591891 0.182334
Si Si6 0.845879 0.084922 0.672314
Si Si7 0.209410 0.412752 0.317678
O O1 0.672541 0.179333 0.247755
O O2 0.622415 0.334089 0.230697
O O3 0.751079 0.326386 0.241034
O O4 0.689209 0.263380 0.000000
O O5 0.926355 0.411066 0.500000
O O6 0.939283 0.286014 0.703916
O O7 0.867416 0.416061 0.769178
O O8 0.000000 0.431623 0.750000
O O9 0.340447 0.908682 0.500000
O O10 0.232213 0.919336 0.332925
O O11 0.339321 0.000000 0.250000
O O12 0.132161 0.839598 0.211632
O O13 0.000000 0.850127 0.250000
O O14 0.056901 0.769362 0.000000
O O15 0.405855 0.500000 0.250000
O O16 0.500000 0.619944 0.250000
O O17 0.434590 0.582312 0.000000
O O18 0.874986 0.096563 0.500000
O O19 0.876178 0.000000 0.750000
O O20 0.243445 0.500000 0.250000
O O21 0.215039 0.416505 0.500000
#
# Coordination Sequence:
#
# PCOD8203586 Si02
#       7
#     8   8   8   8   8   8   8
#     4  10  22  38  59  87 122 158 196 240 291 344
#     4  11  22  38  57  77 102 138 184 233 284 343
#     4  10  21  36  58  84 113 148 189 235 286 340
#     4  11  21  34  51  71  95 127 168 219 276 338
#     4  10  20  36  59  90 126 166 204 243 285 338
#     4  10  20  34  50  72  99 131 171 219 276 340
#     4  11  23  39  58  84 116 151 190 239 292 347
#
# _framework density 20.738135
#
# number of rings (size 3 to 8) (size 9 to 14) (size 15 to 20)
#    0.000    1.571    0.000    6.857    0.000    6.857 
#    0.000    2.857    0.000    0.429    0.000    3.000 
#    0.000    0.000    0.000    0.000    0.000    0.000 
#
# Total GULP energy -693888.967432 kJ/mol
# GULP energy per Si atom -12390.874418 kJ/mol
# Density = 2.069093 g / cm^3
# Si number density = 20.738135 Si / 1000 Ang^3
#
#
#
# Elastic Constant Matrix: (Units=GPa)
#
#
# Indices 1 2 3 4 5 6 
#
# 1 75.5297 50.3940 34.5824 0.0000 0.0000 0.0000
# 2 50.3940 153.4940 50.8335 0.0000 0.0000 0.0000
# 3 34.5824 50.8335 116.3828 0.0000 0.0000 0.0000
# 4 0.0000 0.0000 0.0000 36.5734 0.0000 0.0000
# 5 0.0000 0.0000 0.0000 0.0000 23.9143 0.0000
# 6 0.0000 0.0000 0.0000 0.0000 0.0000 21.7629
#
#
#
# Elastic Compliance Matrix: (Units=1/GPa)
#
#
# Indices 1 2 3 4 5 6 
#
# 1 0.017931 -0.004820 -0.003223 0.000000 0.000000 0.000000
# 2 -0.004820 0.008912 -0.002460 0.000000 0.000000 0.000000
# 3 -0.003223 -0.002460 0.010625 0.000000 0.000000 0.000000
# 4 0.000000 0.000000 0.000000 0.027342 0.000000 0.000000
# 5 0.000000 0.000000 0.000000 0.000000 0.041816 0.000000
# 6 0.000000 0.000000 0.000000 0.000000 0.000000 0.045950
#
#
# Mechanical properties :
#
#
# Convention : Reuss Voigt Hill
#
# Bulk Modulus (GPa) = 60.74694 68.55847 64.65270
# Shear Modulus (GPa) = 27.92208 30.42323 29.17265
#
# Velocity S-wave (km/s) = 3.67333 3.83432 3.75469
# Velocity P-wave (km/s) = 6.88092 7.26179 7.07392
#
# Compressibility (1/GPa) = 0.01646174
#
# Stress axis : x y z
#
# Youngs Moduli (GPa) = 55.76849 112.20672 94.12004
#
# Poissons Ratio (x) = 0.54080 0.30335
# Poissons Ratio (y) = 0.26879 0.23158
# Poissons Ratio (z) = 0.17974 0.27608
#
# Static dielectric constant tensor:
#      x y z
#    x 3.862630 0.000000 0.000000 
#    y 0.000000 4.015740 0.000000 
#    z 0.000000 0.000000 3.934070 
# 
# 
# High freq. dielectric constant tensor:
#      x y z
#    x 1.788480 0.000000 0.000000 
#    y 0.000000 1.820160 0.000000 
#    z 0.000000 0.000000 1.819770 
# 
# From -- ./inp_files/5783.got.cif
#   From: 2010.03.12/outbox.cif.g09.slc.cpg/sg49_3_cif.got.tgz:5783.got - 2010.04.14 03:58:27.
