data_PCOD8203093
_publ_section_title
;
Structure prediction by ZEFSAII (Michael W. Deem and Ramdas Pophale) SiO2 
 PCOD8203093
Probable space group: P C C M
;
_chemical_formula_sum "Si O2"
_cell_formula_units_Z 58
_cell_length_a 14.837322
_cell_length_b 23.828671
_cell_length_c 8.837837
_cell_angle_alpha 90.000000
_cell_angle_beta 90.000000
_cell_angle_gamma 90.000000
_cell_volume 3124.649657
_symmetry_space_group_name_H-M "P C C M"
_symmetry_group_IT_number 49
_symmetry_cell_setting 'orthorhombic'
loop_
_space_group_symop_operation_xyz
x,y,z
-x,-y,z
x,-y,1/2-z
-x,y,1/2-z
-x,-y,-z
x,y,-z
-x,y,1/2+z
x,-y,1/2+z
loop_
_atom_site_type_symbol
_atom_site_label
_atom_site_fract_x
_atom_site_fract_y
_atom_site_fract_z
Si Si1 0.276965 0.557161 0.178789
Si Si2 0.000000 0.000000 0.750000
Si Si3 0.774345 0.180012 0.319652
Si Si4 0.404190 0.782112 0.820201
Si Si5 0.592824 0.345981 0.822247
Si Si6 0.906568 0.268654 0.179840
Si Si7 0.090726 0.603277 0.822666
Si Si8 0.086525 0.107649 0.668236
O O1 0.315490 0.500000 0.250000
O O2 0.331948 0.611056 0.238331
O O3 0.174011 0.565516 0.232287
O O4 0.284838 0.552823 0.000000
O O5 0.067616 0.959564 0.844793
O O6 0.772760 0.182031 0.500000
O O7 0.672780 0.179477 0.255202
O O8 0.825743 0.233337 0.251101
O O9 0.824274 0.122921 0.264012
O O10 0.500000 0.800255 0.750000
O O11 0.382398 0.717564 0.775674
O O12 0.406065 0.791217 0.000000
O O13 0.500000 0.365582 0.750000
O O14 0.582199 0.350134 0.000000
O O15 0.890803 0.332893 0.228342
O O16 0.000000 0.246883 0.250000
O O17 0.906683 0.260995 0.000000
O O18 0.000000 0.578786 0.750000
O O19 0.078476 0.600540 0.000000
O O20 0.096673 0.132840 0.500000
O O21 0.000000 0.136452 0.750000
#
# Coordination Sequence:
#
# PCOD8203093 Si02
#       8
#     8   2   8   8   8   8   8   8
#     4  10  21  36  51  71  97 126 162 207 258 311
#     4   8  22  36  62  80 116 156 202 236 276 308
#     4  12  23  33  50  79 112 147 185 223 267 319
#     4  10  20  37  58  80 107 139 176 221 272 326
#     4   9  19  36  57  77 100 130 164 205 259 322
#     4  10  19  33  51  73 103 137 172 216 267 322
#     4   9  19  35  53  70  93 127 166 207 257 314
#     4  10  20  35  55  80 113 152 192 233 273 314
#
# _framework density 18.562080999999999
#
# number of rings (size 3 to 8) (size 9 to 14) (size 15 to 20)
#    0.414    1.655    0.000    3.931    0.000    4.966 
#    0.000    4.138    0.000    0.000    0.000    0.483 
#    0.000    3.310    0.000    0.000    0.000    0.000 
#
# Total GULP energy -718986.861798 kJ/mol
# GULP energy per Si atom -12396.325203 kJ/mol
# Density = 1.851983 g / cm^3
# Si number density = 18.562081 Si / 1000 Ang^3
#
#
#
# Elastic Constant Matrix: (Units=GPa)
#
#
# Indices 1 2 3 4 5 6 
#
# 1 136.2959 41.9835 50.6826 0.0000 0.0000 0.0000
# 2 41.9835 69.2350 20.7612 0.0000 0.0000 0.0000
# 3 50.6826 20.7612 92.8458 0.0000 0.0000 0.0000
# 4 0.0000 0.0000 0.0000 19.8487 0.0000 0.0000
# 5 0.0000 0.0000 0.0000 0.0000 35.0069 0.0000
# 6 0.0000 0.0000 0.0000 0.0000 0.0000 11.1343
#
#
#
# Elastic Compliance Matrix: (Units=1/GPa)
#
#
# Indices 1 2 3 4 5 6 
#
# 1 0.010629 -0.005044 -0.004674 0.000000 0.000000 0.000000
# 2 -0.005044 0.017875 -0.001244 0.000000 0.000000 0.000000
# 3 -0.004674 -0.001244 0.013600 0.000000 0.000000 0.000000
# 4 0.000000 0.000000 0.000000 0.050381 0.000000 0.000000
# 5 0.000000 0.000000 0.000000 0.000000 0.028566 0.000000
# 6 0.000000 0.000000 0.000000 0.000000 0.000000 0.089813
#
#
# Mechanical properties :
#
#
# Convention : Reuss Voigt Hill
#
# Bulk Modulus (GPa) = 49.55231 58.35902 53.95566
# Shear Modulus (GPa) = 20.87566 25.52795 23.20180
#
# Velocity S-wave (km/s) = 3.35720 3.71249 3.53931
# Velocity P-wave (km/s) = 6.46383 7.06293 6.77001
#
# Compressibility (1/GPa) = 0.02018069
#
# Stress axis : x y z
#
# Youngs Moduli (GPa) = 94.08514 55.94443 73.52822
#
# Poissons Ratio (x) = 0.28216 0.34369
# Poissons Ratio (y) = 0.47452 0.09146
# Poissons Ratio (z) = 0.43977 0.06959
#
# Static dielectric constant tensor:
#      x y z
#    x 3.399780 0.000000 0.000000 
#    y 0.000000 3.267170 0.000000 
#    z 0.000000 0.000000 3.336190 
# 
# 
# High freq. dielectric constant tensor:
#      x y z
#    x 1.717620 0.000000 0.000000 
#    y 0.000000 1.698850 0.000000 
#    z 0.000000 0.000000 1.722570 
# 
# From -- ./inp_files/4469.got.cif
#   From: 2010.03.12/outbox.cif.g09.slc.cpg/sg49_3_cif.got.tgz:4469.got - 2010.04.14 03:58:27.
