data_PCOD8203790
_publ_section_title
;
Structure prediction by ZEFSAII (Michael W. Deem and Ramdas Pophale) SiO2 
 PCOD8203790
Probable space group: P C C M
;
_chemical_formula_sum "Si O2"
_cell_formula_units_Z 58
_cell_length_a 17.038352
_cell_length_b 18.124417
_cell_length_c 8.835247
_cell_angle_alpha 90.000000
_cell_angle_beta 90.000000
_cell_angle_gamma 90.000000
_cell_volume 2728.414363
_symmetry_space_group_name_H-M "P C C M"
_symmetry_group_IT_number 49
_symmetry_cell_setting 'orthorhombic'
loop_
_space_group_symop_operation_xyz
x,y,z
-x,-y,z
x,-y,1/2-z
-x,y,1/2-z
-x,-y,-z
x,y,-z
-x,y,1/2+z
x,-y,1/2+z
loop_
_atom_site_type_symbol
_atom_site_label
_atom_site_fract_x
_atom_site_fract_y
_atom_site_fract_z
Si Si1 0.790203 0.573837 0.678425
Si Si2 0.078213 0.078593 0.177841
Si Si3 0.624951 0.619929 0.669496
Si Si4 0.585474 0.925139 0.819634
Si Si5 0.500000 0.500000 0.750000
Si Si6 0.653526 0.779545 0.323099
Si Si7 0.809693 0.201749 0.668984
Si Si8 0.082255 0.330879 0.830050
O O1 0.823855 0.500000 0.750000
O O2 0.787478 0.566022 0.500000
O O3 0.702798 0.588197 0.750272
O O4 0.849409 0.635789 0.728586
O O5 0.159085 0.121440 0.215911
O O6 0.000000 0.115462 0.250000
O O7 0.092224 0.000000 0.250000
O O8 0.064658 0.072376 0.000000
O O9 0.651034 0.636547 0.500000
O O10 0.555234 0.558718 0.663030
O O11 0.606661 0.703716 0.730860
O O12 0.500000 0.917514 0.750000
O O13 0.630141 0.850480 0.774940
O O14 0.624851 0.000000 0.750000
O O15 0.582262 0.932113 0.000000
O O16 0.639192 0.796001 0.500000
O O17 0.745983 0.767428 0.288633
O O18 0.771828 0.202475 0.500000
O O19 0.891839 0.246272 0.665123
O O20 0.000000 0.343086 0.750000
O O21 0.078259 0.364491 0.000000
#
# Coordination Sequence:
#
# PCOD8203790 Si02
#       8
#     8   8   8   8   2   8   8   8
#     4  11  22  42  65  92 127 167 209 262 319 382
#     4  10  20  35  55  82 118 158 205 256 312 371
#     4  10  23  41  63  95 134 172 217 264 323 389
#     4  11  23  43  68  97 130 171 215 267 326 389
#     4  12  22  44  68 102 132 176 218 264 326 384
#     4  11  23  41  64  94 130 172 216 266 324 386
#     4  10  22  39  59  87 121 162 212 262 318 380
#     4  11  23  40  63  92 122 163 211 265 326 389
#
# _framework density 21.257769
#
# number of rings (size 3 to 8) (size 9 to 14) (size 15 to 20)
#    0.000    1.379    2.069    4.345    0.966    2.483 
#    0.000    4.828    0.000    0.000    0.000    0.000 
#    0.000    0.000    0.000    0.000    0.000    0.000 
#
# Total GULP energy -718531.144498 kJ/mol
# GULP energy per Si atom -12388.468009 kJ/mol
# Density = 2.120939 g / cm^3
# Si number density = 21.257769 Si / 1000 Ang^3
#
#
#
# Elastic Constant Matrix: (Units=GPa)
#
#
# Indices 1 2 3 4 5 6 
#
# 1 103.4842 46.1061 31.3296 0.0000 0.0000 0.0000
# 2 46.1061 130.6686 45.6751 0.0000 0.0000 0.0000
# 3 31.3296 45.6751 113.6529 0.0000 0.0000 0.0000
# 4 0.0000 0.0000 0.0000 26.6801 0.0000 0.0000
# 5 0.0000 0.0000 0.0000 0.0000 31.9224 0.0000
# 6 0.0000 0.0000 0.0000 0.0000 0.0000 36.2844
#
#
#
# Elastic Compliance Matrix: (Units=1/GPa)
#
#
# Indices 1 2 3 4 5 6 
#
# 1 0.011786 -0.003517 -0.001835 0.000000 0.000000 0.000000
# 2 -0.003517 0.009953 -0.003031 0.000000 0.000000 0.000000
# 3 -0.001835 -0.003031 0.010523 0.000000 0.000000 0.000000
# 4 0.000000 0.000000 0.000000 0.037481 0.000000 0.000000
# 5 0.000000 0.000000 0.000000 0.000000 0.031326 0.000000
# 6 0.000000 0.000000 0.000000 0.000000 0.000000 0.027560
#
#
# Mechanical properties :
#
#
# Convention : Reuss Voigt Hill
#
# Bulk Modulus (GPa) = 64.53402 66.00302 65.26852
# Shear Modulus (GPa) = 33.20929 33.95705 33.58317
#
# Velocity S-wave (km/s) = 3.95678 4.00108 3.97899
# Velocity P-wave (km/s) = 7.16230 7.24301 7.20277
#
# Compressibility (1/GPa) = 0.01549570
#
# Stress axis : x y z
#
# Youngs Moduli (GPa) = 84.84653 100.46977 95.03351
#
# Poissons Ratio (x) = 0.35336 0.17443
# Poissons Ratio (y) = 0.29841 0.28800
# Poissons Ratio (z) = 0.15573 0.30448
#
# Static dielectric constant tensor:
#      x y z
#    x 3.781270 0.000000 0.000000 
#    y 0.000000 4.240430 0.000000 
#    z 0.000000 0.000000 3.757840 
# 
# 
# High freq. dielectric constant tensor:
#      x y z
#    x 1.825830 0.000000 0.000000 
#    y 0.000000 1.851250 0.000000 
#    z 0.000000 0.000000 1.827560 
# 
# From -- ./inp_files/5090.got.cif
#   From: 2010.03.12/outbox.cif.g09.slc.cpg/sg49_3_cif.got.tgz:5090.got - 2010.04.14 03:58:27.
