data_PCOD8203689
_publ_section_title
;
Structure prediction by ZEFSAII (Michael W. Deem and Ramdas Pophale) SiO2 
 PCOD8203689
Probable space group: P C C M
;
_chemical_formula_sum "Si O2"
_cell_formula_units_Z 48
_cell_length_a 20.456234
_cell_length_b 14.457531
_cell_length_c 8.781345
_cell_angle_alpha 90.000000
_cell_angle_beta 90.000000
_cell_angle_gamma 90.000000
_cell_volume 2597.053254
_symmetry_space_group_name_H-M "P C C M"
_symmetry_group_IT_number 49
_symmetry_cell_setting 'orthorhombic'
loop_
_space_group_symop_operation_xyz
x,y,z
-x,-y,z
x,-y,1/2-z
-x,y,1/2-z
-x,-y,-z
x,y,-z
-x,y,1/2+z
x,-y,1/2+z
loop_
_atom_site_type_symbol
_atom_site_label
_atom_site_fract_x
_atom_site_fract_y
_atom_site_fract_z
Si Si1 0.931784 0.710096 0.181107
Si Si2 0.305023 0.709157 0.677484
Si Si3 0.812065 0.399689 0.819768
Si Si4 0.266189 0.091248 0.177231
Si Si5 0.118131 0.906950 0.679325
Si Si6 0.432761 0.402144 0.821577
O O1 0.876008 0.645252 0.247651
O O2 0.920847 0.816253 0.233613
O O3 0.000000 0.675376 0.250000
O O4 0.931603 0.700480 0.000000
O O5 0.286349 0.694317 0.500000
O O6 0.251325 0.660371 0.780822
O O7 0.307446 0.817733 0.719237
O O8 0.376236 0.670455 0.716665
O O9 0.801222 0.500000 0.750000
O O10 0.820378 0.406546 0.000000
O O11 0.192367 0.104411 0.239166
O O12 0.299092 0.000000 0.250000
O O13 0.264588 0.074047 0.000000
O O14 0.115418 0.916263 0.500000
O O15 0.086379 0.000000 0.750000
O O16 0.412854 0.500000 0.750000
O O17 0.500000 0.364204 0.750000
O O18 0.442642 0.415877 0.000000
#
# Coordination Sequence:
#
# PCOD8203689 Si02
#       6
#     8   8   8   8   8   8
#     4  11  23  41  59  80 110 145 184 230 280 332
#     4  10  20  37  59  84 115 149 184 229 278 323
#     4  12  25  40  60  84 109 142 183 230 278 331
#     4   9  17  32  53  80 111 143 179 223 275 324
#     4   9  18  33  55  78 109 143 176 224 274 328
#     4  10  20  34  55  81 115 152 186 226 273 326
#
# _framework density 18.482485
#
# number of rings (size 3 to 8) (size 9 to 14) (size 15 to 20)
#    0.000    1.833    1.667    3.500    0.000    5.333 
#    0.000    3.333    0.000    0.500    0.000    3.500 
#    0.000    0.000    0.000    0.000    0.000    0.000 
#
# Total GULP energy -595277.148548 kJ/mol
# GULP energy per Si atom -12401.607261 kJ/mol
# Density = 1.844042 g / cm^3
# Si number density = 18.482485 Si / 1000 Ang^3
#
#
#
# Elastic Constant Matrix: (Units=GPa)
#
#
# Indices 1 2 3 4 5 6 
#
# 1 109.6960 60.1871 44.7512 0.0000 0.0000 0.0000
# 2 60.1871 124.5000 46.6593 0.0000 0.0000 0.0000
# 3 44.7512 46.6593 81.7103 0.0000 0.0000 0.0000
# 4 0.0000 0.0000 0.0000 31.3632 0.0000 0.0000
# 5 0.0000 0.0000 0.0000 0.0000 -33.8071 0.0000
# 6 0.0000 0.0000 0.0000 0.0000 0.0000 1.0889
#
#
#
# Elastic Compliance Matrix: (Units=1/GPa)
#
#
# Indices 1 2 3 4 5 6 
#
# 1 0.013712 -0.004853 -0.004739 0.000000 0.000000 0.000000
# 2 -0.004853 0.011937 -0.004158 0.000000 0.000000 0.000000
# 3 -0.004739 -0.004158 0.017208 0.000000 0.000000 0.000000
# 4 0.000000 0.000000 0.000000 0.031885 0.000000 0.000000
# 5 0.000000 0.000000 0.000000 0.000000 -0.029580 0.000000
# 6 0.000000 0.000000 0.000000 0.000000 0.000000 0.918329
#
#
# Mechanical properties :
#
#
# Convention : Reuss Voigt Hill
#
# Bulk Modulus (GPa) = 65.11690 68.78905 66.95297
# Shear Modulus (GPa) = 5.01953 10.68293 7.85123
#
# Velocity S-wave (km/s) = 1.64977 2.40678 2.06329
# Velocity P-wave (km/s) = 6.23996 6.70990 6.47919
#
# Compressibility (1/GPa) = 0.01535700
#
# Stress axis : x y z
#
# Youngs Moduli (GPa) = 72.92969 83.77607 58.11188
#
# Poissons Ratio (x) = 0.40655 0.27537
# Poissons Ratio (y) = 0.35391 0.24165
# Poissons Ratio (z) = 0.34558 0.34837
#
# Static dielectric constant tensor:
#      x y z
#    x 3.345120 0.000000 0.000000 
#    y 0.000000 3.620790 0.000000 
#    z 0.000000 0.000000 3.447690 
# 
# 
# High freq. dielectric constant tensor:
#      x y z
#    x 1.700650 0.000000 0.000000 
#    y 0.000000 1.724340 0.000000 
#    z 0.000000 0.000000 1.720330 
# 
# From -- ./inp_files/3845.got.cif
#   From: 2010.03.12/outbox.cif.g09.slc.cpg/sg49_2_cif.got.tgz:3845.got - 2010.04.14 03:58:27.
