data_PCOD8203592
_publ_section_title
;
Structure prediction by ZEFSAII (Michael W. Deem and Ramdas Pophale) SiO2 
 PCOD8203592
Probable space group: P C C M
;
_chemical_formula_sum "Si O2"
_cell_formula_units_Z 56
_cell_length_a 29.385183
_cell_length_b 13.541227
_cell_length_c 8.763643
_cell_angle_alpha 90.000000
_cell_angle_beta 90.000000
_cell_angle_gamma 90.000000
_cell_volume 3487.153748
_symmetry_space_group_name_H-M "P C C M"
_symmetry_group_IT_number 49
_symmetry_cell_setting 'orthorhombic'
loop_
_space_group_symop_operation_xyz
x,y,z
-x,-y,z
x,-y,1/2-z
-x,y,1/2-z
-x,-y,-z
x,y,-z
-x,y,1/2+z
x,-y,1/2+z
loop_
_atom_site_type_symbol
_atom_site_label
_atom_site_fract_x
_atom_site_fract_y
_atom_site_fract_z
Si Si1 0.315383 0.704028 0.174376
Si Si2 0.368296 0.101271 0.321467
Si Si3 0.231770 0.392269 0.821447
Si Si4 0.857801 0.392312 0.821106
Si Si5 0.547558 0.793413 0.181108
Si Si6 0.956296 0.607951 0.678160
Si Si7 0.590401 0.394876 0.820799
O O1 0.329812 0.816477 0.207046
O O2 0.273844 0.678422 0.284307
O O3 0.357180 0.631535 0.212361
O O4 0.299821 0.689980 0.000000
O O5 0.378742 0.090514 0.500000
O O6 0.414642 0.129784 0.236872
O O7 0.349506 0.000000 0.250000
O O8 0.239832 0.500000 0.750000
O O9 0.185647 0.339305 0.756683
O O10 0.227059 0.405035 0.000000
O O11 0.859641 0.500000 0.750000
O O12 0.907064 0.339793 0.788644
O O13 0.848821 0.400237 0.000000
O O14 0.500000 0.829966 0.250000
O O15 0.557714 0.683728 0.241192
O O16 0.545593 0.792994 0.000000
O O17 0.954871 0.500000 0.750000
O O18 0.964455 0.598062 0.500000
O O19 0.000000 0.666337 0.750000
O O20 0.578761 0.500000 0.750000
O O21 0.580118 0.393814 0.000000
#
# Coordination Sequence:
#
# PCOD8203592 Si02
#       7
#     8   8   8   8   8   8   8
#     4   9  19  34  50  68  92 117 144 178 215 258
#     4  10  21  38  58  78  97 118 144 177 217 260
#     4  11  20  28  42  62  86 116 149 184 222 261
#     4   9  16  25  35  49  72 102 138 178 221 262
#     4  11  22  37  55  75  99 124 151 183 217 256
#     4   9  15  21  31  45  63  92 130 175 220 260
#     4  10  20  34  51  72  96 124 155 185 219 258
#
# _framework density 16.058941000000001
#
# number of rings (size 3 to 8) (size 9 to 14) (size 15 to 20)
#    0.000    2.143    0.000    6.857    0.000    6.857 
#    0.000    2.857    0.000    0.000    0.000    0.000 
#    0.000    0.000    0.000    0.000    0.000    0.714 
#
# Total GULP energy -694128.172659 kJ/mol
# GULP energy per Si atom -12395.145940 kJ/mol
# Density = 1.602239 g / cm^3
# Si number density = 16.058941 Si / 1000 Ang^3
#
#
#
# Elastic Constant Matrix: (Units=GPa)
#
#
# Indices 1 2 3 4 5 6 
#
# 1 114.5381 16.8486 55.9574 0.0000 0.0000 0.0000
# 2 16.8486 55.0103 24.0413 0.0000 0.0000 0.0000
# 3 55.9574 24.0413 125.2408 0.0000 0.0000 0.0000
# 4 0.0000 0.0000 0.0000 21.5465 0.0000 0.0000
# 5 0.0000 0.0000 0.0000 0.0000 38.1513 0.0000
# 6 0.0000 0.0000 0.0000 0.0000 0.0000 -1.8411
#
#
#
# Elastic Compliance Matrix: (Units=1/GPa)
#
#
# Indices 1 2 3 4 5 6 
#
# 1 0.011262 -0.001365 -0.004770 0.000000 0.000000 0.000000
# 2 -0.001365 0.020008 -0.003231 0.000000 0.000000 0.000000
# 3 -0.004770 -0.003231 0.010736 0.000000 0.000000 0.000000
# 4 0.000000 0.000000 0.000000 0.046411 0.000000 0.000000
# 5 0.000000 0.000000 0.000000 0.000000 0.026211 0.000000
# 6 0.000000 0.000000 0.000000 0.000000 0.000000 -0.543157
#
#
# Mechanical properties :
#
#
# Convention : Reuss Voigt Hill
#
# Bulk Modulus (GPa) = 42.96438 54.27596 48.62017
# Shear Modulus (GPa) = -12.43660 24.76748 6.16544
#
# Velocity S-wave (km/s) = -2.78589 3.93146 1.96153
# Velocity P-wave (km/s) = 4.05759 7.38104 5.95583
#
# Compressibility (1/GPa) = 0.02327510
#
# Stress axis : x y z
#
# Youngs Moduli (GPa) = 88.79637 49.97880 93.14482
#
# Poissons Ratio (x) = 0.06821 0.44428
# Poissons Ratio (y) = 0.12118 0.30096
# Poissons Ratio (z) = 0.42354 0.16149
#
# Static dielectric constant tensor:
#      x y z
#    x 3.725320 0.000000 0.000000 
#    y 0.000000 2.587200 0.000000 
#    z 0.000000 0.000000 3.180140 
# 
# 
# High freq. dielectric constant tensor:
#      x y z
#    x 1.628010 0.000000 0.000000 
#    y 0.000000 1.556680 0.000000 
#    z 0.000000 0.000000 1.638480 
# 
# From -- ./inp_files/7022.got.cif
#   From: 2010.03.12/outbox.cif.g09.slc.cpg/sg49_4_cif.got.tgz:7022.got - 2010.04.14 03:58:27.
