data_PCOD8203748
_publ_section_title
;
Structure prediction by ZEFSAII (Michael W. Deem and Ramdas Pophale) SiO2 
 PCOD8203748
Probable space group: P C C M
;
_chemical_formula_sum "Si O2"
_cell_formula_units_Z 48
_cell_length_a 30.669796
_cell_length_b 9.586728
_cell_length_c 8.710458
_cell_angle_alpha 90.000000
_cell_angle_beta 90.000000
_cell_angle_gamma 90.000000
_cell_volume 2561.074923
_symmetry_space_group_name_H-M "P C C M"
_symmetry_group_IT_number 49
_symmetry_cell_setting 'orthorhombic'
loop_
_space_group_symop_operation_xyz
x,y,z
-x,-y,z
x,-y,1/2-z
-x,y,1/2-z
-x,-y,-z
x,y,-z
-x,y,1/2+z
x,-y,1/2+z
loop_
_atom_site_type_symbol
_atom_site_label
_atom_site_fract_x
_atom_site_fract_y
_atom_site_fract_z
Si Si1 0.288741 0.846176 0.682224
Si Si2 0.218024 0.351739 0.682160
Si Si3 0.541476 0.348859 0.823108
Si Si4 0.361949 0.653872 0.180163
Si Si5 0.118989 0.356106 0.680174
Si Si6 0.044415 0.848367 0.182241
O O1 0.286664 0.854410 0.500000
O O2 0.245510 0.772734 0.745561
O O3 0.330677 0.759474 0.733387
O O4 0.291876 0.000000 0.750000
O O5 0.233833 0.500000 0.750000
O O6 0.224396 0.354927 0.500000
O O7 0.168237 0.321408 0.732203
O O8 0.542870 0.500000 0.750000
O O9 0.500000 0.264248 0.750000
O O10 0.589243 0.282786 0.794242
O O11 0.531495 0.363626 0.000000
O O12 0.356698 0.500000 0.250000
O O13 0.350308 0.646118 0.000000
O O14 0.102555 0.500000 0.750000
O O15 0.116801 0.371174 0.500000
O O16 0.086116 0.238286 0.739397
O O17 0.000000 0.781261 0.250000
O O18 0.051265 0.000000 0.250000
O O19 0.040832 0.854860 0.000000
#
# Coordination Sequence:
#
# PCOD8203748 Si02
#       6
#     8   8   8   8   8   8
#     4  12  25  40  57  79 107 141 178 222 270 320
#     4  10  20  38  60  83 110 141 177 219 265 319
#     4   9  16  26  45  73 106 138 173 216 262 308
#     4  10  20  35  55  81 110 144 182 221 265 317
#     4   9  20  36  56  81 109 139 175 216 262 313
#     4  10  20  35  53  77 106 141 181 220 262 311
#
# _framework density 18.74213
#
# number of rings (size 3 to 8) (size 9 to 14) (size 15 to 20)
#    0.000    2.000    0.000    5.000    0.000    5.000 
#    0.000    3.333    0.000    0.500    0.000    3.500 
#    0.000    0.000    0.000    0.000    0.000    0.000 
#
# Total GULP energy -595047.755317 kJ/mol
# GULP energy per Si atom -12396.828236 kJ/mol
# Density = 1.869947 g / cm^3
# Si number density = 18.742130 Si / 1000 Ang^3
#
#
#
# Elastic Constant Matrix: (Units=GPa)
#
#
# Indices 1 2 3 4 5 6 
#
# 1 140.9909 72.5204 55.6623 0.0000 0.0000 0.0000
# 2 72.5204 104.2016 47.8173 0.0000 0.0000 0.0000
# 3 55.6623 47.8173 112.3607 0.0000 0.0000 0.0000
# 4 0.0000 0.0000 0.0000 28.9448 0.0000 0.0000
# 5 0.0000 0.0000 0.0000 0.0000 101.5209 0.0000
# 6 0.0000 0.0000 0.0000 0.0000 0.0000 6.8021
#
#
#
# Elastic Compliance Matrix: (Units=1/GPa)
#
#
# Indices 1 2 3 4 5 6 
#
# 1 0.011768 -0.006853 -0.002913 0.000000 0.000000 0.000000
# 2 -0.006853 0.015917 -0.003379 0.000000 0.000000 0.000000
# 3 -0.002913 -0.003379 0.011781 0.000000 0.000000 0.000000
# 4 0.000000 0.000000 0.000000 0.034549 0.000000 0.000000
# 5 0.000000 0.000000 0.000000 0.000000 0.009850 0.000000
# 6 0.000000 0.000000 0.000000 0.000000 0.000000 0.147013
#
#
# Mechanical properties :
#
#
# Convention : Reuss Voigt Hill
#
# Bulk Modulus (GPa) = 75.89852 78.83922 77.36887
# Shear Modulus (GPa) = 19.11615 39.55712 29.33663
#
# Velocity S-wave (km/s) = 3.19714 4.59911 3.96065
# Velocity P-wave (km/s) = 7.36295 8.38803 7.89215
#
# Compressibility (1/GPa) = 0.01317549
#
# Stress axis : x y z
#
# Youngs Moduli (GPa) = 84.97838 62.82701 84.88285
#
# Poissons Ratio (x) = 0.43056 0.24728
# Poissons Ratio (y) = 0.58236 0.28680
# Poissons Ratio (z) = 0.24755 0.21228
#
# Static dielectric constant tensor:
#      x y z
#    x 4.325740 0.000000 0.000000 
#    y 0.000000 3.217310 0.000000 
#    z 0.000000 0.000000 3.611550 
# 
# 
# High freq. dielectric constant tensor:
#      x y z
#    x 1.751610 0.000000 0.000000 
#    y 0.000000 1.696700 0.000000 
#    z 0.000000 0.000000 1.743830 
# 
# From -- ./inp_files/6865.got.cif
#   From: 2010.03.12/outbox.cif.g09.slc.cpg/sg49_4_cif.got.tgz:6865.got - 2010.04.14 03:58:27.
