data_PCOD8203359
_publ_section_title
;
Structure prediction by ZEFSAII (Michael W. Deem and Ramdas Pophale) SiO2 
 PCOD8203359
Probable space group: P C C M
;
_chemical_formula_sum "Si O2"
_cell_formula_units_Z 56
_cell_length_a 13.186421
_cell_length_b 9.638728
_cell_length_c 21.299821
_cell_angle_alpha 90.000000
_cell_angle_beta 90.000000
_cell_angle_gamma 90.000000
_cell_volume 2707.214178
_symmetry_space_group_name_H-M "P C C M"
_symmetry_group_IT_number 49
_symmetry_cell_setting 'orthorhombic'
loop_
_space_group_symop_operation_xyz
x,y,z
-x,-y,z
x,-y,1/2-z
-x,y,1/2-z
-x,-y,-z
x,y,-z
-x,y,1/2+z
x,-y,1/2+z
loop_
_atom_site_type_symbol
_atom_site_label
_atom_site_fract_x
_atom_site_fract_y
_atom_site_fract_z
Si Si1 0.536039 0.344928 0.683506
Si Si2 0.395843 0.705588 0.926837
Si Si3 0.024172 0.850336 0.848571
Si Si4 0.834156 0.799569 0.930271
Si Si5 0.902618 0.427914 0.815111
Si Si6 0.782014 0.097814 0.071508
Si Si7 0.717188 0.448454 0.381763
O O1 0.500000 0.500000 0.687479
O O2 0.500000 0.272520 0.750000
O O3 0.488629 0.269488 0.621867
O O4 0.657968 0.359599 0.672740
O O5 0.310898 0.812986 0.901027
O O6 0.358671 0.545963 0.921245
O O7 0.427487 0.733076 0.000000
O O8 0.070577 0.734779 0.801625
O O9 0.108006 0.868485 0.901649
O O10 0.922931 0.789136 0.879440
O O11 0.000000 0.000000 0.815848
O O12 0.766650 0.662357 0.927953
O O13 0.762432 0.933747 0.917729
O O14 0.881435 0.811948 0.000000
O O15 0.881070 0.500000 0.750000
O O16 0.802203 0.446654 0.855696
O O17 0.000000 0.500000 0.848623
O O18 0.788989 0.142409 0.000000
#
# Coordination Sequence:
#
# PCOD8203359 Si02
#       7
#     8   8   8   8   8   8   8
#     4   9  21  37  58  85 112 156 202 244 302 367
#     4  10  20  35  58  87 116 149 199 256 306 360
#     4  10  19  36  58  81 114 156 199 238 288 362
#     4  10  20  34  54  85 120 153 191 238 301 369
#     4  11  23  38  56  84 117 152 195 249 302 355
#     4   9  18  33  56  83 116 156 195 241 299 364
#     4  11  21  35  59  84 117 150 194 247 303 354
#
# _framework density 20.685471
#
# number of rings (size 3 to 8) (size 9 to 14) (size 15 to 20)
#    0.000    2.000    2.857    0.857    4.000    4.857 
#    0.000    2.857    0.000    6.000    0.000    0.000 
#    0.000    0.000    0.000    0.000    0.000    0.000 
#
# Total GULP energy -693757.381254 kJ/mol
# GULP energy per Si atom -12388.524665 kJ/mol
# Density = 2.063839 g / cm^3
# Si number density = 20.685471 Si / 1000 Ang^3
#
#
#
# Elastic Constant Matrix: (Units=GPa)
#
#
# Indices 1 2 3 4 5 6 
#
# 1 82.9630 21.0787 26.5370 0.0000 0.0000 0.0000
# 2 21.0787 113.4763 23.7867 0.0000 0.0000 0.0000
# 3 26.5370 23.7867 85.8805 0.0000 0.0000 0.0000
# 4 0.0000 0.0000 0.0000 16.1664 0.0000 0.0000
# 5 0.0000 0.0000 0.0000 0.0000 21.2086 0.0000
# 6 0.0000 0.0000 0.0000 0.0000 0.0000 20.6511
#
#
#
# Elastic Compliance Matrix: (Units=1/GPa)
#
#
# Indices 1 2 3 4 5 6 
#
# 1 0.013699 -0.001759 -0.003746 0.000000 0.000000 0.000000
# 2 -0.001759 0.009582 -0.002110 0.000000 0.000000 0.000000
# 3 -0.003746 -0.002110 0.013386 0.000000 0.000000 0.000000
# 4 0.000000 0.000000 0.000000 0.061857 0.000000 0.000000
# 5 0.000000 0.000000 0.000000 0.000000 0.047151 0.000000
# 6 0.000000 0.000000 0.000000 0.000000 0.000000 0.048424
#
#
# Mechanical properties :
#
#
# Convention : Reuss Voigt Hill
#
# Bulk Modulus (GPa) = 46.65095 47.23608 46.94352
# Shear Modulus (GPa) = 23.09760 25.66638 24.38199
#
# Velocity S-wave (km/s) = 3.34520 3.52631 3.43695
# Velocity P-wave (km/s) = 6.12551 6.28210 6.20430
#
# Compressibility (1/GPa) = 0.02143579
#
# Stress axis : x y z
#
# Youngs Moduli (GPa) = 72.99979 104.36705 74.70526
#
# Poissons Ratio (x) = 0.18363 0.27981
# Poissons Ratio (y) = 0.12844 0.15764
# Poissons Ratio (z) = 0.27343 0.22023
#
# Static dielectric constant tensor:
#      x y z
#    x 4.060630 0.000000 0.000000 
#    y 0.000000 3.895130 0.000000 
#    z 0.000000 0.000000 3.709380 
# 
# 
# High freq. dielectric constant tensor:
#      x y z
#    x 1.805790 0.000000 0.000000 
#    y 0.000000 1.802370 0.000000 
#    z 0.000000 0.000000 1.789650 
# 
# From -- ./inp_files/20884.got.cif
#   From: 2010.03.12/outbox.cif.g09.slc.cpg/sg49_11_cif.got.tgz:20884.got - 2010.04.14 03:58:27.
