data_PCOD8203496
_publ_section_title
;
Structure prediction by ZEFSAII (Michael W. Deem and Ramdas Pophale) SiO2 
 PCOD8203496
Probable space group: P C C M
;
_chemical_formula_sum "Si O2"
_cell_formula_units_Z 56
_cell_length_a 20.246375
_cell_length_b 15.416554
_cell_length_c 8.616863
_cell_angle_alpha 90.000000
_cell_angle_beta 90.000000
_cell_angle_gamma 90.000000
_cell_volume 2689.575705
_symmetry_space_group_name_H-M "P C C M"
_symmetry_group_IT_number 49
_symmetry_cell_setting 'orthorhombic'
loop_
_space_group_symop_operation_xyz
x,y,z
-x,-y,z
x,-y,1/2-z
-x,y,1/2-z
-x,-y,-z
x,y,-z
-x,y,1/2+z
x,-y,1/2+z
loop_
_atom_site_type_symbol
_atom_site_label
_atom_site_fract_x
_atom_site_fract_y
_atom_site_fract_z
Si Si1 0.931044 0.767218 0.816818
Si Si2 0.566494 0.773329 0.319334
Si Si3 0.289424 0.186685 0.316303
Si Si4 0.175050 0.909848 0.683821
Si Si5 0.608685 0.414326 0.183687
Si Si6 0.118283 0.411037 0.682255
Si Si7 0.745335 0.367473 0.317560
O O1 0.874125 0.833542 0.762065
O O2 0.918021 0.670980 0.756127
O O3 0.000000 0.802204 0.750000
O O4 0.934790 0.764553 0.000000
O O5 0.500000 0.815861 0.250000
O O6 0.558365 0.779428 0.500000
O O7 0.633184 0.823969 0.267760
O O8 0.570668 0.672706 0.265161
O O9 0.284416 0.203895 0.500000
O O10 0.247240 0.103887 0.262809
O O11 0.257922 0.266401 0.224087
O O12 0.182551 0.914398 0.500000
O O13 0.146784 0.000000 0.750000
O O14 0.571061 0.500000 0.250000
O O15 0.679501 0.415898 0.266113
O O16 0.617310 0.417847 0.000000
O O17 0.087094 0.500000 0.750000
O O18 0.107421 0.408212 0.500000
O O19 0.195417 0.410526 0.723543
O O20 0.758298 0.377829 0.500000
#
# Coordination Sequence:
#
# PCOD8203496 Si02
#       7
#     8   8   8   8   8   8   8
#     4  11  25  45  67  95 130 169 213 257 311 371
#     4   9  20  35  53  79 112 154 201 248 303 371
#     4  10  20  37  61  89 122 159 202 251 308 365
#     4  11  24  42  69 101 132 164 206 254 309 375
#     4  10  20  33  47  71 106 148 199 254 311 366
#     4  12  24  39  61  88 123 167 213 265 315 366
#     4  11  20  33  54  82 115 154 202 254 311 369
#
# _framework density 20.821128000000002
#
# number of rings (size 3 to 8) (size 9 to 14) (size 15 to 20)
#    0.000    1.429    1.429    5.571    0.000    6.000 
#    0.000    4.286    0.000    0.429    0.000    3.000 
#    0.000    0.000    0.000    0.000    0.000    0.000 
#
# Total GULP energy -694421.174104 kJ/mol
# GULP energy per Si atom -12400.378109 kJ/mol
# Density = 2.077374 g / cm^3
# Si number density = 20.821128 Si / 1000 Ang^3
#
#
#
# Elastic Constant Matrix: (Units=GPa)
#
#
# Indices 1 2 3 4 5 6 
#
# 1 126.5976 44.5602 39.1934 0.0000 0.0000 0.0000
# 2 44.5602 99.6009 32.2746 0.0000 0.0000 0.0000
# 3 39.1934 32.2746 81.7730 0.0000 0.0000 0.0000
# 4 0.0000 0.0000 0.0000 31.9381 0.0000 0.0000
# 5 0.0000 0.0000 0.0000 0.0000 32.3056 0.0000
# 6 0.0000 0.0000 0.0000 0.0000 0.0000 10.1555
#
#
#
# Elastic Compliance Matrix: (Units=1/GPa)
#
#
# Indices 1 2 3 4 5 6 
#
# 1 0.010197 -0.003415 -0.003539 0.000000 0.000000 0.000000
# 2 -0.003415 0.012656 -0.003358 0.000000 0.000000 0.000000
# 3 -0.003539 -0.003358 0.015251 0.000000 0.000000 0.000000
# 4 0.000000 0.000000 0.000000 0.031311 0.000000 0.000000
# 5 0.000000 0.000000 0.000000 0.000000 0.030954 0.000000
# 6 0.000000 0.000000 0.000000 0.000000 0.000000 0.098469
#
#
# Mechanical properties :
#
#
# Convention : Reuss Voigt Hill
#
# Bulk Modulus (GPa) = 57.21408 60.00309 58.60859
# Shear Modulus (GPa) = 22.19362 27.67605 24.93483
#
# Velocity S-wave (km/s) = 3.26838 3.64981 3.46435
# Velocity P-wave (km/s) = 6.46387 6.82953 6.64921
#
# Compressibility (1/GPa) = 0.01747821
#
# Stress axis : x y z
#
# Youngs Moduli (GPa) = 98.06946 79.01290 65.56981
#
# Poissons Ratio (x) = 0.26983 0.23208
# Poissons Ratio (y) = 0.33491 0.22021
# Poissons Ratio (z) = 0.34711 0.26536
#
# Static dielectric constant tensor:
#      x y z
#    x 4.686360 0.000000 0.000000 
#    y 0.000000 3.998570 0.000000 
#    z 0.000000 0.000000 3.713820 
# 
# 
# High freq. dielectric constant tensor:
#      x y z
#    x 1.815960 0.000000 0.000000 
#    y 0.000000 1.798380 0.000000 
#    z 0.000000 0.000000 1.821890 
# 
# From -- ./inp_files/4090.got.cif
#   From: 2010.03.12/outbox.cif.g09.slc.cpg/sg49_3_cif.got.tgz:4090.got - 2010.04.14 03:58:27.
