data_PCOD8203660
_publ_section_title
;
Structure prediction by ZEFSAII (Michael W. Deem and Ramdas Pophale) SiO2 
 PCOD8203660
Probable space group: P C C M
;
_chemical_formula_sum "Si O2"
_cell_formula_units_Z 64
_cell_length_a 15.351663
_cell_length_b 23.461443
_cell_length_c 8.719322
_cell_angle_alpha 90.000000
_cell_angle_beta 90.000000
_cell_angle_gamma 90.000000
_cell_volume 3140.457095
_symmetry_space_group_name_H-M "P C C M"
_symmetry_group_IT_number 49
_symmetry_cell_setting 'orthorhombic'
loop_
_space_group_symop_operation_xyz
x,y,z
-x,-y,z
x,-y,1/2-z
-x,y,1/2-z
-x,-y,-z
x,y,-z
-x,y,1/2+z
x,-y,1/2+z
loop_
_atom_site_type_symbol
_atom_site_label
_atom_site_fract_x
_atom_site_fract_y
_atom_site_fract_z
Si Si1 0.186413 0.332238 0.827018
Si Si2 0.645390 0.321617 0.822602
Si Si3 0.084800 0.228894 0.169963
Si Si4 0.590006 0.795926 0.182812
Si Si5 0.089400 0.442500 0.175947
Si Si6 0.908351 0.937375 0.317020
Si Si7 0.595627 0.442237 0.317003
Si Si8 0.769474 0.146235 0.680470
O O1 0.252562 0.309017 0.699646
O O2 0.096531 0.296816 0.810325
O O3 0.166107 0.397893 0.797569
O O4 0.223904 0.322536 0.000000
O O5 0.594596 0.268658 0.748249
O O6 0.634898 0.381966 0.735961
O O7 0.618669 0.326953 0.000000
O O8 0.174613 0.201497 0.226931
O O9 0.000000 0.205119 0.250000
O O10 0.067972 0.208758 0.000000
O O11 0.500000 0.822475 0.250000
O O12 0.670441 0.837617 0.234250
O O13 0.586771 0.792266 0.000000
O O14 0.124706 0.500000 0.250000
O O15 0.000000 0.421099 0.250000
O O16 0.069469 0.453256 0.000000
O O17 0.914571 0.938441 0.500000
O O18 0.819068 0.904982 0.267632
O O19 0.000000 0.911033 0.250000
O O20 0.897799 0.000000 0.250000
O O21 0.642873 0.500000 0.250000
O O22 0.500000 0.442813 0.250000
O O23 0.597192 0.445043 0.500000
O O24 0.768865 0.132455 0.500000
#
# Coordination Sequence:
#
# PCOD8203660 Si02
#       8
#     8   8   8   8   8   8   8   8
#     4  10  21  38  54  74 106 146 185 236 297 352
#     4  12  24  38  58  84 113 149 195 245 303 368
#     4  10  20  35  55  81 115 154 194 237 299 358
#     4  11  23  42  65  90 124 163 208 261 316 372
#     4  10  20  34  54  73  99 134 180 232 286 350
#     4  11  22  38  63  96 137 179 222 261 305 361
#     4  11  22  39  60  82 109 139 179 232 296 368
#     4  10  21  39  62  89 126 167 208 258 310 360
#
# _framework density 20.379199
#
# number of rings (size 3 to 8) (size 9 to 14) (size 15 to 20)
#    0.000    1.375    1.250    6.375    0.000    4.500 
#    0.000    1.250    0.000    0.375    0.000    2.625 
#    0.000    0.000    0.000    0.000    0.000    0.000 
#
# Total GULP energy -792947.493606 kJ/mol
# GULP energy per Si atom -12389.804588 kJ/mol
# Density = 2.033282 g / cm^3
# Si number density = 20.379199 Si / 1000 Ang^3
#
#
#
# Elastic Constant Matrix: (Units=GPa)
#
#
# Indices 1 2 3 4 5 6 
#
# 1 133.8922 44.2071 53.5969 0.0000 0.0000 0.0000
# 2 44.2071 91.5032 47.3283 0.0000 0.0000 0.0000
# 3 53.5969 47.3283 124.5513 0.0000 0.0000 0.0000
# 4 0.0000 0.0000 0.0000 27.0481 0.0000 0.0000
# 5 0.0000 0.0000 0.0000 0.0000 34.0466 0.0000
# 6 0.0000 0.0000 0.0000 0.0000 0.0000 27.7675
#
#
#
# Elastic Compliance Matrix: (Units=1/GPa)
#
#
# Indices 1 2 3 4 5 6 
#
# 1 0.009700 -0.003145 -0.002979 0.000000 0.000000 0.000000
# 2 -0.003145 0.014622 -0.004203 0.000000 0.000000 0.000000
# 3 -0.002979 -0.004203 0.010908 0.000000 0.000000 0.000000
# 4 0.000000 0.000000 0.000000 0.036971 0.000000 0.000000
# 5 0.000000 0.000000 0.000000 0.000000 0.029371 0.000000
# 6 0.000000 0.000000 0.000000 0.000000 0.000000 0.036013
#
#
# Mechanical properties :
#
#
# Convention : Reuss Voigt Hill
#
# Bulk Modulus (GPa) = 68.60792 71.13458 69.87125
# Shear Modulus (GPa) = 30.65656 31.42672 31.04164
#
# Velocity S-wave (km/s) = 3.88275 3.93122 3.90706
# Velocity P-wave (km/s) = 7.33755 7.45568 7.39685
#
# Compressibility (1/GPa) = 0.01457558
#
# Stress axis : x y z
#
# Youngs Moduli (GPa) = 103.09725 68.39037 91.67926
#
# Poissons Ratio (x) = 0.21511 0.27309
# Poissons Ratio (y) = 0.32428 0.38530
# Poissons Ratio (z) = 0.30710 0.28742
#
# Static dielectric constant tensor:
#      x y z
#    x 3.778750 0.000000 0.000000 
#    y 0.000000 3.957920 0.000000 
#    z 0.000000 0.000000 3.602970 
# 
# 
# High freq. dielectric constant tensor:
#      x y z
#    x 1.793500 0.000000 0.000000 
#    y 0.000000 1.789380 0.000000 
#    z 0.000000 0.000000 1.797510 
# 
# From -- ./inp_files/4361.got.cif
#   From: 2010.03.12/outbox.cif.g09.slc.cpg/sg49_3_cif.got.tgz:4361.got - 2010.04.14 03:58:27.
