data_PCOD8203209
_publ_section_title
;
Structure prediction by ZEFSAII (Michael W. Deem and Ramdas Pophale) SiO2 
 PCOD8203209
Probable space group: P C C M
;
_chemical_formula_sum "Si O2"
_cell_formula_units_Z 56
_cell_length_a 14.961058
_cell_length_b 11.429237
_cell_length_c 16.588159
_cell_angle_alpha 90.000000
_cell_angle_beta 90.000000
_cell_angle_gamma 90.000000
_cell_volume 2836.466995
_symmetry_space_group_name_H-M "P C C M"
_symmetry_group_IT_number 49
_symmetry_cell_setting 'orthorhombic'
loop_
_space_group_symop_operation_xyz
x,y,z
-x,-y,z
x,-y,1/2-z
-x,y,1/2-z
-x,-y,-z
x,y,-z
-x,y,1/2+z
x,-y,1/2+z
loop_
_atom_site_type_symbol
_atom_site_label
_atom_site_fract_x
_atom_site_fract_y
_atom_site_fract_z
Si Si1 0.775367 0.807912 0.405956
Si Si2 0.255047 0.148943 0.092087
Si Si3 0.899234 0.984801 0.344902
Si Si4 0.669230 0.612359 0.357757
Si Si5 0.508180 0.766590 0.591774
Si Si6 0.379215 0.036307 0.342056
Si Si7 0.659033 0.648102 0.830935
O O1 0.762788 0.840276 0.500000
O O2 0.870534 0.854505 0.373574
O O3 0.763347 0.669150 0.388904
O O4 0.700653 0.870291 0.350585
O O5 0.258680 0.268165 0.143972
O O6 0.166379 0.078105 0.114247
O O7 0.347762 0.076768 0.106622
O O8 0.250514 0.185677 0.000000
O O9 0.892264 0.000000 0.250000
O O10 0.000000 0.000000 0.375903
O O11 0.592252 0.679150 0.406620
O O12 0.657174 0.629715 0.263393
O O13 0.668939 0.474988 0.377983
O O14 0.475735 0.779395 0.500000
O O15 0.531126 0.897591 0.626145
O O16 0.433128 0.709231 0.646302
O O17 0.392186 0.000000 0.250000
#
# Coordination Sequence:
#
# PCOD8203209 Si02
#       7
#     8   8   8   8   8   8   8
#     4  10  19  34  58  84 109 138 176 223 272 319
#     4  11  21  34  53  79 112 143 176 221 274 324
#     4  10  20  36  60  87 114 144 176 210 255 318
#     4  10  21  38  57  76 104 143 189 229 266 319
#     4  11  22  36  54  78 107 140 186 236 278 318
#     4  10  19  34  53  73 105 146 185 222 268 324
#     4  11  23  37  54  76 105 145 187 228 271 317
#
# _framework density 19.74287
#
# number of rings (size 3 to 8) (size 9 to 14) (size 15 to 20)
#    0.000    1.571    0.000    9.429    0.000    5.714 
#    0.000    5.714    0.000    0.857    0.000    6.000 
#    0.000    0.000    0.000    0.000    0.000    0.000 
#
# Total GULP energy -694347.909515 kJ/mol
# GULP energy per Si atom -12399.069813 kJ/mol
# Density = 1.969793 g / cm^3
# Si number density = 19.742870 Si / 1000 Ang^3
#
#
#
# Elastic Constant Matrix: (Units=GPa)
#
#
# Indices 1 2 3 4 5 6 
#
# 1 100.6359 48.9889 31.5454 0.0000 0.0000 0.0000
# 2 48.9889 134.9171 26.2638 0.0000 0.0000 0.0000
# 3 31.5454 26.2638 85.4560 0.0000 0.0000 0.0000
# 4 0.0000 0.0000 0.0000 26.7750 0.0000 0.0000
# 5 0.0000 0.0000 0.0000 0.0000 21.4767 0.0000
# 6 0.0000 0.0000 0.0000 0.0000 0.0000 17.2931
#
#
#
# Elastic Compliance Matrix: (Units=1/GPa)
#
#
# Indices 1 2 3 4 5 6 
#
# 1 0.013018 -0.004033 -0.003566 0.000000 0.000000 0.000000
# 2 -0.004033 0.009133 -0.001318 0.000000 0.000000 0.000000
# 3 -0.003566 -0.001318 0.013423 0.000000 0.000000 0.000000
# 4 0.000000 0.000000 0.000000 0.037348 0.000000 0.000000
# 5 0.000000 0.000000 0.000000 0.000000 0.046562 0.000000
# 6 0.000000 0.000000 0.000000 0.000000 0.000000 0.057826
#
#
# Mechanical properties :
#
#
# Convention : Reuss Voigt Hill
#
# Bulk Modulus (GPa) = 56.36905 59.40058 57.88482
# Shear Modulus (GPa) = 24.86848 27.38970 26.12909
#
# Velocity S-wave (km/s) = 3.55296 3.72872 3.64190
# Velocity P-wave (km/s) = 6.74129 6.97784 6.86058
#
# Compressibility (1/GPa) = 0.01774023
#
# Stress axis : x y z
#
# Youngs Moduli (GPa) = 76.81881 109.49511 74.49651
#
# Poissons Ratio (x) = 0.44155 0.26565
# Poissons Ratio (y) = 0.30978 0.09821
# Poissons Ratio (z) = 0.27394 0.14434
#
# Static dielectric constant tensor:
#      x y z
#    x 3.603250 0.000000 0.000000 
#    y 0.000000 4.188140 0.000000 
#    z 0.000000 0.000000 3.745680 
# 
# 
# High freq. dielectric constant tensor:
#      x y z
#    x 1.735620 0.000000 0.000000 
#    y 0.000000 1.775280 0.000000 
#    z 0.000000 0.000000 1.784120 
# 
# From -- ./inp_files/13611.got.cif
#   From: 2010.03.12/outbox.cif.g09.slc.cpg/sg49_7_cif.got.tgz:13611.got - 2010.04.14 03:58:27.
