data_PCOD8203762
_publ_section_title
;
Structure prediction by ZEFSAII (Michael W. Deem and Ramdas Pophale) SiO2 
 PCOD8203762
Probable space group: P C C M
;
_chemical_formula_sum "Si O2"
_cell_formula_units_Z 64
_cell_length_a 8.712524
_cell_length_b 20.924241
_cell_length_c 17.415405
_cell_angle_alpha 90.000000
_cell_angle_beta 90.000000
_cell_angle_gamma 90.000000
_cell_volume 3174.879740
_symmetry_space_group_name_H-M "P C C M"
_symmetry_group_IT_number 49
_symmetry_cell_setting 'orthorhombic'
loop_
_space_group_symop_operation_xyz
x,y,z
-x,-y,z
x,-y,1/2-z
-x,y,1/2-z
-x,-y,-z
x,y,-z
-x,y,1/2+z
x,-y,1/2+z
loop_
_atom_site_type_symbol
_atom_site_label
_atom_site_fract_x
_atom_site_fract_y
_atom_site_fract_z
Si Si1 0.063523 0.435431 0.662959
Si Si2 0.570268 0.819692 0.668964
Si Si3 0.067564 0.180103 0.667740
Si Si4 0.578041 0.936229 0.090567
Si Si5 0.612196 0.441817 0.090163
Si Si6 0.079612 0.936836 0.590535
Si Si7 0.426158 0.303554 0.584488
Si Si8 0.939843 0.693766 0.414058
O O1 0.247226 0.441263 0.650757
O O2 0.997925 0.372536 0.621117
O O3 0.000000 0.500000 0.623593
O O4 0.000000 0.432224 0.750000
O O5 0.500000 0.837503 0.750000
O O6 0.751317 0.817295 0.673497
O O7 0.520942 0.873991 0.609686
O O8 0.508316 0.749828 0.642458
O O9 0.999037 0.247038 0.636584
O O10 0.000000 0.164363 0.750000
O O11 0.021218 0.124588 0.609702
O O12 0.749296 0.930159 0.125455
O O13 0.500000 0.000000 0.125603
O O14 0.586049 0.942468 0.000000
O O15 0.500000 0.500000 0.110277
O O16 0.517573 0.375544 0.104382
O O17 0.666966 0.444422 0.000000
O O18 0.089073 0.943478 0.500000
O O19 0.000000 0.000000 0.625921
O O20 0.483943 0.283560 0.500000
O O21 0.242729 0.305866 0.585527
O O22 0.005665 0.700678 0.500000
#
# Coordination Sequence:
#
# PCOD8203762 Si02
#       8
#     8   8   8   8   8   8   8   8
#     4  10  20  35  54  83 120 154 189 230 286 348
#     4  11  22  36  55  81 112 147 185 224 273 332
#     4  11  22  37  57  81 114 150 186 229 281 337
#     4  10  21  38  60  85 112 142 179 226 276 326
#     4   9  18  36  61  86 112 147 195 245 289 337
#     4  10  21  38  60  86 114 145 185 229 274 330
#     4   8  16  33  57  82 108 141 183 232 282 331
#     4   9  18  34  58  83 108 145 190 234 280 333
#
# _framework density 20.158244
#
# number of rings (size 3 to 8) (size 9 to 14) (size 15 to 20)
#    0.000    2.250    0.000    3.750    0.000    4.000 
#    0.000   13.750    0.000    4.500    0.000    0.000 
#    0.000    0.000    0.000    0.000    0.000    0.000 
#
# Total GULP energy -793358.090838 kJ/mol
# GULP energy per Si atom -12396.220169 kJ/mol
# Density = 2.011236 g / cm^3
# Si number density = 20.158244 Si / 1000 Ang^3
#
#
#
# Elastic Constant Matrix: (Units=GPa)
#
#
# Indices 1 2 3 4 5 6 
#
# 1 70.8207 43.4327 32.3451 0.0000 0.0000 0.0000
# 2 43.4327 172.6034 27.9271 0.0000 0.0000 0.0000
# 3 32.3451 27.9271 56.9738 0.0000 0.0000 0.0000
# 4 0.0000 0.0000 0.0000 10.5051 0.0000 0.0000
# 5 0.0000 0.0000 0.0000 0.0000 26.0020 0.0000
# 6 0.0000 0.0000 0.0000 0.0000 0.0000 31.3914
#
#
#
# Elastic Compliance Matrix: (Units=1/GPa)
#
#
# Indices 1 2 3 4 5 6 
#
# 1 0.020977 -0.003640 -0.010124 0.000000 0.000000 0.000000
# 2 -0.003640 0.006924 -0.001328 0.000000 0.000000 0.000000
# 3 -0.010124 -0.001328 0.023950 0.000000 0.000000 0.000000
# 4 0.000000 0.000000 0.000000 0.095192 0.000000 0.000000
# 5 0.000000 0.000000 0.000000 0.000000 0.038459 0.000000
# 6 0.000000 0.000000 0.000000 0.000000 0.000000 0.031856
#
#
# Mechanical properties :
#
#
# Convention : Reuss Voigt Hill
#
# Bulk Modulus (GPa) = 46.15304 56.42306 51.28805
# Shear Modulus (GPa) = 19.62596 26.69257 23.15927
#
# Velocity S-wave (km/s) = 3.12363 3.64284 3.39318
# Velocity P-wave (km/s) = 5.99621 6.76347 6.39136
#
# Compressibility (1/GPa) = 0.02166704
#
# Stress axis : x y z
#
# Youngs Moduli (GPa) = 47.67195 144.41606 41.75279
#
# Poissons Ratio (x) = 0.52572 0.42273
# Poissons Ratio (y) = 0.17354 0.05543
# Poissons Ratio (z) = 0.48265 0.19171
#
# Static dielectric constant tensor:
#      x y z
#    x 3.513250 0.000000 0.000000 
#    y 0.000000 4.103600 0.000000 
#    z 0.000000 0.000000 3.541860 
# 
# 
# High freq. dielectric constant tensor:
#      x y z
#    x 1.761190 0.000000 0.000000 
#    y 0.000000 1.812970 0.000000 
#    z 0.000000 0.000000 1.774120 
# 
# From -- ./inp_files/16560.got.cif
#   From: 2010.03.12/outbox.cif.g09.slc.cpg/sg49_9_cif.got.tgz:16560.got - 2010.04.14 03:58:27.
