data_PCOD8203077
_publ_section_title
;
Structure prediction by ZEFSAII (Michael W. Deem and Ramdas Pophale) SiO2 
 PCOD8203077
Probable space group: P C C M
;
_chemical_formula_sum "Si O2"
_cell_formula_units_Z 64
_cell_length_a 22.828877
_cell_length_b 18.587092
_cell_length_c 8.652590
_cell_angle_alpha 90.000000
_cell_angle_beta 90.000000
_cell_angle_gamma 90.000000
_cell_volume 3671.488076
_symmetry_space_group_name_H-M "P C C M"
_symmetry_group_IT_number 49
_symmetry_cell_setting 'orthorhombic'
loop_
_space_group_symop_operation_xyz
x,y,z
-x,-y,z
x,-y,1/2-z
-x,y,1/2-z
-x,-y,-z
x,y,-z
-x,y,1/2+z
x,-y,1/2+z
loop_
_atom_site_type_symbol
_atom_site_label
_atom_site_fract_x
_atom_site_fract_y
_atom_site_fract_z
Si Si1 0.238528 0.289192 0.821693
Si Si2 0.761188 0.924853 0.175736
Si Si3 0.337917 0.171906 0.830284
Si Si4 0.556078 0.776422 0.322512
Si Si5 0.688073 0.575246 0.184077
Si Si6 0.844504 0.816794 0.320841
Si Si7 0.064236 0.076038 0.816534
Si Si8 0.560554 0.378733 0.318554
O O1 0.289548 0.231788 0.796763
O O2 0.265763 0.364064 0.756146
O O3 0.178225 0.262335 0.737427
O O4 0.221463 0.297113 0.000000
O O5 0.692213 0.906550 0.174194
O O6 0.790549 0.868975 0.290814
O O7 0.773732 0.000000 0.250000
O O8 0.786880 0.920319 0.000000
O O9 0.387656 0.173210 0.700082
O O10 0.365645 0.185480 0.000000
O O11 0.500000 0.817315 0.250000
O O12 0.546529 0.757265 0.500000
O O13 0.564818 0.704452 0.224490
O O14 0.711508 0.500000 0.250000
O O15 0.621006 0.586272 0.245596
O O16 0.687679 0.576042 0.000000
O O17 0.860910 0.811076 0.500000
O O18 0.899076 0.852824 0.230616
O O19 0.000000 0.087761 0.750000
O O20 0.090489 0.000000 0.750000
O O21 0.062103 0.069679 0.000000
O O22 0.500000 0.412960 0.250000
O O23 0.556899 0.388453 0.500000
#
# Coordination Sequence:
#
# PCOD8203077 Si02
#       8
#     8   8   8   8   8   8   8   8
#     4   9  18  35  52  69  96 129 163 205 252 296
#     4  10  20  33  49  70  97 127 158 198 243 288
#     4   9  17  32  50  66  90 118 149 190 242 290
#     4  11  20  29  46  68  88 112 147 190 235 288
#     4  10  21  35  51  69  97 130 163 203 254 308
#     4  11  21  33  51  76 103 135 175 214 247 288
#     4  11  21  35  53  77 111 150 186 219 253 292
#     4  10  19  33  48  66  91 122 156 198 244 299
#
# _framework density 17.431625
#
# number of rings (size 3 to 8) (size 9 to 14) (size 15 to 20)
#    0.000    1.875    1.250    6.375    0.000    4.250 
#    0.000    1.250    0.000    0.375    0.000    2.625 
#    0.000    0.500    0.000    5.250    0.000    2.875 
#
# Total GULP energy -792987.954065 kJ/mol
# GULP energy per Si atom -12390.436782 kJ/mol
# Density = 1.739195 g / cm^3
# Si number density = 17.431625 Si / 1000 Ang^3
#
#
#
# Elastic Constant Matrix: (Units=GPa)
#
#
# Indices 1 2 3 4 5 6 
#
# 1 80.6475 42.8679 33.0918 0.0000 0.0000 0.0000
# 2 42.8679 70.2537 22.4829 0.0000 0.0000 0.0000
# 3 33.0918 22.4829 85.0525 0.0000 0.0000 0.0000
# 4 0.0000 0.0000 0.0000 22.2320 0.0000 0.0000
# 5 0.0000 0.0000 0.0000 0.0000 26.6189 0.0000
# 6 0.0000 0.0000 0.0000 0.0000 0.0000 15.4168
#
#
#
# Elastic Compliance Matrix: (Units=1/GPa)
#
#
# Indices 1 2 3 4 5 6 
#
# 1 0.020133 -0.010682 -0.005010 0.000000 0.000000 0.000000
# 2 -0.010682 0.021217 -0.001453 0.000000 0.000000 0.000000
# 3 -0.005010 -0.001453 0.014091 0.000000 0.000000 0.000000
# 4 0.000000 0.000000 0.000000 0.044980 0.000000 0.000000
# 5 0.000000 0.000000 0.000000 0.000000 0.037567 0.000000
# 6 0.000000 0.000000 0.000000 0.000000 0.000000 0.064864
#
#
# Mechanical properties :
#
#
# Convention : Reuss Voigt Hill
#
# Bulk Modulus (GPa) = 47.27537 48.09322 47.68430
# Shear Modulus (GPa) = 20.47580 22.02095 21.24837
#
# Velocity S-wave (km/s) = 3.43101 3.55812 3.49514
# Velocity P-wave (km/s) = 6.54791 6.67306 6.61078
#
# Compressibility (1/GPa) = 0.02115266
#
# Stress axis : x y z
#
# Youngs Moduli (GPa) = 49.66954 47.13249 70.96964
#
# Poissons Ratio (x) = 0.50346 0.35553
# Poissons Ratio (y) = 0.53056 0.10308
# Poissons Ratio (z) = 0.24883 0.06846
#
# Static dielectric constant tensor:
#      x y z
#    x 3.436600 0.000000 0.000000 
#    y 0.000000 0.468730 0.000000 
#    z 0.000000 0.000000 3.281970 
# 
# 
# High freq. dielectric constant tensor:
#      x y z
#    x 1.657520 0.000000 0.000000 
#    y 0.000000 1.642490 0.000000 
#    z 0.000000 0.000000 1.679910 
# 
# From -- ./inp_files/6620.got.cif
#   From: 2010.03.12/outbox.cif.g09.slc.cpg/sg49_4_cif.got.tgz:6620.got - 2010.04.14 03:58:27.
