data_PCOD8203054
_publ_section_title
;
Structure prediction by ZEFSAII (Michael W. Deem and Ramdas Pophale) SiO2 
 PCOD8203054
Probable space group: P C C M
;
_chemical_formula_sum "Si O2"
_cell_formula_units_Z 56
_cell_length_a 15.270245
_cell_length_b 20.082389
_cell_length_c 8.667549
_cell_angle_alpha 90.000000
_cell_angle_beta 90.000000
_cell_angle_gamma 90.000000
_cell_volume 2658.016581
_symmetry_space_group_name_H-M "P C C M"
_symmetry_group_IT_number 49
_symmetry_cell_setting 'orthorhombic'
loop_
_space_group_symop_operation_xyz
x,y,z
-x,-y,z
x,-y,1/2-z
-x,y,1/2-z
-x,-y,-z
x,y,-z
-x,y,1/2+z
x,-y,1/2+z
loop_
_atom_site_type_symbol
_atom_site_label
_atom_site_fract_x
_atom_site_fract_y
_atom_site_fract_z
Si Si1 0.409292 0.331242 0.818647
Si Si2 0.275932 0.932584 0.819067
Si Si3 0.908985 0.611838 0.178170
Si Si4 0.729649 0.569222 0.682308
Si Si5 0.853370 0.759559 0.177476
Si Si6 0.326899 0.789182 0.819045
Si Si7 0.086054 0.889705 0.182602
O O1 0.500000 0.359035 0.750000
O O2 0.327747 0.371210 0.750650
O O3 0.399298 0.253280 0.772758
O O4 0.410356 0.339763 0.000000
O O5 0.328526 0.866711 0.763414
O O6 0.174332 0.927760 0.766563
O O7 0.317595 0.000000 0.750000
O O8 0.282430 0.937328 0.000000
O O9 0.830345 0.577360 0.269739
O O10 0.904898 0.691106 0.197504
O O11 0.000000 0.586137 0.250000
O O12 0.902861 0.590335 0.000000
O O13 0.693133 0.500000 0.750000
O O14 0.720323 0.569301 0.500000
O O15 0.767779 0.758135 0.284583
O O16 0.916371 0.817661 0.236577
O O17 0.825195 0.771093 0.000000
O O18 0.345987 0.783398 0.000000
O O19 0.000000 0.927713 0.250000
O O20 0.081062 0.881861 0.000000
#
# Coordination Sequence:
#
# PCOD8203054 Si02
#       7
#     8   8   8   8   8   8   8
#     4  12  25  44  71 104 134 166 209 255 313 379
#     4   9  20  35  53  79 113 156 204 251 307 373
#     4  11  23  38  59  90 126 168 220 268 317 374
#     4  12  26  46  70  96 132 173 213 263 317 375
#     4  10  19  32  54  82 115 155 203 256 312 371
#     4  10  20  37  61  90 124 161 203 254 311 368
#     4  10  20  32  46  70 106 148 200 258 314 372
#
# _framework density 21.068342000000001
#
# number of rings (size 3 to 8) (size 9 to 14) (size 15 to 20)
#    0.000    1.429    1.429    5.571    0.000    7.143 
#    0.000    4.286    0.000    0.429    0.000    3.000 
#    0.000    0.000    0.000    0.000    0.000    0.000 
#
# Total GULP energy -694474.497521 kJ/mol
# GULP energy per Si atom -12401.330313 kJ/mol
# Density = 2.102039 g / cm^3
# Si number density = 21.068342 Si / 1000 Ang^3
#
#
#
# Elastic Constant Matrix: (Units=GPa)
#
#
# Indices 1 2 3 4 5 6 
#
# 1 82.9981 27.0301 27.9235 0.0000 0.0000 0.0000
# 2 27.0301 105.8131 47.4422 0.0000 0.0000 0.0000
# 3 27.9235 47.4422 124.9151 0.0000 0.0000 0.0000
# 4 0.0000 0.0000 0.0000 32.0241 0.0000 0.0000
# 5 0.0000 0.0000 0.0000 0.0000 34.2457 0.0000
# 6 0.0000 0.0000 0.0000 0.0000 0.0000 8.8073
#
#
#
# Elastic Compliance Matrix: (Units=1/GPa)
#
#
# Indices 1 2 3 4 5 6 
#
# 1 0.013572 -0.002539 -0.002069 0.000000 0.000000 0.000000
# 2 -0.002539 0.011865 -0.003939 0.000000 0.000000 0.000000
# 3 -0.002069 -0.003939 0.009964 0.000000 0.000000 0.000000
# 4 0.000000 0.000000 0.000000 0.031227 0.000000 0.000000
# 5 0.000000 0.000000 0.000000 0.000000 0.029201 0.000000
# 6 0.000000 0.000000 0.000000 0.000000 0.000000 0.113542
#
#
# Mechanical properties :
#
#
# Convention : Reuss Voigt Hill
#
# Bulk Modulus (GPa) = 54.62622 57.61310 56.11966
# Shear Modulus (GPa) = 21.49917 29.10410 25.30163
#
# Velocity S-wave (km/s) = 3.19791 3.72077 3.46921
# Velocity P-wave (km/s) = 6.29444 6.77230 6.53773
#
# Compressibility (1/GPa) = 0.01830623
#
# Stress axis : x y z
#
# Youngs Moduli (GPa) = 73.68326 84.27999 100.36140
#
# Poissons Ratio (x) = 0.21399 0.20770
# Poissons Ratio (y) = 0.18708 0.39530
# Poissons Ratio (z) = 0.15249 0.33196
#
# Static dielectric constant tensor:
#      x y z
#    x 3.714690 0.000000 0.000000 
#    y 0.000000 4.068310 0.000000 
#    z 0.000000 0.000000 3.794240 
# 
# 
# High freq. dielectric constant tensor:
#      x y z
#    x 1.805180 0.000000 0.000000 
#    y 0.000000 1.827430 0.000000 
#    z 0.000000 0.000000 1.832930 
# 
# From -- ./inp_files/4069.got.cif
#   From: 2010.03.12/outbox.cif.g09.slc.cpg/sg49_3_cif.got.tgz:4069.got - 2010.04.14 03:58:27.
