data_PCOD8203516
_publ_section_title
;
Structure prediction by ZEFSAII (Michael W. Deem and Ramdas Pophale) SiO2 
 PCOD8203516
Probable space group: P C C M
;
_chemical_formula_sum "Si O2"
_cell_formula_units_Z 56
_cell_length_a 15.406043
_cell_length_b 20.075545
_cell_length_c 8.803564
_cell_angle_alpha 90.000000
_cell_angle_beta 90.000000
_cell_angle_gamma 90.000000
_cell_volume 2722.807734
_symmetry_space_group_name_H-M "P C C M"
_symmetry_group_IT_number 49
_symmetry_cell_setting 'orthorhombic'
loop_
_space_group_symop_operation_xyz
x,y,z
-x,-y,z
x,-y,1/2-z
-x,y,1/2-z
-x,-y,-z
x,y,-z
-x,y,1/2+z
x,-y,1/2+z
loop_
_atom_site_type_symbol
_atom_site_label
_atom_site_fract_x
_atom_site_fract_y
_atom_site_fract_z
Si Si1 0.409942 0.328095 0.821577
Si Si2 0.267822 0.932961 0.821228
Si Si3 0.911866 0.621613 0.678302
Si Si4 0.736248 0.569459 0.819343
Si Si5 0.871744 0.753220 0.170539
Si Si6 0.317856 0.802098 0.676094
Si Si7 0.914017 0.901698 0.173428
O O1 0.500000 0.351672 0.750000
O O2 0.332172 0.374990 0.762830
O O3 0.391942 0.250780 0.777374
O O4 0.417683 0.335630 0.000000
O O5 0.326478 0.869864 0.772167
O O6 0.169350 0.926351 0.764214
O O7 0.308840 0.000000 0.750000
O O8 0.268525 0.938777 0.000000
O O9 0.910055 0.607903 0.500000
O O10 0.830982 0.586159 0.756576
O O11 0.910287 0.700999 0.709921
O O12 0.000000 0.591460 0.750000
O O13 0.704114 0.500000 0.750000
O O14 0.740580 0.565220 0.000000
O O15 0.771937 0.765410 0.212028
O O16 0.923208 0.822084 0.181695
O O17 0.878927 0.723009 0.000000
O O18 0.321945 0.822526 0.500000
O O19 0.000000 0.932809 0.250000
O O20 0.905569 0.926134 0.000000
#
# Coordination Sequence:
#
# PCOD8203516 Si02
#       7
#     8   8   8   8   8   8   8
#     4  10  22  41  68  98 131 163 200 249 305 367
#     4  11  22  36  55  81 112 153 200 247 300 366
#     4  12  24  37  58  87 120 163 211 259 307 364
#     4  11  24  45  66  91 127 167 207 255 309 362
#     4   9  17  33  55  79 113 153 198 250 306 358
#     4   9  18  37  61  86 119 159 196 246 304 355
#     4  10  20  33  49  73 108 149 196 251 306 360
#
# _framework density 20.567005999999999
#
# number of rings (size 3 to 8) (size 9 to 14) (size 15 to 20)
#    0.000    1.714    1.429    4.714    0.000    6.571 
#    0.000    4.286    0.000    0.429    0.000    3.000 
#    0.000    0.000    0.000    0.000    0.000    0.000 
#
# Total GULP energy -694492.249910 kJ/mol
# GULP energy per Si atom -12401.647320 kJ/mol
# Density = 2.052019 g / cm^3
# Si number density = 20.567006 Si / 1000 Ang^3
#
#
#
# Elastic Constant Matrix: (Units=GPa)
#
#
# Indices 1 2 3 4 5 6 
#
# 1 102.6577 41.3318 41.6212 0.0000 0.0000 0.0000
# 2 41.3318 115.0556 54.6308 0.0000 0.0000 0.0000
# 3 41.6212 54.6308 125.0075 0.0000 0.0000 0.0000
# 4 0.0000 0.0000 0.0000 35.1530 0.0000 0.0000
# 5 0.0000 0.0000 0.0000 0.0000 28.8917 0.0000
# 6 0.0000 0.0000 0.0000 0.0000 0.0000 3.3623
#
#
#
# Elastic Compliance Matrix: (Units=1/GPa)
#
#
# Indices 1 2 3 4 5 6 
#
# 1 0.012059 -0.003061 -0.002677 0.000000 0.000000 0.000000
# 2 -0.003061 0.011744 -0.004113 0.000000 0.000000 0.000000
# 3 -0.002677 -0.004113 0.010689 0.000000 0.000000 0.000000
# 4 0.000000 0.000000 0.000000 0.028447 0.000000 0.000000
# 5 0.000000 0.000000 0.000000 0.000000 0.034612 0.000000
# 6 0.000000 0.000000 0.000000 0.000000 0.000000 0.297418
#
#
# Mechanical properties :
#
#
# Convention : Reuss Voigt Hill
#
# Bulk Modulus (GPa) = 67.61936 68.65427 68.13682
# Shear Modulus (GPa) = 11.91609 27.15719 19.53664
#
# Velocity S-wave (km/s) = 2.40964 3.63771 3.08539
# Velocity P-wave (km/s) = 6.37893 7.14823 6.77451
#
# Compressibility (1/GPa) = 0.01478866
#
# Stress axis : x y z
#
# Youngs Moduli (GPa) = 82.92618 85.14952 93.55781
#
# Poissons Ratio (x) = 0.26061 0.25049
# Poissons Ratio (y) = 0.25381 0.38483
# Poissons Ratio (z) = 0.22203 0.35025
#
# Static dielectric constant tensor:
#      x y z
#    x 3.584640 0.000000 0.000000 
#    y 0.000000 3.933230 0.000000 
#    z 0.000000 0.000000 3.655770 
# 
# 
# High freq. dielectric constant tensor:
#      x y z
#    x 1.782860 0.000000 0.000000 
#    y 0.000000 1.809780 0.000000 
#    z 0.000000 0.000000 1.802640 
# 
# From -- ./inp_files/4071.got.cif
#   From: 2010.03.12/outbox.cif.g09.slc.cpg/sg49_3_cif.got.tgz:4071.got - 2010.04.14 03:58:27.
