data_PCOD8203341
_publ_section_title
;
Structure prediction by ZEFSAII (Michael W. Deem and Ramdas Pophale) SiO2 
 PCOD8203341
Probable space group: P C C M
;
_chemical_formula_sum "Si O2"
_cell_formula_units_Z 64
_cell_length_a 25.473186
_cell_length_b 14.483077
_cell_length_c 8.717556
_cell_angle_alpha 90.000000
_cell_angle_beta 90.000000
_cell_angle_gamma 90.000000
_cell_volume 3216.168931
_symmetry_space_group_name_H-M "P C C M"
_symmetry_group_IT_number 49
_symmetry_cell_setting 'orthorhombic'
loop_
_space_group_symop_operation_xyz
x,y,z
-x,-y,z
x,-y,1/2-z
-x,y,1/2-z
-x,-y,-z
x,y,-z
-x,y,1/2+z
x,-y,1/2+z
loop_
_atom_site_type_symbol
_atom_site_label
_atom_site_fract_x
_atom_site_fract_y
_atom_site_fract_z
Si Si1 0.054492 0.281471 0.182234
Si Si2 0.250118 0.288158 0.317821
Si Si3 0.148732 0.601336 0.817330
Si Si4 0.442873 0.911726 0.322042
Si Si5 0.650287 0.400846 0.181850
Si Si6 0.786100 0.094172 0.821076
Si Si7 0.091840 0.096012 0.680990
Si Si8 0.442515 0.708216 0.679948
O O1 0.100100 0.342118 0.254087
O O2 0.060378 0.175630 0.233151
O O3 0.000000 0.319973 0.250000
O O4 0.054963 0.289961 0.000000
O O5 0.248076 0.285860 0.500000
O O6 0.201888 0.349961 0.258083
O O7 0.304594 0.331244 0.258839
O O8 0.244870 0.183255 0.254474
O O9 0.147326 0.500000 0.750000
O O10 0.145726 0.598438 0.000000
O O11 0.500000 0.910032 0.250000
O O12 0.447794 0.929955 0.500000
O O13 0.418089 0.810868 0.287885
O O14 0.411194 0.000000 0.250000
O O15 0.663451 0.500000 0.250000
O O16 0.594351 0.366736 0.241628
O O17 0.649146 0.407403 0.000000
O O18 0.846913 0.107902 0.779735
O O19 0.763228 0.000000 0.750000
O O20 0.777525 0.085621 0.000000
O O21 0.081138 0.100944 0.500000
O O22 0.070962 0.000000 0.750000
O O23 0.500000 0.697401 0.750000
O O24 0.446125 0.688442 0.500000
#
# Coordination Sequence:
#
# PCOD8203341 Si02
#       8
#     8   8   8   8   8   8   8   8
#     4  12  25  41  60  86 118 157 201 247 301 357
#     4   9  19  38  63  88 120 156 191 236 292 348
#     4  11  22  41  64  89 117 151 194 246 300 357
#     4   9  16  27  48  77 110 146 186 231 277 329
#     4  11  23  40  62  87 117 154 195 244 299 351
#     4   9  17  33  57  87 120 156 192 233 284 342
#     4  10  19  35  59  87 121 158 197 244 293 351
#     4  10  21  38  59  86 119 156 199 244 292 349
#
# _framework density 19.899452
#
# number of rings (size 3 to 8) (size 9 to 14) (size 15 to 20)
#    0.000    1.875    1.250    3.750    0.000    2.750 
#    0.000    7.500    0.000    3.000    0.000    0.000 
#    0.000    0.000    0.000    0.000    0.000    0.000 
#
# Total GULP energy -793525.662887 kJ/mol
# GULP energy per Si atom -12398.838483 kJ/mol
# Density = 1.985416 g / cm^3
# Si number density = 19.899452 Si / 1000 Ang^3
#
#
#
# Elastic Constant Matrix: (Units=GPa)
#
#
# Indices 1 2 3 4 5 6 
#
# 1 101.4510 51.2188 36.7104 0.0000 0.0000 0.0000
# 2 51.2188 125.4224 39.5118 0.0000 0.0000 0.0000
# 3 36.7104 39.5118 91.4656 0.0000 0.0000 0.0000
# 4 0.0000 0.0000 0.0000 38.4663 0.0000 0.0000
# 5 0.0000 0.0000 0.0000 0.0000 17.1352 0.0000
# 6 0.0000 0.0000 0.0000 0.0000 0.0000 18.4808
#
#
#
# Elastic Compliance Matrix: (Units=1/GPa)
#
#
# Indices 1 2 3 4 5 6 
#
# 1 0.013302 -0.004341 -0.003464 0.000000 0.000000 0.000000
# 2 -0.004341 0.010646 -0.002856 0.000000 0.000000 0.000000
# 3 -0.003464 -0.002856 0.013557 0.000000 0.000000 0.000000
# 4 0.000000 0.000000 0.000000 0.025997 0.000000 0.000000
# 5 0.000000 0.000000 0.000000 0.000000 0.058359 0.000000
# 6 0.000000 0.000000 0.000000 0.000000 0.000000 0.054110
#
#
# Mechanical properties :
#
#
# Convention : Reuss Voigt Hill
#
# Bulk Modulus (GPa) = 61.79460 63.69121 62.74290
# Shear Modulus (GPa) = 24.66856 27.54302 26.10579
#
# Velocity S-wave (km/s) = 3.52470 3.72440 3.62592
# Velocity P-wave (km/s) = 6.90547 7.11132 7.00915
#
# Compressibility (1/GPa) = 0.01618264
#
# Stress axis : x y z
#
# Youngs Moduli (GPa) = 75.17747 93.93504 73.76181
#
# Poissons Ratio (x) = 0.40777 0.25548
# Poissons Ratio (y) = 0.32634 0.21070
# Poissons Ratio (z) = 0.26038 0.26832
#
# Static dielectric constant tensor:
#      x y z
#    x 3.525970 0.000000 0.000000 
#    y 0.000000 4.201090 0.000000 
#    z 0.000000 0.000000 3.582000 
# 
# 
# High freq. dielectric constant tensor:
#      x y z
#    x 1.756440 0.000000 0.000000 
#    y 0.000000 1.795190 0.000000 
#    z 0.000000 0.000000 1.774730 
# 
# From -- ./inp_files/6480.got.cif
#   From: 2010.03.12/outbox.cif.g09.slc.cpg/sg49_4_cif.got.tgz:6480.got - 2010.04.14 03:58:27.
