data_PCOD8203165
_publ_section_title
;
Structure prediction by ZEFSAII (Michael W. Deem and Ramdas Pophale) SiO2 
 PCOD8203165
Probable space group: P C C M
;
_chemical_formula_sum "Si O2"
_cell_formula_units_Z 64
_cell_length_a 9.662242
_cell_length_b 14.778836
_cell_length_c 23.285256
_cell_angle_alpha 90.000000
_cell_angle_beta 90.000000
_cell_angle_gamma 90.000000
_cell_volume 3325.057481
_symmetry_space_group_name_H-M "P C C M"
_symmetry_group_IT_number 49
_symmetry_cell_setting 'orthorhombic'
loop_
_space_group_symop_operation_xyz
x,y,z
-x,-y,z
x,-y,1/2-z
-x,y,1/2-z
-x,-y,-z
x,y,-z
-x,y,1/2+z
x,-y,1/2+z
loop_
_atom_site_type_symbol
_atom_site_label
_atom_site_fract_x
_atom_site_fract_y
_atom_site_fract_z
Si Si1 0.841849 0.005667 0.433594
Si Si2 0.749913 0.101416 0.246784
Si Si3 0.336492 0.502706 0.436056
Si Si4 0.156374 0.297139 0.749108
Si Si5 0.661748 0.337192 0.859009
Si Si6 0.344811 0.337352 0.145977
Si Si7 0.654727 0.864250 0.619834
Si Si8 0.645943 0.133448 0.632456
O O1 0.829936 0.030604 0.500000
O O2 0.773799 0.083799 0.396379
O O3 0.766586 0.910959 0.421026
O O4 0.000000 0.000000 0.413539
O O5 0.853695 0.186950 0.252855
O O6 0.673592 0.111237 0.186461
O O7 0.641592 0.112548 0.299236
O O8 0.819365 0.000000 0.250000
O O9 0.500000 0.500000 0.441762
O O10 0.270186 0.505329 0.500000
O O11 0.285196 0.413516 0.402744
O O12 0.290460 0.591456 0.401000
O O13 0.230147 0.332851 0.692346
O O14 0.243924 0.342924 0.799767
O O15 0.000000 0.334120 0.750000
O O16 0.505218 0.357042 0.836186
O O17 0.665346 0.242074 0.892415
O O18 0.333547 0.238518 0.118482
O O19 0.499702 0.898838 0.605164
#
# Coordination Sequence:
#
# PCOD8203165 Si02
#       8
#     8   8   8   8   8   8   8   8
#     4  11  25  40  51  70 106 151 192 227 270 323
#     4  10  19  33  54  85 112 142 178 226 277 326
#     4   9  18  35  61  88 110 139 186 237 282 331
#     4  10  21  35  53  81 117 153 186 222 269 331
#     4   9  19  36  58  85 114 143 178 227 282 332
#     4   9  19  36  58  85 114 143 178 227 282 332
#     4  10  20  35  57  84 111 142 180 226 278 330
#     4  10  20  35  57  84 111 142 180 226 278 330
#
# _framework density 19.247789000000001
#
# number of rings (size 3 to 8) (size 9 to 14) (size 15 to 20)
#    0.000    2.250    1.250    1.125    0.000   10.250 
#    0.000    5.625    0.000    1.500    0.000    0.000 
#    0.000    0.000    0.000    0.000    0.000    0.000 
#
# Total GULP energy -793262.353689 kJ/mol
# GULP energy per Si atom -12394.724276 kJ/mol
# Density = 1.920398 g / cm^3
# Si number density = 19.247789 Si / 1000 Ang^3
#
#
#
# Elastic Constant Matrix: (Units=GPa)
#
#
# Indices 1 2 3 4 5 6 
#
# 1 107.7307 21.1271 35.9011 0.0000 0.0000 0.0000
# 2 21.1271 121.4041 50.1517 0.0000 0.0000 0.0000
# 3 35.9011 50.1517 82.6079 0.0000 0.0000 0.0000
# 4 0.0000 0.0000 0.0000 14.7960 0.0000 0.0000
# 5 0.0000 0.0000 0.0000 0.0000 13.3233 0.0000
# 6 0.0000 0.0000 0.0000 0.0000 0.0000 15.3687
#
#
#
# Elastic Compliance Matrix: (Units=1/GPa)
#
#
# Indices 1 2 3 4 5 6 
#
# 1 0.010855 0.000080 -0.004766 0.000000 0.000000 0.000000
# 2 0.000080 0.010995 -0.006710 0.000000 0.000000 0.000000
# 3 -0.004766 -0.006710 0.018250 0.000000 0.000000 0.000000
# 4 0.000000 0.000000 0.000000 0.067586 0.000000 0.000000
# 5 0.000000 0.000000 0.000000 0.000000 0.075057 0.000000
# 6 0.000000 0.000000 0.000000 0.000000 0.000000 0.065067
#
#
# Mechanical properties :
#
#
# Convention : Reuss Voigt Hill
#
# Bulk Modulus (GPa) = 57.77606 58.45584 58.11595
# Shear Modulus (GPa) = 18.09160 22.33510 20.21335
#
# Velocity S-wave (km/s) = 3.06916 3.41016 3.24414
# Velocity P-wave (km/s) = 6.53007 6.77803 6.65520
#
# Compressibility (1/GPa) = 0.01730821
#
# Stress axis : x y z
#
# Youngs Moduli (GPa) = 92.12330 90.95186 54.79406
#
# Poissons Ratio (x) = -0.00726 0.26115
# Poissons Ratio (y) = -0.00735 0.36765
# Poissons Ratio (z) = 0.43906 0.61026
#
# Static dielectric constant tensor:
#      x y z
#    x 3.279420 0.000000 0.000000 
#    y 0.000000 3.704770 0.000000 
#    z 0.000000 0.000000 3.453710 
# 
# 
# High freq. dielectric constant tensor:
#      x y z
#    x 1.724760 0.000000 0.000000 
#    y 0.000000 1.755640 0.000000 
#    z 0.000000 0.000000 1.737620 
# 
# From -- ./inp_files/22556.got.cif
#   From: 2010.03.12/outbox.cif.g09.slc.cpg/sg49_12_cif.got.tgz:22556.got - 2010.04.14 03:58:27.
