data_PCOD8203657
_publ_section_title
;
Structure prediction by ZEFSAII (Michael W. Deem and Ramdas Pophale) SiO2 
 PCOD8203657
Probable space group: P C C M
;
_chemical_formula_sum "Si O2"
_cell_formula_units_Z 56
_cell_length_a 15.362704
_cell_length_b 8.653432
_cell_length_c 23.431811
_cell_angle_alpha 90.000000
_cell_angle_beta 90.000000
_cell_angle_gamma 90.000000
_cell_volume 3115.027635
_symmetry_space_group_name_H-M "P C C M"
_symmetry_group_IT_number 49
_symmetry_cell_setting 'orthorhombic'
loop_
_space_group_symop_operation_xyz
x,y,z
-x,-y,z
x,-y,1/2-z
-x,y,1/2-z
-x,-y,-z
x,y,-z
-x,y,1/2+z
x,-y,1/2+z
loop_
_atom_site_type_symbol
_atom_site_label
_atom_site_fract_x
_atom_site_fract_y
_atom_site_fract_z
Si Si1 0.836931 0.182458 0.884753
Si Si2 0.500000 0.173215 0.817498
Si Si3 0.679780 0.681288 0.683714
Si Si4 0.099386 0.682549 0.500000
Si Si5 0.836931 0.182458 0.384753
Si Si6 0.000000 0.816262 0.686662
Si Si7 0.679780 0.318712 0.316286
Si Si8 0.900614 0.317451 0.000000
O O1 0.747279 0.228027 0.855287
O O2 0.846253 0.259726 0.946067
O O3 0.915007 0.245694 0.845457
O O4 0.841565 0.000000 0.892342
O O5 0.500000 0.163883 0.750000
O O6 0.584848 0.266262 0.837907
O O7 0.415152 0.266262 0.837907
O O8 0.500000 0.000000 0.843512
O O9 0.690087 0.500000 0.674135
O O10 0.694646 0.725979 0.750000
O O11 0.153747 0.740274 0.446067
O O12 0.096688 0.500000 0.500000
O O13 1.000000 0.748800 0.500000
O O14 0.915007 0.245694 0.345456
O O15 0.747279 0.228027 0.355287
O O16 0.000000 0.745201 0.750000
O O17 0.000000 0.000000 0.689208
#
# Coordination Sequence:
#
# PCOD8203657 Si02
#       8
#     8   8   8   4   8   8   8   4
#     4  11  21  35  56  79 107 142 186 231 270 319
#     4   9  17  31  53  80 109 144 185 225 266 319
#     4  10  20  34  53  81 116 149 180 220 275 331
#     4  11  23  39  57  76 105 142 185 231 279 328
#     4  11  21  35  56  79 107 142 186 231 270 319
#     4   9  18  31  49  76 108 139 172 217 270 317
#     4  10  20  34  53  81 116 149 180 220 275 331
#     4  11  23  39  57  76 105 142 185 231 279 328
#
# _framework density 17.977368999999999
#
# number of rings (size 3 to 8) (size 9 to 14) (size 15 to 20)
#    0.000    1.857    1.429    3.429    0.000    5.143 
#    0.000    0.000    0.000    4.286    0.000    6.000 
#    0.000    0.000    0.000    0.000    0.000    0.000 
#
# Total GULP energy -694552.140239 kJ/mol
# GULP energy per Si atom -12402.716790 kJ/mol
# Density = 1.793645 g / cm^3
# Si number density = 17.977369 Si / 1000 Ang^3
#
#
#
# Elastic Constant Matrix: (Units=GPa)
#
#
# Indices 1 2 3 4 5 6 
#
# 1 132.0189 22.7592 55.2215 0.0000 0.0000 0.0000
# 2 22.7592 64.1597 27.9988 0.0000 0.0000 0.0000
# 3 55.2215 27.9988 115.2142 0.0000 0.0000 0.0000
# 4 0.0000 0.0000 0.0000 23.2263 0.0000 0.0000
# 5 0.0000 0.0000 0.0000 0.0000 9.8986 0.0000
# 6 0.0000 0.0000 0.0000 0.0000 0.0000 29.3943
#
#
#
# Elastic Compliance Matrix: (Units=1/GPa)
#
#
# Indices 1 2 3 4 5 6 
#
# 1 0.009613 -0.001565 -0.004227 0.000000 0.000000 0.000000
# 2 -0.001565 0.017690 -0.003549 0.000000 0.000000 0.000000
# 3 -0.004227 -0.003549 0.011568 0.000000 0.000000 0.000000
# 4 0.000000 0.000000 0.000000 0.043055 0.000000 0.000000
# 5 0.000000 0.000000 0.000000 0.000000 0.101024 0.000000
# 6 0.000000 0.000000 0.000000 0.000000 0.000000 0.034020
#
#
# Mechanical properties :
#
#
# Convention : Reuss Voigt Hill
#
# Bulk Modulus (GPa) = 49.53278 58.15020 53.84149
# Shear Modulus (GPa) = 20.62871 26.19806 23.41339
#
# Velocity S-wave (km/s) = 3.39113 3.82158 3.61277
# Velocity P-wave (km/s) = 6.55329 7.20341 6.88603
#
# Compressibility (1/GPa) = 0.02018865
#
# Stress axis : x y z
#
# Youngs Moduli (GPa) = 104.03071 56.52913 86.44694
#
# Poissons Ratio (x) = 0.08848 0.36540
# Poissons Ratio (y) = 0.16284 0.30678
# Poissons Ratio (z) = 0.43972 0.20061
#
# Static dielectric constant tensor:
#      x y z
#    x 3.477310 0.000000 0.000000 
#    y 0.000000 3.284360 0.000000 
#    z 0.000000 0.000000 3.212650 
# 
# 
# High freq. dielectric constant tensor:
#      x y z
#    x 1.703270 0.000000 0.000000 
#    y 0.000000 1.699100 0.000000 
#    z 0.000000 0.000000 1.675630 
# 
# From -- ./inp_files/12899.got.cif
#   From: 2010.03.12/outbox.cif.g09.slc.cpg/sg49_7_cif.got.tgz:12899.got - 2010.04.14 03:58:27.
