data_PCOD8203277
_publ_section_title
;
Structure prediction by ZEFSAII (Michael W. Deem and Ramdas Pophale) SiO2 
 PCOD8203277
Probable space group: P C C M
;
_chemical_formula_sum "Si O2"
_cell_formula_units_Z 56
_cell_length_a 12.490027
_cell_length_b 13.359088
_cell_length_c 17.113498
_cell_angle_alpha 90.000000
_cell_angle_beta 90.000000
_cell_angle_gamma 90.000000
_cell_volume 2855.479038
_symmetry_space_group_name_H-M "P C C M"
_symmetry_group_IT_number 49
_symmetry_cell_setting 'orthorhombic'
loop_
_space_group_symop_operation_xyz
x,y,z
-x,-y,z
x,-y,1/2-z
-x,y,1/2-z
-x,-y,-z
x,y,-z
-x,y,1/2+z
x,-y,1/2+z
loop_
_atom_site_type_symbol
_atom_site_label
_atom_site_fract_x
_atom_site_fract_y
_atom_site_fract_z
Si Si1 0.024489 0.889044 0.591131
Si Si2 0.463458 0.304875 0.590347
Si Si3 0.755037 0.394443 0.092556
Si Si4 0.228830 0.190043 0.833037
Si Si5 0.097249 0.265012 0.305015
Si Si6 0.315031 0.382663 0.091453
Si Si7 0.538414 0.889494 0.835591
O O1 0.003626 0.877848 0.500000
O O2 0.146786 0.866705 0.611275
O O3 0.944696 0.813880 0.632902
O O4 0.000000 0.000000 0.621262
O O5 0.452345 0.327672 0.500000
O O6 0.349856 0.337279 0.626074
O O7 0.562179 0.372316 0.622955
O O8 0.485025 0.187802 0.604435
O O9 0.853716 0.357391 0.145663
O O10 0.736312 0.510851 0.110146
O O11 0.777206 0.375930 0.000000
O O12 0.185340 0.204786 0.745348
O O13 0.243532 0.301293 0.865741
O O14 0.333648 0.120541 0.835811
O O15 0.000000 0.304675 0.250000
O O16 0.314223 0.358694 0.000000
O O17 0.500000 0.860183 0.750000
O O18 0.500000 0.000000 0.860178
#
# Coordination Sequence:
#
# PCOD8203277 Si02
#       7
#     8   8   8   8   8   8   8
#     4  10  22  40  61  82 104 137 184 233 277 322
#     4   9  18  33  54  82 112 141 181 225 265 321
#     4  10  19  34  58  83 110 144 182 229 276 316
#     4  10  21  37  57  78 110 150 180 218 271 332
#     4  10  22  38  56  81 111 143 185 232 275 320
#     4   9  18  34  56  82 112 147 181 215 269 333
#     4  10  21  35  52  78 113 148 179 213 263 327
#
# _framework density 19.611421
#
# number of rings (size 3 to 8) (size 9 to 14) (size 15 to 20)
#    0.000    2.286    0.000    2.143    0.000    9.143 
#    0.000    6.429    0.000   10.286    0.000    0.000 
#    0.000    0.000    0.000    0.000    0.000    0.000 
#
# Total GULP energy -694341.921141 kJ/mol
# GULP energy per Si atom -12398.962878 kJ/mol
# Density = 1.956678 g / cm^3
# Si number density = 19.611421 Si / 1000 Ang^3
#
#
#
# Elastic Constant Matrix: (Units=GPa)
#
#
# Indices 1 2 3 4 5 6 
#
# 1 136.7280 86.3411 47.1077 0.0000 0.0000 0.0000
# 2 86.3411 120.9121 44.0785 0.0000 0.0000 0.0000
# 3 47.1077 44.0785 57.1166 0.0000 0.0000 0.0000
# 4 0.0000 0.0000 0.0000 10.3997 0.0000 0.0000
# 5 0.0000 0.0000 0.0000 0.0000 26.9440 0.0000
# 6 0.0000 0.0000 0.0000 0.0000 0.0000 31.7912
#
#
#
# Elastic Compliance Matrix: (Units=1/GPa)
#
#
# Indices 1 2 3 4 5 6 
#
# 1 0.014468 -0.008322 -0.005510 0.000000 0.000000 0.000000
# 2 -0.008322 0.016296 -0.005712 0.000000 0.000000 0.000000
# 3 -0.005510 -0.005712 0.026460 0.000000 0.000000 0.000000
# 4 0.000000 0.000000 0.000000 0.096156 0.000000 0.000000
# 5 0.000000 0.000000 0.000000 0.000000 0.037114 0.000000
# 6 0.000000 0.000000 0.000000 0.000000 0.000000 0.031455
#
#
# Mechanical properties :
#
#
# Convention : Reuss Voigt Hill
#
# Bulk Modulus (GPa) = 55.14012 74.42349 64.78180
# Shear Modulus (GPa) = 18.72086 22.97560 20.84823
#
# Velocity S-wave (km/s) = 3.09300 3.42649 3.26401
# Velocity P-wave (km/s) = 6.39788 7.32707 6.87818
#
# Compressibility (1/GPa) = 0.01813562
#
# Stress axis : x y z
#
# Youngs Moduli (GPa) = 69.12026 61.36617 37.79281
#
# Poissons Ratio (x) = 0.51072 0.20822
# Poissons Ratio (y) = 0.57525 0.21586
# Poissons Ratio (z) = 0.38082 0.35051
#
# Static dielectric constant tensor:
#      x y z
#    x 3.750220 0.000000 0.000000 
#    y 0.000000 3.477330 0.000000 
#    z 0.000000 0.000000 3.521120 
# 
# 
# High freq. dielectric constant tensor:
#      x y z
#    x 1.773300 0.000000 0.000000 
#    y 0.000000 1.762000 0.000000 
#    z 0.000000 0.000000 1.761270 
# 
# From -- ./inp_files/12886.got.cif
#   From: 2010.03.12/outbox.cif.g09.slc.cpg/sg49_7_cif.got.tgz:12886.got - 2010.04.14 03:58:27.
