data_PCOD8203982
_publ_section_title
;
Structure prediction by ZEFSAII (Michael W. Deem and Ramdas Pophale) SiO2 
 PCOD8203982
Probable space group: P C C M
;
_chemical_formula_sum "Si O2"
_cell_formula_units_Z 38
_cell_length_a 6.216655
_cell_length_b 16.584217
_cell_length_c 18.826295
_cell_angle_alpha 90.000000
_cell_angle_beta 90.000000
_cell_angle_gamma 90.000000
_cell_volume 1940.960055
_symmetry_space_group_name_H-M "P C C M"
_symmetry_group_IT_number 49
_symmetry_cell_setting 'orthorhombic'
loop_
_space_group_symop_operation_xyz
x,y,z
-x,-y,z
x,-y,1/2-z
-x,y,1/2-z
-x,-y,-z
x,y,-z
-x,y,1/2+z
x,-y,1/2+z
loop_
_atom_site_type_symbol
_atom_site_label
_atom_site_fract_x
_atom_site_fract_y
_atom_site_fract_z
Si Si1 0.134114 0.888648 0.322657
Si Si2 0.456815 0.251076 0.832757
Si Si3 0.619103 0.425410 0.676135
Si Si4 0.754397 0.141577 0.080363
Si Si5 0.000000 0.500000 0.250000
Si Si6 0.500000 0.000000 0.367457
O O1 0.250287 0.805054 0.340648
O O2 0.000000 0.886535 0.250000
O O3 0.969653 0.897646 0.387654
O O4 0.306027 0.962695 0.318937
O O5 0.500000 0.255776 0.750000
O O6 0.401070 0.339995 0.864989
O O7 0.666256 0.216905 0.873558
O O8 0.500000 0.500000 0.634356
O O9 0.500000 0.414965 0.750000
O O10 0.865277 0.444525 0.695618
O O11 0.578048 0.071095 0.081534
O O12 0.794170 0.170307 0.000000
#
# Coordination Sequence:
#
# PCOD8203982 Si02
#       6
#     8   8   8   8   2   4
#     4  11  23  38  59  88 115 154 194 242 296 345
#     4  10  20  37  59  85 118 150 193 241 290 346
#     4   8  16  28  50  82 116 149 187 233 288 341
#     4  11  24  41  60  83 114 154 196 242 297 348
#     4   8  14  24  44  82 118 148 180 228 296 340
#     4  10  25  41  58  82 118 148 202 242 290 348
#
# _framework density 19.577940999999999
#
# number of rings (size 3 to 8) (size 9 to 14) (size 15 to 20)
#    0.000    2.316    2.105    0.947    1.474    9.263 
#    0.000    0.000    0.000    0.632    0.000    2.211 
#    0.000    0.000    0.000    0.000    0.000    0.000 
#
# Total GULP energy -470854.973261 kJ/mol
# GULP energy per Si atom -12390.920349 kJ/mol
# Density = 1.953338 g / cm^3
# Si number density = 19.577941 Si / 1000 Ang^3
#
#
#
# Elastic Constant Matrix: (Units=GPa)
#
#
# Indices 1 2 3 4 5 6 
#
# 1 122.9383 50.5567 37.1034 0.0000 0.0000 0.0000
# 2 50.5567 155.1202 25.9072 0.0000 0.0000 0.0000
# 3 37.1034 25.9072 91.6337 0.0000 0.0000 0.0000
# 4 0.0000 0.0000 0.0000 3.7940 0.0000 0.0000
# 5 0.0000 0.0000 0.0000 0.0000 18.7371 0.0000
# 6 0.0000 0.0000 0.0000 0.0000 0.0000 -20.4596
#
#
#
# Elastic Compliance Matrix: (Units=1/GPa)
#
#
# Indices 1 2 3 4 5 6 
#
# 1 0.010304 -0.002793 -0.003382 0.000000 0.000000 0.000000
# 2 -0.002793 0.007523 -0.000996 0.000000 0.000000 0.000000
# 3 -0.003382 -0.000996 0.012564 0.000000 0.000000 0.000000
# 4 0.000000 0.000000 0.000000 0.263577 0.000000 0.000000
# 5 0.000000 0.000000 0.000000 0.000000 0.053370 0.000000
# 6 0.000000 0.000000 0.000000 0.000000 0.000000 -0.048877
#
#
# Mechanical properties :
#
#
# Convention : Reuss Voigt Hill
#
# Bulk Modulus (GPa) = 62.31333 66.31407 64.31370
# Shear Modulus (GPa) = 15.71569 17.48930 16.60249
#
# Velocity S-wave (km/s) = 2.83631 2.99208 2.91524
# Velocity P-wave (km/s) = 6.52868 6.77363 6.65228
#
# Compressibility (1/GPa) = 0.01604793
#
# Stress axis : x y z
#
# Youngs Moduli (GPa) = 97.05296 132.91971 79.59155
#
# Poissons Ratio (x) = 0.37128 0.26920
# Poissons Ratio (y) = 0.27109 0.07927
# Poissons Ratio (z) = 0.32826 0.13239
#
# Static dielectric constant tensor:
#      x y z
#    x 3.702470 0.000000 0.000000 
#    y 0.000000 5.260540 0.000000 
#    z 0.000000 0.000000 3.070110 
# 
# 
# High freq. dielectric constant tensor:
#      x y z
#    x 1.777060 0.000000 0.000000 
#    y 0.000000 1.773160 0.000000 
#    z 0.000000 0.000000 1.705200 
# 
# From -- ./inp_files/15283.got.cif
#   From: 2010.03.12/outbox.cif.g09.slc.cpg/sg49_8_cif.got.tgz:15283.got - 2010.04.14 03:58:27.
