data_PCOD8203020
_publ_section_title
;
Structure prediction by ZEFSAII (Michael W. Deem and Ramdas Pophale) SiO2 
 PCOD8203020
Probable space group: P C C M
;
_chemical_formula_sum "Si O2"
_cell_formula_units_Z 64
_cell_length_a 24.812847
_cell_length_b 15.323640
_cell_length_c 8.718431
_cell_angle_alpha 90.000000
_cell_angle_beta 90.000000
_cell_angle_gamma 90.000000
_cell_volume 3314.949165
_symmetry_space_group_name_H-M "P C C M"
_symmetry_group_IT_number 49
_symmetry_cell_setting 'orthorhombic'
loop_
_space_group_symop_operation_xyz
x,y,z
-x,-y,z
x,-y,1/2-z
-x,y,1/2-z
-x,-y,-z
x,y,-z
-x,y,1/2+z
x,-y,1/2+z
loop_
_atom_site_type_symbol
_atom_site_label
_atom_site_fract_x
_atom_site_fract_y
_atom_site_fract_z
Si Si1 0.857004 0.280046 0.318636
Si Si2 0.358548 0.591053 0.180037
Si Si3 0.556933 0.731988 0.318844
Si Si4 0.394251 0.086009 0.681854
Si Si5 0.713341 0.858609 0.823143
Si Si6 0.832017 0.912621 0.826125
Si Si7 0.941487 0.409008 0.182010
Si Si8 0.746796 0.315062 0.821732
O O1 0.866505 0.285939 0.500000
O O2 0.855370 0.179137 0.259620
O O3 0.904005 0.328730 0.228892
O O4 0.800215 0.326624 0.280313
O O5 0.376859 0.500000 0.250000
O O6 0.397617 0.666411 0.246229
O O7 0.296021 0.609652 0.221314
O O8 0.366169 0.586861 0.000000
O O9 0.500000 0.704228 0.250000
O O10 0.553343 0.726561 0.500000
O O11 0.572006 0.829733 0.266098
O O12 0.387594 0.080822 0.500000
O O13 0.335992 0.084913 0.762672
O O14 0.424036 0.000000 0.750000
O O15 0.767698 0.914693 0.806643
O O16 0.716647 0.774873 0.714074
O O17 0.705493 0.829939 0.000000
O O18 0.856640 0.000000 0.750000
O O19 0.850323 0.917241 0.000000
O O20 0.918542 0.500000 0.250000
O O21 0.000000 0.389719 0.250000
O O22 0.944839 0.416845 0.000000
O O23 0.763013 0.317914 0.000000
#
# Coordination Sequence:
#
# PCOD8203020 Si02
#       8
#     8   8   8   8   8   8   8   8
#     4  10  21  37  56  86 123 158 201 246 287 346
#     4  10  22  40  60  84 112 143 182 227 282 341
#     4  10  23  43  61  80 108 141 180 231 283 338
#     4  11  22  37  56  81 112 142 180 227 277 338
#     4  10  19  32  52  80 111 148 190 229 278 335
#     4   9  19  32  49  77 115 154 193 237 280 330
#     4  11  22  39  63  90 119 157 199 247 301 350
#     4  10  19  35  56  81 117 154 188 232 285 339
#
# _framework density 19.306480000000001
#
# number of rings (size 3 to 8) (size 9 to 14) (size 15 to 20)
#    0.000    1.875    1.250    4.125    0.000    7.500 
#    0.000    3.750    0.000    0.375    0.000    2.625 
#    0.000    0.000    0.000    0.000    0.000    0.000 
#
# Total GULP energy -793566.740031 kJ/mol
# GULP energy per Si atom -12399.480313 kJ/mol
# Density = 1.926254 g / cm^3
# Si number density = 19.306480 Si / 1000 Ang^3
#
#
#
# Elastic Constant Matrix: (Units=GPa)
#
#
# Indices 1 2 3 4 5 6 
#
# 1 84.1944 60.2764 35.7434 0.0000 0.0000 0.0000
# 2 60.2764 131.5446 42.0088 0.0000 0.0000 0.0000
# 3 35.7434 42.0088 73.6959 0.0000 0.0000 0.0000
# 4 0.0000 0.0000 0.0000 34.8366 0.0000 0.0000
# 5 0.0000 0.0000 0.0000 0.0000 29.2238 0.0000
# 6 0.0000 0.0000 0.0000 0.0000 0.0000 14.9438
#
#
#
# Elastic Compliance Matrix: (Units=1/GPa)
#
#
# Indices 1 2 3 4 5 6 
#
# 1 0.019208 -0.007123 -0.005256 0.000000 0.000000 0.000000
# 2 -0.007123 0.011935 -0.003349 0.000000 0.000000 0.000000
# 3 -0.005256 -0.003349 0.018027 0.000000 0.000000 0.000000
# 4 0.000000 0.000000 0.000000 0.028705 0.000000 0.000000
# 5 0.000000 0.000000 0.000000 0.000000 0.034219 0.000000
# 6 0.000000 0.000000 0.000000 0.000000 0.000000 0.066917
#
#
# Mechanical properties :
#
#
# Convention : Reuss Voigt Hill
#
# Bulk Modulus (GPa) = 56.44771 62.83247 59.64009
# Shear Modulus (GPa) = 23.10829 25.89459 24.50144
#
# Velocity S-wave (km/s) = 3.46340 3.66627 3.56628
# Velocity P-wave (km/s) = 6.73014 7.10897 6.92214
#
# Compressibility (1/GPa) = 0.01771551
#
# Stress axis : x y z
#
# Youngs Moduli (GPa) = 52.06130 83.78470 55.47158
#
# Poissons Ratio (x) = 0.59681 0.29155
# Poissons Ratio (y) = 0.37084 0.18576
# Poissons Ratio (z) = 0.27362 0.28057
#
# Static dielectric constant tensor:
#      x y z
#    x 3.384110 0.000000 0.000000 
#    y 0.000000 3.793320 0.000000 
#    z 0.000000 0.000000 3.467310 
# 
# 
# High freq. dielectric constant tensor:
#      x y z
#    x 1.730250 0.000000 0.000000 
#    y 0.000000 1.756380 0.000000 
#    z 0.000000 0.000000 1.753590 
# 
# From -- ./inp_files/6568.got.cif
#   From: 2010.03.12/outbox.cif.g09.slc.cpg/sg49_4_cif.got.tgz:6568.got - 2010.04.14 03:58:27.
