data_PCOD8203163
_publ_section_title
;
Structure prediction by ZEFSAII (Michael W. Deem and Ramdas Pophale) SiO2 
 PCOD8203163
Probable space group: P C C M
;
_chemical_formula_sum "Si O2"
_cell_formula_units_Z 64
_cell_length_a 19.574080
_cell_length_b 20.713296
_cell_length_c 8.720658
_cell_angle_alpha 90.000000
_cell_angle_beta 90.000000
_cell_angle_gamma 90.000000
_cell_volume 3535.735959
_symmetry_space_group_name_H-M "P C C M"
_symmetry_group_IT_number 49
_symmetry_cell_setting 'orthorhombic'
loop_
_space_group_symop_operation_xyz
x,y,z
-x,-y,z
x,-y,1/2-z
-x,y,1/2-z
-x,-y,-z
x,y,-z
-x,y,1/2+z
x,-y,1/2+z
loop_
_atom_site_type_symbol
_atom_site_label
_atom_site_fract_x
_atom_site_fract_y
_atom_site_fract_z
Si Si1 0.071331 0.265174 0.682218
Si Si2 0.292609 0.190271 0.818080
Si Si3 0.570159 0.769391 0.318735
Si Si4 0.287539 0.431736 0.317690
Si Si5 0.205889 0.686100 0.682056
Si Si6 0.789347 0.933293 0.821033
Si Si7 0.430913 0.377503 0.679794
Si Si8 0.930633 0.874807 0.180645
O O1 0.068319 0.266104 0.500000
O O2 0.131314 0.311001 0.742556
O O3 0.085492 0.193110 0.740790
O O4 0.000000 0.291452 0.750000
O O5 0.367476 0.188886 0.745190
O O6 0.250814 0.252972 0.762034
O O7 0.254170 0.126623 0.755785
O O8 0.298636 0.190263 0.000000
O O9 0.500000 0.797906 0.250000
O O10 0.568217 0.774691 0.500000
O O11 0.579568 0.695700 0.261251
O O12 0.264494 0.500000 0.250000
O O13 0.278840 0.429712 0.500000
O O14 0.239911 0.378789 0.241389
O O15 0.365935 0.419090 0.267647
O O16 0.198701 0.685081 0.500000
O O17 0.869105 0.923203 0.781092
O O18 0.763179 0.000000 0.750000
O O19 0.777679 0.937531 0.000000
O O20 0.500000 0.407852 0.750000
O O21 0.439667 0.378109 0.500000
O O22 0.000000 0.905217 0.250000
O O23 0.938587 0.862811 0.000000
#
# Coordination Sequence:
#
# PCOD8203163 Si02
#       8
#     8   8   8   8   8   8   8   8
#     4  11  21  34  56  85 115 146 184 231 279 331
#     4  10  20  36  57  81 111 145 183 230 280 330
#     4  10  19  33  54  83 112 142 181 227 277 330
#     4  11  23  39  55  81 114 150 193 233 279 333
#     4  11  21  37  60  84 112 147 186 233 284 329
#     4  10  22  38  54  77 111 148 188 230 279 335
#     4   9  19  33  51  76 110 146 186 227 268 325
#     4  10  19  34  52  77 111 148 189 229 273 328
#
# _framework density 18.100899999999999
#
# number of rings (size 3 to 8) (size 9 to 14) (size 15 to 20)
#    0.000    1.750    2.500    3.375    0.000    4.000 
#    0.000    2.500    0.000    0.750    0.000    5.250 
#    0.000    0.000    0.000    0.000    0.000    0.000 
#
# Total GULP energy -793774.619578 kJ/mol
# GULP energy per Si atom -12402.728431 kJ/mol
# Density = 1.805970 g / cm^3
# Si number density = 18.100900 Si / 1000 Ang^3
#
#
#
# Elastic Constant Matrix: (Units=GPa)
#
#
# Indices 1 2 3 4 5 6 
#
# 1 128.3059 63.3217 49.3509 0.0000 0.0000 0.0000
# 2 63.3217 113.3048 36.0176 0.0000 0.0000 0.0000
# 3 49.3509 36.0176 77.4352 0.0000 0.0000 0.0000
# 4 0.0000 0.0000 0.0000 26.2022 0.0000 0.0000
# 5 0.0000 0.0000 0.0000 0.0000 34.4042 0.0000
# 6 0.0000 0.0000 0.0000 0.0000 0.0000 23.1522
#
#
#
# Elastic Compliance Matrix: (Units=1/GPa)
#
#
# Indices 1 2 3 4 5 6 
#
# 1 0.012504 -0.005228 -0.005537 0.000000 0.000000 0.000000
# 2 -0.005228 0.012543 -0.002502 0.000000 0.000000 0.000000
# 3 -0.005537 -0.002502 0.017607 0.000000 0.000000 0.000000
# 4 0.000000 0.000000 0.000000 0.038165 0.000000 0.000000
# 5 0.000000 0.000000 0.000000 0.000000 0.029066 0.000000
# 6 0.000000 0.000000 0.000000 0.000000 0.000000 0.043192
#
#
# Mechanical properties :
#
#
# Convention : Reuss Voigt Hill
#
# Bulk Modulus (GPa) = 62.03927 68.49182 65.26555
# Shear Modulus (GPa) = 27.02934 28.10877 27.56905
#
# Velocity S-wave (km/s) = 3.86846 3.94495 3.90689
# Velocity P-wave (km/s) = 7.36898 7.65972 7.51575
#
# Compressibility (1/GPa) = 0.01611882
#
# Stress axis : x y z
#
# Youngs Moduli (GPa) = 79.97672 79.72756 56.79568
#
# Poissons Ratio (x) = 0.41678 0.31449
# Poissons Ratio (y) = 0.41809 0.14212
# Poissons Ratio (z) = 0.44285 0.19951
#
# Static dielectric constant tensor:
#      x y z
#    x 3.475030 0.000000 0.000000 
#    y 0.000000 3.205940 0.000000 
#    z 0.000000 0.000000 3.309740 
# 
# 
# High freq. dielectric constant tensor:
#      x y z
#    x 1.708280 0.000000 0.000000 
#    y 0.000000 1.674350 0.000000 
#    z 0.000000 0.000000 1.707970 
# 
# From -- ./inp_files/5340.got.cif
#   From: 2010.03.12/outbox.cif.g09.slc.cpg/sg49_3_cif.got.tgz:5340.got - 2010.04.14 03:58:27.
