data_PCOD8203535
_publ_section_title
;
Structure prediction by ZEFSAII (Michael W. Deem and Ramdas Pophale) SiO2 
 PCOD8203535
Probable space group: P C C M
;
_chemical_formula_sum "Si O2"
_cell_formula_units_Z 48
_cell_length_a 9.675337
_cell_length_b 30.351320
_cell_length_c 8.738600
_cell_angle_alpha 90.000000
_cell_angle_beta 90.000000
_cell_angle_gamma 90.000000
_cell_volume 2566.170717
_symmetry_space_group_name_H-M "P C C M"
_symmetry_group_IT_number 49
_symmetry_cell_setting 'orthorhombic'
loop_
_space_group_symop_operation_xyz
x,y,z
-x,-y,z
x,-y,1/2-z
-x,y,1/2-z
-x,-y,-z
x,y,-z
-x,y,1/2+z
x,-y,1/2+z
loop_
_atom_site_type_symbol
_atom_site_label
_atom_site_fract_x
_atom_site_fract_y
_atom_site_fract_z
Si Si1 0.643334 0.706810 0.819534
Si Si2 0.150340 0.638645 0.821200
Si Si3 0.150246 0.457960 0.677181
Si Si4 0.644089 0.048188 0.817016
Si Si5 0.151809 0.882091 0.318193
Si Si6 0.357701 0.806223 0.320980
O O1 0.500000 0.689909 0.750000
O O2 0.762784 0.675721 0.760950
O O3 0.674781 0.756685 0.763538
O O4 0.634128 0.703845 0.000000
O O5 0.219216 0.590052 0.792946
O O6 0.000000 0.640324 0.750000
O O7 0.140683 0.649107 0.000000
O O8 0.233238 0.500000 0.750000
O O9 0.135412 0.467340 0.500000
O O10 0.000000 0.456420 0.750000
O O11 0.500000 0.067350 0.750000
O O12 0.771272 0.077451 0.761488
O O13 0.670050 0.000000 0.750000
O O14 0.636644 0.046746 0.000000
O O15 0.146619 0.889377 0.500000
O O16 0.231066 0.837264 0.272503
O O17 0.000000 0.878464 0.250000
O O18 0.500000 0.824260 0.250000
O O19 0.380509 0.806970 0.500000
#
# Coordination Sequence:
#
# PCOD8203535 Si02
#       6
#     8   8   8   8   8   8
#     4  10  20  36  56  79 106 140 178 219 265 318
#     4  10  20  33  50  76 106 138 174 217 265 316
#     4   9  16  26  43  67  97 130 168 210 257 308
#     4  11  22  39  62  88 115 148 188 229 270 318
#     4  11  23  39  57  83 116 149 183 224 273 323
#     4   9  20  37  58  81 106 138 180 222 265 317
#
# _framework density 18.704912
#
# number of rings (size 3 to 8) (size 9 to 14) (size 15 to 20)
#    0.000    2.000    0.000    5.000    0.000    6.333 
#    0.000    3.333    0.000    0.500    0.000    3.500 
#    0.000    0.000    0.000    0.000    0.000    0.000 
#
# Total GULP energy -595060.305759 kJ/mol
# GULP energy per Si atom -12397.089703 kJ/mol
# Density = 1.866234 g / cm^3
# Si number density = 18.704912 Si / 1000 Ang^3
#
#
#
# Elastic Constant Matrix: (Units=GPa)
#
#
# Indices 1 2 3 4 5 6 
#
# 1 119.1929 72.0409 49.5927 0.0000 0.0000 0.0000
# 2 72.0409 116.3605 55.8859 0.0000 0.0000 0.0000
# 3 49.5927 55.8859 111.5193 0.0000 0.0000 0.0000
# 4 0.0000 0.0000 0.0000 29.9940 0.0000 0.0000
# 5 0.0000 0.0000 0.0000 0.0000 33.2407 0.0000
# 6 0.0000 0.0000 0.0000 0.0000 0.0000 -27.1297
#
#
#
# Elastic Compliance Matrix: (Units=1/GPa)
#
#
# Indices 1 2 3 4 5 6 
#
# 1 0.013901 -0.007424 -0.002461 0.000000 0.000000 0.000000
# 2 -0.007424 0.015283 -0.004357 0.000000 0.000000 0.000000
# 3 -0.002461 -0.004357 0.012245 0.000000 0.000000 0.000000
# 4 0.000000 0.000000 0.000000 0.033340 0.000000 0.000000
# 5 0.000000 0.000000 0.000000 0.000000 0.030084 0.000000
# 6 0.000000 0.000000 0.000000 0.000000 0.000000 -0.036860
#
#
# Mechanical properties :
#
#
# Convention : Reuss Voigt Hill
#
# Bulk Modulus (GPa) = 77.25757 78.01241 77.63499
# Shear Modulus (GPa) = 49.60628 18.52454 34.06541
#
# Velocity S-wave (km/s) = 5.15539 3.15041 4.27218
# Velocity P-wave (km/s) = 8.76530 7.41828 8.11977
#
# Compressibility (1/GPa) = 0.01294371
#
# Stress axis : x y z
#
# Youngs Moduli (GPa) = 71.93656 65.43108 81.66478
#
# Poissons Ratio (x) = 0.48578 0.20100
# Poissons Ratio (y) = 0.53408 0.35584
# Poissons Ratio (z) = 0.17706 0.28510
#
# Static dielectric constant tensor:
#      x y z
#    x 3.243740 0.000000 0.000000 
#    y 0.000000 4.094920 0.000000 
#    z 0.000000 0.000000 3.567600 
# 
# 
# High freq. dielectric constant tensor:
#      x y z
#    x 1.697760 0.000000 0.000000 
#    y 0.000000 1.745630 0.000000 
#    z 0.000000 0.000000 1.742680 
# 
# From -- ./inp_files/2098.got.cif
#   From: 2010.03.12/outbox.cif.g09.slc.cpg/sg49_2_cif.got.tgz:2098.got - 2010.04.14 03:58:27.
