data_PCOD8203984
_publ_section_title
;
Structure prediction by ZEFSAII (Michael W. Deem and Ramdas Pophale) SiO2 
 PCOD8203984
Probable space group: P C C M
;
_chemical_formula_sum "Si O2"
_cell_formula_units_Z 40
_cell_length_a 13.327991
_cell_length_b 10.157352
_cell_length_c 14.738375
_cell_angle_alpha 90.000000
_cell_angle_beta 90.000000
_cell_angle_gamma 90.000000
_cell_volume 1995.238408
_symmetry_space_group_name_H-M "P C C M"
_symmetry_group_IT_number 49
_symmetry_cell_setting 'orthorhombic'
loop_
_space_group_symop_operation_xyz
x,y,z
-x,-y,z
x,-y,1/2-z
-x,y,1/2-z
-x,-y,-z
x,y,-z
-x,y,1/2+z
x,-y,1/2+z
loop_
_atom_site_type_symbol
_atom_site_label
_atom_site_fract_x
_atom_site_fract_y
_atom_site_fract_z
Si Si1 0.264384 0.232628 0.893343
Si Si2 0.116704 0.156290 0.749625
Si Si3 0.608809 0.992771 0.604695
Si Si4 0.387023 0.508027 0.606648
Si Si5 0.736590 0.260875 0.105019
O O1 0.160568 0.231046 0.838196
O O2 0.320045 0.103969 0.853150
O O3 0.335213 0.354740 0.868299
O O4 0.238801 0.227673 0.000000
O O5 0.164284 0.222181 0.660068
O O6 0.000000 0.188615 0.750000
O O7 0.136417 0.000000 0.750000
O O8 0.597740 0.032496 0.500000
O O9 0.500000 0.000000 0.651888
O O10 0.652353 0.849070 0.618387
O O11 0.500000 0.500000 0.648386
O O12 0.395968 0.486784 0.500000
O O13 0.314643 0.393133 0.644742
O O14 0.768788 0.275157 0.000000
#
# Coordination Sequence:
#
# PCOD8203984 Si02
#       5
#     8   8   8   8   8
#     4  10  20  37  59  86 117 150 190 234 285 344
#     4  11  24  41  60  83 111 147 199 255 298 335
#     4   9  16  29  53  82 113 147 182 224 274 332
#     4   9  18  35  61  90 123 159 186 220 280 350
#     4  10  20  37  59  86 117 150 190 234 285 344
#
# _framework density 20.047729
#
# number of rings (size 3 to 8) (size 9 to 14) (size 15 to 20)
#    0.000    2.200    2.000    1.200    0.000    6.400 
#    0.000   10.000    0.000    3.600    0.000    0.000 
#    0.000    0.000    0.000    0.000    0.000    0.000 
#
# Total GULP energy -495903.425225 kJ/mol
# GULP energy per Si atom -12397.585631 kJ/mol
# Density = 2.000210 g / cm^3
# Si number density = 20.047729 Si / 1000 Ang^3
#
#
#
# Elastic Constant Matrix: (Units=GPa)
#
#
# Indices 1 2 3 4 5 6 
#
# 1 155.1441 38.4705 53.4482 0.0000 0.0000 0.0000
# 2 38.4705 88.4061 20.5080 0.0000 0.0000 0.0000
# 3 53.4482 20.5080 79.3410 0.0000 0.0000 0.0000
# 4 0.0000 0.0000 0.0000 14.3925 0.0000 0.0000
# 5 0.0000 0.0000 0.0000 0.0000 -155.8555 0.0000
# 6 0.0000 0.0000 0.0000 0.0000 0.0000 33.1736
#
#
#
# Elastic Compliance Matrix: (Units=1/GPa)
#
#
# Indices 1 2 3 4 5 6 
#
# 1 0.008943 -0.002653 -0.005338 0.000000 0.000000 0.000000
# 2 -0.002653 0.012820 -0.001526 0.000000 0.000000 0.000000
# 3 -0.005338 -0.001526 0.016595 0.000000 0.000000 0.000000
# 4 0.000000 0.000000 0.000000 0.069481 0.000000 0.000000
# 5 0.000000 0.000000 0.000000 0.000000 -0.006416 0.000000
# 6 0.000000 0.000000 0.000000 0.000000 0.000000 0.030144
#
#
# Mechanical properties :
#
#
# Convention : Reuss Voigt Hill
#
# Bulk Modulus (GPa) = 51.75626 60.86050 56.30838
# Shear Modulus (GPa) = 31.83845 -7.62693 12.10576
#
# Velocity S-wave (km/s) = 3.98946 -1.95260 2.46000
# Velocity P-wave (km/s) = 6.86248 5.03390 6.01805
#
# Compressibility (1/GPa) = 0.01932133
#
# Stress axis : x y z
#
# Youngs Moduli (GPa) = 111.82408 78.00286 60.26038
#
# Poissons Ratio (x) = 0.20695 0.32170
# Poissons Ratio (y) = 0.29667 0.09199
# Poissons Ratio (z) = 0.59697 0.11907
#
# Static dielectric constant tensor:
#      x y z
#    x 3.587690 0.000000 0.000000 
#    y 0.000000 3.702810 0.000000 
#    z 0.000000 0.000000 3.543410 
# 
# 
# High freq. dielectric constant tensor:
#      x y z
#    x 1.771680 0.000000 0.000000 
#    y 0.000000 1.788100 0.000000 
#    z 0.000000 0.000000 1.773200 
# 
# From -- ./inp_files/11539.got.cif
#   From: 2010.03.12/outbox.cif.g09.slc.cpg/sg49_6_cif.got.tgz:11539.got - 2010.04.14 03:58:27.
