data_PCOD8203115
_publ_section_title
;
Structure prediction by ZEFSAII (Michael W. Deem and Ramdas Pophale) SiO2 
 PCOD8203115
Probable space group: P C C M
;
_chemical_formula_sum "Si O2"
_cell_formula_units_Z 64
_cell_length_a 14.336864
_cell_length_b 30.760701
_cell_length_c 8.891110
_cell_angle_alpha 90.000000
_cell_angle_beta 90.000000
_cell_angle_gamma 90.000000
_cell_volume 3921.086086
_symmetry_space_group_name_H-M "P C C M"
_symmetry_group_IT_number 49
_symmetry_cell_setting 'orthorhombic'
loop_
_space_group_symop_operation_xyz
x,y,z
-x,-y,z
x,-y,1/2-z
-x,y,1/2-z
-x,-y,-z
x,y,-z
-x,y,1/2+z
x,-y,1/2+z
loop_
_atom_site_type_symbol
_atom_site_label
_atom_site_fract_x
_atom_site_fract_y
_atom_site_fract_z
Si Si1 0.593457 0.339585 0.175474
Si Si2 0.221136 0.210628 0.822213
Si Si3 0.207939 0.370271 0.675083
Si Si4 0.595078 0.760305 0.677749
Si Si5 0.902683 0.455385 0.176091
Si Si6 0.900097 0.040553 0.173342
Si Si7 0.900642 0.706731 0.176918
Si Si8 0.100948 0.136836 0.675667
O O1 0.500000 0.359127 0.250000
O O2 0.684436 0.366529 0.227907
O O3 0.609347 0.289864 0.225311
O O4 0.577648 0.343387 0.000000
O O5 0.322119 0.211592 0.746874
O O6 0.165284 0.253688 0.774148
O O7 0.170556 0.168539 0.759375
O O8 0.231401 0.207009 0.000000
O O9 0.198566 0.357745 0.500000
O O10 0.175319 0.419203 0.707378
O O11 0.142704 0.338212 0.767769
O O12 0.500000 0.778194 0.750000
O O13 0.592279 0.766409 0.500000
O O14 0.866500 0.500000 0.250000
O O15 0.000000 0.440566 0.250000
O O16 0.919405 0.462562 0.000000
O O17 0.855215 0.088295 0.196195
O O18 0.000000 0.042645 0.250000
O O19 0.843200 0.000000 0.250000
O O20 0.911607 0.029425 0.000000
O O21 0.000000 0.715118 0.250000
O O22 0.914131 0.704145 0.000000
O O23 0.091861 0.148882 0.500000
O O24 0.000000 0.141273 0.750000
#
# Coordination Sequence:
#
# PCOD8203115 Si02
#       8
#     8   8   8   8   8   8   8   8
#     4   9  18  32  51  74  98 124 155 195 239 282
#     4  11  22  34  48  69  96 130 168 201 240 291
#     4  10  20  35  53  74  98 126 159 197 239 283
#     4  10  19  33  53  72  96 126 159 203 246 287
#     4  10  20  34  53  74  99 126 158 194 235 284
#     4   9  16  26  42  63  87 118 159 204 248 291
#     4  11  23  34  47  68  96 129 164 199 234 279
#     4  10  20  32  46  66  94 131 170 206 247 293
#
# _framework density 16.322008
#
# number of rings (size 3 to 8) (size 9 to 14) (size 15 to 20)
#    0.000    2.000    1.250    3.750    0.000    7.000 
#    0.000    0.000    0.000    0.375    0.000    2.625 
#    0.000    0.500    0.000    5.250    0.000    2.875 
#
# Total GULP energy -793550.989005 kJ/mol
# GULP energy per Si atom -12399.234203 kJ/mol
# Density = 1.628486 g / cm^3
# Si number density = 16.322008 Si / 1000 Ang^3
#
#
#
# Elastic Constant Matrix: (Units=GPa)
#
#
# Indices 1 2 3 4 5 6 
#
# 1 116.1165 53.4585 46.7705 0.0000 0.0000 0.0000
# 2 53.4585 97.4060 46.9281 0.0000 0.0000 0.0000
# 3 46.7705 46.9281 83.9733 0.0000 0.0000 0.0000
# 4 0.0000 0.0000 0.0000 26.7880 0.0000 0.0000
# 5 0.0000 0.0000 0.0000 0.0000 28.3755 0.0000
# 6 0.0000 0.0000 0.0000 0.0000 0.0000 7.8011
#
#
#
# Elastic Compliance Matrix: (Units=1/GPa)
#
#
# Indices 1 2 3 4 5 6 
#
# 1 0.012566 -0.004823 -0.004303 0.000000 0.000000 0.000000
# 2 -0.004823 0.015900 -0.006199 0.000000 0.000000 0.000000
# 3 -0.004303 -0.006199 0.017770 0.000000 0.000000 0.000000
# 4 0.000000 0.000000 0.000000 0.037330 0.000000 0.000000
# 5 0.000000 0.000000 0.000000 0.000000 0.035242 0.000000
# 6 0.000000 0.000000 0.000000 0.000000 0.000000 0.128187
#
#
# Mechanical properties :
#
#
# Convention : Reuss Voigt Hill
#
# Bulk Modulus (GPa) = 64.16818 65.75668 64.96243
# Shear Modulus (GPa) = 17.67775 22.61550 20.14662
#
# Velocity S-wave (km/s) = 3.29456 3.72638 3.51710
# Velocity P-wave (km/s) = 7.33972 7.67393 7.50868
#
# Compressibility (1/GPa) = 0.01558405
#
# Stress axis : x y z
#
# Youngs Moduli (GPa) = 79.58013 62.89277 56.27495
#
# Poissons Ratio (x) = 0.30334 0.24218
# Poissons Ratio (y) = 0.38383 0.34887
# Poissons Ratio (z) = 0.34247 0.38989
#
# Static dielectric constant tensor:
#      x y z
#    x 3.022650 0.000000 0.000000 
#    y 0.000000 3.366980 0.000000 
#    z 0.000000 0.000000 3.203870 
# 
# 
# High freq. dielectric constant tensor:
#      x y z
#    x 1.607100 0.000000 0.000000 
#    y 0.000000 1.619060 0.000000 
#    z 0.000000 0.000000 1.644740 
# 
# From -- ./inp_files/3095.got.cif
#   From: 2010.03.12/outbox.cif.g09.slc.cpg/sg49_2_cif.got.tgz:3095.got - 2010.04.14 03:58:27.
