data_PCOD8203690
_publ_section_title
;
Structure prediction by ZEFSAII (Michael W. Deem and Ramdas Pophale) SiO2 
 PCOD8203690
Probable space group: P C C M
;
_chemical_formula_sum "Si O2"
_cell_formula_units_Z 64
_cell_length_a 22.200654
_cell_length_b 9.252218
_cell_length_c 15.332529
_cell_angle_alpha 90.000000
_cell_angle_beta 90.000000
_cell_angle_gamma 90.000000
_cell_volume 3149.382574
_symmetry_space_group_name_H-M "P C C M"
_symmetry_group_IT_number 49
_symmetry_cell_setting 'orthorhombic'
loop_
_space_group_symop_operation_xyz
x,y,z
-x,-y,z
x,-y,1/2-z
-x,y,1/2-z
-x,-y,-z
x,y,-z
-x,y,1/2+z
x,-y,1/2+z
loop_
_atom_site_type_symbol
_atom_site_label
_atom_site_fract_x
_atom_site_fract_y
_atom_site_fract_z
Si Si1 0.861284 0.829534 0.100493
Si Si2 0.071119 0.333896 0.250000
Si Si3 0.726133 0.840286 0.896665
Si Si4 0.726133 0.840286 0.396665
Si Si5 0.138716 0.170466 0.600493
Si Si6 0.500000 0.162738 0.852592
Si Si7 0.616687 0.341011 0.398651
Si Si8 0.383313 0.658989 0.101349
O O1 0.905673 0.742350 0.162471
O O2 0.793058 0.785497 0.126951
O O3 0.870733 0.000000 0.114234
O O4 0.874691 0.787652 0.000000
O O5 0.092182 0.500000 0.250000
O O6 0.094327 0.257650 0.337529
O O7 0.000000 0.320063 0.250000
O O8 0.675558 0.734460 0.855972
O O9 0.715542 1.000000 0.857020
O O10 0.719675 0.849582 0.000000
O O11 0.719675 0.849582 0.500000
O O12 0.793058 0.785497 0.373049
O O13 0.675558 0.734460 0.355972
O O14 0.125309 0.212348 0.500000
O O15 0.500000 0.159886 0.750000
O O16 0.441554 0.244209 0.885839
O O17 0.558446 0.244209 0.885839
O O18 0.500000 0.000000 0.890660
O O19 0.628768 0.359900 0.500000
O O20 0.607615 0.500000 0.355990
O O21 0.371232 0.640100 0.000000
#
# Coordination Sequence:
#
# PCOD8203690 Si02
#       8
#     8   8   8   8   8   8   8   8
#     4   9  19  38  64  91 118 153 199 249 297 345
#     4  11  25  41  57  85 125 164 201 240 289 353
#     4   8  15  31  56  84 111 139 177 226 278 332
#     4   8  15  31  56  84 111 139 177 226 278 332
#     4   9  19  38  64  91 118 153 199 249 297 345
#     4  11  24  39  52  70 100 141 188 231 274 326
#     4  10  20  34  55  82 108 137 176 222 276 337
#     4  10  20  34  55  82 108 137 176 222 276 337
#
# _framework density 20.321445000000001
#
# number of rings (size 3 to 8) (size 9 to 14) (size 15 to 20)
#    0.000    2.500    0.000    3.375    0.000    7.000 
#    2.250    5.000    0.000    0.000    0.000    0.000 
#    0.000    0.000    0.000    0.000    0.000    0.000 
#
# Total GULP energy -793398.762897 kJ/mol
# GULP energy per Si atom -12396.855670 kJ/mol
# Density = 2.027519 g / cm^3
# Si number density = 20.321445 Si / 1000 Ang^3
#
#
#
# Elastic Constant Matrix: (Units=GPa)
#
#
# Indices 1 2 3 4 5 6 
#
# 1 130.7667 80.0265 39.4082 0.0000 0.0000 0.0000
# 2 80.0265 147.5903 42.7728 0.0000 0.0000 0.0000
# 3 39.4082 42.7728 68.2141 0.0000 0.0000 0.0000
# 4 0.0000 0.0000 0.0000 16.8917 0.0000 0.0000
# 5 0.0000 0.0000 0.0000 0.0000 223.1188 0.0000
# 6 0.0000 0.0000 0.0000 0.0000 0.0000 7.3851
#
#
#
# Elastic Compliance Matrix: (Units=1/GPa)
#
#
# Indices 1 2 3 4 5 6 
#
# 1 0.012097 -0.005541 -0.003514 0.000000 0.000000 0.000000
# 2 -0.005541 0.010818 -0.003582 0.000000 0.000000 0.000000
# 3 -0.003514 -0.003582 0.018936 0.000000 0.000000 0.000000
# 4 0.000000 0.000000 0.000000 0.059201 0.000000 0.000000
# 5 0.000000 0.000000 0.000000 0.000000 0.004482 0.000000
# 6 0.000000 0.000000 0.000000 0.000000 0.000000 0.135408
#
#
# Mechanical properties :
#
#
# Convention : Reuss Voigt Hill
#
# Bulk Modulus (GPa) = 60.32658 74.55401 67.44030
# Shear Modulus (GPa) = 18.39975 61.77002 40.08488
#
# Velocity S-wave (km/s) = 3.01231 5.51928 4.44615
# Velocity P-wave (km/s) = 6.46910 8.79680 7.72117
#
# Compressibility (1/GPa) = 0.01657644
#
# Stress axis : x y z
#
# Youngs Moduli (GPa) = 82.66370 92.43810 52.80866
#
# Poissons Ratio (x) = 0.51219 0.18559
# Poissons Ratio (y) = 0.45803 0.18918
# Poissons Ratio (z) = 0.29051 0.33114
#
# Static dielectric constant tensor:
#      x y z
#    x 3.764470 0.000000 0.000000 
#    y 0.000000 4.131090 0.000000 
#    z 0.000000 0.000000 3.461120 
# 
# 
# High freq. dielectric constant tensor:
#      x y z
#    x 1.797420 0.000000 0.000000 
#    y 0.000000 1.796720 0.000000 
#    z 0.000000 0.000000 1.778000 
# 
# From -- ./inp_files/14548.got.cif
#   From: 2010.03.12/outbox.cif.g09.slc.cpg/sg49_8_cif.got.tgz:14548.got - 2010.04.14 03:58:27.
