data_PCOD8203128
_publ_section_title
;
Structure prediction by ZEFSAII (Michael W. Deem and Ramdas Pophale) SiO2 
 PCOD8203128
Probable space group: P C C M
;
_chemical_formula_sum "Si O2"
_cell_formula_units_Z 64
_cell_length_a 12.087073
_cell_length_b 16.233680
_cell_length_c 17.047529
_cell_angle_alpha 90.000000
_cell_angle_beta 90.000000
_cell_angle_gamma 90.000000
_cell_volume 3345.026509
_symmetry_space_group_name_H-M "P C C M"
_symmetry_group_IT_number 49
_symmetry_cell_setting 'orthorhombic'
loop_
_space_group_symop_operation_xyz
x,y,z
-x,-y,z
x,-y,1/2-z
-x,y,1/2-z
-x,-y,-z
x,y,-z
-x,y,1/2+z
x,-y,1/2+z
loop_
_atom_site_type_symbol
_atom_site_label
_atom_site_fract_x
_atom_site_fract_y
_atom_site_fract_z
Si Si1 0.874090 0.516014 0.589847
Si Si2 0.051337 0.764492 0.408089
Si Si3 0.234579 0.883679 0.410947
Si Si4 0.612127 0.758715 0.842350
Si Si5 0.620638 0.029915 0.906402
Si Si6 0.796481 0.361997 0.333504
Si Si7 0.158884 0.311117 0.340664
Si Si8 0.631108 0.206381 0.166665
O O1 0.850647 0.492844 0.500000
O O2 0.798345 0.458922 0.646372
O O3 0.846822 0.611284 0.601988
O O4 0.000000 0.500000 0.613793
O O5 0.023170 0.773902 0.500000
O O6 0.120986 0.844476 0.374688
O O7 0.127604 0.683892 0.397612
O O8 0.939764 0.753633 0.358038
O O9 0.206548 0.902598 0.500000
O O10 0.331178 0.815078 0.408039
O O11 0.283310 0.967915 0.373412
O O12 0.669211 0.668673 0.839022
O O13 0.482724 0.749872 0.860990
O O14 0.632503 0.805587 0.760053
O O15 0.647853 0.118390 0.872353
O O16 0.500000 0.000000 0.876902
O O17 0.622684 0.032647 0.000000
O O18 0.847749 0.342424 0.248485
O O19 0.272001 0.265621 0.361663
#
# Coordination Sequence:
#
# PCOD8203128 Si02
#       8
#     8   8   8   8   8   8   8   8
#     4  11  22  36  56  84 111 140 184 228 269 324
#     4  10  19  33  53  78 110 146 181 225 275 326
#     4   9  18  33  53  78 108 142 186 229 269 325
#     4   9  19  36  55  81 108 143 185 221 277 332
#     4  10  19  33  54  81 110 143 188 234 273 322
#     4  10  20  35  58  80 107 144 184 225 269 327
#     4  11  22  35  55  83 113 144 181 228 280 331
#     4  10  21  36  54  81 115 144 181 232 279 325
#
# _framework density 19.132883
#
# number of rings (size 3 to 8) (size 9 to 14) (size 15 to 20)
#    0.000    2.000    2.500    1.500    0.000    2.500 
#    0.000    1.250    0.000    6.000    0.000    5.250 
#    0.000    0.000    0.000    0.000    0.000    0.000 
#
# Total GULP energy -793370.414407 kJ/mol
# GULP energy per Si atom -12396.412725 kJ/mol
# Density = 1.908934 g / cm^3
# Si number density = 19.132883 Si / 1000 Ang^3
#
#
#
# Elastic Constant Matrix: (Units=GPa)
#
#
# Indices 1 2 3 4 5 6 
#
# 1 142.9794 77.0964 32.1187 0.0000 0.0000 0.0000
# 2 77.0964 123.1213 32.3559 0.0000 0.0000 0.0000
# 3 32.1187 32.3559 45.3904 0.0000 0.0000 0.0000
# 4 0.0000 0.0000 0.0000 25.6311 0.0000 0.0000
# 5 0.0000 0.0000 0.0000 0.0000 19.8226 0.0000
# 6 0.0000 0.0000 0.0000 0.0000 0.0000 33.2751
#
#
#
# Elastic Compliance Matrix: (Units=1/GPa)
#
#
# Indices 1 2 3 4 5 6 
#
# 1 0.011002 -0.005960 -0.003537 0.000000 0.000000 0.000000
# 2 -0.005960 0.013223 -0.005208 0.000000 0.000000 0.000000
# 3 -0.003537 -0.005208 0.028247 0.000000 0.000000 0.000000
# 4 0.000000 0.000000 0.000000 0.039015 0.000000 0.000000
# 5 0.000000 0.000000 0.000000 0.000000 0.050447 0.000000
# 6 0.000000 0.000000 0.000000 0.000000 0.000000 0.030053
#
#
# Mechanical properties :
#
#
# Convention : Reuss Voigt Hill
#
# Bulk Modulus (GPa) = 43.36277 66.07035 54.71656
# Shear Modulus (GPa) = 23.91384 27.07376 25.49380
#
# Velocity S-wave (km/s) = 3.53920 3.76578 3.65425
# Velocity P-wave (km/s) = 6.27809 7.31543 6.81652
#
# Compressibility (1/GPa) = 0.02306126
#
# Stress axis : x y z
#
# Youngs Moduli (GPa) = 90.89096 75.62689 35.40259
#
# Poissons Ratio (x) = 0.45073 0.12521
# Poissons Ratio (y) = 0.54170 0.18439
# Poissons Ratio (z) = 0.32147 0.39389
#
# Static dielectric constant tensor:
#      x y z
#    x 3.649140 0.000000 0.000000 
#    y 0.000000 3.517280 0.000000 
#    z 0.000000 0.000000 3.381510 
# 
# 
# High freq. dielectric constant tensor:
#      x y z
#    x 1.736360 0.000000 0.000000 
#    y 0.000000 1.733490 0.000000 
#    z 0.000000 0.000000 1.736790 
# 
# From -- ./inp_files/17291.got.cif
#   From: 2010.03.12/outbox.cif.g09.slc.cpg/sg49_9_cif.got.tgz:17291.got - 2010.04.14 03:58:27.
