data_PCOD8203461
_publ_section_title
;
Structure prediction by ZEFSAII (Michael W. Deem and Ramdas Pophale) SiO2 
 PCOD8203461
Probable space group: P C C M
;
_chemical_formula_sum "Si O2"
_cell_formula_units_Z 40
_cell_length_a 15.394524
_cell_length_b 15.423967
_cell_length_c 8.716240
_cell_angle_alpha 90.000000
_cell_angle_beta 90.000000
_cell_angle_gamma 90.000000
_cell_volume 2069.624383
_symmetry_space_group_name_H-M "P C C M"
_symmetry_group_IT_number 49
_symmetry_cell_setting 'orthorhombic'
loop_
_space_group_symop_operation_xyz
x,y,z
-x,-y,z
x,-y,1/2-z
-x,y,1/2-z
-x,-y,-z
x,y,-z
-x,y,1/2+z
x,-y,1/2+z
loop_
_atom_site_type_symbol
_atom_site_label
_atom_site_fract_x
_atom_site_fract_y
_atom_site_fract_z
Si Si1 0.092889 0.408328 0.317989
Si Si2 0.231630 0.280666 0.817561
Si Si3 0.416451 0.101819 0.330827
Si Si4 0.586372 0.303875 0.829935
Si Si5 0.239696 0.085181 0.822948
O O1 0.123969 0.500000 0.250000
O O2 0.086181 0.415466 0.500000
O O3 0.160830 0.335878 0.270656
O O4 0.000000 0.381636 0.250000
O O5 0.326621 0.316858 0.770781
O O6 0.212589 0.181102 0.762544
O O7 0.222624 0.289432 0.000000
O O8 0.500000 0.060412 0.250000
O O9 0.399164 0.061676 0.500000
O O10 0.429972 0.203157 0.350245
O O11 0.340962 0.076638 0.213550
O O12 0.500000 0.345257 0.750000
O O13 0.598354 0.345809 0.000000
O O14 0.191357 0.000000 0.750000
O O15 0.220014 0.080013 0.000000
#
# Coordination Sequence:
#
# PCOD8203461 Si02
#       5
#     8   8   8   8   8
#     4  11  22  39  64  93 121 145 172 214 269 330
#     4  10  20  35  55  81 112 148 187 229 277 329
#     4   9  16  26  40  59  88 126 174 227 278 324
#     4   9  16  27  45  71 103 143 187 231 275 322
#     4  10  20  32  47  68  99 138 182 227 270 317
#
# _framework density 19.327179999999998
#
# number of rings (size 3 to 8) (size 9 to 14) (size 15 to 20)
#    0.000    2.200    0.000    4.800    0.000    7.600 
#    0.000    2.000    0.000    1.200    0.000    8.400 
#    0.000    0.000    0.000    0.000    0.000    0.000 
#
# Total GULP energy -495621.060304 kJ/mol
# GULP energy per Si atom -12390.526508 kJ/mol
# Density = 1.928319 g / cm^3
# Si number density = 19.327180 Si / 1000 Ang^3
#
#
#
# Elastic Constant Matrix: (Units=GPa)
#
#
# Indices 1 2 3 4 5 6 
#
# 1 86.4885 62.7784 43.1945 0.0000 0.0000 0.0000
# 2 62.7784 92.8119 40.9120 0.0000 0.0000 0.0000
# 3 43.1945 40.9120 120.2240 0.0000 0.0000 0.0000
# 4 0.0000 0.0000 0.0000 27.4497 0.0000 0.0000
# 5 0.0000 0.0000 0.0000 0.0000 28.0501 0.0000
# 6 0.0000 0.0000 0.0000 0.0000 0.0000 131.8737
#
#
#
# Elastic Compliance Matrix: (Units=1/GPa)
#
#
# Indices 1 2 3 4 5 6 
#
# 1 0.024000 -0.014627 -0.003645 0.000000 0.000000 0.000000
# 2 -0.014627 0.021590 -0.002092 0.000000 0.000000 0.000000
# 3 -0.003645 -0.002092 0.010339 0.000000 0.000000 0.000000
# 4 0.000000 0.000000 0.000000 0.036430 0.000000 0.000000
# 5 0.000000 0.000000 0.000000 0.000000 0.035650 0.000000
# 6 0.000000 0.000000 0.000000 0.000000 0.000000 0.007583
#
#
# Mechanical properties :
#
#
# Convention : Reuss Voigt Hill
#
# Bulk Modulus (GPa) = 65.78322 65.92157 65.85239
# Shear Modulus (GPa) = 27.56528 47.65067 37.60798
#
# Velocity S-wave (km/s) = 3.78066 4.97074 4.41598
# Velocity P-wave (km/s) = 7.29167 8.19308 7.75548
#
# Compressibility (1/GPa) = 0.01520145
#
# Stress axis : x y z
#
# Youngs Moduli (GPa) = 41.66739 46.31749 96.71755
#
# Poissons Ratio (x) = 0.67747 0.35256
# Poissons Ratio (y) = 0.60945 0.20233
# Poissons Ratio (z) = 0.15189 0.09690
#
# Static dielectric constant tensor:
#      x y z
#    x 3.273860 0.000000 0.000000 
#    y 0.000000 3.647270 0.000000 
#    z 0.000000 0.000000 3.814740 
# 
# 
# High freq. dielectric constant tensor:
#      x y z
#    x 1.716790 0.000000 0.000000 
#    y 0.000000 1.742270 0.000000 
#    z 0.000000 0.000000 1.770770 
# 
# From -- ./inp_files/3434.got.cif
#   From: 2010.03.12/outbox.cif.g09.slc.cpg/sg49_2_cif.got.tgz:3434.got - 2010.04.14 03:58:27.
