data_PCOD8203246
_publ_section_title
;
Structure prediction by ZEFSAII (Michael W. Deem and Ramdas Pophale) SiO2 
 PCOD8203246
Probable space group: P C C M
;
_chemical_formula_sum "Si O2"
_cell_formula_units_Z 56
_cell_length_a 12.060016
_cell_length_b 13.850745
_cell_length_c 16.672515
_cell_angle_alpha 90.000000
_cell_angle_beta 90.000000
_cell_angle_gamma 90.000000
_cell_volume 2784.980345
_symmetry_space_group_name_H-M "P C C M"
_symmetry_group_IT_number 49
_symmetry_cell_setting 'orthorhombic'
loop_
_space_group_symop_operation_xyz
x,y,z
-x,-y,z
x,-y,1/2-z
-x,y,1/2-z
-x,-y,-z
x,y,-z
-x,y,1/2+z
x,-y,1/2+z
loop_
_atom_site_type_symbol
_atom_site_label
_atom_site_fract_x
_atom_site_fract_y
_atom_site_fract_z
Si Si1 0.606442 0.252482 0.305191
Si Si2 0.527898 0.389045 0.912392
Si Si3 0.076556 0.408330 0.589775
Si Si4 0.996402 0.199892 0.408717
Si Si5 0.884750 0.962693 0.659458
Si Si6 0.277624 0.598761 0.795939
Si Si7 0.243103 0.120679 0.906910
O O1 0.500000 0.221751 0.250000
O O2 0.569168 0.331541 0.369046
O O3 0.707052 0.306271 0.259186
O O4 0.657086 0.159324 0.350627
O O5 0.500000 0.500000 0.916932
O O6 0.643076 0.378795 0.869147
O O7 0.540431 0.343177 0.000000
O O8 0.132070 0.409067 0.500000
O O9 0.158186 0.411183 0.664949
O O10 0.000000 0.500000 0.599600
O O11 0.001050 0.314411 0.600206
O O12 0.017787 0.166912 0.500000
O O13 0.871598 0.172876 0.381876
O O14 0.096192 0.152563 0.353362
O O15 0.874567 0.000000 0.750000
O O16 0.778600 0.006327 0.611613
O O17 0.000000 0.000000 0.619821
O O18 0.309974 0.500000 0.750000
O O19 0.274676 0.136024 0.000000
#
# Coordination Sequence:
#
# PCOD8203246 Si02
#       7
#     8   8   8   8   8   8   8
#     4  10  22  36  55  83 117 147 198 253 306 350
#     4  10  19  34  56  76 102 145 197 249 295 347
#     4  10  23  40  55  79 117 160 201 237 285 361
#     4   9  19  36  58  84 120 158 195 240 289 353
#     4   9  18  33  56  90 122 150 188 239 291 345
#     4  11  22  36  52  78 112 153 196 242 296 354
#     4  10  20  36  60  89 116 152 194 243 298 355
#
# _framework density 20.107862000000001
#
# number of rings (size 3 to 8) (size 9 to 14) (size 15 to 20)
#    0.000    2.143    1.429    1.286    4.000    2.000 
#    0.000    0.000    0.000    0.429    0.000    1.000 
#    0.000    0.000    0.000    0.000    0.000    0.000 
#
# Total GULP energy -693835.448705 kJ/mol
# GULP energy per Si atom -12389.918727 kJ/mol
# Density = 2.006210 g / cm^3
# Si number density = 20.107862 Si / 1000 Ang^3
#
#
#
# Elastic Constant Matrix: (Units=GPa)
#
#
# Indices 1 2 3 4 5 6 
#
# 1 77.1888 39.1290 49.0307 0.0000 0.0000 0.0000
# 2 39.1290 94.8644 35.2568 0.0000 0.0000 0.0000
# 3 49.0307 35.2568 116.4996 0.0000 0.0000 0.0000
# 4 0.0000 0.0000 0.0000 21.5577 0.0000 0.0000
# 5 0.0000 0.0000 0.0000 0.0000 20.2173 0.0000
# 6 0.0000 0.0000 0.0000 0.0000 0.0000 25.1202
#
#
#
# Elastic Compliance Matrix: (Units=1/GPa)
#
#
# Indices 1 2 3 4 5 6 
#
# 1 0.020183 -0.005823 -0.006732 0.000000 0.000000 0.000000
# 2 -0.005823 0.013557 -0.001652 0.000000 0.000000 0.000000
# 3 -0.006732 -0.001652 0.011917 0.000000 0.000000 0.000000
# 4 0.000000 0.000000 0.000000 0.046387 0.000000 0.000000
# 5 0.000000 0.000000 0.000000 0.000000 0.049463 0.000000
# 6 0.000000 0.000000 0.000000 0.000000 0.000000 0.039809
#
#
# Mechanical properties :
#
#
# Convention : Reuss Voigt Hill
#
# Bulk Modulus (GPa) = 57.99512 59.48733 58.74122
# Shear Modulus (GPa) = 23.20414 24.38813 23.79613
#
# Velocity S-wave (km/s) = 3.40072 3.48640 3.44383
# Velocity P-wave (km/s) = 6.65766 6.77163 6.71489
#
# Compressibility (1/GPa) = 0.01724283
#
# Stress axis : x y z
#
# Youngs Moduli (GPa) = 49.54551 73.76127 83.91300
#
# Poissons Ratio (x) = 0.42952 0.56492
# Poissons Ratio (y) = 0.28851 0.13864
# Poissons Ratio (z) = 0.33355 0.12187
#
# Static dielectric constant tensor:
#      x y z
#    x 3.429370 0.000000 0.000000 
#    y 0.000000 3.675220 0.000000 
#    z 0.000000 0.000000 4.059230 
# 
# 
# High freq. dielectric constant tensor:
#      x y z
#    x 1.755760 0.000000 0.000000 
#    y 0.000000 1.775070 0.000000 
#    z 0.000000 0.000000 1.799560 
# 
# From -- ./inp_files/12876.got.cif
#   From: 2010.03.12/outbox.cif.g09.slc.cpg/sg49_7_cif.got.tgz:12876.got - 2010.04.14 03:58:27.
