data_PCOD8203874
_publ_section_title
;
Structure prediction by ZEFSAII (Michael W. Deem and Ramdas Pophale) SiO2 
 PCOD8203874
Probable space group: P C C M
;
_chemical_formula_sum "Si O2"
_cell_formula_units_Z 64
_cell_length_a 20.846612
_cell_length_b 17.150092
_cell_length_c 8.774123
_cell_angle_alpha 90.000000
_cell_angle_beta 90.000000
_cell_angle_gamma 90.000000
_cell_volume 3136.935981
_symmetry_space_group_name_H-M "P C C M"
_symmetry_group_IT_number 49
_symmetry_cell_setting 'orthorhombic'
loop_
_space_group_symop_operation_xyz
x,y,z
-x,-y,z
x,-y,1/2-z
-x,y,1/2-z
-x,-y,-z
x,y,-z
-x,y,1/2+z
x,-y,1/2+z
loop_
_atom_site_type_symbol
_atom_site_label
_atom_site_fract_x
_atom_site_fract_y
_atom_site_fract_z
Si Si1 0.849850 0.924873 0.321349
Si Si2 0.697763 0.710199 0.681659
Si Si3 0.793188 0.418467 0.317139
Si Si4 0.934749 0.377223 0.673104
Si Si5 0.565508 0.749390 0.816889
Si Si6 0.728957 0.127761 0.327260
Si Si7 0.063911 0.193566 0.174120
Si Si8 0.411589 0.077766 0.831478
O O1 0.850912 0.931051 0.500000
O O2 0.778584 0.928562 0.255046
O O3 0.878008 0.842967 0.266891
O O4 0.886806 0.000000 0.250000
O O5 0.695656 0.701463 0.500000
O O6 0.746008 0.646767 0.751185
O O7 0.625717 0.700943 0.749823
O O8 0.723861 0.794240 0.728120
O O9 0.768141 0.500000 0.250000
O O10 0.790158 0.416068 0.500000
O O11 0.867277 0.408215 0.258622
O O12 0.940179 0.403431 0.500000
O O13 0.931814 0.285176 0.693079
O O14 0.000000 0.410705 0.750000
O O15 0.500000 0.711851 0.750000
O O16 0.566890 0.839622 0.757362
O O17 0.568860 0.745228 0.000000
O O18 0.749875 0.150110 0.500000
O O19 0.664888 0.077250 0.331562
O O20 0.000000 0.159968 0.250000
O O21 0.066521 0.166756 0.000000
O O22 0.438115 0.000000 0.750000
O O23 0.440192 0.073727 0.000000
#
# Coordination Sequence:
#
# PCOD8203874 Si02
#       8
#     8   8   8   8   8   8   8   8
#     4  12  24  36  51  74 102 138 183 235 292 349
#     4  11  22  38  62  90 117 153 195 239 291 351
#     4  11  23  40  61  90 125 160 194 235 284 339
#     4   9  20  37  60  86 117 154 192 234 282 335
#     4  10  21  38  58  84 116 154 199 249 298 350
#     4  10  20  36  55  78 108 144 186 235 285 339
#     4  10  20  37  57  77 101 135 179 230 284 340
#     4   9  19  32  49  74 109 149 189 233 285 337
#
# _framework density 20.402073999999999
#
# number of rings (size 3 to 8) (size 9 to 14) (size 15 to 20)
#    0.000    1.750    0.000    5.625    0.000    7.250 
#    0.000    3.750    0.000    0.375    0.000    2.625 
#    0.000    0.000    0.000    0.000    0.000    0.000 
#
# Total GULP energy -793354.401750 kJ/mol
# GULP energy per Si atom -12396.162527 kJ/mol
# Density = 2.035564 g / cm^3
# Si number density = 20.402074 Si / 1000 Ang^3
#
#
#
# Elastic Constant Matrix: (Units=GPa)
#
#
# Indices 1 2 3 4 5 6 
#
# 1 103.3972 48.4666 53.0343 0.0000 0.0000 0.0000
# 2 48.4666 46.9153 31.0398 0.0000 0.0000 0.0000
# 3 53.0343 31.0398 131.8088 0.0000 0.0000 0.0000
# 4 0.0000 0.0000 0.0000 28.2798 0.0000 0.0000
# 5 0.0000 0.0000 0.0000 0.0000 34.8442 0.0000
# 6 0.0000 0.0000 0.0000 0.0000 0.0000 5.7392
#
#
#
# Elastic Compliance Matrix: (Units=1/GPa)
#
#
# Indices 1 2 3 4 5 6 
#
# 1 0.020252 -0.018397 -0.003816 0.000000 0.000000 0.000000
# 2 -0.018397 0.041961 -0.002479 0.000000 0.000000 0.000000
# 3 -0.003816 -0.002479 0.009706 0.000000 0.000000 0.000000
# 4 0.000000 0.000000 0.000000 0.035361 0.000000 0.000000
# 5 0.000000 0.000000 0.000000 0.000000 0.028699 0.000000
# 6 0.000000 0.000000 0.000000 0.000000 0.000000 0.174239
#
#
# Mechanical properties :
#
#
# Convention : Reuss Voigt Hill
#
# Bulk Modulus (GPa) = 44.37746 60.80030 52.58888
# Shear Modulus (GPa) = 13.61970 23.74467 18.68219
#
# Velocity S-wave (km/s) = 2.58653 3.41521 3.02934
# Velocity P-wave (km/s) = 5.54246 6.73923 6.16993
#
# Compressibility (1/GPa) = 0.02253396
#
# Stress axis : x y z
#
# Youngs Moduli (GPa) = 49.37669 23.83178 103.02788
#
# Poissons Ratio (x) = 0.43844 0.39319
# Poissons Ratio (y) = 0.90839 0.25542
# Poissons Ratio (z) = 0.18844 0.05908
#
# Static dielectric constant tensor:
#      x y z
#    x 3.876910 0.000000 0.000000 
#    y 0.000000 2.738920 0.000000 
#    z 0.000000 0.000000 3.770830 
# 
# 
# High freq. dielectric constant tensor:
#      x y z
#    x 1.805470 0.000000 0.000000 
#    y 0.000000 1.778670 0.000000 
#    z 0.000000 0.000000 1.802990 
# 
# From -- ./inp_files/5930.got.cif
#   From: 2010.03.12/outbox.cif.g09.slc.cpg/sg49_3_cif.got.tgz:5930.got - 2010.04.14 03:58:27.
