data_PCOD8203901
_publ_section_title
;
Structure prediction by ZEFSAII (Michael W. Deem and Ramdas Pophale) SiO2 
 PCOD8203901
Probable space group: P C C M
;
_chemical_formula_sum "Si O2"
_cell_formula_units_Z 64
_cell_length_a 15.007008
_cell_length_b 23.679941
_cell_length_c 8.769980
_cell_angle_alpha 90.000000
_cell_angle_beta 90.000000
_cell_angle_gamma 90.000000
_cell_volume 3116.544504
_symmetry_space_group_name_H-M "P C C M"
_symmetry_group_IT_number 49
_symmetry_cell_setting 'orthorhombic'
loop_
_space_group_symop_operation_xyz
x,y,z
-x,-y,z
x,-y,1/2-z
-x,y,1/2-z
-x,-y,-z
x,y,-z
-x,y,1/2+z
x,-y,1/2+z
loop_
_atom_site_type_symbol
_atom_site_label
_atom_site_fract_x
_atom_site_fract_y
_atom_site_fract_z
Si Si1 0.406905 0.732811 0.318282
Si Si2 0.762725 0.558127 0.818184
Si Si3 0.406384 0.611060 0.182190
Si Si4 0.907689 0.351693 0.678010
Si Si5 0.095170 0.222497 0.819137
Si Si6 0.920779 0.059451 0.831134
Si Si7 0.280193 0.059032 0.330553
Si Si8 0.727434 0.179434 0.817396
O O1 0.500000 0.755310 0.250000
O O2 0.413310 0.728081 0.500000
O O3 0.382986 0.672405 0.248590
O O4 0.328516 0.774352 0.271704
O O5 0.801555 0.500000 0.750000
O O6 0.667567 0.567616 0.739276
O O7 0.828490 0.608073 0.765057
O O8 0.752795 0.555261 0.000000
O O9 0.500000 0.589846 0.250000
O O10 0.410877 0.613399 0.000000
O O11 0.920596 0.357336 0.500000
O O12 0.884133 0.287592 0.724001
O O13 0.000000 0.372146 0.750000
O O14 0.170586 0.184030 0.740624
O O15 0.000000 0.204851 0.750000
O O16 0.094796 0.212400 0.000000
O O17 0.821314 0.082378 0.823666
O O18 0.000000 0.096365 0.750000
O O19 0.914900 0.000000 0.750000
O O20 0.954865 0.051291 0.000000
O O21 0.311141 0.045214 0.500000
O O22 0.320972 0.118519 0.272150
O O23 0.302894 0.000000 0.250000
O O24 0.724420 0.187685 0.000000
#
# Coordination Sequence:
#
# PCOD8203901 Si02
#       8
#     8   8   8   8   8   8   8   8
#     4  11  22  39  63  92 120 149 185 232 287 346
#     4  11  23  39  57  84 119 157 201 247 289 341
#     4  11  22  39  63  90 119 154 189 232 287 346
#     4   9  20  37  58  80 109 147 192 243 294 342
#     4  10  20  36  57  84 115 152 194 242 296 352
#     4   9  15  25  40  60  85 120 164 212 257 303
#     4   9  20  35  51  72 103 141 184 227 275 334
#     4  11  22  37  57  85 117 151 189 236 288 344
#
# _framework density 20.535563
#
# number of rings (size 3 to 8) (size 9 to 14) (size 15 to 20)
#    0.000    1.875    0.000    5.625    0.000    5.000 
#    0.000    3.750    0.000    0.375    0.000    2.625 
#    0.000    0.000    0.000    0.000    0.000    0.000 
#
# Total GULP energy -793051.464043 kJ/mol
# GULP energy per Si atom -12391.429126 kJ/mol
# Density = 2.048882 g / cm^3
# Si number density = 20.535563 Si / 1000 Ang^3
#
#
#
# Elastic Constant Matrix: (Units=GPa)
#
#
# Indices 1 2 3 4 5 6 
#
# 1 62.9093 29.9882 28.3673 0.0000 0.0000 0.0000
# 2 29.9882 100.9057 42.0895 0.0000 0.0000 0.0000
# 3 28.3673 42.0895 129.3837 0.0000 0.0000 0.0000
# 4 0.0000 0.0000 0.0000 28.1732 0.0000 0.0000
# 5 0.0000 0.0000 0.0000 0.0000 33.2667 0.0000
# 6 0.0000 0.0000 0.0000 0.0000 0.0000 -6.2849
#
#
#
# Elastic Compliance Matrix: (Units=1/GPa)
#
#
# Indices 1 2 3 4 5 6 
#
# 1 0.019324 -0.004600 -0.002740 0.000000 0.000000 0.000000
# 2 -0.004600 0.012561 -0.003078 0.000000 0.000000 0.000000
# 3 -0.002740 -0.003078 0.009331 0.000000 0.000000 0.000000
# 4 0.000000 0.000000 0.000000 0.035495 0.000000 0.000000
# 5 0.000000 0.000000 0.000000 0.000000 0.030060 0.000000
# 6 0.000000 0.000000 0.000000 0.000000 0.000000 -0.159113
#
#
# Mechanical properties :
#
#
# Convention : Reuss Voigt Hill
#
# Bulk Modulus (GPa) = 49.06704 54.89875 51.98289
# Shear Modulus (GPa) = -202.33392 23.88124 -89.22634
#
# Velocity S-wave (km/s) = -9.93692 3.41386 -6.59879
# Velocity P-wave (km/s) = 10.37839 6.50621 5.71753
#
# Compressibility (1/GPa) = 0.02038028
#
# Stress axis : x y z
#
# Youngs Moduli (GPa) = 51.74803 79.61119 107.16981
#
# Poissons Ratio (x) = 0.36621 0.29370
# Poissons Ratio (y) = 0.23804 0.32983
# Poissons Ratio (z) = 0.14181 0.24502
#
# Static dielectric constant tensor:
#      x y z
#    x 3.790470 0.000000 0.000000 
#    y 0.000000 3.778160 0.000000 
#    z 0.000000 0.000000 3.770770 
# 
# 
# High freq. dielectric constant tensor:
#      x y z
#    x 1.788580 0.000000 0.000000 
#    y 0.000000 1.811790 0.000000 
#    z 0.000000 0.000000 1.811100 
# 
# From -- ./inp_files/4359.got.cif
#   From: 2010.03.12/outbox.cif.g09.slc.cpg/sg49_3_cif.got.tgz:4359.got - 2010.04.14 03:58:27.
