data_PCOD8203951
_publ_section_title
;
Structure prediction by ZEFSAII (Michael W. Deem and Ramdas Pophale) SiO2 
 PCOD8203951
Probable space group: P C C M
;
_chemical_formula_sum "Si O2"
_cell_formula_units_Z 56
_cell_length_a 6.869826
_cell_length_b 22.887240
_cell_length_c 18.736115
_cell_angle_alpha 90.000000
_cell_angle_beta 90.000000
_cell_angle_gamma 90.000000
_cell_volume 2945.904775
_symmetry_space_group_name_H-M "P C C M"
_symmetry_group_IT_number 49
_symmetry_cell_setting 'orthorhombic'
loop_
_space_group_symop_operation_xyz
x,y,z
-x,-y,z
x,-y,1/2-z
-x,y,1/2-z
-x,-y,-z
x,y,-z
-x,y,1/2+z
x,-y,1/2+z
loop_
_atom_site_type_symbol
_atom_site_label
_atom_site_fract_x
_atom_site_fract_y
_atom_site_fract_z
Si Si1 0.457395 0.067077 0.329998
Si Si2 0.669722 0.723738 0.916900
Si Si3 0.936134 0.362413 0.329296
Si Si4 0.327446 0.355962 0.581838
Si Si5 0.425145 0.565916 0.675540
Si Si6 0.090612 0.063237 0.580460
Si Si7 0.733012 0.854844 0.079906
O O1 0.500000 0.087728 0.250000
O O2 0.240068 0.078800 0.356823
O O3 0.599043 0.102414 0.378216
O O4 0.500000 0.000000 0.340977
O O5 0.797801 0.685954 0.863283
O O6 0.439790 0.706547 0.907920
O O7 0.713986 0.789261 0.890479
O O8 0.732594 0.714329 0.000000
O O9 0.810535 0.423576 0.328134
O O10 0.000000 0.344470 0.250000
O O11 0.130374 0.365286 0.375318
O O12 0.274612 0.366563 0.500000
O O13 0.480926 0.404425 0.606613
O O14 0.500000 0.500000 0.674451
O O15 0.500000 0.594876 0.750000
O O16 0.180821 0.060056 0.500000
O O17 0.947677 0.118459 0.584182
O O18 0.000000 0.000000 0.598520
O O19 0.653600 0.853857 0.000000
#
# Coordination Sequence:
#
# PCOD8203951 Si02
#       7
#     8   8   8   8   8   8   8
#     4  11  23  38  54  83 119 159 192 244 313 373
#     4   9  21  40  61  87 122 157 200 257 309 361
#     4  11  21  38  62  89 119 165 208 246 300 364
#     4  10  21  39  63  90 121 161 204 251 302 355
#     4  10  21  39  60  89 128 164 201 249 301 356
#     4  10  20  36  62  87 111 149 200 248 295 365
#     4  10  21  40  62  87 115 153 203 250 301 365
#
# _framework density 19.009439
#
# number of rings (size 3 to 8) (size 9 to 14) (size 15 to 20)
#    0.000    1.857    2.857    0.857    0.000    3.714 
#    5.143    5.000    0.000    0.000    0.000    0.000 
#    0.000    0.000    0.000    0.000    0.000    0.000 
#
# Total GULP energy -693950.541002 kJ/mol
# GULP energy per Si atom -12391.973946 kJ/mol
# Density = 1.896617 g / cm^3
# Si number density = 19.009439 Si / 1000 Ang^3
#
#
#
# Elastic Constant Matrix: (Units=GPa)
#
#
# Indices 1 2 3 4 5 6 
#
# 1 128.0515 54.6441 83.7822 0.0000 0.0000 0.0000
# 2 54.6441 135.8115 66.7164 0.0000 0.0000 0.0000
# 3 83.7822 66.7164 110.7137 0.0000 0.0000 0.0000
# 4 0.0000 0.0000 0.0000 25.6752 0.0000 0.0000
# 5 0.0000 0.0000 0.0000 0.0000 38.3306 0.0000
# 6 0.0000 0.0000 0.0000 0.0000 0.0000 27.4953
#
#
#
# Elastic Compliance Matrix: (Units=1/GPa)
#
#
# Indices 1 2 3 4 5 6 
#
# 1 0.015511 -0.000674 -0.011332 0.000000 0.000000 0.000000
# 2 -0.000674 0.010489 -0.005810 0.000000 0.000000 0.000000
# 3 -0.011332 -0.005810 0.021109 0.000000 0.000000 0.000000
# 4 0.000000 0.000000 0.000000 0.038948 0.000000 0.000000
# 5 0.000000 0.000000 0.000000 0.000000 0.026089 0.000000
# 6 0.000000 0.000000 0.000000 0.000000 0.000000 0.036370
#
#
# Mechanical properties :
#
#
# Convention : Reuss Voigt Hill
#
# Bulk Modulus (GPa) = 87.13696 87.20691 87.17194
# Shear Modulus (GPa) = 26.59944 29.59580 28.09762
#
# Velocity S-wave (km/s) = 3.74475 3.95004 3.84876
# Velocity P-wave (km/s) = 8.03964 8.17184 8.10601
#
# Compressibility (1/GPa) = 0.01147619
#
# Stress axis : x y z
#
# Youngs Moduli (GPa) = 64.46879 95.34066 47.37344
#
# Poissons Ratio (x) = 0.06429 0.53683
# Poissons Ratio (y) = 0.04348 0.27525
# Poissons Ratio (z) = 0.73055 0.55395
#
# Static dielectric constant tensor:
#      x y z
#    x 3.599350 0.000000 0.000000 
#    y 0.000000 3.455280 0.000000 
#    z 0.000000 0.000000 3.644090 
# 
# 
# High freq. dielectric constant tensor:
#      x y z
#    x 1.742540 0.000000 0.000000 
#    y 0.000000 1.728740 0.000000 
#    z 0.000000 0.000000 1.748510 
# 
# From -- ./inp_files/19052.got.cif
#   From: 2010.03.12/outbox.cif.g09.slc.cpg/sg49_10_cif.got.tgz:19052.got - 2010.04.14 03:58:27.
