data_PCOD8203703
_publ_section_title
;
Structure prediction by ZEFSAII (Michael W. Deem and Ramdas Pophale) SiO2 
 PCOD8203703
Probable space group: P C C M
;
_chemical_formula_sum "Si O2"
_cell_formula_units_Z 58
_cell_length_a 20.792611
_cell_length_b 8.783126
_cell_length_c 16.160139
_cell_angle_alpha 90.000000
_cell_angle_beta 90.000000
_cell_angle_gamma 90.000000
_cell_volume 2951.231201
_symmetry_space_group_name_H-M "P C C M"
_symmetry_group_IT_number 49
_symmetry_cell_setting 'orthorhombic'
loop_
_space_group_symop_operation_xyz
x,y,z
-x,-y,z
x,-y,1/2-z
-x,y,1/2-z
-x,-y,-z
x,y,-z
-x,y,1/2+z
x,-y,1/2+z
loop_
_atom_site_type_symbol
_atom_site_label
_atom_site_fract_x
_atom_site_fract_y
_atom_site_fract_z
Si Si1 0.649254 0.319687 0.249965
Si Si2 0.797004 0.679104 0.260649
Si Si3 0.998430 0.336473 0.908113
Si Si4 0.871296 0.181320 0.905845
Si Si5 0.000000 0.000000 0.750000
Si Si6 0.893447 0.149604 0.644372
Si Si7 0.426999 0.680899 0.591784
Si Si8 0.572825 0.681028 0.408206
O O1 0.640751 0.500000 0.250000
O O2 0.723387 0.272855 0.250575
O O3 0.616856 0.251868 0.333831
O O4 0.616526 0.251812 0.166308
O O5 0.808107 0.500000 0.250000
O O6 0.818572 0.731331 0.351636
O O7 0.835784 0.769605 0.191423
O O8 0.942749 0.225235 0.871255
O O9 0.000000 0.500000 0.860228
O O10 0.070365 0.266586 0.916612
O O11 0.973003 0.368606 0.000000
O O12 0.864766 0.998844 0.899612
O O13 0.858153 0.228934 0.000000
O O14 0.046656 0.113132 0.797709
O O15 0.403548 0.736766 0.500000
O O16 0.424187 0.499937 0.593662
O O17 0.499895 0.736356 0.606961
O O18 0.596177 0.737042 0.500000
#
# Coordination Sequence:
#
# PCOD8203703 Si02
#       8
#     8   8   8   8   2   8   8   8
#     4   9  17  28  42  65 101 144 181 215 263 323
#     4  11  23  37  53  77 112 151 184 221 274 335
#     4  10  20  34  56  86 111 129 161 220 286 338
#     4  11  22  38  57  79 104 138 180 227 273 326
#     4  12  20  32  60  76  92 124 182 228 272 308
#     4  12  20  37  57  78 103 139 184 223 270 331
#     4   8  13  23  40  65  95 134 179 223 259 308
#     4   8  13  22  41  66  95 133 180 220 260 309
#
# _framework density 19.652815
#
# number of rings (size 3 to 8) (size 9 to 14) (size 15 to 20)
#    0.000    2.069    2.759    2.483    0.000    3.310 
#    0.000    5.517    0.000    0.000    0.000    0.000 
#    0.000    8.828    0.000   17.103    0.000   13.241 
#
# Total GULP energy -718661.386898 kJ/mol
# GULP energy per Si atom -12390.713567 kJ/mol
# Density = 1.960808 g / cm^3
# Si number density = 19.652815 Si / 1000 Ang^3
#
#
#
# Elastic Constant Matrix: (Units=GPa)
#
#
# Indices 1 2 3 4 5 6 
#
# 1 141.5636 34.8047 83.5101 0.0000 0.0000 0.0000
# 2 34.8047 76.9622 26.5218 0.0000 0.0000 0.0000
# 3 83.5101 26.5218 141.1843 0.0000 0.0000 0.0000
# 4 0.0000 0.0000 0.0000 16.3502 0.0000 0.0000
# 5 0.0000 0.0000 0.0000 0.0000 31.5835 0.0000
# 6 0.0000 0.0000 0.0000 0.0000 0.0000 7.3483
#
#
#
# Elastic Compliance Matrix: (Units=1/GPa)
#
#
# Indices 1 2 3 4 5 6 
#
# 1 0.011482 -0.003050 -0.006219 0.000000 0.000000 0.000000
# 2 -0.003050 0.014703 -0.000958 0.000000 0.000000 0.000000
# 3 -0.006219 -0.000958 0.010941 0.000000 0.000000 0.000000
# 4 0.000000 0.000000 0.000000 0.061161 0.000000 0.000000
# 5 0.000000 0.000000 0.000000 0.000000 0.031662 0.000000
# 6 0.000000 0.000000 0.000000 0.000000 0.000000 0.136085
#
#
# Mechanical properties :
#
#
# Convention : Reuss Voigt Hill
#
# Bulk Modulus (GPa) = 59.97646 72.15371 66.06509
# Shear Modulus (GPa) = 17.12057 25.38129 21.25093
#
# Velocity S-wave (km/s) = 2.95473 3.59762 3.29191
# Velocity P-wave (km/s) = 6.49806 7.35194 6.93815
#
# Compressibility (1/GPa) = 0.01667321
#
# Stress axis : x y z
#
# Youngs Moduli (GPa) = 87.09028 68.01484 91.39607
#
# Poissons Ratio (x) = 0.20742 0.56838
# Poissons Ratio (y) = 0.26559 0.08757
# Poissons Ratio (z) = 0.54161 0.06517
#
# Static dielectric constant tensor:
#      x y z
#    x 3.578370 0.000000 0.000000 
#    y 0.000000 3.240820 0.000000 
#    z 0.000000 0.000000 3.961320 
# 
# 
# High freq. dielectric constant tensor:
#      x y z
#    x 1.752130 0.000000 0.000000 
#    y 0.000000 1.727900 0.000000 
#    z 0.000000 0.000000 1.775690 
# 
# From -- ./inp_files/18190.got.cif
#   From: 2010.03.12/outbox.cif.g09.slc.cpg/sg49_10_cif.got.tgz:18190.got - 2010.04.14 03:58:27.
