data_PCOD8203360
_publ_section_title
;
Structure prediction by ZEFSAII (Michael W. Deem and Ramdas Pophale) SiO2 
 PCOD8203360
Probable space group: P C C M
;
_chemical_formula_sum "Si O2"
_cell_formula_units_Z 56
_cell_length_a 25.933404
_cell_length_b 14.402267
_cell_length_c 8.807973
_cell_angle_alpha 90.000000
_cell_angle_beta 90.000000
_cell_angle_gamma 90.000000
_cell_volume 3289.776230
_symmetry_space_group_name_H-M "P C C M"
_symmetry_group_IT_number 49
_symmetry_cell_setting 'orthorhombic'
loop_
_space_group_symop_operation_xyz
x,y,z
-x,-y,z
x,-y,1/2-z
-x,y,1/2-z
-x,-y,-z
x,y,-z
-x,y,1/2+z
x,-y,1/2+z
loop_
_atom_site_type_symbol
_atom_site_label
_atom_site_fract_x
_atom_site_fract_y
_atom_site_fract_z
Si Si1 0.087001 0.595924 0.319968
Si Si2 0.752606 0.788385 0.821729
Si Si3 0.052527 0.217481 0.319119
Si Si4 0.662650 0.899660 0.323251
Si Si5 0.793814 0.406159 0.677594
Si Si6 0.548851 0.100448 0.176378
Si Si7 0.144806 0.101076 0.820241
O O1 0.066038 0.500000 0.250000
O O2 0.077754 0.599388 0.500000
O O3 0.055937 0.677072 0.238244
O O4 0.146851 0.608351 0.276686
O O5 0.702204 0.824720 0.738754
O O6 0.762280 0.683259 0.764312
O O7 0.801307 0.851243 0.778254
O O8 0.742748 0.790927 0.000000
O O9 0.051504 0.213080 0.500000
O O10 0.099676 0.158831 0.255969
O O11 0.000000 0.174494 0.250000
O O12 0.671905 0.914423 0.500000
O O13 0.605453 0.856736 0.290883
O O14 0.671479 0.000000 0.250000
O O15 0.770886 0.500000 0.750000
O O16 0.788336 0.416878 0.500000
O O17 0.500000 0.156777 0.250000
O O18 0.549863 0.000000 0.250000
O O19 0.538047 0.091934 0.000000
O O20 0.145413 0.000000 0.750000
O O21 0.135729 0.097666 0.000000
#
# Coordination Sequence:
#
# PCOD8203360 Si02
#       7
#     8   8   8   8   8   8   8
#     4  10  19  36  58  83 110 134 163 202 247 303
#     4  10  20  35  54  76 105 136 167 206 250 296
#     4  12  25  41  60  81 103 133 167 207 255 303
#     4  10  20  31  45  70 102 137 177 217 254 296
#     4   9  18  33  53  78 104 132 162 199 243 295
#     4   9  16  26  41  62  91 129 173 215 254 295
#     4  11  23  41  59  79 104 132 169 211 251 301
#
# _framework density 17.022435000000002
#
# number of rings (size 3 to 8) (size 9 to 14) (size 15 to 20)
#    0.000    1.857    1.429    3.857    0.000    5.714 
#    0.000    2.857    0.000    0.000    0.000    0.000 
#    0.000    0.571    0.000    6.286    0.000    4.571 
#
# Total GULP energy -694295.576704 kJ/mol
# GULP energy per Si atom -12398.135298 kJ/mol
# Density = 1.698369 g / cm^3
# Si number density = 17.022435 Si / 1000 Ang^3
#
#
#
# Elastic Constant Matrix: (Units=GPa)
#
#
# Indices 1 2 3 4 5 6 
#
# 1 119.4375 42.7978 60.5685 0.0000 0.0000 0.0000
# 2 42.7978 88.2684 39.1316 0.0000 0.0000 0.0000
# 3 60.5685 39.1316 94.3048 0.0000 0.0000 0.0000
# 4 0.0000 0.0000 0.0000 29.7283 0.0000 0.0000
# 5 0.0000 0.0000 0.0000 0.0000 31.6492 0.0000
# 6 0.0000 0.0000 0.0000 0.0000 0.0000 3.4625
#
#
#
# Elastic Compliance Matrix: (Units=1/GPa)
#
#
# Indices 1 2 3 4 5 6 
#
# 1 0.013123 -0.003218 -0.007093 0.000000 0.000000 0.000000
# 2 -0.003218 0.014672 -0.004021 0.000000 0.000000 0.000000
# 3 -0.007093 -0.004021 0.016828 0.000000 0.000000 0.000000
# 4 0.000000 0.000000 0.000000 0.033638 0.000000 0.000000
# 5 0.000000 0.000000 0.000000 0.000000 0.031596 0.000000
# 6 0.000000 0.000000 0.000000 0.000000 0.000000 0.288807
#
#
# Mechanical properties :
#
#
# Convention : Reuss Voigt Hill
#
# Bulk Modulus (GPa) = 62.66348 65.22293 63.94320
# Shear Modulus (GPa) = 11.55675 23.60220 17.57948
#
# Velocity S-wave (km/s) = 2.60842 3.72766 3.21709
# Velocity P-wave (km/s) = 6.77968 7.54495 7.17253
#
# Compressibility (1/GPa) = 0.01595826
#
# Stress axis : x y z
#
# Youngs Moduli (GPa) = 76.20441 68.15612 59.42500
#
# Poissons Ratio (x) = 0.21934 0.42149
# Poissons Ratio (y) = 0.24524 0.23896
# Poissons Ratio (z) = 0.54050 0.27407
#
# Static dielectric constant tensor:
#      x y z
#    x 3.853780 0.000000 0.000000 
#    y 0.000000 3.147900 0.000000 
#    z 0.000000 0.000000 3.280150 
# 
# 
# High freq. dielectric constant tensor:
#      x y z
#    x 1.655260 0.000000 0.000000 
#    y 0.000000 1.633720 0.000000 
#    z 0.000000 0.000000 1.670530 
# 
# From -- ./inp_files/5791.got.cif
#   From: 2010.03.12/outbox.cif.g09.slc.cpg/sg49_3_cif.got.tgz:5791.got - 2010.04.14 03:58:27.
