data_PCOD8203488
_publ_section_title
;
Structure prediction by ZEFSAII (Michael W. Deem and Ramdas Pophale) SiO2 
 PCOD8203488
Probable space group: P C C M
;
_chemical_formula_sum "Si O2"
_cell_formula_units_Z 48
_cell_length_a 17.846468
_cell_length_b 17.853785
_cell_length_c 8.638918
_cell_angle_alpha 90.000000
_cell_angle_beta 90.000000
_cell_angle_gamma 90.000000
_cell_volume 2752.592549
_symmetry_space_group_name_H-M "P C C M"
_symmetry_group_IT_number 49
_symmetry_cell_setting 'orthorhombic'
loop_
_space_group_symop_operation_xyz
x,y,z
-x,-y,z
x,-y,1/2-z
-x,y,1/2-z
-x,-y,-z
x,y,-z
-x,y,1/2+z
x,-y,1/2+z
loop_
_atom_site_type_symbol
_atom_site_label
_atom_site_fract_x
_atom_site_fract_y
_atom_site_fract_z
Si Si1 0.070664 0.814530 0.830788
Si Si2 0.193206 0.689615 0.829802
Si Si3 0.078632 0.581677 0.682067
Si Si4 0.582357 0.921266 0.816416
Si Si5 0.173674 0.080585 0.180496
Si Si6 0.297980 0.816623 0.182359
O O1 0.134632 0.754916 0.851649
O O2 0.094132 0.880609 0.713502
O O3 0.000000 0.774662 0.750000
O O4 0.050489 0.847293 0.000000
O O5 0.154454 0.628746 0.718588
O O6 0.269043 0.732145 0.765646
O O7 0.209227 0.653750 0.000000
O O8 0.092608 0.500000 0.750000
O O9 0.068743 0.577509 0.500000
O O10 0.000000 0.614864 0.750000
O O11 0.500000 0.910171 0.750000
O O12 0.627705 0.846110 0.768654
O O13 0.616656 0.000000 0.750000
O O14 0.580378 0.927808 0.000000
O O15 0.235631 0.123209 0.278179
O O16 0.169153 0.000000 0.250000
O O17 0.194114 0.080875 0.000000
O O18 0.313057 0.815454 0.000000
#
# Coordination Sequence:
#
# PCOD8203488 Si02
#       6
#     8   8   8   8   8   8
#     4  10  20  33  47  64  85 113 149 192 238 284
#     4   9  19  34  51  70  95 124 157 195 238 287
#     4  11  21  33  51  73 101 132 167 205 247 295
#     4  11  21  34  52  75 103 134 169 207 249 297
#     4  11  21  33  47  63  84 113 151 194 238 284
#     4  10  20  35  52  71  96 126 159 197 240 289
#
# _framework density 17.438106999999999
#
# number of rings (size 3 to 8) (size 9 to 14) (size 15 to 20)
#    0.000    1.667    0.000    8.500    0.000    5.667 
#    0.000    1.667    0.000    0.000    0.000    0.000 
#    0.000    0.667    0.000    7.000    0.000    3.000 
#
# Total GULP energy -594649.318894 kJ/mol
# GULP energy per Si atom -12388.527477 kJ/mol
# Density = 1.739842 g / cm^3
# Si number density = 17.438107 Si / 1000 Ang^3
#
#
#
# Elastic Constant Matrix: (Units=GPa)
#
#
# Indices 1 2 3 4 5 6 
#
# 1 68.9845 31.2913 35.4188 0.0000 0.0000 0.0000
# 2 31.2913 74.3844 37.2481 0.0000 0.0000 0.0000
# 3 35.4188 37.2481 115.2118 0.0000 0.0000 0.0000
# 4 0.0000 0.0000 0.0000 25.7065 0.0000 0.0000
# 5 0.0000 0.0000 0.0000 0.0000 26.8020 0.0000
# 6 0.0000 0.0000 0.0000 0.0000 0.0000 29.1682
#
#
#
# Elastic Compliance Matrix: (Units=1/GPa)
#
#
# Indices 1 2 3 4 5 6 
#
# 1 0.019312 -0.006146 -0.003950 0.000000 0.000000 0.000000
# 2 -0.006146 0.017997 -0.003929 0.000000 0.000000 0.000000
# 3 -0.003950 -0.003929 0.011164 0.000000 0.000000 0.000000
# 4 0.000000 0.000000 0.000000 0.038901 0.000000 0.000000
# 5 0.000000 0.000000 0.000000 0.000000 0.037311 0.000000
# 6 0.000000 0.000000 0.000000 0.000000 0.000000 0.034284
#
#
# Mechanical properties :
#
#
# Convention : Reuss Voigt Hill
#
# Bulk Modulus (GPa) = 48.96449 51.83304 50.39877
# Shear Modulus (GPa) = 25.79648 26.64352 26.22000
#
# Velocity S-wave (km/s) = 3.85036 3.91306 3.88184
# Velocity P-wave (km/s) = 6.92149 7.08552 7.00399
#
# Compressibility (1/GPa) = 0.02042296
#
# Stress axis : x y z
#
# Youngs Moduli (GPa) = 51.78176 55.56633 89.57232
#
# Poissons Ratio (x) = 0.34151 0.35380
# Poissons Ratio (y) = 0.31825 0.35192
# Poissons Ratio (z) = 0.20453 0.21831
#
# Static dielectric constant tensor:
#      x y z
#    x 3.524930 0.000000 0.000000 
#    y 0.000000 3.320440 0.000000 
#    z 0.000000 0.000000 3.440700 
# 
# 
# High freq. dielectric constant tensor:
#      x y z
#    x 1.651180 0.000000 0.000000 
#    y 0.000000 1.649480 0.000000 
#    z 0.000000 0.000000 1.690680 
# 
# From -- ./inp_files/4968.got.cif
#   From: 2010.03.12/outbox.cif.g09.slc.cpg/sg49_3_cif.got.tgz:4968.got - 2010.04.14 03:58:27.
