data_PCOD8203934
_publ_section_title
;
Structure prediction by ZEFSAII (Michael W. Deem and Ramdas Pophale) SiO2 
 PCOD8203934
Probable space group: P C C M
;
_chemical_formula_sum "Si O2"
_cell_formula_units_Z 30
_cell_length_a 14.381267
_cell_length_b 10.581459
_cell_length_c 9.758652
_cell_angle_alpha 90.000000
_cell_angle_beta 90.000000
_cell_angle_gamma 90.000000
_cell_volume 1485.020791
_symmetry_space_group_name_H-M "P C C M"
_symmetry_group_IT_number 49
_symmetry_cell_setting 'orthorhombic'
loop_
_space_group_symop_operation_xyz
x,y,z
-x,-y,z
x,-y,1/2-z
-x,y,1/2-z
-x,-y,-z
x,y,-z
-x,y,1/2+z
x,-y,1/2+z
loop_
_atom_site_type_symbol
_atom_site_label
_atom_site_fract_x
_atom_site_fract_y
_atom_site_fract_z
Si Si1 0.084884 0.762212 0.347467
Si Si2 0.273403 0.376566 0.838836
Si Si3 0.657475 0.169667 0.148427
Si Si4 0.812799 0.000000 0.750000
Si Si5 0.500000 0.000000 0.250000
O O1 0.046315 0.745769 0.500000
O O2 0.166519 0.662262 0.318362
O O3 0.121264 0.905102 0.333084
O O4 0.000000 0.729103 0.250000
O O5 0.293713 0.500000 0.750000
O O6 0.338896 0.267441 0.774999
O O7 0.297934 0.394452 0.000000
O O8 0.747181 0.078005 0.147224
O O9 0.564178 0.087718 0.155640
O O10 0.657901 0.239209 0.000000
#
# Coordination Sequence:
#
# PCOD8203934 Si02
#       5
#     8   8   8   4   2
#     4  10  21  34  51  78 110 145 186 232 279 327
#     4  10  22  40  59  80 109 146 189 233 278 329
#     4  10  20  36  60  86 114 149 184 223 273 327
#     4   9  19  33  53  80 112 148 187 227 275 333
#     4  10  22  36  60  94 124 144 174 216 266 330
#
# _framework density 20.201737000000001
#
# number of rings (size 3 to 8) (size 9 to 14) (size 15 to 20)
#    0.000    2.133    0.000    2.400    0.000   15.467 
#    0.000    3.333    0.000    3.200    0.000    0.000 
#    0.000    0.000    0.000    0.000    0.000    0.000 
#
# Total GULP energy -371929.206328 kJ/mol
# GULP energy per Si atom -12397.640211 kJ/mol
# Density = 2.015576 g / cm^3
# Si number density = 20.201737 Si / 1000 Ang^3
#
#
#
# Elastic Constant Matrix: (Units=GPa)
#
#
# Indices 1 2 3 4 5 6 
#
# 1 83.7717 24.8963 52.0059 0.0000 0.0000 0.0000
# 2 24.8963 94.2778 56.6541 0.0000 0.0000 0.0000
# 3 52.0059 56.6541 169.7597 0.0000 0.0000 0.0000
# 4 0.0000 0.0000 0.0000 32.2396 0.0000 0.0000
# 5 0.0000 0.0000 0.0000 0.0000 6.8796 0.0000
# 6 0.0000 0.0000 0.0000 0.0000 0.0000 11.3705
#
#
#
# Elastic Compliance Matrix: (Units=1/GPa)
#
#
# Indices 1 2 3 4 5 6 
#
# 1 0.014906 -0.001491 -0.004069 0.000000 0.000000 0.000000
# 2 -0.001491 0.013417 -0.004021 0.000000 0.000000 0.000000
# 3 -0.004069 -0.004021 0.008479 0.000000 0.000000 0.000000
# 4 0.000000 0.000000 0.000000 0.031018 0.000000 0.000000
# 5 0.000000 0.000000 0.000000 0.000000 0.145358 0.000000
# 6 0.000000 0.000000 0.000000 0.000000 0.000000 0.087947
#
#
# Mechanical properties :
#
#
# Convention : Reuss Voigt Hill
#
# Bulk Modulus (GPa) = 56.68786 68.32465 62.50626
# Shear Modulus (GPa) = 15.32957 24.38146 19.85551
#
# Velocity S-wave (km/s) = 2.75767 3.47781 3.13846
# Velocity P-wave (km/s) = 6.18558 7.07259 6.64390
#
# Compressibility (1/GPa) = 0.01764046
#
# Stress axis : x y z
#
# Youngs Moduli (GPa) = 67.08529 74.53246 117.93771
#
# Poissons Ratio (x) = 0.11115 0.47988
# Poissons Ratio (y) = 0.10004 0.47420
# Poissons Ratio (z) = 0.27296 0.29968
#
# Static dielectric constant tensor:
#      x y z
#    x 3.529220 0.000000 0.000000 
#    y 0.000000 3.572800 0.000000 
#    z 0.000000 0.000000 3.687880 
# 
# 
# High freq. dielectric constant tensor:
#      x y z
#    x 1.777990 0.000000 0.000000 
#    y 0.000000 1.778300 0.000000 
#    z 0.000000 0.000000 1.796290 
# 
# From -- ./inp_files/2485.got.cif
#   From: 2010.03.12/outbox.cif.g09.slc.cpg/sg49_2_cif.got.tgz:2485.got - 2010.04.14 03:58:27.
