data_PCOD8203943
_publ_section_title
;
Structure prediction by ZEFSAII (Michael W. Deem and Ramdas Pophale) SiO2 
 PCOD8203943
Probable space group: P C C M
;
_chemical_formula_sum "Si O2"
_cell_formula_units_Z 26
_cell_length_a 9.744095
_cell_length_b 7.058314
_cell_length_c 18.833435
_cell_angle_alpha 90.000000
_cell_angle_beta 90.000000
_cell_angle_gamma 90.000000
_cell_volume 1295.304940
_symmetry_space_group_name_H-M "P C C M"
_symmetry_group_IT_number 49
_symmetry_cell_setting 'orthorhombic'
loop_
_space_group_symop_operation_xyz
x,y,z
-x,-y,z
x,-y,1/2-z
-x,y,1/2-z
-x,-y,-z
x,y,-z
-x,y,1/2+z
x,-y,1/2+z
loop_
_atom_site_type_symbol
_atom_site_label
_atom_site_fract_x
_atom_site_fract_y
_atom_site_fract_z
Si Si1 0.878497 0.756896 0.369772
Si Si2 0.350620 0.971536 0.417649
Si Si3 0.000000 0.000000 0.750000
Si Si4 0.838994 0.353234 0.417966
O O1 0.843379 0.532907 0.365133
O O2 0.901027 0.860680 0.294607
O O3 0.020853 0.771239 0.413842
O O4 0.748779 0.850186 0.408053
O O5 0.373353 0.937084 0.500000
O O6 0.281942 0.779469 0.387825
O O7 0.500000 0.000000 0.380856
O O8 0.818811 0.417213 0.500000
#
# Coordination Sequence:
#
# PCOD8203943 Si02
#       4
#     8   8   2   8
#     4  11  21  38  56  87 117 156 204 248 290 351
#     4  10  20  36  60  91 125 154 187 243 308 363
#     4  12  24  38  60  84 114 172 206 256 288 340
#     4  10  20  36  63  92 117 151 194 255 313 351
#
# _framework density 20.072495
#
# number of rings (size 3 to 8) (size 9 to 14) (size 15 to 20)
#    0.000    1.538    3.077    3.692    0.000    6.154 
#    0.000    5.385    0.000    0.000   16.000    0.000 
#    0.000    0.000    0.000    0.000    0.000    0.000 
#
# Total GULP energy -322199.075487 kJ/mol
# GULP energy per Si atom -12392.272134 kJ/mol
# Density = 2.002681 g / cm^3
# Si number density = 20.072495 Si / 1000 Ang^3
#
#
#
# Elastic Constant Matrix: (Units=GPa)
#
#
# Indices 1 2 3 4 5 6 
#
# 1 171.4993 94.4950 14.2079 0.0000 0.0000 0.0000
# 2 94.4950 146.4563 44.2122 0.0000 0.0000 0.0000
# 3 14.2079 44.2122 43.1763 0.0000 0.0000 0.0000
# 4 0.0000 0.0000 0.0000 40.1229 0.0000 0.0000
# 5 0.0000 0.0000 0.0000 0.0000 9.7978 0.0000
# 6 0.0000 0.0000 0.0000 0.0000 0.0000 26.4943
#
#
#
# Elastic Compliance Matrix: (Units=1/GPa)
#
#
# Indices 1 2 3 4 5 6 
#
# 1 0.009647 -0.007622 0.004631 0.000000 0.000000 0.000000
# 2 -0.007622 0.015906 -0.013779 0.000000 0.000000 0.000000
# 3 0.004631 -0.013779 0.035747 0.000000 0.000000 0.000000
# 4 0.000000 0.000000 0.000000 0.024923 0.000000 0.000000
# 5 0.000000 0.000000 0.000000 0.000000 0.102064 0.000000
# 6 0.000000 0.000000 0.000000 0.000000 0.000000 0.037744
#
#
# Mechanical properties :
#
#
# Convention : Reuss Voigt Hill
#
# Bulk Modulus (GPa) = 36.02555 74.10689 55.06622
# Shear Modulus (GPa) = 18.59948 29.16411 23.88180
#
# Velocity S-wave (km/s) = 3.04734 3.81588 3.45306
# Velocity P-wave (km/s) = 5.51075 7.51095 6.58721
#
# Compressibility (1/GPa) = 0.02775808
#
# Stress axis : x y z
#
# Youngs Moduli (GPa) = 103.65749 62.87119 27.97475
#
# Poissons Ratio (x) = 0.47922 -0.12954
# Poissons Ratio (y) = 0.79011 0.38546
# Poissons Ratio (z) = -0.48000 0.86629
#
# Static dielectric constant tensor:
#      x y z
#    x 4.138620 0.000000 0.000000 
#    y 0.000000 3.828920 0.000000 
#    z 0.000000 0.000000 3.279520 
# 
# 
# High freq. dielectric constant tensor:
#      x y z
#    x 1.779680 0.000000 0.000000 
#    y 0.000000 1.799330 0.000000 
#    z 0.000000 0.000000 1.738800 
# 
# From -- ./inp_files/15724.got.cif
#   From: 2010.03.12/outbox.cif.g09.slc.cpg/sg49_8_cif.got.tgz:15724.got - 2010.04.14 03:58:27.
