data_PCOD8203883
_publ_section_title
;
Structure prediction by ZEFSAII (Michael W. Deem and Ramdas Pophale) SiO2 
 PCOD8203883
Probable space group: P C C M
;
_chemical_formula_sum "Si O2"
_cell_formula_units_Z 60
_cell_length_a 6.373435
_cell_length_b 19.088842
_cell_length_c 27.046018
_cell_angle_alpha 90.000000
_cell_angle_beta 90.000000
_cell_angle_gamma 90.000000
_cell_volume 3290.458949
_symmetry_space_group_name_H-M "P C C M"
_symmetry_group_IT_number 49
_symmetry_cell_setting 'orthorhombic'
loop_
_space_group_symop_operation_xyz
x,y,z
-x,-y,z
x,-y,1/2-z
-x,y,1/2-z
-x,-y,-z
x,y,-z
-x,y,1/2+z
x,-y,1/2+z
loop_
_atom_site_type_symbol
_atom_site_label
_atom_site_fract_x
_atom_site_fract_y
_atom_site_fract_z
Si Si1 0.864256 0.090149 0.446238
Si Si2 0.015724 0.580289 0.190567
Si Si3 0.624912 0.332263 0.203825
Si Si4 0.921480 0.209602 0.799901
Si Si5 0.572761 0.777038 0.055854
Si Si6 0.736656 0.129821 0.114958
Si Si7 0.500000 0.000000 0.408086
Si Si8 0.753361 0.298861 0.643213
O O1 0.968598 0.079477 0.500000
O O2 0.734524 0.160609 0.445851
O O3 0.705811 0.024299 0.438791
O O4 0.050710 0.096531 0.406909
O O5 0.250699 0.605185 0.176244
O O6 0.000000 0.500000 0.174805
O O7 0.000000 0.591339 0.250000
O O8 0.849725 0.624999 0.157728
O O9 0.500000 0.364831 0.250000
O O10 0.795159 0.275871 0.222216
O O11 0.473448 0.291897 0.167378
O O12 0.776575 0.156867 0.829879
O O13 0.000000 0.170804 0.750000
O O14 0.101965 0.235965 0.837327
O O15 0.358642 0.806641 0.081496
O O16 0.693312 0.714057 0.085521
O O17 0.519220 0.750828 0.000000
O O18 0.569036 0.067588 0.123552
#
# Coordination Sequence:
#
# PCOD8203883 Si02
#       8
#     8   8   8   8   8   8   4   8
#     4  10  20  36  57  80 109 141 179 229 287 339
#     4  10  21  34  50  83 121 152 186 222 271 339
#     4  11  18  33  56  82 113 146 181 225 275 326
#     4  11  21  33  57  87 107 142 189 232 277 335
#     4  10  21  35  56  87 113 141 185 230 286 344
#     4  11  21  36  55  81 112 143 182 233 285 334
#     4  10  23  36  54  77 106 148 184 219 283 346
#     4  11  19  35  56  81 113 146 184 226 279 329
#
# _framework density 18.234537
#
# number of rings (size 3 to 8) (size 9 to 14) (size 15 to 20)
#    0.000    1.467    5.333    1.800    0.000    2.667 
#    0.000    0.000    0.000    2.800    0.000    0.933 
#    0.000    0.000    0.000    0.000    0.000    0.000 
#
# Total GULP energy -743386.173815 kJ/mol
# GULP energy per Si atom -12389.769564 kJ/mol
# Density = 1.819303 g / cm^3
# Si number density = 18.234537 Si / 1000 Ang^3
#
#
#
# Elastic Constant Matrix: (Units=GPa)
#
#
# Indices 1 2 3 4 5 6 
#
# 1 84.0224 27.0251 34.4615 0.0000 0.0000 0.0000
# 2 27.0251 85.9152 47.0190 0.0000 0.0000 0.0000
# 3 34.4615 47.0190 114.6277 0.0000 0.0000 0.0000
# 4 0.0000 0.0000 0.0000 15.1744 0.0000 0.0000
# 5 0.0000 0.0000 0.0000 0.0000 26.2940 0.0000
# 6 0.0000 0.0000 0.0000 0.0000 0.0000 15.5403
#
#
#
# Elastic Compliance Matrix: (Units=1/GPa)
#
#
# Indices 1 2 3 4 5 6 
#
# 1 0.014051 -0.002718 -0.003109 0.000000 0.000000 0.000000
# 2 -0.002718 0.015534 -0.005555 0.000000 0.000000 0.000000
# 3 -0.003109 -0.005555 0.011937 0.000000 0.000000 0.000000
# 4 0.000000 0.000000 0.000000 0.065900 0.000000 0.000000
# 5 0.000000 0.000000 0.000000 0.000000 0.038032 0.000000
# 6 0.000000 0.000000 0.000000 0.000000 0.000000 0.064349
#
#
# Mechanical properties :
#
#
# Convention : Reuss Voigt Hill
#
# Bulk Modulus (GPa) = 53.31057 55.73071 54.52064
# Shear Modulus (GPa) = 20.93619 23.13906 22.03763
#
# Velocity S-wave (km/s) = 3.39213 3.56612 3.48021
# Velocity P-wave (km/s) = 6.68143 6.89826 6.79071
#
# Compressibility (1/GPa) = 0.01875801
#
# Stress axis : x y z
#
# Youngs Moduli (GPa) = 71.16844 64.37318 83.77159
#
# Poissons Ratio (x) = 0.17498 0.26048
# Poissons Ratio (y) = 0.19345 0.46534
# Poissons Ratio (z) = 0.22129 0.35758
#
# Static dielectric constant tensor:
#      x y z
#    x 3.639950 0.000000 0.000000 
#    y 0.000000 3.219180 0.000000 
#    z 0.000000 0.000000 3.352450 
# 
# 
# High freq. dielectric constant tensor:
#      x y z
#    x 1.727480 0.000000 0.000000 
#    y 0.000000 1.683620 0.000000 
#    z 0.000000 0.000000 1.678350 
# 
# From -- ./inp_files/21926.got.cif
#   From: 2010.03.12/outbox.cif.g09.slc.cpg/sg49_11_cif.got.tgz:21926.got - 2010.04.14 03:58:27.
