data_PCOD8203106
_publ_section_title
;
Structure prediction by ZEFSAII (Michael W. Deem and Ramdas Pophale) SiO2 
 PCOD8203106
Probable space group: P C C M
;
_chemical_formula_sum "Si O2"
_cell_formula_units_Z 56
_cell_length_a 30.986739
_cell_length_b 5.115714
_cell_length_c 16.414250
_cell_angle_alpha 90.000000
_cell_angle_beta 90.000000
_cell_angle_gamma 90.000000
_cell_volume 2601.975330
_symmetry_space_group_name_H-M "P C C M"
_symmetry_group_IT_number 49
_symmetry_cell_setting 'orthorhombic'
loop_
_space_group_symop_operation_xyz
x,y,z
-x,-y,z
x,-y,1/2-z
-x,y,1/2-z
-x,-y,-z
x,y,-z
-x,y,1/2+z
x,-y,1/2+z
loop_
_atom_site_type_symbol
_atom_site_label
_atom_site_fract_x
_atom_site_fract_y
_atom_site_fract_z
Si Si1 0.265044 0.562423 0.842978
Si Si2 0.403876 0.947063 0.656687
Si Si3 0.171831 0.324965 0.595997
Si Si4 0.449562 0.458958 0.406271
Si Si5 0.689879 0.953962 0.093133
Si Si6 0.974423 0.749936 0.097028
Si Si7 0.877807 0.177348 0.402618
O O1 0.256474 0.500000 0.750000
O O2 0.221814 0.678127 0.882031
O O3 0.282333 0.303490 0.887063
O O4 0.298931 0.798248 0.850384
O O5 0.427532 0.670367 0.651677
O O6 0.360597 0.907879 0.605027
O O7 0.392134 0.000000 0.750000
O O8 0.434726 0.170248 0.619975
O O9 0.166987 0.313228 0.500000
O O10 0.150920 0.586877 0.631237
O O11 0.144916 0.082180 0.633221
O O12 0.500000 0.500000 0.393918
O O13 0.436366 0.505524 0.500000
O O14 0.699470 0.028835 0.000000
O O15 0.925989 0.777704 0.131580
O O16 0.000000 0.500000 0.132473
O O17 0.972993 0.732699 0.000000
O O18 0.000000 0.000000 0.128163
O O19 0.878889 0.167769 0.500000
#
# Coordination Sequence:
#
# PCOD8203106 Si02
#       7
#     8   8   8   8   8   8   8
#     4  12  25  42  63  91 123 155 198 254 309 359
#     4  12  25  42  65  95 129 163 204 256 310 362
#     4  10  19  33  52  75 106 146 190 232 284 348
#     4  11  24  43  66  93 127 168 212 255 303 363
#     4  12  25  44  67  91 122 162 205 246 301 370
#     4   9  15  23  37  61  97 138 177 222 281 338
#     4   9  17  28  45  70 102 142 187 232 279 341
#
# _framework density 21.522109
#
# number of rings (size 3 to 8) (size 9 to 14) (size 15 to 20)
#    0.000    1.286    0.000    7.286    0.000    7.429 
#    0.000    0.000    0.000    0.000    0.000    0.000 
#    0.000    8.571    0.000    0.000    0.000    0.000 
#
# Total GULP energy -694540.639225 kJ/mol
# GULP energy per Si atom -12402.511415 kJ/mol
# Density = 2.147312 g / cm^3
# Si number density = 21.522109 Si / 1000 Ang^3
#
#
#
# Elastic Constant Matrix: (Units=GPa)
#
#
# Indices 1 2 3 4 5 6 
#
# 1 118.7478 53.9147 17.6771 0.0000 0.0000 0.0000
# 2 53.9147 153.2063 20.2784 0.0000 0.0000 0.0000
# 3 17.6771 20.2784 27.0346 0.0000 0.0000 0.0000
# 4 0.0000 0.0000 0.0000 21.6969 0.0000 0.0000
# 5 0.0000 0.0000 0.0000 0.0000 9.9331 0.0000
# 6 0.0000 0.0000 0.0000 0.0000 0.0000 46.3216
#
#
#
# Elastic Compliance Matrix: (Units=1/GPa)
#
#
# Indices 1 2 3 4 5 6 
#
# 1 0.010503 -0.003094 -0.004547 0.000000 0.000000 0.000000
# 2 -0.003094 0.008158 -0.004096 0.000000 0.000000 0.000000
# 3 -0.004547 -0.004096 0.043035 0.000000 0.000000 0.000000
# 4 0.000000 0.000000 0.000000 0.046090 0.000000 0.000000
# 5 0.000000 0.000000 0.000000 0.000000 0.100674 0.000000
# 6 0.000000 0.000000 0.000000 0.000000 0.000000 0.021588
#
#
# Mechanical properties :
#
#
# Convention : Reuss Voigt Hill
#
# Bulk Modulus (GPa) = 26.16286 53.63655 39.89971
# Shear Modulus (GPa) = 18.77849 29.39822 24.08835
#
# Velocity S-wave (km/s) = 2.95705 3.69989 3.34913
# Velocity P-wave (km/s) = 4.88278 6.57480 5.79092
#
# Compressibility (1/GPa) = 0.03822212
#
# Stress axis : x y z
#
# Youngs Moduli (GPa) = 95.21170 122.57571 23.23696
#
# Poissons Ratio (x) = 0.37929 0.10565
# Poissons Ratio (y) = 0.29461 0.09518
# Poissons Ratio (z) = 0.43288 0.50209
#
# Static dielectric constant tensor:
#      x y z
#    x 4.067440 0.000000 0.000000 
#    y 0.000000 4.158610 0.000000 
#    z 0.000000 0.000000 3.548060 
# 
# 
# High freq. dielectric constant tensor:
#      x y z
#    x 1.861440 0.000000 0.000000 
#    y 0.000000 1.864050 0.000000 
#    z 0.000000 0.000000 1.813270 
# 
# From -- ./inp_files/14628.got.cif
#   From: 2010.03.12/outbox.cif.g09.slc.cpg/sg49_8_cif.got.tgz:14628.got - 2010.04.14 03:58:27.
