data_PCOD8203132
_publ_section_title
;
Structure prediction by ZEFSAII (Michael W. Deem and Ramdas Pophale) SiO2 
 PCOD8203132
Probable space group: P C C M
;
_chemical_formula_sum "Si O2"
_cell_formula_units_Z 56
_cell_length_a 22.482296
_cell_length_b 14.851068
_cell_length_c 8.703267
_cell_angle_alpha 90.000000
_cell_angle_beta 90.000000
_cell_angle_gamma 90.000000
_cell_volume 2905.899934
_symmetry_space_group_name_H-M "P C C M"
_symmetry_group_IT_number 49
_symmetry_cell_setting 'orthorhombic'
loop_
_space_group_symop_operation_xyz
x,y,z
-x,-y,z
x,-y,1/2-z
-x,y,1/2-z
-x,-y,-z
x,y,-z
-x,y,1/2+z
x,-y,1/2+z
loop_
_atom_site_type_symbol
_atom_site_label
_atom_site_fract_x
_atom_site_fract_y
_atom_site_fract_z
Si Si1 0.790933 0.592080 0.680531
Si Si2 0.560638 0.725516 0.817965
Si Si3 0.398747 0.094651 0.316977
Si Si4 0.655416 0.593826 0.317587
Si Si5 0.159870 0.220518 0.319462
Si Si6 0.935715 0.093973 0.681458
Si Si7 0.736086 0.091161 0.178971
O O1 0.817394 0.500000 0.750000
O O2 0.790567 0.581861 0.500000
O O3 0.723416 0.608618 0.737325
O O4 0.833075 0.675181 0.729899
O O5 0.500000 0.682427 0.750000
O O6 0.562489 0.828527 0.762430
O O7 0.617346 0.674467 0.750837
O O8 0.560193 0.718593 0.000000
O O9 0.406459 0.097956 0.500000
O O10 0.330549 0.110593 0.263298
O O11 0.421778 0.000000 0.250000
O O12 0.631072 0.500000 0.250000
O O13 0.649348 0.594170 0.500000
O O14 0.146517 0.210062 0.500000
O O15 0.106651 0.176761 0.224292
O O16 0.221921 0.173567 0.274109
O O17 0.940478 0.084157 0.500000
O O18 0.000000 0.115640 0.750000
O O19 0.910709 0.000000 0.750000
O O20 0.762501 0.000000 0.250000
O O21 0.735279 0.075520 0.000000
#
# Coordination Sequence:
#
# PCOD8203132 Si02
#       7
#     8   8   8   8   8   8   8
#     4   9  19  35  57  83 114 146 179 220 269 321
#     4  12  25  40  57  79 104 137 179 225 272 324
#     4  10  20  37  57  79 107 141 178 220 268 323
#     4  10  20  38  61  86 113 143 176 217 269 327
#     4  10  19  33  53  80 112 147 182 222 268 316
#     4  11  22  37  56  80 111 150 190 230 270 316
#     4   9  18  31  50  76 108 140 172 211 263 319
#
# _framework density 19.271139000000002
#
# number of rings (size 3 to 8) (size 9 to 14) (size 15 to 20)
#    0.000    1.857    0.000    5.143    0.000    6.286 
#    0.000    4.286    0.000    0.429    0.000    3.000 
#    0.000    0.000    0.000    0.000    0.000    0.000 
#
# Total GULP energy -694549.651097 kJ/mol
# GULP energy per Si atom -12402.672341 kJ/mol
# Density = 1.922728 g / cm^3
# Si number density = 19.271139 Si / 1000 Ang^3
#
#
#
# Elastic Constant Matrix: (Units=GPa)
#
#
# Indices 1 2 3 4 5 6 
#
# 1 69.1502 46.6935 35.0982 0.0000 0.0000 0.0000
# 2 46.6935 130.3342 44.5666 0.0000 0.0000 0.0000
# 3 35.0982 44.5666 96.8816 0.0000 0.0000 0.0000
# 4 0.0000 0.0000 0.0000 36.0691 0.0000 0.0000
# 5 0.0000 0.0000 0.0000 0.0000 25.4319 0.0000
# 6 0.0000 0.0000 0.0000 0.0000 0.0000 24.9409
#
#
#
# Elastic Compliance Matrix: (Units=1/GPa)
#
#
# Indices 1 2 3 4 5 6 
#
# 1 0.020860 -0.005802 -0.004888 0.000000 0.000000 0.000000
# 2 -0.005802 0.010718 -0.002829 0.000000 0.000000 0.000000
# 3 -0.004888 -0.002829 0.013394 0.000000 0.000000 0.000000
# 4 0.000000 0.000000 0.000000 0.027725 0.000000 0.000000
# 5 0.000000 0.000000 0.000000 0.000000 0.039321 0.000000
# 6 0.000000 0.000000 0.000000 0.000000 0.000000 0.040095
#
#
# Mechanical properties :
#
#
# Convention : Reuss Voigt Hill
#
# Bulk Modulus (GPa) = 55.75720 61.00917 58.38319
# Shear Modulus (GPa) = 27.00828 28.62221 27.81525
#
# Velocity S-wave (km/s) = 3.74771 3.85806 3.80328
# Velocity P-wave (km/s) = 6.90818 7.18145 7.04614
#
# Compressibility (1/GPa) = 0.01793490
#
# Stress axis : x y z
#
# Youngs Moduli (GPa) = 47.93853 93.29760 74.66009
#
# Poissons Ratio (x) = 0.54129 0.36496
# Poissons Ratio (y) = 0.27813 0.21119
# Poissons Ratio (z) = 0.23434 0.26391
#
# Static dielectric constant tensor:
#      x y z
#    x 3.500100 0.000000 0.000000 
#    y 0.000000 3.598370 0.000000 
#    z 0.000000 0.000000 3.502910 
# 
# 
# High freq. dielectric constant tensor:
#      x y z
#    x 1.735580 0.000000 0.000000 
#    y 0.000000 1.752350 0.000000 
#    z 0.000000 0.000000 1.752210 
# 
# From -- ./inp_files/4058.got.cif
#   From: 2010.03.12/outbox.cif.g09.slc.cpg/sg49_3_cif.got.tgz:4058.got - 2010.04.14 03:58:27.
