data_PCOD8203157
_publ_section_title
;
Structure prediction by ZEFSAII (Michael W. Deem and Ramdas Pophale) SiO2 
 PCOD8203157
Probable space group: P C C M
;
_chemical_formula_sum "Si O2"
_cell_formula_units_Z 58
_cell_length_a 21.857850
_cell_length_b 15.308102
_cell_length_c 8.956642
_cell_angle_alpha 90.000000
_cell_angle_beta 90.000000
_cell_angle_gamma 90.000000
_cell_volume 2996.912094
_symmetry_space_group_name_H-M "P C C M"
_symmetry_group_IT_number 49
_symmetry_cell_setting 'orthorhombic'
loop_
_space_group_symop_operation_xyz
x,y,z
-x,-y,z
x,-y,1/2-z
-x,y,1/2-z
-x,-y,-z
x,y,-z
-x,y,1/2+z
x,-y,1/2+z
loop_
_atom_site_type_symbol
_atom_site_label
_atom_site_fract_x
_atom_site_fract_y
_atom_site_fract_z
Si Si1 0.409260 0.636894 0.164754
Si Si2 0.657999 0.087253 0.827010
Si Si3 0.801188 0.911299 0.672678
Si Si4 0.064635 0.409250 0.678148
Si Si5 0.500000 0.500000 0.250000
Si Si6 0.829036 0.721592 0.676279
Si Si7 0.560358 0.801867 0.174635
Si Si8 0.272880 0.410398 0.324065
O O1 0.454787 0.555808 0.145863
O O2 0.438983 0.699208 0.289428
O O3 0.342499 0.608371 0.221992
O O4 0.403802 0.681689 0.000000
O O5 0.729378 0.100348 0.798538
O O6 0.622781 0.165415 0.748298
O O7 0.633554 0.000000 0.750000
O O8 0.641475 0.084067 0.000000
O O9 0.816709 0.922974 0.500000
O O10 0.831445 0.821810 0.738833
O O11 0.826099 0.000000 0.750000
O O12 0.088451 0.500000 0.750000
O O13 0.059019 0.420714 0.500000
O O14 0.110176 0.330882 0.722136
O O15 0.000000 0.383757 0.750000
O O16 0.822700 0.729762 0.500000
O O17 0.769863 0.668675 0.736099
O O18 0.500000 0.845038 0.250000
O O19 0.558678 0.820547 0.000000
O O20 0.250237 0.500000 0.250000
O O21 0.264980 0.421641 0.500000
#
# Coordination Sequence:
#
# PCOD8203157 Si02
#       8
#     8   8   8   8   2   8   8   8
#     4  11  23  38  56  77 105 139 178 221 271 326
#     4  10  20  37  60  83 109 137 170 212 266 325
#     4   9  18  35  58  82 109 140 177 221 269 324
#     4  10  19  33  54  81 114 154 193 229 268 315
#     4  12  22  36  60  78 100 136 180 216 270 324
#     4   9  18  33  55  80 111 148 183 221 272 325
#     4  12  25  39  56  77 102 132 173 219 270 326
#     4  10  20  35  53  77 107 141 178 220 271 325
#
# _framework density 19.353252999999999
#
# number of rings (size 3 to 8) (size 9 to 14) (size 15 to 20)
#    0.000    1.793    1.379    3.931    0.000    4.138 
#    0.000    4.138    0.000    0.414    0.000    2.897 
#    0.000    0.000    0.000    0.000    0.000    0.000 
#
# Total GULP energy -719048.288412 kJ/mol
# GULP energy per Si atom -12397.384283 kJ/mol
# Density = 1.930920 g / cm^3
# Si number density = 19.353253 Si / 1000 Ang^3
#
#
#
# Elastic Constant Matrix: (Units=GPa)
#
#
# Indices 1 2 3 4 5 6 
#
# 1 94.8258 64.7021 34.6823 0.0000 0.0000 0.0000
# 2 64.7021 149.6276 39.5668 0.0000 0.0000 0.0000
# 3 34.6823 39.5668 86.8368 0.0000 0.0000 0.0000
# 4 0.0000 0.0000 0.0000 30.6465 0.0000 0.0000
# 5 0.0000 0.0000 0.0000 0.0000 19.5007 0.0000
# 6 0.0000 0.0000 0.0000 0.0000 0.0000 26.9911
#
#
#
# Elastic Compliance Matrix: (Units=1/GPa)
#
#
# Indices 1 2 3 4 5 6 
#
# 1 0.015923 -0.005916 -0.003664 0.000000 0.000000 0.000000
# 2 -0.005916 0.009797 -0.002101 0.000000 0.000000 0.000000
# 3 -0.003664 -0.002101 0.013936 0.000000 0.000000 0.000000
# 4 0.000000 0.000000 0.000000 0.032630 0.000000 0.000000
# 5 0.000000 0.000000 0.000000 0.000000 0.051280 0.000000
# 6 0.000000 0.000000 0.000000 0.000000 0.000000 0.037049
#
#
# Mechanical properties :
#
#
# Convention : Reuss Voigt Hill
#
# Bulk Modulus (GPa) = 61.37233 67.68806 64.53020
# Shear Modulus (GPa) = 26.39784 28.25026 27.32405
#
# Velocity S-wave (km/s) = 3.69724 3.82477 3.76155
# Velocity P-wave (km/s) = 7.07154 7.38621 7.23059
#
# Compressibility (1/GPa) = 0.01629399
#
# Stress axis : x y z
#
# Youngs Moduli (GPa) = 62.80397 102.06938 71.75444
#
# Poissons Ratio (x) = 0.60389 0.26288
# Poissons Ratio (y) = 0.37158 0.15076
# Poissons Ratio (z) = 0.23009 0.21445
#
# Static dielectric constant tensor:
#      x y z
#    x 3.471920 0.000000 0.000000 
#    y 0.000000 3.844410 0.000000 
#    z 0.000000 0.000000 3.378000 
# 
# 
# High freq. dielectric constant tensor:
#      x y z
#    x 1.740360 0.000000 0.000000 
#    y 0.000000 1.757650 0.000000 
#    z 0.000000 0.000000 1.739100 
# 
# From -- ./inp_files/6449.got.cif
#   From: 2010.03.12/outbox.cif.g09.slc.cpg/sg49_4_cif.got.tgz:6449.got - 2010.04.14 03:58:27.
