data_PCOD8203616
_publ_section_title
;
Structure prediction by ZEFSAII (Michael W. Deem and Ramdas Pophale) SiO2 
 PCOD8203616
Probable space group: P C C M
;
_chemical_formula_sum "Si O2"
_cell_formula_units_Z 48
_cell_length_a 23.543853
_cell_length_b 13.661733
_cell_length_c 8.627304
_cell_angle_alpha 90.000000
_cell_angle_beta 90.000000
_cell_angle_gamma 90.000000
_cell_volume 2774.970895
_symmetry_space_group_name_H-M "P C C M"
_symmetry_group_IT_number 49
_symmetry_cell_setting 'orthorhombic'
loop_
_space_group_symop_operation_xyz
x,y,z
-x,-y,z
x,-y,1/2-z
-x,y,1/2-z
-x,-y,-z
x,y,-z
-x,y,1/2+z
x,-y,1/2+z
loop_
_atom_site_type_symbol
_atom_site_label
_atom_site_fract_x
_atom_site_fract_y
_atom_site_fract_z
Si Si1 0.059579 0.104257 0.319200
Si Si2 0.770001 0.602359 0.181670
Si Si3 0.664770 0.289783 0.182657
Si Si4 0.722703 0.105673 0.682306
Si Si5 0.161469 0.791816 0.677915
Si Si6 0.560679 0.604786 0.183405
O O1 0.051888 0.091376 0.500000
O O2 0.107643 0.184196 0.283988
O O3 0.000000 0.140958 0.250000
O O4 0.078138 0.000000 0.250000
O O5 0.791886 0.500000 0.250000
O O6 0.712209 0.632493 0.266108
O O7 0.819228 0.681285 0.214663
O O8 0.757004 0.595126 0.000000
O O9 0.680995 0.180641 0.233074
O O10 0.605890 0.314319 0.265894
O O11 0.656847 0.295495 0.000000
O O12 0.710782 0.109839 0.500000
O O13 0.787638 0.134045 0.718829
O O14 0.709426 0.000000 0.750000
O O15 0.143252 0.803528 0.500000
O O16 0.579611 0.500000 0.250000
O O17 0.500000 0.637105 0.250000
O O18 0.556922 0.597477 0.000000
#
# Coordination Sequence:
#
# PCOD8203616 Si02
#       6
#     8   8   8   8   8   8
#     4  11  21  33  51  73 100 131 165 203 247 295
#     4  10  20  34  52  75 103 134 167 207 250 298
#     4  11  21  34  52  75 103 136 171 208 250 297
#     4  10  20  34  52  76 104 135 168 207 251 298
#     4   9  19  34  51  73 102 132 165 203 247 295
#     4  11  21  35  53  76 104 134 169 208 252 301
#
# _framework density 17.297477000000001
#
# number of rings (size 3 to 8) (size 9 to 14) (size 15 to 20)
#    0.000    1.667    0.000    8.500    0.000    5.333 
#    0.000    0.000    0.000    1.000    0.000    7.000 
#    0.000    0.000    0.000    0.000    0.000    0.000 
#
# Total GULP energy -595428.612629 kJ/mol
# GULP energy per Si atom -12404.762763 kJ/mol
# Density = 1.725811 g / cm^3
# Si number density = 17.297477 Si / 1000 Ang^3
#
#
#
# Elastic Constant Matrix: (Units=GPa)
#
#
# Indices 1 2 3 4 5 6 
#
# 1 107.4942 54.4175 53.9299 0.0000 0.0000 0.0000
# 2 54.4175 108.4283 44.3207 0.0000 0.0000 0.0000
# 3 53.9299 44.3207 140.6272 0.0000 0.0000 0.0000
# 4 0.0000 0.0000 0.0000 31.1814 0.0000 0.0000
# 5 0.0000 0.0000 0.0000 0.0000 29.4125 0.0000
# 6 0.0000 0.0000 0.0000 0.0000 0.0000 28.4426
#
#
#
# Elastic Compliance Matrix: (Units=1/GPa)
#
#
# Indices 1 2 3 4 5 6 
#
# 1 0.013891 -0.005503 -0.003593 0.000000 0.000000 0.000000
# 2 -0.005503 0.012767 -0.001913 0.000000 0.000000 0.000000
# 3 -0.003593 -0.001913 0.009092 0.000000 0.000000 0.000000
# 4 0.000000 0.000000 0.000000 0.032070 0.000000 0.000000
# 5 0.000000 0.000000 0.000000 0.000000 0.033999 0.000000
# 6 0.000000 0.000000 0.000000 0.000000 0.000000 0.035159
#
#
# Mechanical properties :
#
#
# Convention : Reuss Voigt Hill
#
# Bulk Modulus (GPa) = 72.82569 73.54288 73.18429
# Shear Modulus (GPa) = 30.56740 31.39940 30.98340
#
# Velocity S-wave (km/s) = 4.20832 4.26521 4.23686
# Velocity P-wave (km/s) = 8.11213 8.17709 8.14467
#
# Compressibility (1/GPa) = 0.01373142
#
# Stress axis : x y z
#
# Youngs Moduli (GPa) = 71.98790 78.32969 109.98917
#
# Poissons Ratio (x) = 0.43105 0.39517
# Poissons Ratio (y) = 0.39615 0.21043
# Poissons Ratio (z) = 0.25864 0.14986
#
# Static dielectric constant tensor:
#      x y z
#    x 3.137260 0.000000 0.000000 
#    y 0.000000 3.108930 0.000000 
#    z 0.000000 0.000000 3.337970 
# 
# 
# High freq. dielectric constant tensor:
#      x y z
#    x 1.658240 0.000000 0.000000 
#    y 0.000000 1.658870 0.000000 
#    z 0.000000 0.000000 1.688270 
# 
# From -- ./inp_files/2906.got.cif
#   From: 2010.03.12/outbox.cif.g09.slc.cpg/sg49_2_cif.got.tgz:2906.got - 2010.04.14 03:58:27.
