data_PCOD8203477
_publ_section_title
;
Structure prediction by ZEFSAII (Michael W. Deem and Ramdas Pophale) SiO2 
 PCOD8203477
Probable space group: P C C M
;
_chemical_formula_sum "Si O2"
_cell_formula_units_Z 56
_cell_length_a 22.509555
_cell_length_b 14.885682
_cell_length_c 8.961999
_cell_angle_alpha 90.000000
_cell_angle_beta 90.000000
_cell_angle_gamma 90.000000
_cell_volume 3002.897701
_symmetry_space_group_name_H-M "P C C M"
_symmetry_group_IT_number 49
_symmetry_cell_setting 'orthorhombic'
loop_
_space_group_symop_operation_xyz
x,y,z
-x,-y,z
x,-y,1/2-z
-x,y,1/2-z
-x,-y,-z
x,y,-z
-x,y,1/2+z
x,-y,1/2+z
loop_
_atom_site_type_symbol
_atom_site_label
_atom_site_fract_x
_atom_site_fract_y
_atom_site_fract_z
Si Si1 0.343101 0.090364 0.824777
Si Si2 0.062034 0.407246 0.823614
Si Si3 0.170235 0.281700 0.826602
Si Si4 0.396675 0.407958 0.324703
Si Si5 0.208216 0.910310 0.673805
Si Si6 0.559310 0.768038 0.822742
Si Si7 0.741232 0.409375 0.827019
O O1 0.275615 0.109565 0.771812
O O2 0.384519 0.172244 0.773101
O O3 0.367619 0.000000 0.750000
O O4 0.346726 0.076941 0.000000
O O5 0.085033 0.500000 0.750000
O O6 0.107847 0.327778 0.786189
O O7 0.000000 0.378450 0.750000
O O8 0.054079 0.421604 0.000000
O O9 0.167594 0.175884 0.784900
O O10 0.223368 0.324693 0.734191
O O11 0.185873 0.294146 0.000000
O O12 0.418358 0.500000 0.250000
O O13 0.410339 0.409789 0.500000
O O14 0.433349 0.330305 0.245618
O O15 0.327378 0.392525 0.291050
O O16 0.207237 0.929619 0.500000
O O17 0.182116 0.000000 0.750000
O O18 0.500000 0.810644 0.750000
O O19 0.552900 0.762492 0.000000
O O20 0.764715 0.500000 0.750000
O O21 0.754037 0.420766 0.000000
#
# Coordination Sequence:
#
# PCOD8203477 Si02
#       7
#     8   8   8   8   8   8   8
#     4   9  19  35  56  78 103 134 165 203 255 310
#     4  10  20  34  52  75 105 143 181 219 258 301
#     4  10  20  33  52  77 107 140 175 216 261 306
#     4  10  21  37  55  76 102 134 170 210 255 307
#     4   9  18  34  54  78 105 133 167 209 257 309
#     4  11  23  38  55  76 101 132 170 213 258 306
#     4  10  20  32  50  77 107 136 168 207 255 309
#
# _framework density 18.648654000000001
#
# number of rings (size 3 to 8) (size 9 to 14) (size 15 to 20)
#    0.000    2.143    0.000    3.429    0.000    7.429 
#    0.000    5.714    0.000    0.429    0.000    3.000 
#    0.000    0.000    0.000    0.000    0.000    0.000 
#
# Total GULP energy -694538.362989 kJ/mol
# GULP energy per Si atom -12402.470768 kJ/mol
# Density = 1.860621 g / cm^3
# Si number density = 18.648654 Si / 1000 Ang^3
#
#
#
# Elastic Constant Matrix: (Units=GPa)
#
#
# Indices 1 2 3 4 5 6 
#
# 1 70.9459 57.3722 36.1649 0.0000 0.0000 0.0000
# 2 57.3722 136.4969 44.2369 0.0000 0.0000 0.0000
# 3 36.1649 44.2369 68.7983 0.0000 0.0000 0.0000
# 4 0.0000 0.0000 0.0000 33.7845 0.0000 0.0000
# 5 0.0000 0.0000 0.0000 0.0000 6.3238 0.0000
# 6 0.0000 0.0000 0.0000 0.0000 0.0000 20.8873
#
#
#
# Elastic Compliance Matrix: (Units=1/GPa)
#
#
# Indices 1 2 3 4 5 6 
#
# 1 0.024294 -0.007671 -0.007838 0.000000 0.000000 0.000000
# 2 -0.007671 0.011677 -0.003476 0.000000 0.000000 0.000000
# 3 -0.007838 -0.003476 0.020890 0.000000 0.000000 0.000000
# 4 0.000000 0.000000 0.000000 0.029599 0.000000 0.000000
# 5 0.000000 0.000000 0.000000 0.000000 0.158133 0.000000
# 6 0.000000 0.000000 0.000000 0.000000 0.000000 0.047876
#
#
# Mechanical properties :
#
#
# Convention : Reuss Voigt Hill
#
# Bulk Modulus (GPa) = 52.93386 61.30991 57.12188
# Shear Modulus (GPa) = 14.84839 21.43025 18.13932
#
# Velocity S-wave (km/s) = 2.82479 3.39360 3.12218
# Velocity P-wave (km/s) = 6.25186 6.95004 6.61017
#
# Compressibility (1/GPa) = 0.01889150
#
# Stress axis : x y z
#
# Youngs Moduli (GPa) = 41.16214 85.63898 47.86888
#
# Poissons Ratio (x) = 0.65694 0.37520
# Poissons Ratio (y) = 0.31576 0.16638
# Poissons Ratio (z) = 0.32263 0.29766
#
# Static dielectric constant tensor:
#      x y z
#    x 3.365480 0.000000 0.000000 
#    y 0.000000 3.497500 0.000000 
#    z 0.000000 0.000000 3.434450 
# 
# 
# High freq. dielectric constant tensor:
#      x y z
#    x 1.708650 0.000000 0.000000 
#    y 0.000000 1.724810 0.000000 
#    z 0.000000 0.000000 1.729280 
# 
# From -- ./inp_files/4055.got.cif
#   From: 2010.03.12/outbox.cif.g09.slc.cpg/sg49_3_cif.got.tgz:4055.got - 2010.04.14 03:58:27.
