data_PCOD8203143
_publ_section_title
;
Structure prediction by ZEFSAII (Michael W. Deem and Ramdas Pophale) SiO2 
 PCOD8203143
Probable space group: P C C M
;
_chemical_formula_sum "Si O2"
_cell_formula_units_Z 64
_cell_length_a 19.589441
_cell_length_b 20.483218
_cell_length_c 8.971187
_cell_angle_alpha 90.000000
_cell_angle_beta 90.000000
_cell_angle_gamma 90.000000
_cell_volume 3599.731760
_symmetry_space_group_name_H-M "P C C M"
_symmetry_group_IT_number 49
_symmetry_cell_setting 'orthorhombic'
loop_
_space_group_symop_operation_xyz
x,y,z
-x,-y,z
x,-y,1/2-z
-x,y,1/2-z
-x,-y,-z
x,y,-z
-x,y,1/2+z
x,-y,1/2+z
loop_
_atom_site_type_symbol
_atom_site_label
_atom_site_fract_x
_atom_site_fract_y
_atom_site_fract_z
Si Si1 0.568241 0.126852 0.825667
Si Si2 0.708041 0.066507 0.174965
Si Si3 0.067028 0.238959 0.672605
Si Si4 0.294875 0.310565 0.824661
Si Si5 0.204994 0.435533 0.823815
Si Si6 0.213535 0.805148 0.174843
Si Si7 0.569536 0.278038 0.824468
Si Si8 0.069572 0.610857 0.823202
O O1 0.500000 0.098999 0.750000
O O2 0.632915 0.086305 0.765708
O O3 0.580435 0.202179 0.783820
O O4 0.559142 0.118347 0.000000
O O5 0.761470 0.122827 0.218113
O O6 0.732899 0.000000 0.250000
O O7 0.705985 0.055811 0.000000
O O8 0.052255 0.234096 0.500000
O O9 0.133862 0.198073 0.718438
O O10 0.079209 0.313495 0.721196
O O11 0.000000 0.208906 0.750000
O O12 0.252148 0.374464 0.782188
O O13 0.255641 0.247232 0.767195
O O14 0.367756 0.317959 0.744666
O O15 0.306248 0.303794 0.000000
O O16 0.238653 0.500000 0.750000
O O17 0.131087 0.428273 0.749705
O O18 0.197181 0.443903 0.000000
O O19 0.225484 0.790089 0.000000
O O20 0.500000 0.304039 0.750000
O O21 0.566141 0.290072 0.000000
O O22 0.000000 0.584089 0.750000
O O23 0.068412 0.599916 0.000000
#
# Coordination Sequence:
#
# PCOD8203143 Si02
#       8
#     8   8   8   8   8   8   8   8
#     4   9  18  32  50  73 104 141 177 216 256 310
#     4  10  21  36  52  74 106 142 183 223 268 320
#     4   9  18  31  53  80 107 138 173 219 271 322
#     4  11  22  35  56  85 111 139 180 228 271 318
#     4  11  24  39  55  79 111 146 186 227 270 324
#     4  10  19  36  57  78 106 144 182 220 272 327
#     4  10  19  34  56  82 112 143 178 221 271 322
#     4  10  19  33  54  79 110 146 182 221 269 322
#
# _framework density 17.779102000000002
#
# number of rings (size 3 to 8) (size 9 to 14) (size 15 to 20)
#    0.000    2.000    2.500    1.500    0.000    4.500 
#    0.000    2.500    0.000    0.750    0.000    5.250 
#    0.000    0.000    0.000    0.000    0.000    0.000 
#
# Total GULP energy -793769.314954 kJ/mol
# GULP energy per Si atom -12402.645546 kJ/mol
# Density = 1.773864 g / cm^3
# Si number density = 17.779102 Si / 1000 Ang^3
#
#
#
# Elastic Constant Matrix: (Units=GPa)
#
#
# Indices 1 2 3 4 5 6 
#
# 1 126.9970 57.2818 49.4475 0.0000 0.0000 0.0000
# 2 57.2818 89.6433 41.4652 0.0000 0.0000 0.0000
# 3 49.4475 41.4652 66.8180 0.0000 0.0000 0.0000
# 4 0.0000 0.0000 0.0000 26.3907 0.0000 0.0000
# 5 0.0000 0.0000 0.0000 0.0000 34.0354 0.0000
# 6 0.0000 0.0000 0.0000 0.0000 0.0000 19.2851
#
#
#
# Elastic Compliance Matrix: (Units=1/GPa)
#
#
# Indices 1 2 3 4 5 6 
#
# 1 0.012605 -0.005245 -0.006073 0.000000 0.000000 0.000000
# 2 -0.005245 0.017829 -0.007183 0.000000 0.000000 0.000000
# 3 -0.006073 -0.007183 0.023917 0.000000 0.000000 0.000000
# 4 0.000000 0.000000 0.000000 0.037892 0.000000 0.000000
# 5 0.000000 0.000000 0.000000 0.000000 0.029381 0.000000
# 6 0.000000 0.000000 0.000000 0.000000 0.000000 0.051854
#
#
# Mechanical properties :
#
#
# Convention : Reuss Voigt Hill
#
# Bulk Modulus (GPa) = 57.63703 64.42749 61.03226
# Shear Modulus (GPa) = 23.11998 24.95982 24.03990
#
# Velocity S-wave (km/s) = 3.61002 3.75091 3.68114
# Velocity P-wave (km/s) = 7.06152 7.42129 7.24364
#
# Compressibility (1/GPa) = 0.01734996
#
# Stress axis : x y z
#
# Youngs Moduli (GPa) = 79.33643 56.08692 41.81056
#
# Poissons Ratio (x) = 0.29419 0.25390
# Poissons Ratio (y) = 0.41614 0.30031
# Poissons Ratio (z) = 0.48179 0.40286
#
# Static dielectric constant tensor:
#      x y z
#    x 3.538780 0.000000 0.000000 
#    y 0.000000 3.175420 0.000000 
#    z 0.000000 0.000000 3.276540 
# 
# 
# High freq. dielectric constant tensor:
#      x y z
#    x 1.693720 0.000000 0.000000 
#    y 0.000000 1.663530 0.000000 
#    z 0.000000 0.000000 1.692070 
# 
# From -- ./inp_files/5346.got.cif
#   From: 2010.03.12/outbox.cif.g09.slc.cpg/sg49_3_cif.got.tgz:5346.got - 2010.04.14 03:58:27.
