data_PCOD8203348
_publ_section_title
;
Structure prediction by ZEFSAII (Michael W. Deem and Ramdas Pophale) SiO2 
 PCOD8203348
Probable space group: P C C M
;
_chemical_formula_sum "Si O2"
_cell_formula_units_Z 48
_cell_length_a 8.707758
_cell_length_b 18.566165
_cell_length_c 15.341314
_cell_angle_alpha 90.000000
_cell_angle_beta 90.000000
_cell_angle_gamma 90.000000
_cell_volume 2480.225199
_symmetry_space_group_name_H-M "P C C M"
_symmetry_group_IT_number 49
_symmetry_cell_setting 'orthorhombic'
loop_
_space_group_symop_operation_xyz
x,y,z
-x,-y,z
x,-y,1/2-z
-x,y,1/2-z
-x,-y,-z
x,y,-z
-x,y,1/2+z
x,-y,1/2+z
loop_
_atom_site_type_symbol
_atom_site_label
_atom_site_fract_x
_atom_site_fract_y
_atom_site_fract_z
Si Si1 0.321947 0.671247 0.255866
Si Si2 0.821649 0.176401 0.733120
Si Si3 0.386940 0.077442 0.332089
Si Si4 0.188713 0.424256 0.900724
Si Si5 0.834903 0.591287 0.400561
Si Si6 0.308572 0.928971 0.403129
O O1 0.500000 0.690469 0.250000
O O2 0.230160 0.742370 0.281717
O O3 0.301443 0.614362 0.333631
O O4 0.261750 0.641169 0.163866
O O5 0.730365 0.142740 0.815839
O O6 0.789707 0.130817 0.646521
O O7 0.000000 0.174238 0.750000
O O8 0.500000 0.066081 0.250000
O O9 0.509620 0.093328 0.409164
O O10 0.289493 0.005661 0.353683
O O11 0.214195 0.508921 0.887563
O O12 0.014831 0.401274 0.878971
O O13 0.229949 0.402574 0.000000
O O14 0.802243 0.615694 0.500000
O O15 0.241279 0.934729 0.500000
#
# Coordination Sequence:
#
# PCOD8203348 Si02
#       6
#     8   8   8   8   8   8
#     4  12  24  37  56  82 114 152 189 229 280 333
#     4  11  23  39  56  76 110 152 187 224 273 328
#     4   9  17  34  59  83 111 146 179 214 268 331
#     4   9  19  37  62  86 113 146 184 228 276 331
#     4   9  19  38  61  86 112 145 186 229 276 331
#     4  10  19  35  60  87 111 139 178 226 273 326
#
# _framework density 19.353079000000001
#
# number of rings (size 3 to 8) (size 9 to 14) (size 15 to 20)
#    0.000    2.000    0.000    9.000    0.000    5.333 
#    0.000    8.333    0.000    0.000    0.000    0.000 
#    0.000    0.000    0.000    0.000    0.000    0.000 
#
# Total GULP energy -595036.938059 kJ/mol
# GULP energy per Si atom -12396.602876 kJ/mol
# Density = 1.930903 g / cm^3
# Si number density = 19.353079 Si / 1000 Ang^3
#
#
#
# Elastic Constant Matrix: (Units=GPa)
#
#
# Indices 1 2 3 4 5 6 
#
# 1 89.8454 34.0385 27.9024 0.0000 0.0000 0.0000
# 2 34.0385 82.5247 39.7264 0.0000 0.0000 0.0000
# 3 27.9024 39.7264 103.4865 0.0000 0.0000 0.0000
# 4 0.0000 0.0000 0.0000 4.7506 0.0000 0.0000
# 5 0.0000 0.0000 0.0000 0.0000 24.8017 0.0000
# 6 0.0000 0.0000 0.0000 0.0000 0.0000 30.9268
#
#
#
# Elastic Compliance Matrix: (Units=1/GPa)
#
#
# Indices 1 2 3 4 5 6 
#
# 1 0.013471 -0.004671 -0.001839 0.000000 0.000000 0.000000
# 2 -0.004671 0.016484 -0.005069 0.000000 0.000000 0.000000
# 3 -0.001839 -0.005069 0.012105 0.000000 0.000000 0.000000
# 4 0.000000 0.000000 0.000000 0.210500 0.000000 0.000000
# 5 0.000000 0.000000 0.000000 0.000000 0.040320 0.000000
# 6 0.000000 0.000000 0.000000 0.000000 0.000000 0.032334
#
#
# Mechanical properties :
#
#
# Convention : Reuss Voigt Hill
#
# Bulk Modulus (GPa) = 52.90247 53.24346 53.07297
# Shear Modulus (GPa) = 14.09751 23.70843 18.90297
#
# Velocity S-wave (km/s) = 2.70189 3.50386 3.12868
# Velocity P-wave (km/s) = 6.09330 6.62878 6.36668
#
# Compressibility (1/GPa) = 0.01890271
#
# Stress axis : x y z
#
# Youngs Moduli (GPa) = 74.23362 60.66439 82.61303
#
# Poissons Ratio (x) = 0.28337 0.15192
# Poissons Ratio (y) = 0.34675 0.41872
# Poissons Ratio (z) = 0.13651 0.30748
#
# Static dielectric constant tensor:
#      x y z
#    x 3.539610 0.000000 0.000000 
#    y 0.000000 3.460770 0.000000 
#    z 0.000000 0.000000 3.867130 
# 
# 
# High freq. dielectric constant tensor:
#      x y z
#    x 1.739390 0.000000 0.000000 
#    y 0.000000 1.749800 0.000000 
#    z 0.000000 0.000000 1.754480 
# 
# From -- ./inp_files/11770.got.cif
#   From: 2010.03.12/outbox.cif.g09.slc.cpg/sg49_6_cif.got.tgz:11770.got - 2010.04.14 03:58:27.
