data_PCOD8203365
_publ_section_title
;
Structure prediction by ZEFSAII (Michael W. Deem and Ramdas Pophale) SiO2 
 PCOD8203365
Probable space group: P C C M
;
_chemical_formula_sum "Si O2"
_cell_formula_units_Z 64
_cell_length_a 25.423241
_cell_length_b 14.414492
_cell_length_c 8.814166
_cell_angle_alpha 90.000000
_cell_angle_beta 90.000000
_cell_angle_gamma 90.000000
_cell_volume 3230.066632
_symmetry_space_group_name_H-M "P C C M"
_symmetry_group_IT_number 49
_symmetry_cell_setting 'orthorhombic'
loop_
_space_group_symop_operation_xyz
x,y,z
-x,-y,z
x,-y,1/2-z
-x,y,1/2-z
-x,-y,-z
x,y,-z
-x,y,1/2+z
x,-y,1/2+z
loop_
_atom_site_type_symbol
_atom_site_label
_atom_site_fract_x
_atom_site_fract_y
_atom_site_fract_z
Si Si1 0.053935 0.282549 0.180920
Si Si2 0.253324 0.288838 0.324227
Si Si3 0.146895 0.600020 0.822116
Si Si4 0.442995 0.912159 0.322950
Si Si5 0.655977 0.401690 0.321394
Si Si6 0.787531 0.093058 0.822550
Si Si7 0.091778 0.095794 0.680505
Si Si8 0.443644 0.707711 0.677651
O O1 0.100192 0.348414 0.237220
O O2 0.059938 0.178717 0.243670
O O3 0.000000 0.323321 0.250000
O O4 0.052071 0.282096 0.000000
O O5 0.269319 0.296076 0.500000
O O6 0.199773 0.343187 0.293344
O O7 0.299383 0.329133 0.222306
O O8 0.246060 0.182228 0.272282
O O9 0.155016 0.500000 0.750000
O O10 0.133781 0.592681 0.000000
O O11 0.500000 0.912099 0.250000
O O12 0.446817 0.929640 0.500000
O O13 0.419785 0.810370 0.284838
O O14 0.410891 0.000000 0.250000
O O15 0.669348 0.500000 0.250000
O O16 0.655367 0.412593 0.500000
O O17 0.599310 0.365525 0.261929
O O18 0.847546 0.107879 0.770521
O O19 0.763165 0.000000 0.750000
O O20 0.785432 0.079739 0.000000
O O21 0.084085 0.098000 0.500000
O O22 0.069682 0.000000 0.750000
O O23 0.500000 0.686678 0.750000
O O24 0.452380 0.698002 0.500000
#
# Coordination Sequence:
#
# PCOD8203365 Si02
#       8
#     8   8   8   8   8   8   8   8
#     4  12  25  41  61  87 119 159 201 247 302 356
#     4  10  21  40  64  90 121 155 193 240 291 346
#     4  11  23  42  64  89 118 150 195 248 299 358
#     4   9  15  26  46  74 106 141 181 225 272 325
#     4  11  24  41  60  86 117 151 194 246 298 351
#     4   9  18  34  58  89 122 156 192 235 284 342
#     4  10  19  36  59  88 122 158 198 245 293 351
#     4   9  20  37  57  82 115 153 194 238 288 346
#
# _framework density 19.813832000000001
#
# number of rings (size 3 to 8) (size 9 to 14) (size 15 to 20)
#    0.000    1.875    1.250    3.375    0.000    5.250 
#    0.000    4.375    0.000    3.000    0.000    0.000 
#    0.000    0.000    0.000    0.000    0.000    0.000 
#
# Total GULP energy -793521.974627 kJ/mol
# GULP energy per Si atom -12398.780854 kJ/mol
# Density = 1.976873 g / cm^3
# Si number density = 19.813832 Si / 1000 Ang^3
#
#
#
# Elastic Constant Matrix: (Units=GPa)
#
#
# Indices 1 2 3 4 5 6 
#
# 1 85.7676 45.0066 39.3936 0.0000 0.0000 0.0000
# 2 45.0066 129.4530 47.0183 0.0000 0.0000 0.0000
# 3 39.3936 47.0183 94.1348 0.0000 0.0000 0.0000
# 4 0.0000 0.0000 0.0000 48.6323 0.0000 0.0000
# 5 0.0000 0.0000 0.0000 0.0000 24.4894 0.0000
# 6 0.0000 0.0000 0.0000 0.0000 0.0000 31.8327
#
#
#
# Elastic Compliance Matrix: (Units=1/GPa)
#
#
# Indices 1 2 3 4 5 6 
#
# 1 0.015816 -0.003781 -0.004730 0.000000 0.000000 0.000000
# 2 -0.003781 0.010340 -0.003583 0.000000 0.000000 0.000000
# 3 -0.004730 -0.003583 0.014392 0.000000 0.000000 0.000000
# 4 0.000000 0.000000 0.000000 0.020562 0.000000 0.000000
# 5 0.000000 0.000000 0.000000 0.000000 0.040834 0.000000
# 6 0.000000 0.000000 0.000000 0.000000 0.000000 0.031414
#
#
# Mechanical properties :
#
#
# Convention : Reuss Voigt Hill
#
# Bulk Modulus (GPa) = 61.12019 63.57691 62.34855
# Shear Modulus (GPa) = 30.67477 32.85334 31.76406
#
# Velocity S-wave (km/s) = 3.93892 4.07640 4.00825
# Velocity P-wave (km/s) = 7.18338 7.36972 7.27715
#
# Compressibility (1/GPa) = 0.01636121
#
# Stress axis : x y z
#
# Youngs Moduli (GPa) = 63.22725 96.70726 69.48240
#
# Poissons Ratio (x) = 0.36561 0.32868
# Poissons Ratio (y) = 0.23904 0.24894
# Poissons Ratio (z) = 0.29909 0.34648
#
# Static dielectric constant tensor:
#      x y z
#    x 3.482700 0.000000 0.000000 
#    y 0.000000 4.599330 0.000000 
#    z 0.000000 0.000000 3.685830 
# 
# 
# High freq. dielectric constant tensor:
#      x y z
#    x 1.753100 0.000000 0.000000 
#    y 0.000000 1.790220 0.000000 
#    z 0.000000 0.000000 1.777030 
# 
# From -- ./inp_files/6479.got.cif
#   From: 2010.03.12/outbox.cif.g09.slc.cpg/sg49_4_cif.got.tgz:6479.got - 2010.04.14 03:58:27.
