data_PCOD8203785
_publ_section_title
;
Structure prediction by ZEFSAII (Michael W. Deem and Ramdas Pophale) SiO2 
 PCOD8203785
Probable space group: P C C M
;
_chemical_formula_sum "Si O2"
_cell_formula_units_Z 58
_cell_length_a 23.896464
_cell_length_b 14.749581
_cell_length_c 8.660448
_cell_angle_alpha 90.000000
_cell_angle_beta 90.000000
_cell_angle_gamma 90.000000
_cell_volume 3052.486023
_symmetry_space_group_name_H-M "P C C M"
_symmetry_group_IT_number 49
_symmetry_cell_setting 'orthorhombic'
loop_
_space_group_symop_operation_xyz
x,y,z
-x,-y,z
x,-y,1/2-z
-x,y,1/2-z
-x,-y,-z
x,y,-z
-x,y,1/2+z
x,-y,1/2+z
loop_
_atom_site_type_symbol
_atom_site_label
_atom_site_fract_x
_atom_site_fract_y
_atom_site_fract_z
Si Si1 0.557249 0.731441 0.183464
Si Si2 0.607100 0.903418 0.316855
Si Si3 0.726656 0.096163 0.317016
Si Si4 0.220513 0.403160 0.816841
Si Si5 0.180545 0.775539 0.181980
Si Si6 0.652037 0.594880 0.818530
Si Si7 0.892585 0.087913 0.670297
Si Si8 0.000000 0.000000 0.750000
O O1 0.500000 0.688249 0.250000
O O2 0.562579 0.830642 0.257557
O O3 0.609644 0.671454 0.241500
O O4 0.554984 0.737408 0.000000
O O5 0.608101 0.908020 0.500000
O O6 0.667741 0.874393 0.254440
O O7 0.588625 0.000000 0.250000
O O8 0.719992 0.090227 0.500000
O O9 0.771249 0.171702 0.272646
O O10 0.746249 0.000000 0.250000
O O11 0.201752 0.500000 0.750000
O O12 0.180637 0.328109 0.739027
O O13 0.284581 0.381781 0.767011
O O14 0.212666 0.402413 0.000000
O O15 0.121397 0.822818 0.228494
O O16 0.189568 0.780594 0.000000
O O17 0.631990 0.500000 0.750000
O O18 0.649044 0.586029 0.000000
O O19 0.866854 0.100558 0.500000
O O20 0.863493 0.000000 0.750000
O O21 0.959448 0.068013 0.654157
#
# Coordination Sequence:
#
# PCOD8203785 Si02
#       8
#     8   8   8   8   8   8   8   2
#     4  11  23  39  56  79 106 136 175 223 273 324
#     4  11  22  38  58  79 103 137 176 218 270 331
#     4  11  21  35  53  77 110 145 180 223 273 332
#     4  10  20  37  58  82 111 145 184 230 283 340
#     4  12  23  34  52  81 114 151 192 234 281 332
#     4   9  20  37  59  81 106 138 173 216 271 333
#     4  10  20  35  55  81 115 155 196 239 282 328
#     4   8  22  36  62  80 120 160 206 240 288 324
#
# _framework density 19.000906000000001
#
# number of rings (size 3 to 8) (size 9 to 14) (size 15 to 20)
#    0.414    1.103    0.000    7.241    0.000    3.310 
#    0.000    2.759    0.000    0.000    0.000    0.483 
#    0.000    3.310    0.000    0.000    0.000    0.000 
#
# Total GULP energy -719131.043648 kJ/mol
# GULP energy per Si atom -12398.811097 kJ/mol
# Density = 1.895766 g / cm^3
# Si number density = 19.000906 Si / 1000 Ang^3
#
#
#
# Elastic Constant Matrix: (Units=GPa)
#
#
# Indices 1 2 3 4 5 6 
#
# 1 69.0614 47.6321 23.7302 0.0000 0.0000 0.0000
# 2 47.6321 125.4216 44.0766 0.0000 0.0000 0.0000
# 3 23.7302 44.0766 127.0231 0.0000 0.0000 0.0000
# 4 0.0000 0.0000 0.0000 34.5232 0.0000 0.0000
# 5 0.0000 0.0000 0.0000 0.0000 22.7582 0.0000
# 6 0.0000 0.0000 0.0000 0.0000 0.0000 -60.6506
#
#
#
# Elastic Compliance Matrix: (Units=1/GPa)
#
#
# Indices 1 2 3 4 5 6 
#
# 1 0.019789 -0.007079 -0.001240 0.000000 0.000000 0.000000
# 2 -0.007079 0.011613 -0.002707 0.000000 0.000000 0.000000
# 3 -0.001240 -0.002707 0.009044 0.000000 0.000000 0.000000
# 4 0.000000 0.000000 0.000000 0.028966 0.000000 0.000000
# 5 0.000000 0.000000 0.000000 0.000000 0.043940 0.000000
# 6 0.000000 0.000000 0.000000 0.000000 0.000000 -0.016488
#
#
# Mechanical properties :
#
#
# Convention : Reuss Voigt Hill
#
# Bulk Modulus (GPa) = 54.37238 61.37599 57.87418
# Shear Modulus (GPa) = 39.98460 13.06398 26.52429
#
# Velocity S-wave (km/s) = 4.59230 2.62495 3.74029
# Velocity P-wave (km/s) = 7.53636 6.44662 7.01269
#
# Compressibility (1/GPa) = 0.01839169
#
# Stress axis : x y z
#
# Youngs Moduli (GPa) = 50.53372 86.11001 110.57455
#
# Poissons Ratio (x) = 0.60961 0.13715
# Poissons Ratio (y) = 0.35775 0.29934
# Poissons Ratio (z) = 0.06268 0.23311
#
# Static dielectric constant tensor:
#      x y z
#    x 3.361290 0.000000 0.000000 
#    y 0.000000 3.505950 0.000000 
#    z 0.000000 0.000000 3.489360 
# 
# 
# High freq. dielectric constant tensor:
#      x y z
#    x 1.714660 0.000000 0.000000 
#    y 0.000000 1.734410 0.000000 
#    z 0.000000 0.000000 1.753130 
# 
# From -- ./inp_files/6469.got.cif
#   From: 2010.03.12/outbox.cif.g09.slc.cpg/sg49_4_cif.got.tgz:6469.got - 2010.04.14 03:58:27.
