data_PCOD8203565
_publ_section_title
;
Structure prediction by ZEFSAII (Michael W. Deem and Ramdas Pophale) SiO2 
 PCOD8203565
Probable space group: P C C M
;
_chemical_formula_sum "Si O2"
_cell_formula_units_Z 56
_cell_length_a 18.766403
_cell_length_b 18.700525
_cell_length_c 8.955027
_cell_angle_alpha 90.000000
_cell_angle_beta 90.000000
_cell_angle_gamma 90.000000
_cell_volume 3142.691400
_symmetry_space_group_name_H-M "P C C M"
_symmetry_group_IT_number 49
_symmetry_cell_setting 'orthorhombic'
loop_
_space_group_symop_operation_xyz
x,y,z
-x,-y,z
x,-y,1/2-z
-x,y,1/2-z
-x,-y,-z
x,y,-z
-x,y,1/2+z
x,-y,1/2+z
loop_
_atom_site_type_symbol
_atom_site_label
_atom_site_fract_x
_atom_site_fract_y
_atom_site_fract_z
Si Si1 0.655958 0.926073 0.824677
Si Si2 0.712725 0.293282 0.326233
Si Si3 0.201890 0.846657 0.674886
Si Si4 0.075274 0.075877 0.679263
Si Si5 0.222766 0.423905 0.327263
Si Si6 0.934534 0.423637 0.827438
Si Si7 0.573293 0.789827 0.175047
O O1 0.736064 0.902680 0.783221
O O2 0.599656 0.867169 0.766466
O O3 0.635466 0.000000 0.750000
O O4 0.649142 0.934457 0.000000
O O5 0.719071 0.310680 0.500000
O O6 0.770848 0.232768 0.283963
O O7 0.723150 0.365885 0.235770
O O8 0.633664 0.267632 0.283963
O O9 0.182453 0.851950 0.500000
O O10 0.133326 0.864717 0.775354
O O11 0.069470 0.069892 0.500000
O O12 0.000000 0.099602 0.750000
O O13 0.098459 0.000000 0.750000
O O14 0.233850 0.500000 0.250000
O O15 0.238104 0.436648 0.500000
O O16 0.143506 0.390229 0.301549
O O17 0.932136 0.500000 0.750000
O O18 0.000000 0.379130 0.750000
O O19 0.952519 0.431993 0.000000
O O20 0.500000 0.766429 0.250000
O O21 0.561344 0.792761 0.000000
#
# Coordination Sequence:
#
# PCOD8203565 Si02
#       7
#     8   8   8   8   8   8   8
#     4   9  18  31  48  72 102 133 167 204 245 292
#     4   9  19  36  56  76 102 133 165 204 252 303
#     4   9  18  34  52  71  98 132 169 211 257 304
#     4  11  21  33  50  72  99 133 175 221 265 308
#     4  10  20  33  52  78 105 133 170 211 253 301
#     4   9  16  26  42  66  95 126 158 193 232 279
#     4   9  19  35  53  75 102 134 167 200 242 294
#
# _framework density 17.819120999999999
#
# number of rings (size 3 to 8) (size 9 to 14) (size 15 to 20)
#    0.000    2.571    0.000    5.143    0.000    5.429 
#    0.000    5.000    0.000    2.143    0.000    3.000 
#    0.000    0.000    0.000    0.000    0.000    0.000 
#
# Total GULP energy -694137.639915 kJ/mol
# GULP energy per Si atom -12395.314998 kJ/mol
# Density = 1.777856 g / cm^3
# Si number density = 17.819121 Si / 1000 Ang^3
#
#
#
# Elastic Constant Matrix: (Units=GPa)
#
#
# Indices 1 2 3 4 5 6 
#
# 1 123.3739 59.1871 61.0471 0.0000 0.0000 0.0000
# 2 59.1871 98.4040 52.9294 0.0000 0.0000 0.0000
# 3 61.0471 52.9294 98.3087 0.0000 0.0000 0.0000
# 4 0.0000 0.0000 0.0000 27.9654 0.0000 0.0000
# 5 0.0000 0.0000 0.0000 0.0000 31.8471 0.0000
# 6 0.0000 0.0000 0.0000 0.0000 0.0000 22.8331
#
#
#
# Elastic Compliance Matrix: (Units=1/GPa)
#
#
# Indices 1 2 3 4 5 6 
#
# 1 0.013235 -0.004983 -0.005536 0.000000 0.000000 0.000000
# 2 -0.004983 0.016181 -0.005617 0.000000 0.000000 0.000000
# 3 -0.005536 -0.005617 0.016634 0.000000 0.000000 0.000000
# 4 0.000000 0.000000 0.000000 0.035758 0.000000 0.000000
# 5 0.000000 0.000000 0.000000 0.000000 0.031400 0.000000
# 6 0.000000 0.000000 0.000000 0.000000 0.000000 0.043796
#
#
# Mechanical properties :
#
#
# Convention : Reuss Voigt Hill
#
# Bulk Modulus (GPa) = 72.58201 74.04599 73.31400
# Shear Modulus (GPa) = 25.79052 26.32398 26.05725
#
# Velocity S-wave (km/s) = 3.80853 3.84772 3.82818
# Velocity P-wave (km/s) = 7.75635 7.83482 7.79568
#
# Compressibility (1/GPa) = 0.01377752
#
# Stress axis : x y z
#
# Youngs Moduli (GPa) = 75.55621 61.80169 60.11740
#
# Poissons Ratio (x) = 0.30795 0.33280
# Poissons Ratio (y) = 0.37649 0.33771
# Poissons Ratio (z) = 0.41827 0.34717
#
# Static dielectric constant tensor:
#      x y z
#    x 3.766460 0.000000 0.000000 
#    y 0.000000 3.884100 0.000000 
#    z 0.000000 0.000000 3.240280 
# 
# 
# High freq. dielectric constant tensor:
#      x y z
#    x 1.689670 0.000000 0.000000 
#    y 0.000000 1.663200 0.000000 
#    z 0.000000 0.000000 1.692080 
# 
# From -- ./inp_files/5895.got.cif
#   From: 2010.03.12/outbox.cif.g09.slc.cpg/sg49_3_cif.got.tgz:5895.got - 2010.04.14 03:58:27.
