data_PCOD8203771
_publ_section_title
;
Structure prediction by ZEFSAII (Michael W. Deem and Ramdas Pophale) SiO2 
 PCOD8203771
Probable space group: P C C M
;
_chemical_formula_sum "Si O2"
_cell_formula_units_Z 48
_cell_length_a 9.151678
_cell_length_b 31.141161
_cell_length_c 9.000656
_cell_angle_alpha 90.000000
_cell_angle_beta 90.000000
_cell_angle_gamma 90.000000
_cell_volume 2565.131858
_symmetry_space_group_name_H-M "P C C M"
_symmetry_group_IT_number 49
_symmetry_cell_setting 'orthorhombic'
loop_
_space_group_symop_operation_xyz
x,y,z
-x,-y,z
x,-y,1/2-z
-x,y,1/2-z
-x,-y,-z
x,y,-z
-x,y,1/2+z
x,-y,1/2+z
loop_
_atom_site_type_symbol
_atom_site_label
_atom_site_fract_x
_atom_site_fract_y
_atom_site_fract_z
Si Si1 0.844955 0.134471 0.827026
Si Si2 0.156611 0.960021 0.173274
Si Si3 0.654943 0.374879 0.173749
Si Si4 0.345032 0.213253 0.324960
Si Si5 0.152769 0.456014 0.323922
Si Si6 0.155915 0.705147 0.824954
O O1 0.773714 0.087095 0.798223
O O2 0.730698 0.169492 0.766874
O O3 0.000000 0.140707 0.750000
O O4 0.875179 0.141600 0.000000
O O5 0.000000 0.958529 0.250000
O O6 0.245406 0.000000 0.250000
O O7 0.141252 0.969778 0.000000
O O8 0.500000 0.371896 0.250000
O O9 0.729004 0.419995 0.214196
O O10 0.757179 0.336549 0.232807
O O11 0.629495 0.369861 0.000000
O O12 0.500000 0.218692 0.250000
O O13 0.369077 0.212248 0.500000
O O14 0.244468 0.252826 0.275879
O O15 0.209905 0.500000 0.250000
O O16 0.130876 0.461947 0.500000
O O17 0.000000 0.442344 0.250000
O O18 0.000000 0.706389 0.750000
O O19 0.132232 0.703300 0.000000
#
# Coordination Sequence:
#
# PCOD8203771 Si02
#       6
#     8   8   8   8   8   8
#     4   9  18  31  48  72 100 129 164 206 248 295
#     4   9  15  24  40  64  94 124 157 199 245 290
#     4  10  22  37  54  79 109 140 174 212 255 305
#     4  10  21  36  53  75 103 133 167 206 249 299
#     4  10  20  35  55  79 106 138 178 219 260 305
#     4  10  21  37  57  81 106 133 169 210 252 301
#
# _framework density 18.712488
#
# number of rings (size 3 to 8) (size 9 to 14) (size 15 to 20)
#    0.000    2.333    0.000    3.500    0.000    4.333 
#    0.000    1.667    0.000    0.500    0.000    3.500 
#    0.000    0.000    0.000    0.000    0.000    0.000 
#
# Total GULP energy -595063.288714 kJ/mol
# GULP energy per Si atom -12397.151848 kJ/mol
# Density = 1.866990 g / cm^3
# Si number density = 18.712488 Si / 1000 Ang^3
#
#
#
# Elastic Constant Matrix: (Units=GPa)
#
#
# Indices 1 2 3 4 5 6 
#
# 1 139.2397 92.8663 49.7190 0.0000 0.0000 0.0000
# 2 92.8663 176.3969 58.9026 0.0000 0.0000 0.0000
# 3 49.7190 58.9026 65.7434 0.0000 0.0000 0.0000
# 4 0.0000 0.0000 0.0000 25.2789 0.0000 0.0000
# 5 0.0000 0.0000 0.0000 0.0000 31.8014 0.0000
# 6 0.0000 0.0000 0.0000 0.0000 0.0000 10.1223
#
#
#
# Elastic Compliance Matrix: (Units=1/GPa)
#
#
# Indices 1 2 3 4 5 6 
#
# 1 0.012084 -0.004723 -0.004907 0.000000 0.000000 0.000000
# 2 -0.004723 0.009935 -0.005329 0.000000 0.000000 0.000000
# 3 -0.004907 -0.005329 0.023696 0.000000 0.000000 0.000000
# 4 0.000000 0.000000 0.000000 0.039559 0.000000 0.000000
# 5 0.000000 0.000000 0.000000 0.000000 0.031445 0.000000
# 6 0.000000 0.000000 0.000000 0.000000 0.000000 0.098792
#
#
# Mechanical properties :
#
#
# Convention : Reuss Voigt Hill
#
# Bulk Modulus (GPa) = 63.30494 87.15065 75.22780
# Shear Modulus (GPa) = 19.94441 25.43333 22.68887
#
# Velocity S-wave (km/s) = 3.26825 3.69068 3.48587
# Velocity P-wave (km/s) = 6.93871 8.05209 7.51605
#
# Compressibility (1/GPa) = 0.01579656
#
# Stress axis : x y z
#
# Youngs Moduli (GPa) = 82.75213 100.65096 42.20046
#
# Poissons Ratio (x) = 0.47541 0.20707
# Poissons Ratio (y) = 0.39087 0.22490
# Poissons Ratio (z) = 0.40606 0.53641
#
# Static dielectric constant tensor:
#      x y z
#    x 3.138290 0.000000 0.000000 
#    y 0.000000 4.267410 0.000000 
#    z 0.000000 0.000000 3.423370 
# 
# 
# High freq. dielectric constant tensor:
#      x y z
#    x 1.700110 0.000000 0.000000 
#    y 0.000000 1.755140 0.000000 
#    z 0.000000 0.000000 1.725320 
# 
# From -- ./inp_files/2101.got.cif
#   From: 2010.03.12/outbox.cif.g09.slc.cpg/sg49_2_cif.got.tgz:2101.got - 2010.04.14 03:58:27.
