data_PCOD8203190
_publ_section_title
;
Structure prediction by ZEFSAII (Michael W. Deem and Ramdas Pophale) SiO2 
 PCOD8203190
Probable space group: P C C M
;
_chemical_formula_sum "Si O2"
_cell_formula_units_Z 54
_cell_length_a 16.008566
_cell_length_b 11.267500
_cell_length_c 14.756543
_cell_angle_alpha 90.000000
_cell_angle_beta 90.000000
_cell_angle_gamma 90.000000
_cell_volume 2661.733835
_symmetry_space_group_name_H-M "P C C M"
_symmetry_group_IT_number 49
_symmetry_cell_setting 'orthorhombic'
loop_
_space_group_symop_operation_xyz
x,y,z
-x,-y,z
x,-y,1/2-z
-x,y,1/2-z
-x,-y,-z
x,y,-z
-x,y,1/2+z
x,-y,1/2+z
loop_
_atom_site_type_symbol
_atom_site_label
_atom_site_fract_x
_atom_site_fract_y
_atom_site_fract_z
Si Si1 0.847511 0.048644 0.660086
Si Si2 0.369892 0.542783 0.395487
Si Si3 0.289819 0.778709 0.601060
Si Si4 0.875602 0.205002 0.100392
Si Si5 0.306910 0.281628 0.395560
Si Si6 0.592153 0.860832 0.251380
Si Si7 0.000000 0.833858 0.750000
Si Si8 0.500000 0.500000 0.250000
O O1 0.800199 0.163663 0.621901
O O2 0.940349 0.086673 0.687783
O O3 0.799122 0.000000 0.750000
O O4 0.856800 0.936875 0.593263
O O5 0.404247 0.547166 0.500000
O O6 0.292515 0.635531 0.385270
O O7 0.335715 0.413590 0.370386
O O8 0.441566 0.575640 0.320532
O O9 0.313442 0.813543 0.500000
O O10 0.363420 0.831590 0.658547
O O11 0.791118 0.273151 0.127450
O O12 0.943480 0.240410 0.177907
O O13 0.906538 0.244523 0.000000
O O14 0.323521 0.250828 0.500000
O O15 0.357704 0.186461 0.337935
O O16 0.500000 0.802960 0.250000
O O17 0.584914 0.000000 0.250000
#
# Coordination Sequence:
#
# PCOD8203190 Si02
#       8
#     8   8   8   8   8   8   4   2
#     4  10  19  34  57  83 117 153 186 234 286 338
#     4  10  24  40  59  88 114 145 194 245 289 340
#     4  11  23  38  58  85 117 152 191 237 287 343
#     4  10  19  33  57  83 110 150 190 227 283 345
#     4  10  22  41  62  82 111 153 195 237 286 343
#     4  11  24  39  56  82 115 150 191 236 286 344
#     4  10  21  34  52  85 122 143 178 240 285 334
#     4  12  22  36  60  82 110 146 182 240 300 332
#
# _framework density 20.287527000000001
#
# number of rings (size 3 to 8) (size 9 to 14) (size 15 to 20)
#    0.000    1.630    0.000    6.667    4.148    4.148 
#    0.000    1.481    0.000    1.778    0.000    4.148 
#    0.000    0.000    0.000    0.000    0.000    0.000 
#
# Total GULP energy -669101.962853 kJ/mol
# GULP energy per Si atom -12390.777090 kJ/mol
# Density = 2.024135 g / cm^3
# Si number density = 20.287527 Si / 1000 Ang^3
#
#
#
# Elastic Constant Matrix: (Units=GPa)
#
#
# Indices 1 2 3 4 5 6 
#
# 1 128.7101 47.2678 71.9397 0.0000 0.0000 0.0000
# 2 47.2678 75.1760 38.7792 0.0000 0.0000 0.0000
# 3 71.9397 38.7792 134.3333 0.0000 0.0000 0.0000
# 4 0.0000 0.0000 0.0000 20.6757 0.0000 0.0000
# 5 0.0000 0.0000 0.0000 0.0000 29.9337 0.0000
# 6 0.0000 0.0000 0.0000 0.0000 0.0000 0.6223
#
#
#
# Elastic Compliance Matrix: (Units=1/GPa)
#
#
# Indices 1 2 3 4 5 6 
#
# 1 0.012625 -0.005229 -0.005252 0.000000 0.000000 0.000000
# 2 -0.005229 0.017795 -0.002337 0.000000 0.000000 0.000000
# 3 -0.005252 -0.002337 0.010931 0.000000 0.000000 0.000000
# 4 0.000000 0.000000 0.000000 0.048366 0.000000 0.000000
# 5 0.000000 0.000000 0.000000 0.000000 0.033407 0.000000
# 6 0.000000 0.000000 0.000000 0.000000 0.000000 1.606846
#
#
# Mechanical properties :
#
#
# Convention : Reuss Voigt Hill
#
# Bulk Modulus (GPa) = 63.62702 72.68810 68.15756
# Shear Modulus (GPa) = 2.83955 22.26187 12.55071
#
# Velocity S-wave (km/s) = 1.18435 3.31617 2.48995
# Velocity P-wave (km/s) = 5.77070 7.11122 6.47574
#
# Compressibility (1/GPa) = 0.01571659
#
# Stress axis : x y z
#
# Youngs Moduli (GPa) = 79.20801 56.19422 91.48199
#
# Poissons Ratio (x) = 0.29385 0.48042
# Poissons Ratio (y) = 0.41419 0.21377
# Poissons Ratio (z) = 0.41596 0.13131
#
# Static dielectric constant tensor:
#      x y z
#    x 3.740100 0.000000 0.000000 
#    y 0.000000 3.784730 0.000000 
#    z 0.000000 0.000000 4.085300 
# 
# 
# High freq. dielectric constant tensor:
#      x y z
#    x 1.786750 0.000000 0.000000 
#    y 0.000000 1.771150 0.000000 
#    z 0.000000 0.000000 1.811940 
# 
# From -- ./inp_files/13639.got.cif
#   From: 2010.03.12/outbox.cif.g09.slc.cpg/sg49_7_cif.got.tgz:13639.got - 2010.04.14 03:58:27.
