data_PCOD8203210
_publ_section_title
;
Structure prediction by ZEFSAII (Michael W. Deem and Ramdas Pophale) SiO2 
 PCOD8203210
Probable space group: P C C M
;
_chemical_formula_sum "Si O2"
_cell_formula_units_Z 64
_cell_length_a 19.833282
_cell_length_b 19.853265
_cell_length_c 8.520146
_cell_angle_alpha 90.000000
_cell_angle_beta 90.000000
_cell_angle_gamma 90.000000
_cell_volume 3354.853525
_symmetry_space_group_name_H-M "P C C M"
_symmetry_group_IT_number 49
_symmetry_cell_setting 'orthorhombic'
loop_
_space_group_symop_operation_xyz
x,y,z
-x,-y,z
x,-y,1/2-z
-x,y,1/2-z
-x,-y,-z
x,y,-z
-x,y,1/2+z
x,-y,1/2+z
loop_
_atom_site_type_symbol
_atom_site_label
_atom_site_fract_x
_atom_site_fract_y
_atom_site_fract_z
Si Si1 0.109051 0.068081 0.185750
Si Si2 0.571579 0.572677 0.316352
Si Si3 0.931647 0.792415 0.313604
Si Si4 0.788526 0.254778 0.178812
Si Si5 0.429933 0.207744 0.315849
Si Si6 0.388626 0.929742 0.682746
Si Si7 0.749728 0.102038 0.179567
Si Si8 0.664953 0.684340 0.818403
O O1 0.067758 0.133158 0.239901
O O2 0.181985 0.067905 0.265846
O O3 0.072912 0.000000 0.250000
O O4 0.114872 0.067614 0.000000
O O5 0.591108 0.500000 0.250000
O O6 0.500000 0.598813 0.250000
O O7 0.563375 0.566629 0.500000
O O8 0.631606 0.623655 0.277057
O O9 0.930860 0.798987 0.500000
O O10 0.865943 0.749772 0.258363
O O11 0.000000 0.756486 0.250000
O O12 0.754335 0.182184 0.194852
O O13 0.744656 0.308348 0.278205
O O14 0.788207 0.279619 0.000000
O O15 0.500000 0.236813 0.250000
O O16 0.424310 0.221867 0.500000
O O17 0.425388 0.128693 0.280259
O O18 0.369963 0.245596 0.227413
O O19 0.406095 0.922460 0.500000
O O20 0.308508 0.925595 0.708261
O O21 0.416779 0.000000 0.750000
O O22 0.733800 0.081727 0.000000
O O23 0.656101 0.668674 0.000000
#
# Coordination Sequence:
#
# PCOD8203210 Si02
#       8
#     8   8   8   8   8   8   8   8
#     4  11  21  33  49  70  97 129 171 218 273 337
#     4  11  22  39  61  89 127 166 204 240 282 332
#     4  10  21  37  55  76 105 138 177 222 282 342
#     4   9  19  35  56  80 109 142 180 228 278 327
#     4  12  25  42  59  79 106 138 180 231 284 338
#     4  12  24  38  55  75  98 131 173 224 285 345
#     4  10  19  34  53  74 101 131 169 220 278 335
#     4  12  23  37  60  89 118 152 194 235 279 330
#
# _framework density 19.076837000000001
#
# number of rings (size 3 to 8) (size 9 to 14) (size 15 to 20)
#    0.000    1.125    1.250    8.250    0.000    3.000 
#    0.000    2.500    0.000    0.000    0.000    0.000 
#    0.000    0.500    0.000    5.250    0.000    2.875 
#
# Total GULP energy -793771.819888 kJ/mol
# GULP energy per Si atom -12402.684686 kJ/mol
# Density = 1.903342 g / cm^3
# Si number density = 19.076837 Si / 1000 Ang^3
#
#
#
# Elastic Constant Matrix: (Units=GPa)
#
#
# Indices 1 2 3 4 5 6 
#
# 1 106.5365 35.1013 25.8562 0.0000 0.0000 0.0000
# 2 35.1013 72.0001 23.4644 0.0000 0.0000 0.0000
# 3 25.8562 23.4644 113.0948 0.0000 0.0000 0.0000
# 4 0.0000 0.0000 0.0000 25.9590 0.0000 0.0000
# 5 0.0000 0.0000 0.0000 0.0000 28.7709 0.0000
# 6 0.0000 0.0000 0.0000 0.0000 0.0000 -22.5943
#
#
#
# Elastic Compliance Matrix: (Units=1/GPa)
#
#
# Indices 1 2 3 4 5 6 
#
# 1 0.011435 -0.005065 -0.001563 0.000000 0.000000 0.000000
# 2 -0.005065 0.017140 -0.002398 0.000000 0.000000 0.000000
# 3 -0.001563 -0.002398 0.009697 0.000000 0.000000 0.000000
# 4 0.000000 0.000000 0.000000 0.038522 0.000000 0.000000
# 5 0.000000 0.000000 0.000000 0.000000 0.034757 0.000000
# 6 0.000000 0.000000 0.000000 0.000000 0.000000 -0.044259
#
#
# Mechanical properties :
#
#
# Convention : Reuss Voigt Hill
#
# Bulk Modulus (GPa) = 49.45981 51.16391 50.31186
# Shear Modulus (GPa) = 54.29772 20.24107 37.26939
#
# Velocity S-wave (km/s) = 5.34083 3.26088 4.42480
# Velocity P-wave (km/s) = 8.00097 6.40749 7.24815
#
# Compressibility (1/GPa) = 0.02021843
#
# Stress axis : x y z
#
# Youngs Moduli (GPa) = 87.45285 58.34396 103.12362
#
# Poissons Ratio (x) = 0.29552 0.16122
# Poissons Ratio (y) = 0.44296 0.24730
# Poissons Ratio (z) = 0.13672 0.13991
#
# Static dielectric constant tensor:
#      x y z
#    x 3.710600 0.000000 0.000000 
#    y 0.000000 3.232870 0.000000 
#    z 0.000000 0.000000 3.585980 
# 
# 
# High freq. dielectric constant tensor:
#      x y z
#    x 1.743560 0.000000 0.000000 
#    y 0.000000 1.699990 0.000000 
#    z 0.000000 0.000000 1.755730 
# 
# From -- ./inp_files/5993.got.cif
#   From: 2010.03.12/outbox.cif.g09.slc.cpg/sg49_3_cif.got.tgz:5993.got - 2010.04.14 03:58:27.
