data_PCOD8204119
_publ_section_title
;
Structure prediction by ZEFSAII (Michael W. Deem and Ramdas Pophale) SiO2 
 PCOD8204119
Probable space group: P C C M
;
_chemical_formula_sum "Si O2"
_cell_formula_units_Z 40
_cell_length_a 5.120985
_cell_length_b 16.385947
_cell_length_c 22.449239
_cell_angle_alpha 90.000000
_cell_angle_beta 90.000000
_cell_angle_gamma 90.000000
_cell_volume 1883.764781
_symmetry_space_group_name_H-M "P C C M"
_symmetry_group_IT_number 49
_symmetry_cell_setting 'orthorhombic'
loop_
_space_group_symop_operation_xyz
x,y,z
-x,-y,z
x,-y,1/2-z
-x,y,1/2-z
-x,-y,-z
x,y,-z
-x,y,1/2+z
x,-y,1/2+z
loop_
_atom_site_type_symbol
_atom_site_label
_atom_site_fract_x
_atom_site_fract_y
_atom_site_fract_z
Si Si1 0.094442 0.083043 0.615829
Si Si2 0.096470 0.258881 0.432206
Si Si3 0.400931 0.293917 0.139021
Si Si4 0.408261 0.117891 0.185219
Si Si5 0.254682 0.536625 0.316618
O O1 0.095506 0.160341 0.572181
O O2 0.387568 0.074413 0.640672
O O3 0.888040 0.092395 0.670488
O O4 0.000000 0.000000 0.581809
O O5 0.149401 0.283875 0.500000
O O6 0.313853 0.303568 0.391185
O O7 0.809385 0.287709 0.413706
O O8 0.417803 0.215661 0.181050
O O9 0.298333 0.366289 0.182198
O O10 0.500000 0.089990 0.250000
O O11 0.500000 0.500000 0.352466
O O12 0.251754 0.500000 0.250000
O O13 0.000000 0.500000 0.349561
#
# Coordination Sequence:
#
# PCOD8204119 Si02
#       5
#     8   8   8   8   8
#     4  10  21  36  53  82 115 146 196 247 284 332
#     4  10  21  39  62  83 108 155 199 237 291 331
#     4  10  21  38  58  85 120 145 190 241 276 344
#     4  10  21  34  53  81 113 160 189 224 286 356
#     4  10  21  36  57  89 118 151 178 228 288 346
#
# _framework density 21.234072999999999
#
# number of rings (size 3 to 8) (size 9 to 14) (size 15 to 20)
#    0.000    2.000    0.000    3.000    2.800    2.800 
#    7.200    0.000    0.000   19.200    0.000    0.000 
#    0.000    0.000    0.000    0.000    0.000    0.000 
#
# Total GULP energy -495583.218804 kJ/mol
# GULP energy per Si atom -12389.580470 kJ/mol
# Density = 2.118574 g / cm^3
# Si number density = 21.234073 Si / 1000 Ang^3
#
#
#
# Elastic Constant Matrix: (Units=GPa)
#
#
# Indices 1 2 3 4 5 6 
#
# 1 141.8455 26.3239 6.0716 0.0000 0.0000 0.0000
# 2 26.3239 113.8284 11.7713 0.0000 0.0000 0.0000
# 3 6.0716 11.7713 57.5217 0.0000 0.0000 0.0000
# 4 0.0000 0.0000 0.0000 4.8647 0.0000 0.0000
# 5 0.0000 0.0000 0.0000 0.0000 14.6727 0.0000
# 6 0.0000 0.0000 0.0000 0.0000 0.0000 35.6442
#
#
#
# Elastic Compliance Matrix: (Units=1/GPa)
#
#
# Indices 1 2 3 4 5 6 
#
# 1 0.007377 -0.001661 -0.000439 0.000000 0.000000 0.000000
# 2 -0.001661 0.009349 -0.001738 0.000000 0.000000 0.000000
# 3 -0.000439 -0.001738 0.017787 0.000000 0.000000 0.000000
# 4 0.000000 0.000000 0.000000 0.205563 0.000000 0.000000
# 5 0.000000 0.000000 0.000000 0.000000 0.068154 0.000000
# 6 0.000000 0.000000 0.000000 0.000000 0.000000 0.028055
#
#
# Mechanical properties :
#
#
# Convention : Reuss Voigt Hill
#
# Bulk Modulus (GPa) = 37.26077 44.61436 40.93756
# Shear Modulus (GPa) = 14.16814 28.97156 21.56985
#
# Velocity S-wave (km/s) = 2.58589 3.69777 3.19064
# Velocity P-wave (km/s) = 5.14796 6.26799 5.73538
#
# Compressibility (1/GPa) = 0.02683788
#
# Stress axis : x y z
#
# Youngs Moduli (GPa) = 135.55857 106.96446 56.22173
#
# Poissons Ratio (x) = 0.17762 0.02467
# Poissons Ratio (y) = 0.22511 0.09771
# Poissons Ratio (z) = 0.05949 0.18589
#
# Static dielectric constant tensor:
#      x y z
#    x 14.401910 0.000000 0.000000 
#    y 0.000000 4.002670 0.000000 
#    z 0.000000 0.000000 3.208060 
# 
# 
# High freq. dielectric constant tensor:
#      x y z
#    x 1.865330 0.000000 0.000000 
#    y 0.000000 1.836150 0.000000 
#    z 0.000000 0.000000 1.775520 
# 
# From -- ./inp_files/21714.got.cif
#   From: 2010.03.12/outbox.cif.g09.slc.cpg/sg49_11_cif.got.tgz:21714.got - 2010.04.14 03:58:27.
