data_PCOD8204561
_publ_section_title
;
Structure prediction by ZEFSAII (Michael W. Deem and Ramdas Pophale) SiO2 
 PCOD8204561
Probable space group: P C C M
;
_chemical_formula_sum "Si O2"
_cell_formula_units_Z 64
_cell_length_a 13.790275
_cell_length_b 9.908713
_cell_length_c 28.212828
_cell_angle_alpha 90.000000
_cell_angle_beta 90.000000
_cell_angle_gamma 90.000000
_cell_volume 3855.110204
_symmetry_space_group_name_H-M "P C C M"
_symmetry_group_IT_number 49
_symmetry_cell_setting 'orthorhombic'
loop_
_space_group_symop_operation_xyz
x,y,z
-x,-y,z
x,-y,1/2-z
-x,y,1/2-z
-x,-y,-z
x,y,-z
-x,y,1/2+z
x,-y,1/2+z
loop_
_atom_site_type_symbol
_atom_site_label
_atom_site_fract_x
_atom_site_fract_y
_atom_site_fract_z
Si Si1 0.372809 0.731399 0.897303
Si Si2 0.085210 0.904055 0.556454
Si Si3 0.400049 0.774623 0.597049
Si Si4 0.387096 0.850914 0.302785
Si Si5 0.919093 0.399627 0.556014
Si Si6 0.292129 0.014203 0.555971
Si Si7 0.703932 0.472795 0.445162
Si Si8 0.616754 0.153074 0.800044
O O1 0.485535 0.755693 0.906907
O O2 0.347845 0.580028 0.911650
O O3 0.346048 0.748937 0.841682
O O4 0.307593 0.831742 0.928483
O O5 0.083026 0.901658 0.500000
O O6 0.070376 0.752176 0.576723
O O7 0.187712 0.962549 0.574251
O O8 0.000000 0.000000 0.576392
O O9 0.360151 0.759804 0.651444
O O10 0.376954 0.924776 0.578974
O O11 0.346219 0.670724 0.562987
O O12 0.348949 0.792221 0.252055
O O13 0.502052 0.857295 0.301027
O O14 0.343406 0.001633 0.309104
O O15 0.931383 0.390562 0.500000
O O16 0.815762 0.462450 0.569427
O O17 0.000000 0.500000 0.577856
O O18 0.299082 0.004335 0.500000
O O19 0.691547 0.513408 0.500000
#
# Coordination Sequence:
#
# PCOD8204561 Si02
#       8
#     8   8   8   8   8   8   8   8
#     4  11  22  32  47  71 100 136 174 202 233 285
#     4   9  18  32  50  70  91 117 157 214 261 283
#     4  11  20  34  49  68  98 138 174 200 236 286
#     4   8  14  27  50  69  90 122 158 209 261 286
#     4   9  18  33  51  67  88 123 163 204 253 296
#     4  11  21  32  47  70 100 131 169 209 237 279
#     4  11  23  36  47  66 102 141 171 201 238 287
#     4   8  14  28  47  71  93 117 160 211 256 288
#
# _framework density 16.601341000000001
#
# number of rings (size 3 to 8) (size 9 to 14) (size 15 to 20)
#    0.000    2.250    2.500    2.250    1.750    3.000 
#    0.000    0.625    0.000    3.000    0.000    0.000 
#    0.000    6.000    0.000    0.000    0.000    0.000 
#
# Total GULP energy -793288.875201 kJ/mol
# GULP energy per Si atom -12395.138675 kJ/mol
# Density = 1.656356 g / cm^3
# Si number density = 16.601341 Si / 1000 Ang^3
#
#
#
# Elastic Constant Matrix: (Units=GPa)
#
#
# Indices 1 2 3 4 5 6 
#
# 1 72.3498 22.2592 23.8602 0.0000 0.0000 0.0000
# 2 22.2592 54.3193 22.7671 0.0000 0.0000 0.0000
# 3 23.8602 22.7671 77.8740 0.0000 0.0000 0.0000
# 4 0.0000 0.0000 0.0000 21.5501 0.0000 0.0000
# 5 0.0000 0.0000 0.0000 0.0000 1.8297 0.0000
# 6 0.0000 0.0000 0.0000 0.0000 0.0000 26.3682
#
#
#
# Elastic Compliance Matrix: (Units=1/GPa)
#
#
# Indices 1 2 3 4 5 6 
#
# 1 0.016628 -0.005332 -0.003536 0.000000 0.000000 0.000000
# 2 -0.005332 0.022690 -0.005000 0.000000 0.000000 0.000000
# 3 -0.003536 -0.005000 0.015386 0.000000 0.000000 0.000000
# 4 0.000000 0.000000 0.000000 0.046403 0.000000 0.000000
# 5 0.000000 0.000000 0.000000 0.000000 0.546541 0.000000
# 6 0.000000 0.000000 0.000000 0.000000 0.000000 0.037924
#
#
# Mechanical properties :
#
#
# Convention : Reuss Voigt Hill
#
# Bulk Modulus (GPa) = 37.07944 38.03515 37.55729
# Shear Modulus (GPa) = 6.92233 18.99336 12.95785
#
# Velocity S-wave (km/s) = 2.04421 3.38610 2.79683
# Velocity P-wave (km/s) = 5.28729 6.18451 5.75342
#
# Compressibility (1/GPa) = 0.02696912
#
# Stress axis : x y z
#
# Youngs Moduli (GPa) = 60.13837 44.07167 64.99215
#
# Poissons Ratio (x) = 0.23499 0.22981
# Poissons Ratio (y) = 0.32066 0.32496
# Poissons Ratio (z) = 0.21265 0.22036
#
# Static dielectric constant tensor:
#      x y z
#    x 2.997000 0.000000 0.000000 
#    y 0.000000 3.139630 0.000000 
#    z 0.000000 0.000000 3.287180 
# 
# 
# High freq. dielectric constant tensor:
#      x y z
#    x 1.613370 0.000000 0.000000 
#    y 0.000000 1.636990 0.000000 
#    z 0.000000 0.000000 1.618410 
# 
# From -- ./inp_files/26827.got.cif
#   From: 2010.03.12/outbox.cif.g09.slc.cpg/sg49_14_cif.got.tgz:26827.got - 2010.04.14 03:58:27.
