data_PCOD8204616
_publ_section_title
;
Structure prediction by ZEFSAII (Michael W. Deem and Ramdas Pophale) SiO2 
 PCOD8204616
Probable space group: P C C M
;
_chemical_formula_sum "Si O2"
_cell_formula_units_Z 56
_cell_length_a 30.452940
_cell_length_b 4.995392
_cell_length_c 16.903760
_cell_angle_alpha 90.000000
_cell_angle_beta 90.000000
_cell_angle_gamma 90.000000
_cell_volume 2571.473889
_symmetry_space_group_name_H-M "P C C M"
_symmetry_group_IT_number 49
_symmetry_cell_setting 'orthorhombic'
loop_
_space_group_symop_operation_xyz
x,y,z
-x,-y,z
x,-y,1/2-z
-x,y,1/2-z
-x,-y,-z
x,y,-z
-x,y,1/2+z
x,-y,1/2+z
loop_
_atom_site_type_symbol
_atom_site_label
_atom_site_fract_x
_atom_site_fract_y
_atom_site_fract_z
Si Si1 0.622347 0.399337 0.091616
Si Si2 0.094157 0.533760 0.658182
Si Si3 0.049339 0.963181 0.092144
Si Si4 0.333658 0.081771 0.837919
Si Si5 0.767777 0.003238 0.659918
Si Si6 0.811318 0.495977 0.092202
Si Si7 0.471804 0.237596 0.410286
O O1 0.641687 0.644413 0.141305
O O2 0.575373 0.304616 0.128422
O O3 0.654335 0.147363 0.099389
O O4 0.617957 0.486372 0.000000
O O5 0.085370 0.500000 0.750000
O O6 0.062104 0.341777 0.609106
O O7 0.143670 0.448700 0.638380
O O8 0.083332 0.839001 0.635627
O O9 0.052094 0.026969 0.000000
O O10 0.000000 0.000000 0.124238
O O11 0.281609 0.113980 0.843205
O O12 0.348548 0.000000 0.750000
O O13 0.773975 0.293199 0.875635
O O14 0.796380 0.201694 0.607052
O O15 0.784679 0.000000 0.750000
O O16 0.819134 0.449177 0.000000
O O17 0.500000 0.500000 0.406078
O O18 0.462245 0.143837 0.500000
O O19 0.500000 0.000000 0.367766
#
# Coordination Sequence:
#
# PCOD8204616 Si02
#       7
#     8   8   8   8   8   8   8
#     4  11  22  37  62  92 120 156 208 261 301 357
#     4  12  25  42  65  93 127 165 207 254 305 371
#     4  11  24  43  66  93 127 165 206 256 312 366
#     4  11  24  41  61  87 125 166 200 246 313 377
#     4  11  24  43  64  88 121 163 207 249 303 372
#     4  12  25  42  65  93 124 159 203 257 313 363
#     4   9  17  31  53  83 117 151 192 244 297 345
#
# _framework density 21.777393
#
# number of rings (size 3 to 8) (size 9 to 14) (size 15 to 20)
#    0.000    1.000    0.000    7.286    0.000   10.857 
#    0.000    0.000    0.000    6.429    0.000    0.000 
#    0.000    0.000    0.000    0.000    0.000    0.143 
#
# Total GULP energy -694668.537399 kJ/mol
# GULP energy per Si atom -12404.795311 kJ/mol
# Density = 2.172783 g / cm^3
# Si number density = 21.777393 Si / 1000 Ang^3
#
#
#
# Elastic Constant Matrix: (Units=GPa)
#
#
# Indices 1 2 3 4 5 6 
#
# 1 110.6123 37.6657 28.6304 0.0000 0.0000 0.0000
# 2 37.6657 114.9577 17.5835 0.0000 0.0000 0.0000
# 3 28.6304 17.5835 70.0332 0.0000 0.0000 0.0000
# 4 0.0000 0.0000 0.0000 29.8695 0.0000 0.0000
# 5 0.0000 0.0000 0.0000 0.0000 12.5470 0.0000
# 6 0.0000 0.0000 0.0000 0.0000 0.0000 41.1527
#
#
#
# Elastic Compliance Matrix: (Units=1/GPa)
#
#
# Indices 1 2 3 4 5 6 
#
# 1 0.011049 -0.003046 -0.003752 0.000000 0.000000 0.000000
# 2 -0.003046 0.009886 -0.001237 0.000000 0.000000 0.000000
# 3 -0.003752 -0.001237 0.016123 0.000000 0.000000 0.000000
# 4 0.000000 0.000000 0.000000 0.033479 0.000000 0.000000
# 5 0.000000 0.000000 0.000000 0.000000 0.079700 0.000000
# 6 0.000000 0.000000 0.000000 0.000000 0.000000 0.024300
#
#
# Mechanical properties :
#
#
# Convention : Reuss Voigt Hill
#
# Bulk Modulus (GPa) = 47.64596 51.48472 49.56534
# Shear Modulus (GPa) = 25.30308 30.82873 28.06591
#
# Velocity S-wave (km/s) = 3.41236 3.76657 3.59383
# Velocity P-wave (km/s) = 6.11978 6.52754 6.32694
#
# Compressibility (1/GPa) = 0.02098814
#
# Stress axis : x y z
#
# Youngs Moduli (GPa) = 90.50502 101.15168 62.02168
#
# Poissons Ratio (x) = 0.30814 0.23272
# Poissons Ratio (y) = 0.27571 0.07671
# Poissons Ratio (z) = 0.33959 0.12510
#
# Static dielectric constant tensor:
#      x y z
#    x 4.006260 0.000000 0.000000 
#    y 0.000000 4.128020 0.000000 
#    z 0.000000 0.000000 3.828830 
# 
# 
# High freq. dielectric constant tensor:
#      x y z
#    x 1.867550 0.000000 0.000000 
#    y 0.000000 1.870130 0.000000 
#    z 0.000000 0.000000 1.843470 
# 
# From -- ./inp_files/14617.got.cif
#   From: 2010.03.12/outbox.cif.g09.slc.cpg/sg49_8_cif.got.tgz:14617.got - 2010.04.14 03:58:27.
