data_PCOD8204014
_publ_section_title
;
Structure prediction by ZEFSAII (Michael W. Deem and Ramdas Pophale) SiO2 
 PCOD8204014
Probable space group: P C C M
;
_chemical_formula_sum "Si O2"
_cell_formula_units_Z 64
_cell_length_a 17.144511
_cell_length_b 12.263394
_cell_length_c 14.484703
_cell_angle_alpha 90.000000
_cell_angle_beta 90.000000
_cell_angle_gamma 90.000000
_cell_volume 3045.407261
_symmetry_space_group_name_H-M "P C C M"
_symmetry_group_IT_number 49
_symmetry_cell_setting 'orthorhombic'
loop_
_space_group_symop_operation_xyz
x,y,z
-x,-y,z
x,-y,1/2-z
-x,y,1/2-z
-x,-y,-z
x,y,-z
-x,y,1/2+z
x,-y,1/2+z
loop_
_atom_site_type_symbol
_atom_site_label
_atom_site_fract_x
_atom_site_fract_y
_atom_site_fract_z
Si Si1 0.849156 0.782274 0.101777
Si Si2 0.180630 0.801188 0.104823
Si Si3 0.991528 0.123528 0.858548
Si Si4 0.786171 0.369798 0.744132
Si Si5 0.259230 0.977198 0.390031
Si Si6 0.615946 0.376795 0.264165
Si Si7 0.568173 0.071626 0.607065
Si Si8 0.506053 0.305046 0.892510
O O1 0.842914 0.675734 0.165450
O O2 0.800409 0.883820 0.145632
O O3 0.939910 0.809549 0.093331
O O4 0.816704 0.754155 0.000000
O O5 0.089798 0.829148 0.107492
O O6 0.195655 0.688782 0.158817
O O7 0.229979 0.904431 0.145753
O O8 0.206908 0.779340 0.000000
O O9 0.000000 0.134545 0.750000
O O10 0.000000 0.000000 0.892243
O O11 0.797916 0.500000 0.750000
O O12 0.700040 0.326614 0.713624
O O13 0.258422 0.976078 0.500000
O O14 0.346385 0.952575 0.349970
O O15 0.638066 0.500000 0.250000
O O16 0.581855 0.314722 0.172986
O O17 0.557793 0.387535 0.351644
O O18 0.573794 0.040555 0.500000
O O19 0.540680 0.193895 0.622696
O O20 0.500000 0.000000 0.654534
O O21 0.527364 0.326905 0.000000
#
# Coordination Sequence:
#
# PCOD8204014 Si02
#       8
#     8   8   8   8   8   8   8   8
#     4  11  22  40  68  96 126 166 208 259 324 386
#     4  11  23  40  66  96 130 168 208 262 325 388
#     4  11  21  38  66 103 136 166 206 255 321 393
#     4  11  26  45  62  88 128 172 221 272 316 375
#     4   9  19  34  58  94 128 161 203 256 318 381
#     4  10  23  41  60  86 119 156 213 277 316 358
#     4   9  18  32  52  83 122 160 197 238 293 371
#     4  10  20  37  62  88 118 159 204 257 323 379
#
# _framework density 21.015250999999999
#
# number of rings (size 3 to 8) (size 9 to 14) (size 15 to 20)
#    0.000    1.750    2.500    1.875    1.750    4.500 
#    0.000    5.000    0.000    1.500    0.000    0.000 
#    0.000    0.000    0.000    0.000    0.000    0.000 
#
# Total GULP energy -793192.819925 kJ/mol
# GULP energy per Si atom -12393.637811 kJ/mol
# Density = 2.096742 g / cm^3
# Si number density = 21.015251 Si / 1000 Ang^3
#
#
#
# Elastic Constant Matrix: (Units=GPa)
#
#
# Indices 1 2 3 4 5 6 
#
# 1 127.9011 38.8285 2.9723 0.0000 0.0000 0.0000
# 2 38.8285 109.0410 32.6012 0.0000 0.0000 0.0000
# 3 2.9723 32.6012 85.4165 0.0000 0.0000 0.0000
# 4 0.0000 0.0000 0.0000 26.2575 0.0000 0.0000
# 5 0.0000 0.0000 0.0000 0.0000 -33.2827 0.0000
# 6 0.0000 0.0000 0.0000 0.0000 0.0000 31.0189
#
#
#
# Elastic Compliance Matrix: (Units=1/GPa)
#
#
# Indices 1 2 3 4 5 6 
#
# 1 0.008843 -0.003451 0.001009 0.000000 0.000000 0.000000
# 2 -0.003451 0.011699 -0.004345 0.000000 0.000000 0.000000
# 3 0.001009 -0.004345 0.013331 0.000000 0.000000 0.000000
# 4 0.000000 0.000000 0.000000 0.038084 0.000000 0.000000
# 5 0.000000 0.000000 0.000000 0.000000 -0.030046 0.000000
# 6 0.000000 0.000000 0.000000 0.000000 0.000000 0.032238
#
#
# Mechanical properties :
#
#
# Convention : Reuss Voigt Hill
#
# Bulk Modulus (GPa) = 49.26270 52.35141 50.80706
# Shear Modulus (GPa) = 52.91682 21.32917 37.12299
#
# Velocity S-wave (km/s) = 5.02343 3.18926 4.20751
# Velocity P-wave (km/s) = 7.55902 6.20702 6.91614
#
# Compressibility (1/GPa) = 0.02029933
#
# Stress axis : x y z
#
# Youngs Moduli (GPa) = 113.08891 85.48017 75.01552
#
# Poissons Ratio (x) = 0.29495 -0.07571
# Poissons Ratio (y) = 0.39021 0.32594
# Poissons Ratio (z) = -0.11414 0.37141
#
# Static dielectric constant tensor:
#      x y z
#    x 4.068290 0.000000 0.000000 
#    y 0.000000 0.523300 0.000000 
#    z 0.000000 0.000000 3.695400 
# 
# 
# High freq. dielectric constant tensor:
#      x y z
#    x 1.834230 0.000000 0.000000 
#    y 0.000000 1.809300 0.000000 
#    z 0.000000 0.000000 1.819070 
# 
# From -- ./inp_files/14204.got.cif
#   From: 2010.03.12/outbox.cif.g09.slc.cpg/sg49_8_cif.got.tgz:14204.got - 2010.04.14 03:58:27.
