data_PCOD8204328
_publ_section_title
;
Structure prediction by ZEFSAII (Michael W. Deem and Ramdas Pophale) SiO2 
 PCOD8204328
Probable space group: P C C M
;
_chemical_formula_sum "Si O2"
_cell_formula_units_Z 48
_cell_length_a 9.051985
_cell_length_b 29.359933
_cell_length_c 9.693672
_cell_angle_alpha 90.000000
_cell_angle_beta 90.000000
_cell_angle_gamma 90.000000
_cell_volume 2576.245264
_symmetry_space_group_name_H-M "P C C M"
_symmetry_group_IT_number 49
_symmetry_cell_setting 'orthorhombic'
loop_
_space_group_symop_operation_xyz
x,y,z
-x,-y,z
x,-y,1/2-z
-x,y,1/2-z
-x,-y,-z
x,y,-z
-x,y,1/2+z
x,-y,1/2+z
loop_
_atom_site_type_symbol
_atom_site_label
_atom_site_fract_x
_atom_site_fract_y
_atom_site_fract_z
Si Si1 0.141587 0.138724 0.657523
Si Si2 0.152231 0.960967 0.836795
Si Si3 0.654846 0.562400 0.000000
Si Si4 0.359645 0.680515 0.842102
Si Si5 0.175903 0.597571 0.762212
Si Si6 0.360970 0.216676 0.659112
Si Si7 0.681162 0.545301 0.500000
O O1 0.091788 0.145430 0.500000
O O2 0.224585 0.089498 0.673435
O O3 0.241033 0.180356 0.707155
O O4 0.000000 0.140706 0.750000
O O5 0.000000 0.957966 0.750000
O O6 0.244466 0.000000 0.750000
O O7 0.131874 0.974125 0.000000
O O8 0.735621 0.586044 0.125680
O O9 0.671418 0.508521 0.000000
O O10 0.477920 0.571162 0.000000
O O11 0.500000 0.666898 0.750000
O O12 0.221323 0.647957 0.811371
O O13 0.305039 0.731928 0.811423
O O14 0.410264 0.675280 0.000000
O O15 0.225284 0.559154 0.868186
O O16 0.000000 0.595891 0.750000
O O17 0.500000 0.205100 0.750000
O O18 0.403811 0.210041 0.500000
#
# Coordination Sequence:
#
# PCOD8204328 Si02
#       7
#     8   8   4   8   8   8   4
#     4   9  18  31  49  74 106 139 175 222 276 326
#     4   9  15  24  40  65  96 133 173 217 266 320
#     4  11  25  41  67  87 113 157 195 231 266 333
#     4  10  21  39  62  83 109 146 187 226 271 334
#     4  12  25  39  60  91 121 149 183 234 289 328
#     4   9  19  36  56  79 105 139 180 224 267 319
#     4  11  23  45  63  87 117 153 199 227 270 329
#
# _framework density 18.631765999999999
#
# number of rings (size 3 to 8) (size 9 to 14) (size 15 to 20)
#    0.000    2.000    0.833    3.500    1.167    5.333 
#    0.000    0.000    0.000    0.500    0.000    3.500 
#    0.000    0.000    0.000    0.000    0.000    0.000 
#
# Total GULP energy -594798.076635 kJ/mol
# GULP energy per Si atom -12391.626597 kJ/mol
# Density = 1.858936 g / cm^3
# Si number density = 18.631766 Si / 1000 Ang^3
#
#
#
# Elastic Constant Matrix: (Units=GPa)
#
#
# Indices 1 2 3 4 5 6 
#
# 1 96.0420 46.6906 36.4502 0.0000 0.0000 0.0000
# 2 46.6906 110.7936 35.8269 0.0000 0.0000 0.0000
# 3 36.4502 35.8269 105.1003 0.0000 0.0000 0.0000
# 4 0.0000 0.0000 0.0000 33.9091 0.0000 0.0000
# 5 0.0000 0.0000 0.0000 0.0000 26.6494 0.0000
# 6 0.0000 0.0000 0.0000 0.0000 0.0000 -292.5580
#
#
#
# Elastic Compliance Matrix: (Units=1/GPa)
#
#
# Indices 1 2 3 4 5 6 
#
# 1 0.013988 -0.004862 -0.003194 0.000000 0.000000 0.000000
# 2 -0.004862 0.011834 -0.002348 0.000000 0.000000 0.000000
# 3 -0.003194 -0.002348 0.011423 0.000000 0.000000 0.000000
# 4 0.000000 0.000000 0.000000 0.029491 0.000000 0.000000
# 5 0.000000 0.000000 0.000000 0.000000 0.037524 0.000000
# 6 0.000000 0.000000 0.000000 0.000000 0.000000 -0.003418
#
#
# Mechanical properties :
#
#
# Convention : Reuss Voigt Hill
#
# Bulk Modulus (GPa) = 60.83713 61.09681 60.96697
# Shear Modulus (GPa) = 39.33056 -33.53535 2.89761
#
# Velocity S-wave (km/s) = 4.59948 -4.24713 1.24843
# Velocity P-wave (km/s) = 7.80578 2.96852 5.90518
#
# Compressibility (1/GPa) = 0.01643733
#
# Stress axis : x y z
#
# Youngs Moduli (GPa) = 71.49040 84.50279 87.54501
#
# Poissons Ratio (x) = 0.41085 0.27960
# Poissons Ratio (y) = 0.34759 0.20554
# Poissons Ratio (z) = 0.22833 0.19839
#
# Static dielectric constant tensor:
#      x y z
#    x 3.216730 0.000000 0.000000 
#    y 0.000000 4.139900 0.000000 
#    z 0.000000 0.000000 3.535850 
# 
# 
# High freq. dielectric constant tensor:
#      x y z
#    x 1.680780 0.000000 0.000000 
#    y 0.000000 1.749670 0.000000 
#    z 0.000000 0.000000 1.741000 
# 
# From -- ./inp_files/2163.got.cif
#   From: 2010.03.12/outbox.cif.g09.slc.cpg/sg49_2_cif.got.tgz:2163.got - 2010.04.14 03:58:27.
