data_PCOD8204179
_publ_section_title
;
Structure prediction by ZEFSAII (Michael W. Deem and Ramdas Pophale) SiO2 
 PCOD8204179
Probable space group: P C C M
;
_chemical_formula_sum "Si O2"
_cell_formula_units_Z 26
_cell_length_a 6.430211
_cell_length_b 8.607262
_cell_length_c 24.280151
_cell_angle_alpha 90.000000
_cell_angle_beta 90.000000
_cell_angle_gamma 90.000000
_cell_volume 1343.821639
_symmetry_space_group_name_H-M "P C C M"
_symmetry_group_IT_number 49
_symmetry_cell_setting 'orthorhombic'
loop_
_space_group_symop_operation_xyz
x,y,z
-x,-y,z
x,-y,1/2-z
-x,y,1/2-z
-x,-y,-z
x,y,-z
-x,y,1/2+z
x,-y,1/2+z
loop_
_atom_site_type_symbol
_atom_site_label
_atom_site_fract_x
_atom_site_fract_y
_atom_site_fract_z
Si Si1 0.565952 0.823336 0.086080
Si Si2 0.000000 0.500000 0.250000
Si Si3 0.684763 0.635467 0.500000
Si Si4 0.381169 0.346514 0.803386
Si Si5 0.835731 0.300451 0.500000
O O1 0.605795 0.780649 0.149274
O O2 0.500000 0.000000 0.082510
O O3 0.392191 0.717768 0.056043
O O4 0.784539 0.800989 0.054130
O O5 0.857035 0.610170 0.211520
O O6 0.663219 0.445138 0.500000
O O7 0.932269 0.646804 0.500000
O O8 0.500000 0.500000 0.824128
O O9 0.500000 0.278374 0.750000
#
# Coordination Sequence:
#
# PCOD8204179 Si02
#       5
#     8   2   4   8   4
#     4  11  22  35  54  82 115 144 173 217 274 327
#     4   8  18  36  60  82 100 132 190 230 260 308
#     4  10  21  38  57  81 106 140 189 225 260 313
#     4   9  19  36  58  80 105 140 181 225 264 312
#     4  10  21  36  59  79 104 146 185 225 262 307
#
# _framework density 19.347805000000001
#
# number of rings (size 3 to 8) (size 9 to 14) (size 15 to 20)
#    0.000    2.462    0.000    5.538    0.000   10.462 
#    0.000    0.000    0.000    7.385    0.000    0.000 
#    0.000    0.000    0.000    0.000    0.000    0.000 
#
# Total GULP energy -322288.736883 kJ/mol
# GULP energy per Si atom -12395.720649 kJ/mol
# Density = 1.930377 g / cm^3
# Si number density = 19.347805 Si / 1000 Ang^3
#
#
#
# Elastic Constant Matrix: (Units=GPa)
#
#
# Indices 1 2 3 4 5 6 
#
# 1 94.2329 36.7888 37.8467 0.0000 0.0000 0.0000
# 2 36.7888 125.3542 63.4959 0.0000 0.0000 0.0000
# 3 37.8467 63.4959 150.0923 0.0000 0.0000 0.0000
# 4 0.0000 0.0000 0.0000 10.1501 0.0000 0.0000
# 5 0.0000 0.0000 0.0000 0.0000 7.9823 0.0000
# 6 0.0000 0.0000 0.0000 0.0000 0.0000 13.5742
#
#
#
# Elastic Compliance Matrix: (Units=1/GPa)
#
#
# Indices 1 2 3 4 5 6 
#
# 1 0.012452 -0.002627 -0.002029 0.000000 0.000000 0.000000
# 2 -0.002627 0.010707 -0.003867 0.000000 0.000000 0.000000
# 3 -0.002029 -0.003867 0.008810 0.000000 0.000000 0.000000
# 4 0.000000 0.000000 0.000000 0.098521 0.000000 0.000000
# 5 0.000000 0.000000 0.000000 0.000000 0.125277 0.000000
# 6 0.000000 0.000000 0.000000 0.000000 0.000000 0.073669
#
#
# Mechanical properties :
#
#
# Convention : Reuss Voigt Hill
#
# Bulk Modulus (GPa) = 67.00585 71.77135 69.38860
# Shear Modulus (GPa) = 14.22649 21.77787 18.00218
#
# Velocity S-wave (km/s) = 2.71459 3.35863 3.05364
# Velocity P-wave (km/s) = 6.67329 7.22609 6.95519
#
# Compressibility (1/GPa) = 0.01492407
#
# Stress axis : x y z
#
# Youngs Moduli (GPa) = 80.30637 93.39489 113.50586
#
# Poissons Ratio (x) = 0.24534 0.23026
# Poissons Ratio (y) = 0.21096 0.43896
# Poissons Ratio (z) = 0.16291 0.36118
#
# Static dielectric constant tensor:
#      x y z
#    x 3.628870 0.000000 0.000000 
#    y 0.000000 3.389670 0.000000 
#    z 0.000000 0.000000 3.466100 
# 
# 
# High freq. dielectric constant tensor:
#      x y z
#    x 1.765580 0.000000 0.000000 
#    y 0.000000 1.740160 0.000000 
#    z 0.000000 0.000000 1.752950 
# 
# From -- ./inp_files/21470.got.cif
#   From: 2010.03.12/outbox.cif.g09.slc.cpg/sg49_11_cif.got.tgz:21470.got - 2010.04.14 03:58:27.
