data_PCOD8204236
_publ_section_title
;
Structure prediction by ZEFSAII (Michael W. Deem and Ramdas Pophale) SiO2 
 PCOD8204236
Probable space group: P C C M
;
_chemical_formula_sum "Si O2"
_cell_formula_units_Z 40
_cell_length_a 25.303209
_cell_length_b 9.149147
_cell_length_c 8.493763
_cell_angle_alpha 90.000000
_cell_angle_beta 90.000000
_cell_angle_gamma 90.000000
_cell_volume 1966.329736
_symmetry_space_group_name_H-M "P C C M"
_symmetry_group_IT_number 49
_symmetry_cell_setting 'orthorhombic'
loop_
_space_group_symop_operation_xyz
x,y,z
-x,-y,z
x,-y,1/2-z
-x,y,1/2-z
-x,-y,-z
x,y,-z
-x,y,1/2+z
x,-y,1/2+z
loop_
_atom_site_type_symbol
_atom_site_label
_atom_site_fract_x
_atom_site_fract_y
_atom_site_fract_z
Si Si1 0.342475 0.661865 0.185863
Si Si2 0.849965 0.659079 0.685039
Si Si3 0.057624 0.155597 0.814500
Si Si4 0.555589 0.842607 0.683573
Si Si5 0.246081 0.839085 0.685113
O O1 0.340990 0.500000 0.250000
O O2 0.399516 0.727173 0.228573
O O3 0.299031 0.751456 0.280127
O O4 0.330579 0.667636 0.000000
O O5 0.835669 0.500000 0.750000
O O6 0.858100 0.651184 0.500000
O O7 0.903729 0.715333 0.763264
O O8 0.802747 0.767500 0.725372
O O9 0.000000 0.193700 0.750000
O O10 0.078304 0.000000 0.750000
O O11 0.054998 0.144894 0.000000
O O12 0.500000 0.784458 0.750000
O O13 0.549239 0.860986 0.500000
O O14 0.571515 0.000000 0.750000
O O15 0.234287 0.840901 0.500000
O O16 0.254335 0.000000 0.750000
#
# Coordination Sequence:
#
# PCOD8204236 Si02
#       5
#     8   8   8   8   8
#     4  11  24  41  61  89 122 160 200 247 302 360
#     4  12  25  43  64  91 125 162 202 250 304 361
#     4  11  22  40  64  93 125 163 207 253 302 357
#     4  10  21  37  60  87 118 155 200 247 298 354
#     4  12  25  43  66  92 121 158 201 249 299 358
#
# _framework density 20.342469000000001
#
# number of rings (size 3 to 8) (size 9 to 14) (size 15 to 20)
#    0.000    0.800    0.000    9.600    0.000    5.600 
#    0.000    4.000    0.000    0.000    0.000    0.000 
#    0.000    0.000    0.000    0.000    0.000    0.000 
#
# Total GULP energy -496284.498050 kJ/mol
# GULP energy per Si atom -12407.112451 kJ/mol
# Density = 2.029617 g / cm^3
# Si number density = 20.342469 Si / 1000 Ang^3
#
#
#
# Elastic Constant Matrix: (Units=GPa)
#
#
# Indices 1 2 3 4 5 6 
#
# 1 109.7789 61.3864 41.8701 0.0000 0.0000 0.0000
# 2 61.3864 134.6300 33.6446 0.0000 0.0000 0.0000
# 3 41.8701 33.6446 139.5068 0.0000 0.0000 0.0000
# 4 0.0000 0.0000 0.0000 32.1282 0.0000 0.0000
# 5 0.0000 0.0000 0.0000 0.0000 69.8195 0.0000
# 6 0.0000 0.0000 0.0000 0.0000 0.0000 34.6172
#
#
#
# Elastic Compliance Matrix: (Units=1/GPa)
#
#
# Indices 1 2 3 4 5 6 
#
# 1 0.013086 -0.005305 -0.002648 0.000000 0.000000 0.000000
# 2 -0.005305 0.010055 -0.000833 0.000000 0.000000 0.000000
# 3 -0.002648 -0.000833 0.008164 0.000000 0.000000 0.000000
# 4 0.000000 0.000000 0.000000 0.031125 0.000000 0.000000
# 5 0.000000 0.000000 0.000000 0.000000 0.014323 0.000000
# 6 0.000000 0.000000 0.000000 0.000000 0.000000 0.028887
#
#
# Mechanical properties :
#
#
# Convention : Reuss Voigt Hill
#
# Bulk Modulus (GPa) = 72.81833 73.07978 72.94906
# Shear Modulus (GPa) = 39.12735 43.78061 41.45398
#
# Velocity S-wave (km/s) = 4.39045 4.64419 4.51910
# Velocity P-wave (km/s) = 7.84700 8.04741 7.94783
#
# Compressibility (1/GPa) = 0.01373281
#
# Stress axis : x y z
#
# Youngs Moduli (GPa) = 76.42033 99.45639 122.49371
#
# Poissons Ratio (x) = 0.52759 0.32436
# Poissons Ratio (y) = 0.40539 0.10201
# Poissons Ratio (z) = 0.20236 0.08282
#
# Static dielectric constant tensor:
#      x y z
#    x 4.053220 0.000000 0.000000 
#    y 0.000000 3.709030 0.000000 
#    z 0.000000 0.000000 3.872060 
# 
# 
# High freq. dielectric constant tensor:
#      x y z
#    x 1.810820 0.000000 0.000000 
#    y 0.000000 1.802090 0.000000 
#    z 0.000000 0.000000 1.817890 
# 
# From -- ./inp_files/1701.got.cif
#   From: 2010.03.12/outbox.cif.g09.slc.cpg/sg49_1_cif.got.tgz:1701.got - 2010.04.14 03:58:27.
