data_PCOD8204394
_publ_section_title
;
Structure prediction by ZEFSAII (Michael W. Deem and Ramdas Pophale) SiO2 
 PCOD8204394
Probable space group: P C C M
;
_chemical_formula_sum "Si O2"
_cell_formula_units_Z 58
_cell_length_a 14.006366
_cell_length_b 11.214925
_cell_length_c 18.535229
_cell_angle_alpha 90.000000
_cell_angle_beta 90.000000
_cell_angle_gamma 90.000000
_cell_volume 2911.520151
_symmetry_space_group_name_H-M "P C C M"
_symmetry_group_IT_number 49
_symmetry_cell_setting 'orthorhombic'
loop_
_space_group_symop_operation_xyz
x,y,z
-x,-y,z
x,-y,1/2-z
-x,y,1/2-z
-x,-y,-z
x,y,-z
-x,y,1/2+z
x,-y,1/2+z
loop_
_atom_site_type_symbol
_atom_site_label
_atom_site_fract_x
_atom_site_fract_y
_atom_site_fract_z
Si Si1 0.326717 0.622861 0.293296
Si Si2 0.890507 0.989909 0.082648
Si Si3 0.403413 0.780506 0.179042
Si Si4 0.459967 0.630791 0.580051
Si Si5 0.851871 0.790280 0.184645
Si Si6 0.017796 0.372706 0.665854
Si Si7 0.500000 0.000000 0.250000
Si Si8 0.180386 0.207182 0.657850
O O1 0.310149 0.500000 0.250000
O O2 0.407773 0.700438 0.251641
O O3 0.364591 0.609719 0.374042
O O4 0.227981 0.690612 0.302574
O O5 0.827749 0.898792 0.131306
O O6 0.843048 0.118233 0.093040
O O7 0.882731 0.949757 0.000000
O O8 0.000000 0.000000 0.108384
O O9 0.467528 0.725435 0.115820
O O10 0.434727 0.915800 0.198804
O O11 0.293270 0.773853 0.155328
O O12 0.500000 0.500000 0.573262
O O13 0.435107 0.679994 0.500000
O O14 0.863963 0.842870 0.265955
O O15 0.942268 0.729716 0.144500
O O16 0.124998 0.332408 0.644403
O O17 0.000000 0.500000 0.626639
O O18 0.000000 0.390598 0.750000
#
# Coordination Sequence:
#
# PCOD8204394 Si02
#       8
#     8   8   8   8   8   8   2   8
#     4  11  22  39  67  96 123 162 209 268 332 385
#     4  11  23  40  60  84 125 174 214 251 306 373
#     4  11  24  39  64  90 128 165 214 267 320 382
#     4  11  23  41  65  94 127 168 211 259 325 394
#     4  10  22  35  61  94 120 153 206 265 311 374
#     4   9  18  32  54  88 126 152 191 259 320 371
#     4  12  24  40  60  92 126 172 218 274 324 388
#     4  10  22  37  62  91 120 164 209 263 316 374
#
# _framework density 19.920864999999999
#
# number of rings (size 3 to 8) (size 9 to 14) (size 15 to 20)
#    0.000    1.517    4.138    0.414    9.655    1.655 
#    0.000    0.345    0.000    1.655    0.000    0.000 
#    0.000    0.000    0.000    0.000    0.000    0.000 
#
# Total GULP energy -718749.417459 kJ/mol
# GULP energy per Si atom -12392.231335 kJ/mol
# Density = 1.987552 g / cm^3
# Si number density = 19.920865 Si / 1000 Ang^3
#
#
#
# Elastic Constant Matrix: (Units=GPa)
#
#
# Indices 1 2 3 4 5 6 
#
# 1 102.0896 42.2081 32.9871 0.0000 0.0000 0.0000
# 2 42.2081 124.9053 41.2174 0.0000 0.0000 0.0000
# 3 32.9871 41.2174 101.4878 0.0000 0.0000 0.0000
# 4 0.0000 0.0000 0.0000 14.3742 0.0000 0.0000
# 5 0.0000 0.0000 0.0000 0.0000 24.5542 0.0000
# 6 0.0000 0.0000 0.0000 0.0000 0.0000 29.7063
#
#
#
# Elastic Compliance Matrix: (Units=1/GPa)
#
#
# Indices 1 2 3 4 5 6 
#
# 1 0.011948 -0.003183 -0.002591 0.000000 0.000000 0.000000
# 2 -0.003183 0.010093 -0.003065 0.000000 0.000000 0.000000
# 3 -0.002591 -0.003065 0.011940 0.000000 0.000000 0.000000
# 4 0.000000 0.000000 0.000000 0.069569 0.000000 0.000000
# 5 0.000000 0.000000 0.000000 0.000000 0.040726 0.000000
# 6 0.000000 0.000000 0.000000 0.000000 0.000000 0.033663
#
#
# Mechanical properties :
#
#
# Convention : Reuss Voigt Hill
#
# Bulk Modulus (GPa) = 61.33117 62.36756 61.84937
# Shear Modulus (GPa) = 24.86933 27.86494 26.36714
#
# Velocity S-wave (km/s) = 3.53711 3.74409 3.64207
# Velocity P-wave (km/s) = 6.89462 7.07577 6.98578
#
# Compressibility (1/GPa) = 0.01630492
#
# Stress axis : x y z
#
# Youngs Moduli (GPa) = 83.69356 99.08064 83.75055
#
# Poissons Ratio (x) = 0.31533 0.21701
# Poissons Ratio (y) = 0.26636 0.25666
# Poissons Ratio (z) = 0.21686 0.30364
#
# Static dielectric constant tensor:
#      x y z
#    x 3.588450 0.000000 0.000000 
#    y 0.000000 3.773040 0.000000 
#    z 0.000000 0.000000 3.841730 
# 
# 
# High freq. dielectric constant tensor:
#      x y z
#    x 1.779460 0.000000 0.000000 
#    y 0.000000 1.783550 0.000000 
#    z 0.000000 0.000000 1.748120 
# 
# From -- ./inp_files/17887.got.cif
#   From: 2010.03.12/outbox.cif.g09.slc.cpg/sg49_9_cif.got.tgz:17887.got - 2010.04.14 03:58:27.
