data_PCOD8204396
_publ_section_title
;
Structure prediction by ZEFSAII (Michael W. Deem and Ramdas Pophale) SiO2 
 PCOD8204396
Probable space group: P C C M
;
_chemical_formula_sum "Si O2"
_cell_formula_units_Z 64
_cell_length_a 15.209746
_cell_length_b 9.032835
_cell_length_c 23.874114
_cell_angle_alpha 90.000000
_cell_angle_beta 90.000000
_cell_angle_gamma 90.000000
_cell_volume 3279.995908
_symmetry_space_group_name_H-M "P C C M"
_symmetry_group_IT_number 49
_symmetry_cell_setting 'orthorhombic'
loop_
_space_group_symop_operation_xyz
x,y,z
-x,-y,z
x,-y,1/2-z
-x,y,1/2-z
-x,-y,-z
x,y,-z
-x,y,1/2+z
x,-y,1/2+z
loop_
_atom_site_type_symbol
_atom_site_label
_atom_site_fract_x
_atom_site_fract_y
_atom_site_fract_z
Si Si1 0.627067 0.857611 0.853193
Si Si2 0.816538 0.327098 0.835048
Si Si3 0.084104 0.410852 0.120625
Si Si4 0.697108 0.646850 0.563835
Si Si5 0.984594 0.836248 0.314949
Si Si6 0.648884 0.330093 0.240444
Si Si7 0.257397 0.679979 0.562948
Si Si8 0.572743 0.816109 0.361487
O O1 0.645176 0.773290 0.795090
O O2 0.701034 0.803147 0.896611
O O3 0.529056 0.832714 0.876300
O O4 0.630733 0.035900 0.848754
O O5 0.867505 0.484265 0.833788
O O6 0.776473 0.301093 0.896681
O O7 0.745855 0.322266 0.785804
O O8 0.883009 0.193918 0.826669
O O9 0.051493 0.267588 0.152608
O O10 0.154779 0.357508 0.074704
O O11 0.000000 0.500000 0.093941
O O12 0.717398 0.693166 0.500000
O O13 0.685269 0.469735 0.569514
O O14 0.609336 0.726899 0.585208
O O15 0.000000 0.816735 0.250000
O O16 0.000000 0.000000 0.337111
O O17 0.624121 0.500000 0.250000
O O18 0.577181 0.275629 0.195944
O O19 0.262953 0.741780 0.500000
#
# Coordination Sequence:
#
# PCOD8204396 Si02
#       8
#     8   8   8   8   8   8   8   8
#     4  11  23  39  58  81 122 157 191 240 286 355
#     4   9  20  36  56  87 110 148 190 231 290 345
#     4   9  19  37  60  82 114 152 186 238 290 350
#     4   9  19  39  62  85 114 147 193 246 287 337
#     4  10  22  36  52  81 117 152 189 228 278 344
#     4  11  22  36  60  88 115 147 194 243 292 346
#     4  10  22  39  61  89 114 148 200 246 290 341
#     4  10  23  40  56  85 117 158 196 229 296 351
#
# _framework density 19.512219000000002
#
# number of rings (size 3 to 8) (size 9 to 14) (size 15 to 20)
#    0.000    2.125    0.000    3.000    3.500    8.500 
#    4.500    4.375    0.000    0.750    0.000    0.000 
#    0.000    0.000    0.000    0.000    0.000    0.000 
#
# Total GULP energy -793410.225279 kJ/mol
# GULP energy per Si atom -12397.034770 kJ/mol
# Density = 1.946781 g / cm^3
# Si number density = 19.512219 Si / 1000 Ang^3
#
#
#
# Elastic Constant Matrix: (Units=GPa)
#
#
# Indices 1 2 3 4 5 6 
#
# 1 92.7325 36.9804 38.7349 0.0000 0.0000 0.0000
# 2 36.9804 104.7966 51.0830 0.0000 0.0000 0.0000
# 3 38.7349 51.0830 108.7640 0.0000 0.0000 0.0000
# 4 0.0000 0.0000 0.0000 1.3856 0.0000 0.0000
# 5 0.0000 0.0000 0.0000 0.0000 16.2161 0.0000
# 6 0.0000 0.0000 0.0000 0.0000 0.0000 33.8822
#
#
#
# Elastic Compliance Matrix: (Units=1/GPa)
#
#
# Indices 1 2 3 4 5 6 
#
# 1 0.013410 -0.003118 -0.003311 0.000000 0.000000 0.000000
# 2 -0.003118 0.013101 -0.005042 0.000000 0.000000 0.000000
# 3 -0.003311 -0.005042 0.012742 0.000000 0.000000 0.000000
# 4 0.000000 0.000000 0.000000 0.721698 0.000000 0.000000
# 5 0.000000 0.000000 0.000000 0.000000 0.061667 0.000000
# 6 0.000000 0.000000 0.000000 0.000000 0.000000 0.029514
#
#
# Mechanical properties :
#
#
# Convention : Reuss Voigt Hill
#
# Bulk Modulus (GPa) = 61.31667 62.20995 61.76331
# Shear Modulus (GPa) = 5.67851 22.26312 13.97081
#
# Velocity S-wave (km/s) = 1.70779 3.38151 2.67873
# Velocity P-wave (km/s) = 5.94825 6.87007 6.42571
#
# Compressibility (1/GPa) = 0.01630878
#
# Stress axis : x y z
#
# Youngs Moduli (GPa) = 74.56928 76.33295 78.48169
#
# Poissons Ratio (x) = 0.23801 0.25989
# Poissons Ratio (y) = 0.23251 0.39574
# Poissons Ratio (z) = 0.24693 0.38490
#
# Static dielectric constant tensor:
#      x y z
#    x 3.666830 0.000000 0.000000 
#    y 0.000000 3.714410 0.000000 
#    z 0.000000 0.000000 3.466950 
# 
# 
# High freq. dielectric constant tensor:
#      x y z
#    x 1.766990 0.000000 0.000000 
#    y 0.000000 1.763690 0.000000 
#    z 0.000000 0.000000 1.748700 
# 
# From -- ./inp_files/23208.got.cif
#   From: 2010.03.12/outbox.cif.g09.slc.cpg/sg49_12_cif.got.tgz:23208.got - 2010.04.14 03:58:27.
