data_PCOD8204817
_publ_section_title
;
Structure prediction by ZEFSAII (Michael W. Deem and Ramdas Pophale) SiO2 
 PCOD8204817
Probable space group: P B A N
;
_chemical_formula_sum "Si O2"
_cell_formula_units_Z 28
_cell_length_a 7.356713
_cell_length_b 21.028941
_cell_length_c 9.138414
_cell_angle_alpha 90.000000
_cell_angle_beta 90.000000
_cell_angle_gamma 90.000000
_cell_volume 1413.748136
_symmetry_space_group_name_H-M "P B A N"
_symmetry_group_IT_number 50
_space_group.IT_coordinate_system_code '2'
_symmetry_cell_setting 'orthorhombic'
loop_
_space_group_symop_operation_xyz
x,y,z
1/2-x,1/2-y,z
x,1/2-y,-z
1/2-x,y,-z
-x,-y,-z
1/2+x,1/2+y,-z
-x,1/2+y,z
1/2+x,-y,z
loop_
_atom_site_type_symbol
_atom_site_label
_atom_site_fract_x
_atom_site_fract_y
_atom_site_fract_z
Si Si1 0.250000 0.250000 0.000000
Si Si2 0.174734 0.162018 0.751747
Si Si3 0.750000 0.750000 0.500000
Si Si4 0.999479 0.078266 0.155905
Si Si5 0.586307 0.438080 0.823343
O O1 0.125596 0.294428 0.106071
O O2 0.139151 0.203995 0.607777
O O3 0.381325 0.135760 0.777071
O O4 0.039572 0.103960 0.719434
O O5 0.789590 0.087552 0.197581
O O6 0.008120 0.074134 0.980684
O O7 0.079789 0.012125 0.219008
#
# Coordination Sequence:
#
# PCOD8204817 Si02
#       5
#     2   8   2   8   8
#     4  10  20  34  62  74 116 164 188 232 286 330
#     4  11  20  42  56  88 116 161 196 245 276 360
#     4  10  28  42  62  70 128 172 208 220 290 330
#     4  10  18  31  61  98 120 140 184 250 307 346
#     4  10  18  31  61  98 120 140 184 250 307 346
#
# _framework density 19.805508
#
# number of rings (size 3 to 8) (size 9 to 14) (size 15 to 20)
#    0.000    1.714    5.714    0.000    0.000    0.000 
#    0.000   11.429    0.000    0.000    0.000    0.000 
#    0.000    0.000    0.000    0.000    0.000    0.000 
#
# Total GULP energy -346911.428362 kJ/mol
# GULP energy per Si atom -12389.693870 kJ/mol
# Density = 1.976043 g / cm^3
# Si number density = 19.805508 Si / 1000 Ang^3
#
#
#
# Elastic Constant Matrix: (Units=GPa)
#
#
# Indices 1 2 3 4 5 6 
#
# 1 90.3063 53.6038 23.6755 0.0000 0.0000 0.0000
# 2 53.6038 124.3276 43.0188 0.0000 0.0000 0.0000
# 3 23.6755 43.0188 86.0530 0.0000 0.0000 0.0000
# 4 0.0000 0.0000 0.0000 29.4829 0.0000 0.0000
# 5 0.0000 0.0000 0.0000 0.0000 7.6463 0.0000
# 6 0.0000 0.0000 0.0000 0.0000 0.0000 1.2527
#
#
#
# Elastic Compliance Matrix: (Units=1/GPa)
#
#
# Indices 1 2 3 4 5 6 
#
# 1 0.014964 -0.006079 -0.001078 0.000000 0.000000 0.000000
# 2 -0.006079 0.012195 -0.004424 0.000000 0.000000 0.000000
# 3 -0.001078 -0.004424 0.014129 0.000000 0.000000 0.000000
# 4 0.000000 0.000000 0.000000 0.033918 0.000000 0.000000
# 5 0.000000 0.000000 0.000000 0.000000 0.130781 0.000000
# 6 0.000000 0.000000 0.000000 0.000000 0.000000 0.798305
#
#
# Mechanical properties :
#
#
# Convention : Reuss Voigt Hill
#
# Bulk Modulus (GPa) = 55.16846 60.14256 57.65551
# Shear Modulus (GPa) = 4.83794 19.70229 12.27012
#
# Velocity S-wave (km/s) = 1.56462 3.15745 2.49174
# Velocity P-wave (km/s) = 5.58387 6.61250 6.11984
#
# Compressibility (1/GPa) = 0.01812630
#
# Stress axis : x y z
#
# Youngs Moduli (GPa) = 66.82548 82.00182 70.77668
#
# Poissons Ratio (x) = 0.49847 0.07631
# Poissons Ratio (y) = 0.40622 0.31311
# Poissons Ratio (z) = 0.07205 0.36277
#
# Static dielectric constant tensor:
#      x y z
#    x 3.331490 0.000000 0.000000 
#    y 0.000000 3.957120 0.000000 
#    z 0.000000 0.000000 3.355180 
# 
# 
# High freq. dielectric constant tensor:
#      x y z
#    x 1.749310 0.000000 0.000000 
#    y 0.000000 1.795670 0.000000 
#    z 0.000000 0.000000 1.727740 
# 
# From -- ./inp_files/8860.got.cif
#   From: 2010.03.12/outbox.cif.g09.slc.cpg/sg50_5_cif.got.tgz:8860.got - 2010.04.16 13:23:21.
