data_PCOD8204508
_publ_section_title
;
Structure prediction by ZEFSAII (Michael W. Deem and Ramdas Pophale) SiO2 
 PCOD8204508
Probable space group: P C C M
;
_chemical_formula_sum "Si O2"
_cell_formula_units_Z 48
_cell_length_a 13.952963
_cell_length_b 9.304411
_cell_length_c 19.290601
_cell_angle_alpha 90.000000
_cell_angle_beta 90.000000
_cell_angle_gamma 90.000000
_cell_volume 2504.384960
_symmetry_space_group_name_H-M "P C C M"
_symmetry_group_IT_number 49
_symmetry_cell_setting 'orthorhombic'
loop_
_space_group_symop_operation_xyz
x,y,z
-x,-y,z
x,-y,1/2-z
-x,y,1/2-z
-x,-y,-z
x,y,-z
-x,y,1/2+z
x,-y,1/2+z
loop_
_atom_site_type_symbol
_atom_site_label
_atom_site_fract_x
_atom_site_fract_y
_atom_site_fract_z
Si Si1 0.888569 0.855102 0.664001
Si Si2 0.108951 0.821976 0.323015
Si Si3 0.240579 0.568970 0.320046
Si Si4 0.534016 0.844258 0.419235
Si Si5 0.732288 0.304795 0.918057
Si Si6 0.448414 0.348317 0.186009
O O1 0.858362 0.826930 0.742893
O O2 0.829584 0.767672 0.607736
O O3 0.997400 0.798340 0.661185
O O4 0.870097 0.021814 0.644123
O O5 0.169052 0.687869 0.354206
O O6 0.193262 0.500000 0.250000
O O7 0.272873 0.457084 0.379183
O O8 0.337344 0.644386 0.294333
O O9 0.518187 0.830341 0.500000
O O10 0.642853 0.799502 0.398861
O O11 0.459432 0.735477 0.385339
O O12 0.500000 0.000000 0.392681
O O13 0.737200 0.332713 0.000000
O O14 0.500000 0.500000 0.177039
O O15 0.500000 0.265376 0.250000
#
# Coordination Sequence:
#
# PCOD8204508 Si02
#       6
#     8   8   8   8   8   8
#     4   9  19  40  60  88 115 148 205 249 298 364
#     4   9  20  37  64  86 112 154 201 252 297 361
#     4  12  21  37  59  89 120 158 202 245 303 366
#     4  10  23  41  59  83 117 160 203 238 290 363
#     4  11  23  39  59  88 126 159 195 255 309 354
#     4  11  21  37  56  86 122 152 191 252 299 348
#
# _framework density 19.166381999999999
#
# number of rings (size 3 to 8) (size 9 to 14) (size 15 to 20)
#    0.000    1.667    5.000    1.000    2.333    2.000 
#    0.000    4.167    0.000    0.000    0.000    0.000 
#    0.000    0.000    0.000    0.000    0.000    0.000 
#
# Total GULP energy -594862.481679 kJ/mol
# GULP energy per Si atom -12392.968368 kJ/mol
# Density = 1.912276 g / cm^3
# Si number density = 19.166382 Si / 1000 Ang^3
#
#
#
# Elastic Constant Matrix: (Units=GPa)
#
#
# Indices 1 2 3 4 5 6 
#
# 1 100.1455 65.5760 32.6775 0.0000 0.0000 0.0000
# 2 65.5760 105.6849 38.5059 0.0000 0.0000 0.0000
# 3 32.6775 38.5059 63.7540 0.0000 0.0000 0.0000
# 4 0.0000 0.0000 0.0000 37.1385 0.0000 0.0000
# 5 0.0000 0.0000 0.0000 0.0000 27.0406 0.0000
# 6 0.0000 0.0000 0.0000 0.0000 0.0000 41.9518
#
#
#
# Elastic Compliance Matrix: (Units=1/GPa)
#
#
# Indices 1 2 3 4 5 6 
#
# 1 0.017270 -0.009604 -0.003051 0.000000 0.000000 0.000000
# 2 -0.009604 0.017473 -0.005630 0.000000 0.000000 0.000000
# 3 -0.003051 -0.005630 0.020650 0.000000 0.000000 0.000000
# 4 0.000000 0.000000 0.000000 0.026926 0.000000 0.000000
# 5 0.000000 0.000000 0.000000 0.000000 0.036981 0.000000
# 6 0.000000 0.000000 0.000000 0.000000 0.000000 0.023837
#
#
# Mechanical properties :
#
#
# Convention : Reuss Voigt Hill
#
# Bulk Modulus (GPa) = 53.13202 60.34483 56.73842
# Shear Modulus (GPa) = 26.88431 30.08116 28.48274
#
# Velocity S-wave (km/s) = 3.74930 3.96596 3.85915
# Velocity P-wave (km/s) = 6.82090 7.24740 7.03738
#
# Compressibility (1/GPa) = 0.01882104
#
# Stress axis : x y z
#
# Youngs Moduli (GPa) = 57.90440 57.23216 48.42649
#
# Poissons Ratio (x) = 0.54966 0.14776
# Poissons Ratio (y) = 0.55611 0.27267
# Poissons Ratio (z) = 0.17668 0.32225
#
# Static dielectric constant tensor:
#      x y z
#    x 3.511290 0.000000 0.000000 
#    y 0.000000 3.650820 0.000000 
#    z 0.000000 0.000000 3.391920 
# 
# 
# High freq. dielectric constant tensor:
#      x y z
#    x 1.747940 0.000000 0.000000 
#    y 0.000000 1.746990 0.000000 
#    z 0.000000 0.000000 1.724260 
# 
# From -- ./inp_files/20742.got.cif
#   From: 2010.03.12/outbox.cif.g09.slc.cpg/sg49_11_cif.got.tgz:20742.got - 2010.04.14 03:58:27.
