data_PCOD8204365
_publ_section_title
;
Structure prediction by ZEFSAII (Michael W. Deem and Ramdas Pophale) SiO2 
 PCOD8204365
Probable space group: P C C M
;
_chemical_formula_sum "Si O2"
_cell_formula_units_Z 48
_cell_length_a 8.705360
_cell_length_b 28.028420
_cell_length_c 10.053727
_cell_angle_alpha 90.000000
_cell_angle_beta 90.000000
_cell_angle_gamma 90.000000
_cell_volume 2453.084116
_symmetry_space_group_name_H-M "P C C M"
_symmetry_group_IT_number 49
_symmetry_cell_setting 'orthorhombic'
loop_
_space_group_symop_operation_xyz
x,y,z
-x,-y,z
x,-y,1/2-z
-x,y,1/2-z
-x,-y,-z
x,y,-z
-x,y,1/2+z
x,-y,1/2+z
loop_
_atom_site_type_symbol
_atom_site_label
_atom_site_fract_x
_atom_site_fract_y
_atom_site_fract_z
Si Si1 0.161759 0.065227 0.500000
Si Si2 0.140509 0.297609 0.151355
Si Si3 0.143430 0.192800 0.847943
Si Si4 0.664374 0.563961 0.500000
Si Si5 0.680667 0.897175 0.237637
Si Si6 0.309649 0.452320 0.000000
Si Si7 0.816723 0.604045 0.239157
Si Si8 0.811750 0.952786 0.000000
O O1 0.233815 0.090845 0.373521
O O2 0.978749 0.071911 0.500000
O O3 0.193045 0.009360 0.500000
O O4 0.221229 0.245695 0.164821
O O5 0.244196 0.343182 0.194064
O O6 0.000000 0.295824 0.250000
O O7 0.083284 0.305712 0.000000
O O8 0.274432 0.155353 0.811478
O O9 0.000000 0.186006 0.750000
O O10 0.086665 0.184725 0.000000
O O11 0.481435 0.568015 0.500000
O O12 0.707672 0.508843 0.500000
O O13 0.733594 0.590753 0.374335
O O14 0.500000 0.898495 0.250000
O O15 0.724669 0.937061 0.131572
O O16 0.224565 0.435196 0.131089
O O17 0.000000 0.604880 0.250000
#
# Coordination Sequence:
#
# PCOD8204365 Si02
#       8
#     4   8   8   4   8   4   8   4
#     4  11  25  41  68  89 122 159 214 251 296 363
#     4   9  19  36  62  92 122 155 198 254 306 358
#     4  10  21  40  66  92 121 162 208 247 296 367
#     4  11  25  39  60  85 122 167 202 243 302 369
#     4  12  25  40  61  94 129 161 197 252 314 359
#     4  11  23  43  58  83 124 165 204 243 300 371
#     4  11  22  38  63  93 119 152 202 258 306 354
#     4  11  23  45  64  91 118 165 210 255 292 361
#
# _framework density 19.567205999999999
#
# number of rings (size 3 to 8) (size 9 to 14) (size 15 to 20)
#    0.000    1.333    1.667    4.000    4.667    6.667 
#    0.000    1.667    0.000    0.000    0.000    0.000 
#    0.000    0.000    0.000    0.000    0.000    0.000 
#
# Total GULP energy -595094.838716 kJ/mol
# GULP energy per Si atom -12397.809140 kJ/mol
# Density = 1.952267 g / cm^3
# Si number density = 19.567206 Si / 1000 Ang^3
#
#
#
# Elastic Constant Matrix: (Units=GPa)
#
#
# Indices 1 2 3 4 5 6 
#
# 1 98.4145 51.9864 45.8863 0.0000 0.0000 0.0000
# 2 51.9864 120.5786 58.5804 0.0000 0.0000 0.0000
# 3 45.8863 58.5804 170.1468 0.0000 0.0000 0.0000
# 4 0.0000 0.0000 0.0000 40.1390 0.0000 0.0000
# 5 0.0000 0.0000 0.0000 0.0000 33.3541 0.0000
# 6 0.0000 0.0000 0.0000 0.0000 0.0000 8.2217
#
#
#
# Elastic Compliance Matrix: (Units=1/GPa)
#
#
# Indices 1 2 3 4 5 6 
#
# 1 0.013699 -0.004937 -0.001995 0.000000 0.000000 0.000000
# 2 -0.004937 0.011739 -0.002710 0.000000 0.000000 0.000000
# 3 -0.001995 -0.002710 0.007348 0.000000 0.000000 0.000000
# 4 0.000000 0.000000 0.000000 0.024913 0.000000 0.000000
# 5 0.000000 0.000000 0.000000 0.000000 0.029981 0.000000
# 6 0.000000 0.000000 0.000000 0.000000 0.000000 0.121629
#
#
# Mechanical properties :
#
#
# Convention : Reuss Voigt Hill
#
# Bulk Modulus (GPa) = 74.06171 78.00511 76.03341
# Shear Modulus (GPa) = 21.45052 31.85541 26.65296
#
# Velocity S-wave (km/s) = 3.31456 4.03923 3.69470
# Velocity P-wave (km/s) = 7.25124 7.85529 7.55930
#
# Compressibility (1/GPa) = 0.01350225
#
# Stress axis : x y z
#
# Youngs Moduli (GPa) = 72.99722 85.18909 136.08702
#
# Poissons Ratio (x) = 0.42060 0.27144
# Poissons Ratio (y) = 0.36040 0.36880
# Poissons Ratio (z) = 0.14560 0.23086
#
# Static dielectric constant tensor:
#      x y z
#    x 3.375090 0.000000 0.000000 
#    y 0.000000 4.256820 0.000000 
#    z 0.000000 0.000000 3.812600 
# 
# 
# High freq. dielectric constant tensor:
#      x y z
#    x 1.732320 0.000000 0.000000 
#    y 0.000000 1.790130 0.000000 
#    z 0.000000 0.000000 1.787430 
# 
# From -- ./inp_files/2184.got.cif
#   From: 2010.03.12/outbox.cif.g09.slc.cpg/sg49_2_cif.got.tgz:2184.got - 2010.04.14 03:58:27.
