data_PCOD8204003
_publ_section_title
;
Structure prediction by ZEFSAII (Michael W. Deem and Ramdas Pophale) SiO2 
 PCOD8204003
Probable space group: P C C M
;
_chemical_formula_sum "Si O2"
_cell_formula_units_Z 64
_cell_length_a 19.051017
_cell_length_b 12.064892
_cell_length_c 14.393937
_cell_angle_alpha 90.000000
_cell_angle_beta 90.000000
_cell_angle_gamma 90.000000
_cell_volume 3308.424290
_symmetry_space_group_name_H-M "P C C M"
_symmetry_group_IT_number 49
_symmetry_cell_setting 'orthorhombic'
loop_
_space_group_symop_operation_xyz
x,y,z
-x,-y,z
x,-y,1/2-z
-x,y,1/2-z
-x,-y,-z
x,y,-z
-x,y,1/2+z
x,-y,1/2+z
loop_
_atom_site_type_symbol
_atom_site_label
_atom_site_fract_x
_atom_site_fract_y
_atom_site_fract_z
Si Si1 0.065833 0.063736 0.107436
Si Si2 0.422547 0.870681 0.250064
Si Si3 0.895757 0.374311 0.260146
Si Si4 0.999410 0.699952 0.392304
Si Si5 0.742564 0.632331 0.753798
Si Si6 0.680717 0.209602 0.604219
Si Si7 0.308052 0.797787 0.894605
Si Si8 0.776399 0.990412 0.853436
O O1 0.045960 0.190667 0.123501
O O2 0.139218 0.024492 0.150955
O O3 0.071922 0.032295 0.000000
O O4 0.000000 0.000000 0.153321
O O5 0.500000 0.814561 0.250000
O O6 0.387249 0.841372 0.347893
O O7 0.377650 0.834655 0.160286
O O8 0.431747 0.000000 0.250000
O O9 0.874702 0.500000 0.250000
O O10 0.945446 0.387014 0.350811
O O11 0.820492 0.319286 0.275649
O O12 0.930250 0.309743 0.171782
O O13 0.979694 0.679504 0.500000
O O14 0.732817 0.500000 0.750000
O O15 0.698539 0.678835 0.839783
O O16 0.721289 0.687588 0.655670
O O17 0.662227 0.245188 0.500000
O O18 0.743340 0.118771 0.600368
O O19 0.249216 0.895801 0.901357
O O20 0.328381 0.766040 0.000000
O O21 0.746237 0.000000 0.750000
#
# Coordination Sequence:
#
# PCOD8204003 Si02
#       8
#     8   8   8   8   8   8   8   8
#     4  10  23  36  49  76 109 144 190 241 288 349
#     4  10  20  37  60  95 134 163 195 234 283 350
#     4  10  22  38  56  77 104 139 189 250 304 350
#     4  10  21  36  54  75 103 141 184 234 300 365
#     4  10  23  41  59  86 116 152 208 261 300 350
#     4  11  21  38  62  89 122 161 194 237 298 357
#     4  11  22  38  62  90 124 164 199 242 299 357
#     4  12  21  36  58  85 118 157 200 243 299 364
#
# _framework density 19.344557999999999
#
# number of rings (size 3 to 8) (size 9 to 14) (size 15 to 20)
#    0.000    1.500    3.750    2.625    1.750    5.250 
#    0.000    3.750    0.000    6.000    0.000    7.000 
#    0.000    0.000    0.000    0.000    0.000    0.000 
#
# Total GULP energy -792975.766734 kJ/mol
# GULP energy per Si atom -12390.246355 kJ/mol
# Density = 1.930053 g / cm^3
# Si number density = 19.344558 Si / 1000 Ang^3
#
#
#
# Elastic Constant Matrix: (Units=GPa)
#
#
# Indices 1 2 3 4 5 6 
#
# 1 122.9045 29.0243 27.8331 0.0000 0.0000 0.0000
# 2 29.0243 82.4254 28.4443 0.0000 0.0000 0.0000
# 3 27.8331 28.4443 134.7670 0.0000 0.0000 0.0000
# 4 0.0000 0.0000 0.0000 17.0543 0.0000 0.0000
# 5 0.0000 0.0000 0.0000 0.0000 16.6773 0.0000
# 6 0.0000 0.0000 0.0000 0.0000 0.0000 16.6868
#
#
#
# Elastic Compliance Matrix: (Units=1/GPa)
#
#
# Indices 1 2 3 4 5 6 
#
# 1 0.009079 -0.002750 -0.001295 0.000000 0.000000 0.000000
# 2 -0.002750 0.013918 -0.002370 0.000000 0.000000 0.000000
# 3 -0.001295 -0.002370 0.008188 0.000000 0.000000 0.000000
# 4 0.000000 0.000000 0.000000 0.058636 0.000000 0.000000
# 5 0.000000 0.000000 0.000000 0.000000 0.059962 0.000000
# 6 0.000000 0.000000 0.000000 0.000000 0.000000 0.059927
#
#
# Mechanical properties :
#
#
# Convention : Reuss Voigt Hill
#
# Bulk Modulus (GPa) = 54.47758 56.74447 55.61102
# Shear Modulus (GPa) = 21.86667 27.07002 24.46835
#
# Velocity S-wave (km/s) = 3.36576 3.74486 3.56036
# Velocity P-wave (km/s) = 6.58235 6.93512 6.76103
#
# Compressibility (1/GPa) = 0.01835618
#
# Stress axis : x y z
#
# Youngs Moduli (GPa) = 110.14366 71.84748 122.13398
#
# Poissons Ratio (x) = 0.19760 0.15811
# Poissons Ratio (y) = 0.30292 0.28942
# Poissons Ratio (z) = 0.14259 0.17025
#
# Static dielectric constant tensor:
#      x y z
#    x 3.755200 0.000000 0.000000 
#    y 0.000000 3.505480 0.000000 
#    z 0.000000 0.000000 3.022370 
# 
# 
# High freq. dielectric constant tensor:
#      x y z
#    x 1.748820 0.000000 0.000000 
#    y 0.000000 1.743770 0.000000 
#    z 0.000000 0.000000 1.755110 
# 
# From -- ./inp_files/14207.got.cif
#   From: 2010.03.12/outbox.cif.g09.slc.cpg/sg49_8_cif.got.tgz:14207.got - 2010.04.14 03:58:27.
