data_PCOD8204533
_publ_section_title
;
Structure prediction by ZEFSAII (Michael W. Deem and Ramdas Pophale) SiO2 
 PCOD8204533
Probable space group: P C C M
;
_chemical_formula_sum "Si O2"
_cell_formula_units_Z 56
_cell_length_a 18.271649
_cell_length_b 9.452540
_cell_length_c 15.194256
_cell_angle_alpha 90.000000
_cell_angle_beta 90.000000
_cell_angle_gamma 90.000000
_cell_volume 2624.253028
_symmetry_space_group_name_H-M "P C C M"
_symmetry_group_IT_number 49
_symmetry_cell_setting 'orthorhombic'
loop_
_space_group_symop_operation_xyz
x,y,z
-x,-y,z
x,-y,1/2-z
-x,y,1/2-z
-x,-y,-z
x,y,-z
-x,y,1/2+z
x,-y,1/2+z
loop_
_atom_site_type_symbol
_atom_site_label
_atom_site_fract_x
_atom_site_fract_y
_atom_site_fract_z
Si Si1 0.057890 0.885862 0.899736
Si Si2 0.929953 0.570826 0.654034
Si Si3 0.585422 0.833982 0.749172
Si Si4 0.307747 0.783841 0.401754
Si Si5 0.682866 0.729590 0.400390
Si Si6 0.786740 0.037571 0.850719
Si Si7 0.225876 0.481724 0.146349
O O1 0.059575 0.741383 0.842299
O O2 0.135501 0.965406 0.898326
O O3 0.037935 0.845072 0.000000
O O4 0.000000 0.000000 0.861472
O O5 0.927139 0.500000 0.750000
O O6 0.853045 0.530812 0.606915
O O7 0.000000 0.500000 0.604312
O O8 0.500000 0.802603 0.750000
O O9 0.624973 0.765213 0.833815
O O10 0.612740 0.762411 0.659316
O O11 0.603710 0.000000 0.750000
O O12 0.338658 0.758837 0.500000
O O13 0.240710 0.680051 0.378557
O O14 0.271920 0.937952 0.397958
O O15 0.664377 0.775571 0.500000
O O16 0.753645 0.806209 0.359084
O O17 0.706513 0.566032 0.397585
O O18 0.797860 0.000000 0.750000
O O19 0.227496 0.500000 0.250000
#
# Coordination Sequence:
#
# PCOD8204533 Si02
#       7
#     8   8   8   8   8   8   8
#     4  11  26  45  66  99 138 180 232 293 351 406
#     4  10  24  42  65  93 132 179 231 278 344 409
#     4  11  24  44  69 102 136 170 216 273 338 406
#     4  12  24  41  66 102 136 174 225 277 332 396
#     4  12  22  42  69  98 131 178 224 270 336 398
#     4  12  23  41  68  94 132 177 231 281 328 395
#     4  11  22  41  68  96 135 177 227 279 329 399
#
# _framework density 21.339404999999999
#
# number of rings (size 3 to 8) (size 9 to 14) (size 15 to 20)
#    0.000    0.714    5.714    1.714    4.000    2.857 
#    0.000    2.857    0.000    1.714    0.000    0.000 
#    0.000    0.000    0.000    0.000    0.000    0.000 
#
# Total GULP energy -694449.555696 kJ/mol
# GULP energy per Si atom -12400.884923 kJ/mol
# Density = 2.129084 g / cm^3
# Si number density = 21.339405 Si / 1000 Ang^3
#
#
#
# Elastic Constant Matrix: (Units=GPa)
#
#
# Indices 1 2 3 4 5 6 
#
# 1 147.7085 48.3341 39.2907 0.0000 0.0000 0.0000
# 2 48.3341 86.3280 34.4957 0.0000 0.0000 0.0000
# 3 39.2907 34.4957 116.9412 0.0000 0.0000 0.0000
# 4 0.0000 0.0000 0.0000 26.5317 0.0000 0.0000
# 5 0.0000 0.0000 0.0000 0.0000 12.7510 0.0000
# 6 0.0000 0.0000 0.0000 0.0000 0.0000 32.6450
#
#
#
# Elastic Compliance Matrix: (Units=1/GPa)
#
#
# Indices 1 2 3 4 5 6 
#
# 1 0.008563 -0.004132 -0.001658 0.000000 0.000000 0.000000
# 2 -0.004132 0.015125 -0.003073 0.000000 0.000000 0.000000
# 3 -0.001658 -0.003073 0.010015 0.000000 0.000000 0.000000
# 4 0.000000 0.000000 0.000000 0.037691 0.000000 0.000000
# 5 0.000000 0.000000 0.000000 0.000000 0.078425 0.000000
# 6 0.000000 0.000000 0.000000 0.000000 0.000000 0.030633
#
#
# Mechanical properties :
#
#
# Convention : Reuss Voigt Hill
#
# Bulk Modulus (GPa) = 62.59242 66.13541 64.36392
# Shear Modulus (GPa) = 24.56943 29.64267 27.10605
#
# Velocity S-wave (km/s) = 3.39686 3.73111 3.56790
# Velocity P-wave (km/s) = 6.69181 7.04422 6.87028
#
# Compressibility (1/GPa) = 0.01597637
#
# Stress axis : x y z
#
# Youngs Moduli (GPa) = 116.77810 66.11477 99.84922
#
# Poissons Ratio (x) = 0.27317 0.16558
# Poissons Ratio (y) = 0.48251 0.30688
# Poissons Ratio (z) = 0.19366 0.20320
#
# Static dielectric constant tensor:
#      x y z
#    x 3.992800 0.000000 0.000000 
#    y 0.000000 3.970420 0.000000 
#    z 0.000000 0.000000 3.771420 
# 
# 
# High freq. dielectric constant tensor:
#      x y z
#    x 1.829720 0.000000 0.000000 
#    y 0.000000 1.841600 0.000000 
#    z 0.000000 0.000000 1.834240 
# 
# From -- ./inp_files/14420.got.cif
#   From: 2010.03.12/outbox.cif.g09.slc.cpg/sg49_8_cif.got.tgz:14420.got - 2010.04.14 03:58:27.
