data_PCOD8204553
_publ_section_title
;
Structure prediction by ZEFSAII (Michael W. Deem and Ramdas Pophale) SiO2 
 PCOD8204553
Probable space group: P C C M
;
_chemical_formula_sum "Si O2"
_cell_formula_units_Z 64
_cell_length_a 19.787959
_cell_length_b 11.355563
_cell_length_c 14.867847
_cell_angle_alpha 90.000000
_cell_angle_beta 90.000000
_cell_angle_gamma 90.000000
_cell_volume 3340.855996
_symmetry_space_group_name_H-M "P C C M"
_symmetry_group_IT_number 49
_symmetry_cell_setting 'orthorhombic'
loop_
_space_group_symop_operation_xyz
x,y,z
-x,-y,z
x,-y,1/2-z
-x,y,1/2-z
-x,-y,-z
x,y,-z
-x,y,1/2+z
x,-y,1/2+z
loop_
_atom_site_type_symbol
_atom_site_label
_atom_site_fract_x
_atom_site_fract_y
_atom_site_fract_z
Si Si1 0.791181 0.250770 0.599610
Si Si2 0.924970 0.866078 0.644375
Si Si3 0.250812 0.500000 0.648515
Si Si4 0.924970 0.133921 0.355625
Si Si5 0.396742 0.500000 0.101759
Si Si6 0.424941 0.309755 0.250000
Si Si7 0.791181 0.250770 0.900390
Si Si8 0.701216 0.861777 0.750000
O O1 0.760065 0.241645 0.500000
O O2 0.794189 0.385472 0.631928
O O3 0.868756 0.210812 0.595623
O O4 0.744842 0.170273 0.662564
O O5 0.912882 0.857955 0.750000
O O6 0.868756 0.789188 0.595623
O O7 0.000000 0.819533 0.619024
O O8 0.917376 1.000000 0.611704
O O9 0.279075 0.500000 0.750000
O O10 0.316418 0.499999 0.586135
O O11 0.205811 0.385472 0.631928
O O12 0.418482 0.385584 0.158531
O O13 0.418483 0.614415 0.158532
O O14 0.428448 0.500000 0.000000
O O15 0.500000 0.253308 0.250000
O O16 0.369412 0.207248 0.250000
O O17 0.744842 0.170274 0.837436
O O18 0.760065 0.241645 0.000000
O O19 0.685615 0.000000 0.750000
#
# Coordination Sequence:
#
# PCOD8204553 Si02
#       8
#     8   8   8   8   8   8   8   8
#     4  12  23  38  62  91 121 156 201 250 300 356
#     4   9  18  35  58  84 119 161 203 249 297 344
#     4  12  20  39  65  90 122 156 192 248 306 356
#     4   9  18  35  58  84 119 161 203 249 297 344
#     4  11  19  37  65  93 122 151 189 245 302 353
#     4  11  24  41  61  92 123 153 199 244 293 358
#     4  12  23  38  62  91 121 156 201 250 300 356
#     4  12  25  42  61  86 121 161 203 247 296 350
#
# _framework density 19.156766999999999
#
# number of rings (size 3 to 8) (size 9 to 14) (size 15 to 20)
#    0.000    1.000    6.250    3.375    0.000    3.750 
#    0.000    1.875    0.000    3.750    0.000    3.500 
#    0.000    0.000    0.000    0.000    0.000    0.000 
#
# Total GULP energy -793533.113751 kJ/mol
# GULP energy per Si atom -12398.954902 kJ/mol
# Density = 1.911317 g / cm^3
# Si number density = 19.156767 Si / 1000 Ang^3
#
#
#
# Elastic Constant Matrix: (Units=GPa)
#
#
# Indices 1 2 3 4 5 6 
#
# 1 135.0955 57.9535 29.0213 0.0000 0.0000 0.0000
# 2 57.9535 124.2144 39.8660 0.0000 0.0000 0.0000
# 3 29.0213 39.8660 135.5675 0.0000 0.0000 0.0000
# 4 0.0000 0.0000 0.0000 -11.5916 0.0000 0.0000
# 5 0.0000 0.0000 0.0000 0.0000 5.0043 0.0000
# 6 0.0000 0.0000 0.0000 0.0000 0.0000 40.9873
#
#
#
# Elastic Compliance Matrix: (Units=1/GPa)
#
#
# Indices 1 2 3 4 5 6 
#
# 1 0.009331 -0.004099 -0.000792 0.000000 0.000000 0.000000
# 2 -0.004099 0.010690 -0.002266 0.000000 0.000000 0.000000
# 3 -0.000792 -0.002266 0.008212 0.000000 0.000000 0.000000
# 4 0.000000 0.000000 0.000000 -0.086269 0.000000 0.000000
# 5 0.000000 0.000000 0.000000 0.000000 0.199829 0.000000
# 6 0.000000 0.000000 0.000000 0.000000 0.000000 0.024398
#
#
# Mechanical properties :
#
#
# Convention : Reuss Voigt Hill
#
# Bulk Modulus (GPa) = 71.84531 72.06211 71.95371
# Shear Modulus (GPa) = 27.00572 24.74910 25.87741
#
# Velocity S-wave (km/s) = 3.75870 3.59823 3.67934
# Velocity P-wave (km/s) = 7.51148 7.41362 7.46271
#
# Compressibility (1/GPa) = 0.01391879
#
# Stress axis : x y z
#
# Youngs Moduli (GPa) = 107.17210 93.54170 121.76765
#
# Poissons Ratio (x) = 0.38344 0.09644
# Poissons Ratio (y) = 0.43932 0.27595
# Poissons Ratio (z) = 0.08488 0.21198
#
# Static dielectric constant tensor:
#      x y z
#    x 3.607600 0.000000 0.000000 
#    y 0.000000 3.400190 0.000000 
#    z 0.000000 0.000000 3.606260 
# 
# 
# High freq. dielectric constant tensor:
#      x y z
#    x 1.746520 0.000000 0.000000 
#    y 0.000000 1.724580 0.000000 
#    z 0.000000 0.000000 1.757770 
# 
# From -- ./inp_files/14209.got.cif
#   From: 2010.03.12/outbox.cif.g09.slc.cpg/sg49_8_cif.got.tgz:14209.got - 2010.04.14 03:58:27.
