data_PCOD8204468
_publ_section_title
;
Structure prediction by ZEFSAII (Michael W. Deem and Ramdas Pophale) SiO2 
 PCOD8204468
Probable space group: P C C M
;
_chemical_formula_sum "Si O2"
_cell_formula_units_Z 48
_cell_length_a 13.626332
_cell_length_b 17.941963
_cell_length_c 9.176644
_cell_angle_alpha 90.000000
_cell_angle_beta 90.000000
_cell_angle_gamma 90.000000
_cell_volume 2243.534782
_symmetry_space_group_name_H-M "P C C M"
_symmetry_group_IT_number 49
_symmetry_cell_setting 'orthorhombic'
loop_
_space_group_symop_operation_xyz
x,y,z
-x,-y,z
x,-y,1/2-z
-x,y,1/2-z
-x,-y,-z
x,y,-z
-x,y,1/2+z
x,-y,1/2+z
loop_
_atom_site_type_symbol
_atom_site_label
_atom_site_fract_x
_atom_site_fract_y
_atom_site_fract_z
Si Si1 0.080088 0.393116 0.500000
Si Si2 0.865449 0.435603 0.500000
Si Si3 0.210685 0.652516 0.251792
Si Si4 0.411937 0.921689 0.831761
Si Si5 0.096206 0.211030 0.168723
Si Si6 0.597915 0.577145 0.671198
Si Si7 0.805713 0.921178 0.329858
O O1 0.109907 0.478797 0.500000
O O2 0.123589 0.352358 0.362742
O O3 0.962949 0.383938 0.500000
O O4 0.800590 0.416417 0.361312
O O5 0.190405 0.732830 0.324059
O O6 0.319082 0.641542 0.185214
O O7 0.500000 0.875301 0.750000
O O8 0.304126 0.885645 0.816619
O O9 0.406022 0.000000 0.750000
O O10 0.440494 0.932093 0.000000
O O11 0.120992 0.134483 0.250449
O O12 0.000000 0.243909 0.250000
O O13 0.072460 0.195092 0.000000
O O14 0.628820 0.500000 0.750000
O O15 0.500000 0.608007 0.750000
O O16 0.579063 0.562147 0.500000
O O17 0.833831 0.930605 0.500000
O O18 0.814013 0.000000 0.250000
#
# Coordination Sequence:
#
# PCOD8204468 Si02
#       7
#     4   4   8   8   8   8   8
#     4  11  22  38  61  93 130 168 215 260 317 375
#     4  11  22  38  61  93 130 170 213 262 311 381
#     4  12  25  40  64  94 131 173 215 269 327 387
#     4   9  16  28  52  87 123 160 195 244 302 365
#     4  12  27  45  68  93 126 171 215 265 330 400
#     4  11  24  41  67  96 130 173 224 278 329 390
#     4  10  22  41  66  95 129 165 216 273 326 392
#
# _framework density 21.394808999999999
#
# number of rings (size 3 to 8) (size 9 to 14) (size 15 to 20)
#    0.000    1.167    1.667    6.000    4.667    3.667 
#    0.000    2.500    0.000    0.000    0.000    0.000 
#    0.000    0.000    0.000    0.000    0.000    0.000 
#
# Total GULP energy -594929.928536 kJ/mol
# GULP energy per Si atom -12394.373511 kJ/mol
# Density = 2.134611 g / cm^3
# Si number density = 21.394809 Si / 1000 Ang^3
#
#
#
# Elastic Constant Matrix: (Units=GPa)
#
#
# Indices 1 2 3 4 5 6 
#
# 1 108.2250 36.5854 43.8966 0.0000 0.0000 0.0000
# 2 36.5854 60.6611 28.4324 0.0000 0.0000 0.0000
# 3 43.8966 28.4324 178.4412 0.0000 0.0000 0.0000
# 4 0.0000 0.0000 0.0000 26.2452 0.0000 0.0000
# 5 0.0000 0.0000 0.0000 0.0000 37.0892 0.0000
# 6 0.0000 0.0000 0.0000 0.0000 0.0000 28.8877
#
#
#
# Elastic Compliance Matrix: (Units=1/GPa)
#
#
# Indices 1 2 3 4 5 6 
#
# 1 0.012221 -0.006443 -0.001980 0.000000 0.000000 0.000000
# 2 -0.006443 0.021212 -0.001795 0.000000 0.000000 0.000000
# 3 -0.001980 -0.001795 0.006377 0.000000 0.000000 0.000000
# 4 0.000000 0.000000 0.000000 0.038102 0.000000 0.000000
# 5 0.000000 0.000000 0.000000 0.000000 0.026962 0.000000
# 6 0.000000 0.000000 0.000000 0.000000 0.000000 0.034617
#
#
# Mechanical properties :
#
#
# Convention : Reuss Voigt Hill
#
# Bulk Modulus (GPa) = 51.61234 62.79513 57.20374
# Shear Modulus (GPa) = 30.05089 34.33860 32.19475
#
# Velocity S-wave (km/s) = 3.75185 4.01059 3.88337
# Velocity P-wave (km/s) = 6.55322 7.13167 6.84855
#
# Compressibility (1/GPa) = 0.01937521
#
# Stress axis : x y z
#
# Youngs Moduli (GPa) = 81.82663 47.14318 156.81043
#
# Poissons Ratio (x) = 0.30373 0.31045
# Poissons Ratio (y) = 0.52718 0.28147
# Poissons Ratio (z) = 0.16200 0.08462
#
# Static dielectric constant tensor:
#      x y z
#    x 4.442850 0.000000 0.000000 
#    y 0.000000 3.400580 0.000000 
#    z 0.000000 0.000000 4.054830 
# 
# 
# High freq. dielectric constant tensor:
#      x y z
#    x 1.848810 0.000000 0.000000 
#    y 0.000000 1.800530 0.000000 
#    z 0.000000 0.000000 1.861230 
# 
# From -- ./inp_files/3760.got.cif
#   From: 2010.03.12/outbox.cif.g09.slc.cpg/sg49_2_cif.got.tgz:3760.got - 2010.04.14 03:58:27.
