data_PCOD8204231
_publ_section_title
;
Structure prediction by ZEFSAII (Michael W. Deem and Ramdas Pophale) SiO2 
 PCOD8204231
Probable space group: P C C M
;
_chemical_formula_sum "Si O2"
_cell_formula_units_Z 48
_cell_length_a 9.483751
_cell_length_b 30.119726
_cell_length_c 8.613517
_cell_angle_alpha 90.000000
_cell_angle_beta 90.000000
_cell_angle_gamma 90.000000
_cell_volume 2460.433745
_symmetry_space_group_name_H-M "P C C M"
_symmetry_group_IT_number 49
_symmetry_cell_setting 'orthorhombic'
loop_
_space_group_symop_operation_xyz
x,y,z
-x,-y,z
x,-y,1/2-z
-x,y,1/2-z
-x,-y,-z
x,y,-z
-x,y,1/2+z
x,-y,1/2+z
loop_
_atom_site_type_symbol
_atom_site_label
_atom_site_fract_x
_atom_site_fract_y
_atom_site_fract_z
Si Si1 0.148776 0.451999 0.316766
Si Si2 0.346459 0.621125 0.681224
Si Si3 0.146241 0.702646 0.318983
Si Si4 0.151156 0.797482 0.816766
Si Si5 0.848342 0.046721 0.683004
Si Si6 0.345400 0.128059 0.816727
O O1 0.187381 0.500000 0.250000
O O2 0.135849 0.455238 0.500000
O O3 0.271876 0.418827 0.270144
O O4 0.000000 0.434656 0.250000
O O5 0.500000 0.627339 0.750000
O O6 0.352164 0.609622 0.500000
O O7 0.265914 0.666808 0.713345
O O8 0.125513 0.712710 0.500000
O O9 0.190433 0.747728 0.233616
O O10 0.000000 0.684030 0.250000
O O11 0.273062 0.828787 0.753967
O O12 0.000000 0.812351 0.750000
O O13 0.144143 0.800737 0.000000
O O14 0.861704 0.042602 0.500000
O O15 0.739149 0.084310 0.734610
O O16 0.000000 0.059771 0.750000
O O17 0.793858 0.000000 0.750000
O O18 0.500000 0.123268 0.750000
O O19 0.350729 0.133421 0.000000
#
# Coordination Sequence:
#
# PCOD8204231 Si02
#       6
#     8   8   8   8   8   8
#     4  11  22  39  63  89 118 152 194 241 288 341
#     4  11  24  40  59  86 119 156 195 237 289 345
#     4  10  21  38  61  87 116 150 193 241 288 342
#     4  11  22  38  62  88 116 151 193 240 287 339
#     4  10  21  37  60  86 113 147 189 236 284 338
#     4  11  24  40  58  84 117 154 193 235 288 345
#
# _framework density 19.508756999999999
#
# number of rings (size 3 to 8) (size 9 to 14) (size 15 to 20)
#    0.000    1.333    0.000    8.000    0.000    9.333 
#    0.000    5.000    0.000    0.000    0.000    0.000 
#    0.000    0.000    0.000    0.000    0.000    0.000 
#
# Total GULP energy -595483.873907 kJ/mol
# GULP energy per Si atom -12405.914040 kJ/mol
# Density = 1.946435 g / cm^3
# Si number density = 19.508757 Si / 1000 Ang^3
#
#
#
# Elastic Constant Matrix: (Units=GPa)
#
#
# Indices 1 2 3 4 5 6 
#
# 1 149.2882 84.2905 63.6776 0.0000 0.0000 0.0000
# 2 84.2905 107.5048 59.8695 0.0000 0.0000 0.0000
# 3 63.6776 59.8695 137.7873 0.0000 0.0000 0.0000
# 4 0.0000 0.0000 0.0000 131.5494 0.0000 0.0000
# 5 0.0000 0.0000 0.0000 0.0000 34.0562 0.0000
# 6 0.0000 0.0000 0.0000 0.0000 0.0000 5.1482
#
#
#
# Elastic Compliance Matrix: (Units=1/GPa)
#
#
# Indices 1 2 3 4 5 6 
#
# 1 0.012420 -0.008630 -0.001990 0.000000 0.000000 0.000000
# 2 -0.008630 0.018267 -0.003949 0.000000 0.000000 0.000000
# 3 -0.001990 -0.003949 0.009893 0.000000 0.000000 0.000000
# 4 0.000000 0.000000 0.000000 0.007602 0.000000 0.000000
# 5 0.000000 0.000000 0.000000 0.000000 0.029363 0.000000
# 6 0.000000 0.000000 0.000000 0.000000 0.000000 0.194241
#
#
# Mechanical properties :
#
#
# Convention : Reuss Voigt Hill
#
# Bulk Modulus (GPa) = 87.39274 90.02838 88.71056
# Shear Modulus (GPa) = 16.40752 46.60029 31.50391
#
# Velocity S-wave (km/s) = 2.90320 4.89272 4.02289
# Velocity P-wave (km/s) = 7.49213 8.84116 8.19446
#
# Compressibility (1/GPa) = 0.01144260
#
# Stress axis : x y z
#
# Youngs Moduli (GPa) = 80.51750 54.74267 101.07928
#
# Poissons Ratio (x) = 0.47240 0.20116
# Poissons Ratio (y) = 0.69483 0.39918
# Poissons Ratio (z) = 0.16024 0.21619
#
# Static dielectric constant tensor:
#      x y z
#    x 3.481450 0.000000 0.000000 
#    y 0.000000 3.706560 0.000000 
#    z 0.000000 0.000000 3.768500 
# 
# 
# High freq. dielectric constant tensor:
#      x y z
#    x 1.759410 0.000000 0.000000 
#    y 0.000000 1.772690 0.000000 
#    z 0.000000 0.000000 1.781710 
# 
# From -- ./inp_files/2114.got.cif
#   From: 2010.03.12/outbox.cif.g09.slc.cpg/sg49_2_cif.got.tgz:2114.got - 2010.04.14 03:58:27.
