data_PCOD8204289
_publ_section_title
;
Structure prediction by ZEFSAII (Michael W. Deem and Ramdas Pophale) SiO2 
 PCOD8204289
Probable space group: P C C M
;
_chemical_formula_sum "Si O2"
_cell_formula_units_Z 48
_cell_length_a 18.322435
_cell_length_b 15.106633
_cell_length_c 8.606406
_cell_angle_alpha 90.000000
_cell_angle_beta 90.000000
_cell_angle_gamma 90.000000
_cell_volume 2382.169709
_symmetry_space_group_name_H-M "P C C M"
_symmetry_group_IT_number 49
_symmetry_cell_setting 'orthorhombic'
loop_
_space_group_symop_operation_xyz
x,y,z
-x,-y,z
x,-y,1/2-z
-x,y,1/2-z
-x,-y,-z
x,y,-z
-x,y,1/2+z
x,-y,1/2+z
loop_
_atom_site_type_symbol
_atom_site_label
_atom_site_fract_x
_atom_site_fract_y
_atom_site_fract_z
Si Si1 0.352860 0.405023 0.684319
Si Si2 0.316277 0.905992 0.182954
Si Si3 0.195741 0.405890 0.184426
Si Si4 0.922789 0.263795 0.683020
Si Si5 0.147623 0.906827 0.181896
Si Si6 0.576293 0.236819 0.683719
O O1 0.376813 0.500000 0.750000
O O2 0.352569 0.408334 0.500000
O O3 0.272953 0.377803 0.743967
O O4 0.410308 0.333242 0.743681
O O5 0.231904 0.889418 0.224353
O O6 0.360069 0.829352 0.267644
O O7 0.342447 0.000000 0.250000
O O8 0.331141 0.903270 0.000000
O O9 0.169670 0.500000 0.250000
O O10 0.137325 0.333875 0.239969
O O11 0.203704 0.411265 0.000000
O O12 0.927671 0.261721 0.500000
O O13 0.902648 0.167193 0.742961
O O14 0.000000 0.294631 0.750000
O O15 0.121434 0.000000 0.250000
O O16 0.134629 0.907152 0.000000
O O17 0.500000 0.200218 0.750000
O O18 0.573013 0.244175 0.500000
#
# Coordination Sequence:
#
# PCOD8204289 Si02
#       6
#     8   8   8   8   8   8
#     4  11  22  39  63  90 118 152 194 240 289 344
#     4  10  21  39  63  91 119 153 194 240 290 343
#     4  10  21  38  61  88 116 151 193 240 288 340
#     4  11  24  39  57  83 117 154 194 237 288 344
#     4  10  21  38  62  88 116 149 190 237 286 340
#     4  12  25  41  60  86 120 157 196 240 290 347
#
# _framework density 20.149698000000001
#
# number of rings (size 3 to 8) (size 9 to 14) (size 15 to 20)
#    0.000    1.333    0.000    7.000    0.000    8.667 
#    0.000    6.667    0.000    0.000    0.000    0.000 
#    0.000    0.000    0.000    0.000    0.000    0.000 
#
# Total GULP energy -595535.023395 kJ/mol
# GULP energy per Si atom -12406.979654 kJ/mol
# Density = 2.010384 g / cm^3
# Si number density = 20.149698 Si / 1000 Ang^3
#
#
#
# Elastic Constant Matrix: (Units=GPa)
#
#
# Indices 1 2 3 4 5 6 
#
# 1 49.1128 18.5978 22.5092 0.0000 0.0000 0.0000
# 2 18.5978 80.7830 26.7059 0.0000 0.0000 0.0000
# 3 22.5092 26.7059 113.7559 0.0000 0.0000 0.0000
# 4 0.0000 0.0000 0.0000 34.8494 0.0000 0.0000
# 5 0.0000 0.0000 0.0000 0.0000 35.6266 0.0000
# 6 0.0000 0.0000 0.0000 0.0000 0.0000 21.4085
#
#
#
# Elastic Compliance Matrix: (Units=1/GPa)
#
#
# Indices 1 2 3 4 5 6 
#
# 1 0.023652 -0.004226 -0.003688 0.000000 0.000000 0.000000
# 2 -0.004226 0.014175 -0.002492 0.000000 0.000000 0.000000
# 3 -0.003688 -0.002492 0.010105 0.000000 0.000000 0.000000
# 4 0.000000 0.000000 0.000000 0.028695 0.000000 0.000000
# 5 0.000000 0.000000 0.000000 0.000000 0.028069 0.000000
# 6 0.000000 0.000000 0.000000 0.000000 0.000000 0.046710
#
#
# Mechanical properties :
#
#
# Convention : Reuss Voigt Hill
#
# Bulk Modulus (GPa) = 36.87102 42.14195 39.50648
# Shear Modulus (GPa) = 27.58488 30.09947 28.84218
#
# Velocity S-wave (km/s) = 3.70401 3.86915 3.78748
# Velocity P-wave (km/s) = 6.05237 6.39690 6.22702
#
# Compressibility (1/GPa) = 0.02712157
#
# Stress axis : x y z
#
# Youngs Moduli (GPa) = 42.28012 70.54441 98.95637
#
# Poissons Ratio (x) = 0.29811 0.36495
# Poissons Ratio (y) = 0.17867 0.24657
# Poissons Ratio (z) = 0.15593 0.17578
#
# Static dielectric constant tensor:
#      x y z
#    x 3.735870 0.000000 0.000000 
#    y 0.000000 3.791240 0.000000 
#    z 0.000000 0.000000 3.768150 
# 
# 
# High freq. dielectric constant tensor:
#      x y z
#    x 1.784880 0.000000 0.000000 
#    y 0.000000 1.797700 0.000000 
#    z 0.000000 0.000000 1.805700 
# 
# From -- ./inp_files/3703.got.cif
#   From: 2010.03.12/outbox.cif.g09.slc.cpg/sg49_2_cif.got.tgz:3703.got - 2010.04.14 03:58:27.
