data_PCOD8204945
_publ_section_title
;
Structure prediction by ZEFSAII (Michael W. Deem and Ramdas Pophale) SiO2 
 PCOD8204945
Probable space group: P B A N
;
_chemical_formula_sum "Si O2"
_cell_formula_units_Z 34
_cell_length_a 5.042939
_cell_length_b 13.066527
_cell_length_c 21.888783
_cell_angle_alpha 90.000000
_cell_angle_beta 90.000000
_cell_angle_gamma 90.000000
_cell_volume 1442.332870
_symmetry_space_group_name_H-M "P B A N"
_symmetry_group_IT_number 50
_space_group.IT_coordinate_system_code '2'
_symmetry_cell_setting 'orthorhombic'
loop_
_space_group_symop_operation_xyz
x,y,z
1/2-x,1/2-y,z
x,1/2-y,-z
1/2-x,y,-z
-x,-y,-z
1/2+x,1/2+y,-z
-x,1/2+y,z
1/2+x,-y,z
loop_
_atom_site_type_symbol
_atom_site_label
_atom_site_fract_x
_atom_site_fract_y
_atom_site_fract_z
Si Si1 0.324919 0.071776 0.193305
Si Si2 0.795741 0.566601 0.064554
Si Si3 0.428583 0.932798 0.575679
Si Si4 0.514245 0.813889 0.690707
Si Si5 0.250000 0.750000 0.500000
O O1 0.294331 0.127103 0.126212
O O2 0.354447 0.156627 0.244838
O O3 0.567223 0.995882 0.201620
O O4 0.603969 0.465875 0.065668
O O5 0.750000 0.627146 0.000000
O O6 0.444662 0.911332 0.648347
O O7 0.434896 0.822365 0.542234
O O8 0.662969 0.008094 0.556177
O O9 0.250000 0.750000 0.702520
O O10 0.750000 0.750000 0.657292
#
# Coordination Sequence:
#
# PCOD8204945 Si02
#       5
#     8   8   8   8   2
#     4  10  19  34  57  86 118 158 211 265 323 396
#     4   8  14  25  45  76 111 147 195 256 313 373
#     4  12  27  48  74 103 137 181 225 279 341 405
#     4  12  24  42  64  92 131 172 219 277 335 398
#     4  12  28  50  76 108 144 174 232 280 336 416
#
# _framework density 23.572924
#
# number of rings (size 3 to 8) (size 9 to 14) (size 15 to 20)
#    0.000    1.412    1.176    4.941    0.000    0.941 
#    0.000    0.000    0.000    0.706    0.000    1.647 
#    0.000    0.000    0.000    0.000    0.000    0.000 
#
# Total GULP energy -421297.344262 kJ/mol
# GULP energy per Si atom -12391.098361 kJ/mol
# Density = 2.351927 g / cm^3
# Si number density = 23.572924 Si / 1000 Ang^3
#
#
#
# Elastic Constant Matrix: (Units=GPa)
#
#
# Indices 1 2 3 4 5 6 
#
# 1 168.7125 46.0286 20.7525 0.0000 0.0000 0.0000
# 2 46.0286 94.8931 45.7673 0.0000 0.0000 0.0000
# 3 20.7525 45.7673 138.6128 0.0000 0.0000 0.0000
# 4 0.0000 0.0000 0.0000 7.1421 0.0000 0.0000
# 5 0.0000 0.0000 0.0000 0.0000 34.5145 0.0000
# 6 0.0000 0.0000 0.0000 0.0000 0.0000 26.0153
#
#
#
# Elastic Compliance Matrix: (Units=1/GPa)
#
#
# Indices 1 2 3 4 5 6 
#
# 1 0.006832 -0.003355 0.000085 0.000000 0.000000 0.000000
# 2 -0.003355 0.014182 -0.004180 0.000000 0.000000 0.000000
# 3 0.000085 -0.004180 0.008582 0.000000 0.000000 0.000000
# 4 0.000000 0.000000 0.000000 0.140016 0.000000 0.000000
# 5 0.000000 0.000000 0.000000 0.000000 0.028973 0.000000
# 6 0.000000 0.000000 0.000000 0.000000 0.000000 0.038439
#
#
# Mechanical properties :
#
#
# Convention : Reuss Voigt Hill
#
# Bulk Modulus (GPa) = 68.05004 69.70169 68.87587
# Shear Modulus (GPa) = 19.46870 32.84572 26.15721
#
# Velocity S-wave (km/s) = 2.87695 3.73683 3.33472
# Velocity P-wave (km/s) = 6.32190 6.94631 6.64145
#
# Compressibility (1/GPa) = 0.01469507
#
# Stress axis : x y z
#
# Youngs Moduli (GPa) = 146.36804 70.51380 116.52476
#
# Poissons Ratio (x) = 0.23657 -0.00989
# Poissons Ratio (y) = 0.49105 0.48710
# Poissons Ratio (z) = -0.01242 0.29476
#
# Static dielectric constant tensor:
#      x y z
#    x 4.386820 0.000000 0.000000 
#    y 0.000000 3.742600 0.000000 
#    z 0.000000 0.000000 4.925880 
# 
# 
# High freq. dielectric constant tensor:
#      x y z
#    x 1.950450 0.000000 0.000000 
#    y 0.000000 1.879130 0.000000 
#    z 0.000000 0.000000 1.968410 
# 
# From -- ./inp_files/31348.got.cif
#   From: 2010.03.12/outbox.cif.g09.slc.cpg/sg50_16_cif.got.tgz:31348.got - 2010.04.16 13:23:21.
