data_PCOD8204970
_publ_section_title
;
Structure prediction by ZEFSAII (Michael W. Deem and Ramdas Pophale) SiO2 
 PCOD8204970
Probable space group: P B A N
;
_chemical_formula_sum "Si O2"
_cell_formula_units_Z 36
_cell_length_a 16.989076
_cell_length_b 15.719470
_cell_length_c 6.805354
_cell_angle_alpha 90.000000
_cell_angle_beta 90.000000
_cell_angle_gamma 90.000000
_cell_volume 1817.432875
_symmetry_space_group_name_H-M "P B A N"
_symmetry_group_IT_number 50
_space_group.IT_coordinate_system_code '2'
_symmetry_cell_setting 'orthorhombic'
loop_
_space_group_symop_operation_xyz
x,y,z
1/2-x,1/2-y,z
x,1/2-y,-z
1/2-x,y,-z
-x,-y,-z
1/2+x,1/2+y,-z
-x,1/2+y,z
1/2+x,-y,z
loop_
_atom_site_type_symbol
_atom_site_label
_atom_site_fract_x
_atom_site_fract_y
_atom_site_fract_z
Si Si1 0.576698 0.491017 0.212483
Si Si2 0.443129 0.885476 0.864672
Si Si3 0.168360 0.966383 0.401174
Si Si4 0.948927 0.750000 0.000000
Si Si5 0.667806 0.608039 0.920066
O O1 0.489972 0.531831 0.215347
O O2 0.603322 0.479227 0.433257
O O3 0.573356 0.400355 0.097656
O O4 0.637209 0.550590 0.097345
O O5 0.362201 0.888254 0.738393
O O6 0.494248 0.799356 0.844369
O O7 0.250000 0.938256 0.500000
O O8 0.179258 0.053481 0.278111
O O9 0.893742 0.815404 0.879095
O O10 0.750000 0.646009 0.000000
#
# Coordination Sequence:
#
# PCOD8204970 Si02
#       5
#     8   8   8   4   8
#     4   9  18  36  57  83 111 144 204 241 277 332
#     4   9  20  35  57  82 111 158 192 238 288 346
#     4  11  20  34  63  89 110 145 205 252 280 333
#     4  10  21  38  56  79 126 164 182 232 302 363
#     4  10  19  35  58  87 117 152 188 240 300 353
#
# _framework density 19.808159
#
# number of rings (size 3 to 8) (size 9 to 14) (size 15 to 20)
#    0.000    2.222    2.222    2.333    0.000    0.000 
#    0.000   10.000    0.000    4.000    0.000    0.000 
#    0.000    0.000    0.000    0.000    0.000    0.000 
#
# Total GULP energy -446183.392021 kJ/mol
# GULP energy per Si atom -12393.983112 kJ/mol
# Density = 1.976307 g / cm^3
# Si number density = 19.808159 Si / 1000 Ang^3
#
#
#
# Elastic Constant Matrix: (Units=GPa)
#
#
# Indices 1 2 3 4 5 6 
#
# 1 117.2456 51.3358 46.1381 0.0000 0.0000 0.0000
# 2 51.3358 78.7806 28.1179 0.0000 0.0000 0.0000
# 3 46.1381 28.1179 106.1076 0.0000 0.0000 0.0000
# 4 0.0000 0.0000 0.0000 14.3455 0.0000 0.0000
# 5 0.0000 0.0000 0.0000 0.0000 39.3387 0.0000
# 6 0.0000 0.0000 0.0000 0.0000 0.0000 32.5822
#
#
#
# Elastic Compliance Matrix: (Units=1/GPa)
#
#
# Indices 1 2 3 4 5 6 
#
# 1 0.013203 -0.007239 -0.003823 0.000000 0.000000 0.000000
# 2 -0.007239 0.017989 -0.001619 0.000000 0.000000 0.000000
# 3 -0.003823 -0.001619 0.011516 0.000000 0.000000 0.000000
# 4 0.000000 0.000000 0.000000 0.069708 0.000000 0.000000
# 5 0.000000 0.000000 0.000000 0.000000 0.025420 0.000000
# 6 0.000000 0.000000 0.000000 0.000000 0.000000 0.030692
#
#
# Mechanical properties :
#
#
# Convention : Reuss Voigt Hill
#
# Bulk Modulus (GPa) = 57.65205 61.47968 59.56587
# Shear Modulus (GPa) = 25.04119 29.02275 27.03197
#
# Velocity S-wave (km/s) = 3.55940 3.83194 3.69818
# Velocity P-wave (km/s) = 6.78681 7.11922 6.95500
#
# Compressibility (1/GPa) = 0.01734544
#
# Stress axis : x y z
#
# Youngs Moduli (GPa) = 75.74024 55.59076 86.83841
#
# Poissons Ratio (x) = 0.40243 0.33195
# Poissons Ratio (y) = 0.54829 0.14060
# Poissons Ratio (z) = 0.28953 0.09001
#
# Static dielectric constant tensor:
#      x y z
#    x 3.862610 0.000000 0.000000 
#    y 0.000000 3.368960 0.000000 
#    z 0.000000 0.000000 3.484410 
# 
# 
# High freq. dielectric constant tensor:
#      x y z
#    x 1.791470 0.000000 0.000000 
#    y 0.000000 1.732100 0.000000 
#    z 0.000000 0.000000 1.759970 
# 
# From -- ./inp_files/4317.got.cif
#   From: 2010.03.12/outbox.cif.g09.slc.cpg/sg50_3_cif.got.tgz:4317.got - 2010.04.16 13:23:21.
