data_PCOD8204103
_publ_section_title
;
Structure prediction by ZEFSAII (Michael W. Deem and Ramdas Pophale) SiO2 
 PCOD8204103
Probable space group: P C C M
;
_chemical_formula_sum "Si O2"
_cell_formula_units_Z 38
_cell_length_a 7.879002
_cell_length_b 24.668857
_cell_length_c 8.900644
_cell_angle_alpha 90.000000
_cell_angle_beta 90.000000
_cell_angle_gamma 90.000000
_cell_volume 1729.982337
_symmetry_space_group_name_H-M "P C C M"
_symmetry_group_IT_number 49
_symmetry_cell_setting 'orthorhombic'
loop_
_space_group_symop_operation_xyz
x,y,z
-x,-y,z
x,-y,1/2-z
-x,y,1/2-z
-x,-y,-z
x,y,-z
-x,y,1/2+z
x,-y,1/2+z
loop_
_atom_site_type_symbol
_atom_site_label
_atom_site_fract_x
_atom_site_fract_y
_atom_site_fract_z
Si Si1 0.833269 0.341843 0.673450
Si Si2 0.322614 0.769333 0.676146
Si Si3 0.500000 0.000000 0.750000
Si Si4 0.683852 0.445406 0.179488
Si Si5 0.266924 0.979631 0.000000
Si Si6 0.000000 0.169178 0.250000
Si Si7 0.927257 0.913067 0.000000
O O1 0.863295 0.358185 0.500000
O O2 0.688173 0.296000 0.684828
O O3 0.793922 0.394421 0.772120
O O4 0.000000 0.316336 0.750000
O O5 0.500000 0.788184 0.750000
O O6 0.310809 0.787395 0.500000
O O7 0.166423 0.793424 0.777028
O O8 0.377853 0.963422 0.854431
O O9 0.765751 0.500000 0.250000
O O10 0.500000 0.437096 0.250000
O O11 0.673001 0.449882 0.000000
O O12 0.097241 0.947286 0.000000
O O13 0.230165 0.044817 0.000000
O O14 0.923310 0.127792 0.366113
#
# Coordination Sequence:
#
# PCOD8204103 Si02
#       7
#     8   8   2   8   4   4   4
#     4  11  23  41  66  93 128 175 221 281 344 410
#     4  11  26  46  69  99 135 180 232 284 349 414
#     4  10  20  40  68 102 140 168 240 278 320 396
#     4  11  22  39  62  94 130 170 220 279 339 412
#     4  10  22  44  66 100 134 186 220 282 334 408
#     4  12  24  47  66 104 135 184 224 294 338 416
#     4  11  24  44  70  92 140 182 225 270 354 404
#
# _framework density 21.965544999999999
#
# number of rings (size 3 to 8) (size 9 to 14) (size 15 to 20)
#    0.000    1.053    2.105    5.053    1.474    5.474 
#   11.368    2.105    0.000    0.000    0.000    0.000 
#    0.000    0.000    0.000    0.000    0.000    0.000 
#
# Total GULP energy -470814.694853 kJ/mol
# GULP energy per Si atom -12389.860391 kJ/mol
# Density = 2.191555 g / cm^3
# Si number density = 21.965545 Si / 1000 Ang^3
#
#
#
# Elastic Constant Matrix: (Units=GPa)
#
#
# Indices 1 2 3 4 5 6 
#
# 1 121.7117 34.3704 30.0835 0.0000 0.0000 0.0000
# 2 34.3704 103.0652 31.5844 0.0000 0.0000 0.0000
# 3 30.0835 31.5844 135.0430 0.0000 0.0000 0.0000
# 4 0.0000 0.0000 0.0000 27.7278 0.0000 0.0000
# 5 0.0000 0.0000 0.0000 0.0000 35.8542 0.0000
# 6 0.0000 0.0000 0.0000 0.0000 0.0000 9.7089
#
#
#
# Elastic Compliance Matrix: (Units=1/GPa)
#
#
# Indices 1 2 3 4 5 6 
#
# 1 0.009328 -0.002665 -0.001455 0.000000 0.000000 0.000000
# 2 -0.002665 0.011213 -0.002029 0.000000 0.000000 0.000000
# 3 -0.001455 -0.002029 0.008204 0.000000 0.000000 0.000000
# 4 0.000000 0.000000 0.000000 0.036065 0.000000 0.000000
# 5 0.000000 0.000000 0.000000 0.000000 0.027891 0.000000
# 6 0.000000 0.000000 0.000000 0.000000 0.000000 0.102999
#
#
# Mechanical properties :
#
#
# Convention : Reuss Voigt Hill
#
# Bulk Modulus (GPa) = 60.79867 61.32183 61.06025
# Shear Modulus (GPa) = 23.42150 32.24363 27.83257
#
# Velocity S-wave (km/s) = 3.26894 3.83550 3.56350
# Velocity P-wave (km/s) = 6.47975 6.89874 6.69253
#
# Compressibility (1/GPa) = 0.01644773
#
# Stress axis : x y z
#
# Youngs Moduli (GPa) = 107.20084 89.18160 121.89697
#
# Poissons Ratio (x) = 0.23767 0.17733
# Poissons Ratio (y) = 0.28569 0.24731
# Poissons Ratio (z) = 0.15595 0.18094
#
# Static dielectric constant tensor:
#      x y z
#    x 3.936260 0.000000 0.000000 
#    y 0.000000 4.203450 0.000000 
#    z 0.000000 0.000000 4.014370 
# 
# 
# High freq. dielectric constant tensor:
#      x y z
#    x 1.866240 0.000000 0.000000 
#    y 0.000000 1.866350 0.000000 
#    z 0.000000 0.000000 1.870230 
# 
# From -- ./inp_files/1835.got.cif
#   From: 2010.03.12/outbox.cif.g09.slc.cpg/sg49_1_cif.got.tgz:1835.got - 2010.04.14 03:58:27.
