data_PCOD8204376
_publ_section_title
;
Structure prediction by ZEFSAII (Michael W. Deem and Ramdas Pophale) SiO2 
 PCOD8204376
Probable space group: P C C M
;
_chemical_formula_sum "Si O2"
_cell_formula_units_Z 40
_cell_length_a 15.728140
_cell_length_b 5.629276
_cell_length_c 19.471829
_cell_angle_alpha 90.000000
_cell_angle_beta 90.000000
_cell_angle_gamma 90.000000
_cell_volume 1723.997595
_symmetry_space_group_name_H-M "P C C M"
_symmetry_group_IT_number 49
_symmetry_cell_setting 'orthorhombic'
loop_
_space_group_symop_operation_xyz
x,y,z
-x,-y,z
x,-y,1/2-z
-x,y,1/2-z
-x,-y,-z
x,y,-z
-x,y,1/2+z
x,-y,1/2+z
loop_
_atom_site_type_symbol
_atom_site_label
_atom_site_fract_x
_atom_site_fract_y
_atom_site_fract_z
Si Si1 0.320577 0.087498 0.179010
Si Si2 0.093115 0.395189 0.075020
Si Si3 0.585535 0.627225 0.923503
Si Si4 0.850898 0.252624 0.712732
Si Si5 0.254796 0.717763 0.075624
O O1 0.398333 0.164128 0.130777
O O2 0.250595 0.286175 0.199698
O O3 0.362769 0.000000 0.250000
O O4 0.264054 0.896458 0.138302
O O5 0.101249 0.218825 0.139438
O O6 0.164005 0.596897 0.086318
O O7 0.000000 0.500000 0.075136
O O8 0.109231 0.271097 0.000000
O O9 0.500000 0.500000 0.898850
O O10 0.667349 0.463358 0.921154
O O11 0.572168 0.733442 0.000000
O O12 0.881845 0.500000 0.750000
O O13 0.870184 0.000000 0.750000
O O14 0.257383 0.842510 0.000000
#
# Coordination Sequence:
#
# PCOD8204376 Si02
#       5
#     8   8   8   8   8
#     4  11  23  38  67  93 134 176 224 283 350 420
#     4  10  21  41  70 104 141 183 239 298 355 425
#     4  10  22  41  67  94 127 170 225 284 343 421
#     4  11  24  44  71  99 138 187 233 284 352 429
#     4  10  21  41  66  92 129 178 224 282 350 415
#
# _framework density 23.201889000000001
#
# number of rings (size 3 to 8) (size 9 to 14) (size 15 to 20)
#    0.000    1.600    2.000    3.000    0.000    2.000 
#    0.000   15.000    0.000   10.800    0.000    0.000 
#    0.000    0.000    0.000    0.000    0.000    0.000 
#
# Total GULP energy -495599.148490 kJ/mol
# GULP energy per Si atom -12389.978712 kJ/mol
# Density = 2.314908 g / cm^3
# Si number density = 23.201889 Si / 1000 Ang^3
#
#
#
# Elastic Constant Matrix: (Units=GPa)
#
#
# Indices 1 2 3 4 5 6 
#
# 1 136.8364 34.6941 55.2072 0.0000 0.0000 0.0000
# 2 34.6941 91.5663 73.1846 0.0000 0.0000 0.0000
# 3 55.2072 73.1846 215.7127 0.0000 0.0000 0.0000
# 4 0.0000 0.0000 0.0000 37.7865 0.0000 0.0000
# 5 0.0000 0.0000 0.0000 0.0000 4.1867 0.0000
# 6 0.0000 0.0000 0.0000 0.0000 0.0000 17.9268
#
#
#
# Elastic Compliance Matrix: (Units=1/GPa)
#
#
# Indices 1 2 3 4 5 6 
#
# 1 0.008411 -0.002012 -0.001470 0.000000 0.000000 0.000000
# 2 -0.002012 0.015465 -0.004732 0.000000 0.000000 0.000000
# 3 -0.001470 -0.004732 0.006617 0.000000 0.000000 0.000000
# 4 0.000000 0.000000 0.000000 0.026464 0.000000 0.000000
# 5 0.000000 0.000000 0.000000 0.000000 0.238853 0.000000
# 6 0.000000 0.000000 0.000000 0.000000 0.000000 0.055782
#
#
# Mechanical properties :
#
#
# Convention : Reuss Voigt Hill
#
# Bulk Modulus (GPa) = 71.09368 85.58747 78.34058
# Shear Modulus (GPa) = 13.41524 30.71531 22.06527
#
# Velocity S-wave (km/s) = 2.40718 3.64239 3.08719
# Velocity P-wave (km/s) = 6.19951 7.39308 6.82244
#
# Compressibility (1/GPa) = 0.01406595
#
# Stress axis : x y z
#
# Youngs Moduli (GPa) = 118.88856 64.66014 151.11551
#
# Poissons Ratio (x) = 0.13010 0.22215
# Poissons Ratio (y) = 0.23921 0.71508
# Poissons Ratio (z) = 0.17477 0.30597
#
# Static dielectric constant tensor:
#      x y z
#    x 3.982980 0.000000 0.000000 
#    y 0.000000 3.302790 0.000000 
#    z 0.000000 0.000000 5.074500 
# 
# 
# High freq. dielectric constant tensor:
#      x y z
#    x 1.912030 0.000000 0.000000 
#    y 0.000000 1.879570 0.000000 
#    z 0.000000 0.000000 1.952530 
# 
# From -- ./inp_files/18064.got.cif
#   From: 2010.03.12/outbox.cif.g09.slc.cpg/sg49_10_cif.got.tgz:18064.got - 2010.04.14 03:58:27.
