data_PCOD8204946
_publ_section_title
;
Structure prediction by ZEFSAII (Michael W. Deem and Ramdas Pophale) SiO2 
 PCOD8204946
Probable space group: P B A N
;
_chemical_formula_sum "Si O2"
_cell_formula_units_Z 34
_cell_length_a 4.988756
_cell_length_b 13.012341
_cell_length_c 21.865966
_cell_angle_alpha 90.000000
_cell_angle_beta 90.000000
_cell_angle_gamma 90.000000
_cell_volume 1419.437803
_symmetry_space_group_name_H-M "P B A N"
_symmetry_group_IT_number 50
_space_group.IT_coordinate_system_code '2'
_symmetry_cell_setting 'orthorhombic'
loop_
_space_group_symop_operation_xyz
x,y,z
1/2-x,1/2-y,z
x,1/2-y,-z
1/2-x,y,-z
-x,-y,-z
1/2+x,1/2+y,-z
-x,1/2+y,z
1/2+x,-y,z
loop_
_atom_site_type_symbol
_atom_site_label
_atom_site_fract_x
_atom_site_fract_y
_atom_site_fract_z
Si Si1 0.655406 0.432065 0.560551
Si Si2 0.792402 0.431106 0.305866
Si Si3 0.448880 0.567710 0.073770
Si Si4 0.250000 0.750000 0.000000
Si Si5 0.016711 0.816411 0.190325
O O1 0.750000 0.365541 0.500000
O O2 0.347327 0.466706 0.557254
O O3 0.691864 0.378021 0.626628
O O4 0.489538 0.471015 0.297318
O O5 0.872608 0.346465 0.256814
O O6 0.673471 0.486900 0.054183
O O7 0.513481 0.585448 0.145997
O O8 0.449627 0.678605 0.040503
O O9 0.250000 0.750000 0.158358
O O10 0.750000 0.750000 0.197122
#
# Coordination Sequence:
#
# PCOD8204946 Si02
#       5
#     8   8   8   2   8
#     4   8  14  25  45  76 111 147 195 256 313 372
#     4  10  19  34  57  86 118 158 211 265 324 396
#     4  12  27  48  74 103 137 181 225 279 342 406
#     4  12  28  50  76 108 144 174 230 282 336 420
#     4  12  24  42  64  92 131 172 219 277 336 399
#
# _framework density 23.953146
#
# number of rings (size 3 to 8) (size 9 to 14) (size 15 to 20)
#    0.000    1.412    1.176    4.941    0.000    0.941 
#    0.000    0.000    0.000    0.706    0.000    1.647 
#    0.000    0.000    0.000    0.000    0.000    0.000 
#
# Total GULP energy -421282.042303 kJ/mol
# GULP energy per Si atom -12390.648303 kJ/mol
# Density = 2.389863 g / cm^3
# Si number density = 23.953146 Si / 1000 Ang^3
#
#
#
# Elastic Constant Matrix: (Units=GPa)
#
#
# Indices 1 2 3 4 5 6 
#
# 1 107.4697 27.9803 11.3758 0.0000 0.0000 0.0000
# 2 27.9803 86.8470 44.7565 0.0000 0.0000 0.0000
# 3 11.3758 44.7565 144.0038 0.0000 0.0000 0.0000
# 4 0.0000 0.0000 0.0000 -255.6757 0.0000 0.0000
# 5 0.0000 0.0000 0.0000 0.0000 47.2393 0.0000
# 6 0.0000 0.0000 0.0000 0.0000 0.0000 38.4449
#
#
#
# Elastic Compliance Matrix: (Units=1/GPa)
#
#
# Indices 1 2 3 4 5 6 
#
# 1 0.010165 -0.003407 0.000256 0.000000 0.000000 0.000000
# 2 -0.003407 0.014852 -0.004347 0.000000 0.000000 0.000000
# 3 0.000256 -0.004347 0.008275 0.000000 0.000000 0.000000
# 4 0.000000 0.000000 0.000000 -0.003911 0.000000 0.000000
# 5 0.000000 0.000000 0.000000 0.000000 0.021169 0.000000
# 6 0.000000 0.000000 0.000000 0.000000 0.000000 0.026011
#
#
# Mechanical properties :
#
#
# Convention : Reuss Voigt Hill
#
# Bulk Modulus (GPa) = 54.65545 56.28286 55.46916
# Shear Modulus (GPa) = 51.20032 -17.05109 17.07461
#
# Velocity S-wave (km/s) = 4.62835 -2.67095 2.67279
# Velocity P-wave (km/s) = 7.17142 3.74648 5.72125
#
# Compressibility (1/GPa) = 0.01829644
#
# Stress axis : x y z
#
# Youngs Moduli (GPa) = 98.37841 67.32970 120.84452
#
# Poissons Ratio (x) = 0.22937 -0.03092
# Poissons Ratio (y) = 0.33515 0.52531
# Poissons Ratio (z) = -0.02517 0.29268
#
# Static dielectric constant tensor:
#      x y z
#    x 4.340870 0.000000 0.000000 
#    y 0.000000 3.752860 0.000000 
#    z 0.000000 0.000000 4.909100 
# 
# 
# High freq. dielectric constant tensor:
#      x y z
#    x 1.960650 0.000000 0.000000 
#    y 0.000000 1.892780 0.000000 
#    z 0.000000 0.000000 1.990950 
# 
# From -- ./inp_files/31350.got.cif
#   From: 2010.03.12/outbox.cif.g09.slc.cpg/sg50_16_cif.got.tgz:31350.got - 2010.04.16 13:23:21.
