data_PCOD8204159
_publ_section_title
;
Structure prediction by ZEFSAII (Michael W. Deem and Ramdas Pophale) SiO2 
 PCOD8204159
Probable space group: P C C M
;
_chemical_formula_sum "Si O2"
_cell_formula_units_Z 40
_cell_length_a 25.301080
_cell_length_b 9.595237
_cell_length_c 8.471385
_cell_angle_alpha 90.000000
_cell_angle_beta 90.000000
_cell_angle_gamma 90.000000
_cell_volume 2056.596942
_symmetry_space_group_name_H-M "P C C M"
_symmetry_group_IT_number 49
_symmetry_cell_setting 'orthorhombic'
loop_
_space_group_symop_operation_xyz
x,y,z
-x,-y,z
x,-y,1/2-z
-x,y,1/2-z
-x,-y,-z
x,y,-z
-x,y,1/2+z
x,-y,1/2+z
loop_
_atom_site_type_symbol
_atom_site_label
_atom_site_fract_x
_atom_site_fract_y
_atom_site_fract_z
Si Si1 0.850373 0.350301 0.187307
Si Si2 0.353516 0.155145 0.314087
Si Si3 0.442231 0.351666 0.185923
Si Si4 0.737079 0.346187 0.313532
Si Si5 0.055131 0.152641 0.314399
O O1 0.867801 0.500000 0.250000
O O2 0.796587 0.301536 0.271096
O O3 0.896489 0.247273 0.241619
O O4 0.841547 0.353957 0.000000
O O5 0.361147 0.152789 0.500000
O O6 0.403733 0.228798 0.236610
O O7 0.300501 0.236083 0.269995
O O8 0.349087 0.000000 0.250000
O O9 0.421298 0.500000 0.250000
O O10 0.500000 0.316198 0.250000
O O11 0.444668 0.361971 0.000000
O O12 0.724349 0.500000 0.250000
O O13 0.727915 0.342810 0.500000
O O14 0.051087 0.146480 0.500000
O O15 0.000000 0.214709 0.250000
O O16 0.065900 0.000000 0.250000
#
# Coordination Sequence:
#
# PCOD8204159 Si02
#       5
#     8   8   8   8   8
#     4  10  21  37  57  84 113 146 187 235 284 337
#     4  12  25  42  61  87 120 155 194 240 290 344
#     4  11  22  40  64  92 121 156 198 241 287 340
#     4  11  22  39  62  87 115 152 192 237 286 341
#     4  10  21  36  56  80 110 146 187 229 278 336
#
# _framework density 19.449607
#
# number of rings (size 3 to 8) (size 9 to 14) (size 15 to 20)
#    0.000    1.200    0.000    9.600    0.000    4.800 
#    0.000    6.000    0.000    0.000    0.000    0.000 
#    0.000    0.000    0.000    0.000    0.000    0.000 
#
# Total GULP energy -496189.221250 kJ/mol
# GULP energy per Si atom -12404.730531 kJ/mol
# Density = 1.940534 g / cm^3
# Si number density = 19.449607 Si / 1000 Ang^3
#
#
#
# Elastic Constant Matrix: (Units=GPa)
#
#
# Indices 1 2 3 4 5 6 
#
# 1 131.2630 88.3728 36.7128 0.0000 0.0000 0.0000
# 2 88.3728 120.8113 33.0993 0.0000 0.0000 0.0000
# 3 36.7128 33.0993 127.1520 0.0000 0.0000 0.0000
# 4 0.0000 0.0000 0.0000 18.9749 0.0000 0.0000
# 5 0.0000 0.0000 0.0000 0.0000 38.8690 0.0000
# 6 0.0000 0.0000 0.0000 0.0000 0.0000 29.8116
#
#
#
# Elastic Compliance Matrix: (Units=1/GPa)
#
#
# Indices 1 2 3 4 5 6 
#
# 1 0.015315 -0.010759 -0.001621 0.000000 0.000000 0.000000
# 2 -0.010759 0.016471 -0.001181 0.000000 0.000000 0.000000
# 3 -0.001621 -0.001181 0.008640 0.000000 0.000000 0.000000
# 4 0.000000 0.000000 0.000000 0.052701 0.000000 0.000000
# 5 0.000000 0.000000 0.000000 0.000000 0.025727 0.000000
# 6 0.000000 0.000000 0.000000 0.000000 0.000000 0.033544
#
#
# Mechanical properties :
#
#
# Convention : Reuss Voigt Hill
#
# Bulk Modulus (GPa) = 75.16679 77.28846 76.22762
# Shear Modulus (GPa) = 27.18044 32.26718 29.72381
#
# Velocity S-wave (km/s) = 3.74234 4.07752 3.91352
# Velocity P-wave (km/s) = 7.57657 7.87352 7.72647
#
# Compressibility (1/GPa) = 0.01330375
#
# Stress axis : x y z
#
# Youngs Moduli (GPa) = 65.29540 60.71322 115.73779
#
# Poissons Ratio (x) = 0.65319 0.18765
# Poissons Ratio (y) = 0.70249 0.13671
# Poissons Ratio (z) = 0.10586 0.07172
#
# Static dielectric constant tensor:
#      x y z
#    x 9.986570 0.000000 0.000000 
#    y 0.000000 3.504550 0.000000 
#    z 0.000000 0.000000 3.681860 
# 
# 
# High freq. dielectric constant tensor:
#      x y z
#    x 1.772330 0.000000 0.000000 
#    y 0.000000 1.755690 0.000000 
#    z 0.000000 0.000000 1.781580 
# 
# From -- ./inp_files/6673.got.cif
#   From: 2010.03.12/outbox.cif.g09.slc.cpg/sg49_4_cif.got.tgz:6673.got - 2010.04.14 03:58:27.
