data_PCOD8204156
_publ_section_title
;
Structure prediction by ZEFSAII (Michael W. Deem and Ramdas Pophale) SiO2 
 PCOD8204156
Probable space group: P C C M
;
_chemical_formula_sum "Si O2"
_cell_formula_units_Z 48
_cell_length_a 10.043813
_cell_length_b 29.817298
_cell_length_c 8.438635
_cell_angle_alpha 90.000000
_cell_angle_beta 90.000000
_cell_angle_gamma 90.000000
_cell_volume 2527.197054
_symmetry_space_group_name_H-M "P C C M"
_symmetry_group_IT_number 49
_symmetry_cell_setting 'orthorhombic'
loop_
_space_group_symop_operation_xyz
x,y,z
-x,-y,z
x,-y,1/2-z
-x,y,1/2-z
-x,-y,-z
x,y,-z
-x,y,1/2+z
x,-y,1/2+z
loop_
_atom_site_type_symbol
_atom_site_label
_atom_site_fract_x
_atom_site_fract_y
_atom_site_fract_z
Si Si1 0.854844 0.116795 0.813913
Si Si2 0.357911 0.378698 0.811909
Si Si3 0.141404 0.786376 0.686039
Si Si4 0.643617 0.951990 0.814611
Si Si5 0.143486 0.548230 0.686252
Si Si6 0.645630 0.281350 0.813115
O O1 0.818200 0.167910 0.773695
O O2 0.748996 0.085341 0.730679
O O3 0.000000 0.104114 0.750000
O O4 0.849640 0.109031 0.000000
O O5 0.500000 0.396073 0.750000
O O6 0.250229 0.415211 0.758482
O O7 0.319176 0.332563 0.726576
O O8 0.362405 0.371141 0.000000
O O9 0.130709 0.795853 0.500000
O O10 0.250627 0.749266 0.721182
O O11 0.000000 0.768592 0.750000
O O12 0.500000 0.937620 0.750000
O O13 0.690790 0.000000 0.750000
O O14 0.631925 0.956004 0.000000
O O15 0.188611 0.500000 0.750000
O O16 0.134880 0.545070 0.500000
O O17 0.000000 0.562951 0.750000
O O18 0.500000 0.268768 0.750000
O O19 0.654289 0.273033 0.000000
#
# Coordination Sequence:
#
# PCOD8204156 Si02
#       6
#     8   8   8   8   8   8
#     4  11  22  39  60  86 116 150 189 233 281 334
#     4  10  21  37  56  81 110 144 183 227 274 328
#     4  11  22  39  60  85 115 149 187 231 279 333
#     4  11  22  39  60  86 116 151 190 234 283 335
#     4  10  21  36  56  80 109 142 181 224 272 325
#     4  11  22  38  59  84 113 148 186 231 279 331
#
# _framework density 18.993375
#
# number of rings (size 3 to 8) (size 9 to 14) (size 15 to 20)
#    0.000    1.333    0.000   10.000    0.000    4.667 
#    0.000    8.333    0.000    0.000    0.000    0.000 
#    0.000    0.000    0.000    0.000    0.000    0.000 
#
# Total GULP energy -595437.856119 kJ/mol
# GULP energy per Si atom -12404.955336 kJ/mol
# Density = 1.895014 g / cm^3
# Si number density = 18.993375 Si / 1000 Ang^3
#
#
#
# Elastic Constant Matrix: (Units=GPa)
#
#
# Indices 1 2 3 4 5 6 
#
# 1 126.8577 87.8269 24.5372 0.0000 0.0000 0.0000
# 2 87.8269 94.7008 15.2109 0.0000 0.0000 0.0000
# 3 24.5372 15.2109 111.7320 0.0000 0.0000 0.0000
# 4 0.0000 0.0000 0.0000 33.9882 0.0000 0.0000
# 5 0.0000 0.0000 0.0000 0.0000 40.3854 0.0000
# 6 0.0000 0.0000 0.0000 0.0000 0.0000 40.0170
#
#
#
# Elastic Compliance Matrix: (Units=1/GPa)
#
#
# Indices 1 2 3 4 5 6 
#
# 1 0.022517 -0.020538 -0.002149 0.000000 0.000000 0.000000
# 2 -0.020538 0.029528 0.000490 0.000000 0.000000 0.000000
# 3 -0.002149 0.000490 0.009355 0.000000 0.000000 0.000000
# 4 0.000000 0.000000 0.000000 0.029422 0.000000 0.000000
# 5 0.000000 0.000000 0.000000 0.000000 0.024761 0.000000
# 6 0.000000 0.000000 0.000000 0.000000 0.000000 0.024989
#
#
# Mechanical properties :
#
#
# Convention : Reuss Voigt Hill
#
# Bulk Modulus (GPa) = 58.79725 65.38227 62.08976
# Shear Modulus (GPa) = 26.22816 36.59247 31.41032
#
# Velocity S-wave (km/s) = 3.72009 4.39406 4.07105
# Velocity P-wave (km/s) = 7.03392 7.76158 7.40669
#
# Compressibility (1/GPa) = 0.01700760
#
# Stress axis : x y z
#
# Youngs Moduli (GPa) = 44.41032 33.86648 106.89276
#
# Poissons Ratio (x) = 0.69554 0.22972
# Poissons Ratio (y) = 0.91208 -0.05242
# Poissons Ratio (z) = 0.09544 -0.01661
#
# Static dielectric constant tensor:
#      x y z
#    x 3.736530 0.000000 0.000000 
#    y 0.000000 3.551110 0.000000 
#    z 0.000000 0.000000 3.685660 
# 
# 
# High freq. dielectric constant tensor:
#      x y z
#    x 1.744920 0.000000 0.000000 
#    y 0.000000 1.740540 0.000000 
#    z 0.000000 0.000000 1.763710 
# 
# From -- ./inp_files/2105.got.cif
#   From: 2010.03.12/outbox.cif.g09.slc.cpg/sg49_2_cif.got.tgz:2105.got - 2010.04.14 03:58:27.
