data_PCOD8204206
_publ_section_title
;
Structure prediction by ZEFSAII (Michael W. Deem and Ramdas Pophale) SiO2 
 PCOD8204206
Probable space group: P C C M
;
_chemical_formula_sum "Si O2"
_cell_formula_units_Z 64
_cell_length_a 9.183726
_cell_length_b 20.637750
_cell_length_c 17.994878
_cell_angle_alpha 90.000000
_cell_angle_beta 90.000000
_cell_angle_gamma 90.000000
_cell_volume 3410.595163
_symmetry_space_group_name_H-M "P C C M"
_symmetry_group_IT_number 49
_symmetry_cell_setting 'orthorhombic'
loop_
_space_group_symop_operation_xyz
x,y,z
-x,-y,z
x,-y,1/2-z
-x,y,1/2-z
-x,-y,-z
x,y,-z
-x,y,1/2+z
x,-y,1/2+z
loop_
_atom_site_type_symbol
_atom_site_label
_atom_site_fract_x
_atom_site_fract_y
_atom_site_fract_z
Si Si1 0.335666 0.375213 0.411516
Si Si2 0.168732 0.751149 0.914136
Si Si3 0.335666 0.375213 0.088484
Si Si4 0.328591 1.000000 0.914188
Si Si5 0.168465 0.883362 0.163055
Si Si6 0.835285 0.500000 0.088699
Si Si7 0.831535 0.116638 0.663055
Si Si8 0.168732 0.248851 0.914136
O O1 0.333806 0.376887 0.500000
O O2 0.260569 0.309353 0.383331
O O3 0.500000 0.378183 0.380863
O O4 0.247006 0.436647 0.380189
O O5 0.215525 0.813218 0.866644
O O6 1.000000 0.733891 0.903143
O O7 0.204115 0.765821 0.000000
O O8 0.247006 0.436647 0.119811
O O9 0.260569 0.309353 0.116669
O O10 0.333807 0.376886 0.000000
O O11 0.265235 0.063674 0.876802
O O12 0.500000 0.000000 0.902550
O O13 0.265235 0.936325 0.876802
O O14 0.284018 0.000000 0.000000
O O15 0.199158 0.886472 0.250000
O O16 0.000000 0.897179 0.144505
O O17 0.000000 0.500000 0.119057
O O18 0.834617 0.500000 0.000000
O O19 0.784475 0.186782 0.633356
O O20 0.204115 0.234179 0.000000
#
# Coordination Sequence:
#
# PCOD8204206 Si02
#       8
#     8   8   8   8   8   8   8   8
#     4   9  16  25  39  62  93 127 163 205 251 298
#     4   9  17  30  48  70  97 130 167 206 249 298
#     4   9  16  25  39  62  93 127 163 205 251 298
#     4  11  24  39  56  80 108 137 170 209 254 304
#     4  10  21  37  57  80 105 135 172 212 254 303
#     4   9  15  23  37  59  90 127 164 203 250 302
#     4  10  21  37  57  80 105 135 172 212 254 303
#     4   9  17  30  48  70  97 130 167 206 249 298
#
# _framework density 18.765053999999999
#
# number of rings (size 3 to 8) (size 9 to 14) (size 15 to 20)
#    0.000    2.500    0.000    2.625    0.000    9.500 
#    0.000    2.500    0.000    0.000    0.000    0.875 
#    0.000    7.000    0.000    0.000    0.000    0.000 
#
# Total GULP energy -793730.080424 kJ/mol
# GULP energy per Si atom -12402.032507 kJ/mol
# Density = 1.872234 g / cm^3
# Si number density = 18.765054 Si / 1000 Ang^3
#
#
#
# Elastic Constant Matrix: (Units=GPa)
#
#
# Indices 1 2 3 4 5 6 
#
# 1 124.6346 98.0287 42.6107 0.0000 0.0000 0.0000
# 2 98.0287 183.6891 57.7822 0.0000 0.0000 0.0000
# 3 42.6107 57.7822 59.8985 0.0000 0.0000 0.0000
# 4 0.0000 0.0000 0.0000 -14.7991 0.0000 0.0000
# 5 0.0000 0.0000 0.0000 0.0000 15.5634 0.0000
# 6 0.0000 0.0000 0.0000 0.0000 0.0000 16.7871
#
#
#
# Elastic Compliance Matrix: (Units=1/GPa)
#
#
# Indices 1 2 3 4 5 6 
#
# 1 0.014493 -0.006448 -0.004090 0.000000 0.000000 0.000000
# 2 -0.006448 0.010684 -0.005720 0.000000 0.000000 0.000000
# 3 -0.004090 -0.005720 0.025122 0.000000 0.000000 0.000000
# 4 0.000000 0.000000 0.000000 -0.067572 0.000000 0.000000
# 5 0.000000 0.000000 0.000000 0.000000 0.064253 0.000000
# 6 0.000000 0.000000 0.000000 0.000000 0.000000 0.059570
#
#
# Mechanical properties :
#
#
# Convention : Reuss Voigt Hill
#
# Bulk Modulus (GPa) = 56.23014 85.00727 70.61871
# Shear Modulus (GPa) = 34.48388 14.83030 24.65709
#
# Velocity S-wave (km/s) = 4.29145 2.81430 3.62883
# Velocity P-wave (km/s) = 7.38822 7.48061 7.43456
#
# Compressibility (1/GPa) = 0.01778406
#
# Stress axis : x y z
#
# Youngs Moduli (GPa) = 68.99712 93.59496 39.80523
#
# Poissons Ratio (x) = 0.60350 0.16281
# Poissons Ratio (y) = 0.44489 0.22768
# Poissons Ratio (z) = 0.28221 0.53535
#
# Static dielectric constant tensor:
#      x y z
#    x 3.534170 0.000000 0.000000 
#    y 0.000000 3.544100 0.000000 
#    z 0.000000 0.000000 3.059920 
# 
# 
# High freq. dielectric constant tensor:
#      x y z
#    x 1.732490 0.000000 0.000000 
#    y 0.000000 1.746770 0.000000 
#    z 0.000000 0.000000 1.684750 
# 
# From -- ./inp_files/16580.got.cif
#   From: 2010.03.12/outbox.cif.g09.slc.cpg/sg49_9_cif.got.tgz:16580.got - 2010.04.14 03:58:27.
