data_PCOD8204815
_publ_section_title
;
Structure prediction by ZEFSAII (Michael W. Deem and Ramdas Pophale) SiO2 
 PCOD8204815
Probable space group: P B A N
;
_chemical_formula_sum "Si O2"
_cell_formula_units_Z 60
_cell_length_a 23.859162
_cell_length_b 5.380942
_cell_length_c 22.030773
_cell_angle_alpha 90.000000
_cell_angle_beta 90.000000
_cell_angle_gamma 90.000000
_cell_volume 2828.415656
_symmetry_space_group_name_H-M "P B A N"
_symmetry_group_IT_number 50
_space_group.IT_coordinate_system_code '2'
_symmetry_cell_setting 'orthorhombic'
loop_
_space_group_symop_operation_xyz
x,y,z
1/2-x,1/2-y,z
x,1/2-y,-z
1/2-x,y,-z
-x,-y,-z
1/2+x,1/2+y,-z
-x,1/2+y,z
1/2+x,-y,z
loop_
_atom_site_type_symbol
_atom_site_label
_atom_site_fract_x
_atom_site_fract_y
_atom_site_fract_z
Si Si1 0.015373 0.143204 0.581092
Si Si2 0.140533 0.307371 0.380723
Si Si3 0.528785 0.123263 0.284375
Si Si4 0.352226 0.441648 0.259965
Si Si5 0.250000 0.750000 0.755844
Si Si6 0.685834 0.999537 0.975103
Si Si7 0.314788 0.703248 0.433889
Si Si8 0.306739 0.380982 0.841183
O O1 0.079230 0.196926 0.592822
O O2 0.992518 0.384277 0.544389
O O3 0.977462 0.119150 0.642502
O O4 0.164419 0.583400 0.388446
O O5 0.138501 0.277209 0.308372
O O6 0.173689 0.078617 0.412020
O O7 0.501385 0.375546 0.257494
O O8 0.594151 0.124119 0.264269
O O9 0.292466 0.569896 0.280932
O O10 0.346976 0.320210 0.192608
O O11 0.295140 0.603135 0.795474
O O12 0.671915 0.999911 0.903444
O O13 0.656404 0.250000 0.000000
O O14 0.750000 0.001913 0.000000
O O15 0.656307 0.750000 0.000000
O O16 0.250000 0.750000 0.440034
O O17 0.342913 0.750000 0.500000
O O18 0.250000 0.250000 0.861387
#
# Coordination Sequence:
#
# PCOD8204815 Si02
#       8
#     8   8   8   8   4   8   8   8
#     4  10  19  36  62  94 118 155 204 254 318 379
#     4  12  24  40  71  94 121 164 213 260 326 393
#     4  10  21  38  61  87 121 167 218 255 307 386
#     4  11  25  37  61  95 134 171 209 259 335 397
#     4  10  24  36  55  80 153 166 196 246 342 364
#     4  10  18  31  56  74 107 168 226 246 288 360
#     4  11  27  48  68  91 124 166 220 266 307 377
#     4  10  21  36  50  87 128 174 204 266 308 371
#
# _framework density 21.213290000000001
#
# number of rings (size 3 to 8) (size 9 to 14) (size 15 to 20)
#    0.000    1.467    4.000    2.400    8.400    3.200 
#    0.000    0.000    0.000    8.000    0.000    0.000 
#    0.000    3.200    0.000    0.000    0.000    0.000 
#
# Total GULP energy -743354.944480 kJ/mol
# GULP energy per Si atom -12389.249075 kJ/mol
# Density = 2.116501 g / cm^3
# Si number density = 21.213290 Si / 1000 Ang^3
#
#
#
# Elastic Constant Matrix: (Units=GPa)
#
#
# Indices 1 2 3 4 5 6 
#
# 1 76.7472 38.2037 9.5399 0.0000 0.0000 0.0000
# 2 38.2037 163.8330 24.4631 0.0000 0.0000 0.0000
# 3 9.5399 24.4631 45.7296 0.0000 0.0000 0.0000
# 4 0.0000 0.0000 0.0000 25.1231 0.0000 0.0000
# 5 0.0000 0.0000 0.0000 0.0000 -71.9550 0.0000
# 6 0.0000 0.0000 0.0000 0.0000 0.0000 59.9575
#
#
#
# Elastic Compliance Matrix: (Units=1/GPa)
#
#
# Indices 1 2 3 4 5 6 
#
# 1 0.014817 -0.003254 -0.001351 0.000000 0.000000 0.000000
# 2 -0.003254 0.007348 -0.003252 0.000000 0.000000 0.000000
# 3 -0.001351 -0.003252 0.023889 0.000000 0.000000 0.000000
# 4 0.000000 0.000000 0.000000 0.039804 0.000000 0.000000
# 5 0.000000 0.000000 0.000000 0.000000 -0.013898 0.000000
# 6 0.000000 0.000000 0.000000 0.000000 0.000000 0.016678
#
#
# Mechanical properties :
#
#
# Convention : Reuss Voigt Hill
#
# Bulk Modulus (GPa) = 32.95769 47.85813 40.40791
# Shear Modulus (GPa) = 43.68116 16.89866 30.28991
#
# Velocity S-wave (km/s) = 4.54270 2.82549 3.78282
# Velocity P-wave (km/s) = 6.56391 5.76662 6.17814
#
# Compressibility (1/GPa) = 0.03034194
#
# Stress axis : x y z
#
# Youngs Moduli (GPa) = 67.48894 136.09054 41.86002
#
# Poissons Ratio (x) = 0.44277 0.05654
# Poissons Ratio (y) = 0.21958 0.13613
# Poissons Ratio (z) = 0.09115 0.44258
#
# Static dielectric constant tensor:
#      x y z
#    x 3.633360 0.000000 0.000000 
#    y 0.000000 4.607960 0.000000 
#    z 0.000000 0.000000 3.759710 
# 
# 
# High freq. dielectric constant tensor:
#      x y z
#    x 1.793260 0.000000 0.000000 
#    y 0.000000 1.868560 0.000000 
#    z 0.000000 0.000000 1.803420 
# 
# From -- ./inp_files/31265.got.cif
#   From: 2010.03.12/outbox.cif.g09.slc.cpg/sg50_16_cif.got.tgz:31265.got - 2010.04.16 13:23:21.
