data_PCOD8204372
_publ_section_title
;
Structure prediction by ZEFSAII (Michael W. Deem and Ramdas Pophale) SiO2 
 PCOD8204372
Probable space group: P C C M
;
_chemical_formula_sum "Si O2"
_cell_formula_units_Z 38
_cell_length_a 5.053958
_cell_length_b 15.365179
_cell_length_c 21.746534
_cell_angle_alpha 90.000000
_cell_angle_beta 90.000000
_cell_angle_gamma 90.000000
_cell_volume 1688.726431
_symmetry_space_group_name_H-M "P C C M"
_symmetry_group_IT_number 49
_symmetry_cell_setting 'orthorhombic'
loop_
_space_group_symop_operation_xyz
x,y,z
-x,-y,z
x,-y,1/2-z
-x,y,1/2-z
-x,-y,-z
x,y,-z
-x,y,1/2+z
x,-y,1/2+z
loop_
_atom_site_type_symbol
_atom_site_label
_atom_site_fract_x
_atom_site_fract_y
_atom_site_fract_z
Si Si1 0.736605 0.057847 0.179165
Si Si2 0.500000 0.500000 0.750000
Si Si3 0.068539 0.723766 0.430783
Si Si4 0.196716 0.347913 0.193306
Si Si5 0.500000 0.796269 0.250000
Si Si6 0.567724 0.837039 0.432165
O O1 0.738307 0.145358 0.221133
O O2 0.667252 0.084163 0.109862
O O3 0.500000 0.000000 0.204891
O O4 0.000000 0.000000 0.185033
O O5 0.671569 0.558591 0.796016
O O6 0.128182 0.685769 0.500000
O O7 0.081156 0.651358 0.376184
O O8 0.273544 0.802260 0.416070
O O9 0.770246 0.757005 0.428084
O O10 0.398789 0.266357 0.195314
O O11 0.000000 0.331360 0.250000
O O12 0.566956 0.877391 0.500000
#
# Coordination Sequence:
#
# PCOD8204372 Si02
#       6
#     8   2   8   8   4   8
#     4  12  26  40  58  90 134 172 226 287 337 389
#     4  10  26  44  64 118 134 164 216 282 334 410
#     4  10  21  40  70 100 129 174 228 274 323 404
#     4  11  23  43  75  96 140 175 223 271 345 415
#     4  11  25  41  61  92 124 188 225 275 343 407
#     4  10  21  41  64  92 127 171 229 278 332 396
#
# _framework density 22.502164
#
# number of rings (size 3 to 8) (size 9 to 14) (size 15 to 20)
#    0.000    1.263    2.105    3.158    5.895    1.684 
#    0.000    0.526    0.000    2.526    0.000    0.000 
#    0.000    0.000    0.000    0.000    0.000    0.000 
#
# Total GULP energy -470887.623386 kJ/mol
# GULP energy per Si atom -12391.779563 kJ/mol
# Density = 2.245095 g / cm^3
# Si number density = 22.502164 Si / 1000 Ang^3
#
#
#
# Elastic Constant Matrix: (Units=GPa)
#
#
# Indices 1 2 3 4 5 6 
#
# 1 84.0345 18.5186 0.7800 0.0000 0.0000 0.0000
# 2 18.5186 105.0670 42.4437 0.0000 0.0000 0.0000
# 3 0.7800 42.4437 165.3143 0.0000 0.0000 0.0000
# 4 0.0000 0.0000 0.0000 38.6615 0.0000 0.0000
# 5 0.0000 0.0000 0.0000 0.0000 32.4638 0.0000
# 6 0.0000 0.0000 0.0000 0.0000 0.0000 27.4464
#
#
#
# Elastic Compliance Matrix: (Units=1/GPa)
#
#
# Indices 1 2 3 4 5 6 
#
# 1 0.012427 -0.002417 0.000562 0.000000 0.000000 0.000000
# 2 -0.002417 0.011089 -0.002836 0.000000 0.000000 0.000000
# 3 0.000562 -0.002836 0.006774 0.000000 0.000000 0.000000
# 4 0.000000 0.000000 0.000000 0.025866 0.000000 0.000000
# 5 0.000000 0.000000 0.000000 0.000000 0.030804 0.000000
# 6 0.000000 0.000000 0.000000 0.000000 0.000000 0.036435
#
#
# Mechanical properties :
#
#
# Convention : Reuss Voigt Hill
#
# Bulk Modulus (GPa) = 47.82639 53.10005 50.46322
# Shear Modulus (GPa) = 35.77895 39.22590 37.50242
#
# Velocity S-wave (km/s) = 3.99183 4.17970 4.08685
# Velocity P-wave (km/s) = 6.52278 6.85144 6.68912
#
# Compressibility (1/GPa) = 0.02090896
#
# Stress axis : x y z
#
# Youngs Moduli (GPa) = 80.46745 90.17643 147.61251
#
# Poissons Ratio (x) = 0.21800 -0.08296
# Poissons Ratio (y) = 0.19452 0.41859
# Poissons Ratio (z) = -0.04522 0.25572
#
# Static dielectric constant tensor:
#      x y z
#    x 3.985920 0.000000 0.000000 
#    y 0.000000 3.774900 0.000000 
#    z 0.000000 0.000000 4.454340 
# 
# 
# High freq. dielectric constant tensor:
#      x y z
#    x 1.891680 0.000000 0.000000 
#    y 0.000000 1.850130 0.000000 
#    z 0.000000 0.000000 1.912440 
# 
# From -- ./inp_files/21750.got.cif
#   From: 2010.03.12/outbox.cif.g09.slc.cpg/sg49_11_cif.got.tgz:21750.got - 2010.04.14 03:58:27.
