data_PCOD8204274
_publ_section_title
;
Structure prediction by ZEFSAII (Michael W. Deem and Ramdas Pophale) SiO2 
 PCOD8204274
Probable space group: P C C M
;
_chemical_formula_sum "Si O2"
_cell_formula_units_Z 64
_cell_length_a 18.260708
_cell_length_b 20.656890
_cell_length_c 8.951903
_cell_angle_alpha 90.000000
_cell_angle_beta 90.000000
_cell_angle_gamma 90.000000
_cell_volume 3376.742286
_symmetry_space_group_name_H-M "P C C M"
_symmetry_group_IT_number 49
_symmetry_cell_setting 'orthorhombic'
loop_
_space_group_symop_operation_xyz
x,y,z
-x,-y,z
x,-y,1/2-z
-x,y,1/2-z
-x,-y,-z
x,y,-z
-x,y,1/2+z
x,-y,1/2+z
loop_
_atom_site_type_symbol
_atom_site_label
_atom_site_fract_x
_atom_site_fract_y
_atom_site_fract_z
Si Si1 0.352501 0.798366 0.177461
Si Si2 0.576049 0.332652 0.822630
Si Si3 0.186061 0.938644 0.835248
Si Si4 0.146757 0.567223 0.674011
Si Si5 0.189564 0.797776 0.178177
Si Si6 0.317698 0.567178 0.326208
Si Si7 0.360508 0.938436 0.835135
Si Si8 0.076621 0.689857 0.821488
O O1 0.407663 0.741512 0.225064
O O2 0.271138 0.781799 0.239159
O O3 0.380607 0.868370 0.239651
O O4 0.347050 0.804595 0.000000
O O5 0.500000 0.354479 0.750000
O O6 0.640329 0.376207 0.757882
O O7 0.572704 0.341214 0.000000
O O8 0.164625 0.869060 0.762335
O O9 0.273342 0.943563 0.839996
O O10 0.151769 0.000000 0.750000
O O11 0.152728 0.942611 0.000000
O O12 0.124853 0.500000 0.750000
O O13 0.125389 0.565507 0.500000
O O14 0.232324 0.581517 0.696281
O O15 0.100261 0.620800 0.758889
O O16 0.134465 0.743200 0.236212
O O17 0.190739 0.799771 0.000000
O O18 0.340538 0.500000 0.250000
O O19 0.339495 0.564613 0.500000
O O20 0.394818 0.000000 0.750000
O O21 0.394104 0.941928 0.000000
O O22 0.000000 0.710268 0.750000
O O23 0.071412 0.686992 0.000000
#
# Coordination Sequence:
#
# PCOD8204274 Si02
#       8
#     8   8   8   8   8   8   8   8
#     4   8  15  29  50  73  97 130 170 209 253 308
#     4  11  22  36  54  76 105 140 177 215 258 306
#     4   8  13  23  41  67  96 123 156 201 252 303
#     4  10  21  38  60  85 110 135 167 208 253 303
#     4   8  15  29  50  73  97 130 170 209 253 308
#     4  10  21  38  60  85 110 135 167 208 253 303
#     4   8  13  23  41  67  96 123 156 201 252 303
#     4  11  22  36  54  76 105 140 177 215 258 306
#
# _framework density 18.953177
#
# number of rings (size 3 to 8) (size 9 to 14) (size 15 to 20)
#    0.000    2.750    0.000    3.750    0.000    3.000 
#    0.000    5.000    0.000    6.750    0.000    5.250 
#    0.000    0.000    0.000    0.000    0.000    0.000 
#
# Total GULP energy -793267.028415 kJ/mol
# GULP energy per Si atom -12394.797319 kJ/mol
# Density = 1.891004 g / cm^3
# Si number density = 18.953177 Si / 1000 Ang^3
#
#
#
# Elastic Constant Matrix: (Units=GPa)
#
#
# Indices 1 2 3 4 5 6 
#
# 1 32.0847 10.1739 15.2797 0.0000 0.0000 0.0000
# 2 10.1739 92.0170 29.1503 0.0000 0.0000 0.0000
# 3 15.2797 29.1503 74.6142 0.0000 0.0000 0.0000
# 4 0.0000 0.0000 0.0000 30.7318 0.0000 0.0000
# 5 0.0000 0.0000 0.0000 0.0000 -11.4350 0.0000
# 6 0.0000 0.0000 0.0000 0.0000 0.0000 20.1711
#
#
#
# Elastic Compliance Matrix: (Units=1/GPa)
#
#
# Indices 1 2 3 4 5 6 
#
# 1 0.034799 -0.001815 -0.006417 0.000000 0.000000 0.000000
# 2 -0.001815 0.012497 -0.004511 0.000000 0.000000 0.000000
# 3 -0.006417 -0.004511 0.016479 0.000000 0.000000 0.000000
# 4 0.000000 0.000000 0.000000 0.032540 0.000000 0.000000
# 5 0.000000 0.000000 0.000000 0.000000 -0.087451 0.000000
# 6 0.000000 0.000000 0.000000 0.000000 0.000000 0.049576
#
#
# Mechanical properties :
#
#
# Convention : Reuss Voigt Hill
#
# Bulk Modulus (GPa) = 26.11685 34.21376 30.16530
# Shear Modulus (GPa) = 51.71248 17.50103 34.60675
#
# Velocity S-wave (km/s) = 5.22911 3.04202 4.27770
# Velocity P-wave (km/s) = 7.08997 5.51629 6.35205
#
# Compressibility (1/GPa) = 0.03828946
#
# Stress axis : x y z
#
# Youngs Moduli (GPa) = 28.73641 80.01807 60.68433
#
# Poissons Ratio (x) = 0.14520 0.38943
# Poissons Ratio (y) = 0.05215 0.27373
# Poissons Ratio (z) = 0.18441 0.36095
#
# Static dielectric constant tensor:
#      x y z
#    x 3.193580 0.000000 0.000000 
#    y 0.000000 3.876950 0.000000 
#    z 0.000000 0.000000 3.370890 
# 
# 
# High freq. dielectric constant tensor:
#      x y z
#    x 1.702590 0.000000 0.000000 
#    y 0.000000 1.757180 0.000000 
#    z 0.000000 0.000000 1.716380 
# 
# From -- ./inp_files/5293.got.cif
#   From: 2010.03.12/outbox.cif.g09.slc.cpg/sg49_3_cif.got.tgz:5293.got - 2010.04.14 03:58:27.
