data_PCOD8204593
_publ_section_title
;
Structure prediction by ZEFSAII (Michael W. Deem and Ramdas Pophale) SiO2 
 PCOD8204593
Probable space group: P C C M
;
_chemical_formula_sum "Si O2"
_cell_formula_units_Z 64
_cell_length_a 19.610264
_cell_length_b 20.322452
_cell_length_c 8.791660
_cell_angle_alpha 90.000000
_cell_angle_beta 90.000000
_cell_angle_gamma 90.000000
_cell_volume 3503.728381
_symmetry_space_group_name_H-M "P C C M"
_symmetry_group_IT_number 49
_symmetry_cell_setting 'orthorhombic'
loop_
_space_group_symop_operation_xyz
x,y,z
-x,-y,z
x,-y,1/2-z
-x,y,1/2-z
-x,-y,-z
x,y,-z
-x,y,1/2+z
x,-y,1/2+z
loop_
_atom_site_type_symbol
_atom_site_label
_atom_site_fract_x
_atom_site_fract_y
_atom_site_fract_z
Si Si1 0.432934 0.727989 0.671453
Si Si2 0.704943 0.880390 0.678574
Si Si3 0.850835 0.069030 0.818741
Si Si4 0.700528 0.267930 0.826112
Si Si5 0.073954 0.808037 0.318004
Si Si6 0.568031 0.884393 0.827313
Si Si7 0.151872 0.313218 0.322473
Si Si8 0.927607 0.569999 0.818309
O O1 0.500000 0.697946 0.750000
O O2 0.436362 0.705011 0.500000
O O3 0.363254 0.698708 0.740677
O O4 0.431851 0.806189 0.692588
O O5 0.694592 0.883260 0.500000
O O6 0.772100 0.920013 0.728677
O O7 0.715667 0.805527 0.736121
O O8 0.637449 0.912640 0.753083
O O9 0.898936 0.122681 0.741829
O O10 0.874974 0.000000 0.750000
O O11 0.860599 0.071639 0.000000
O O12 0.766645 0.312942 0.803902
O O13 0.678640 0.262390 0.000000
O O14 0.071587 0.807057 0.500000
O O15 0.122775 0.751228 0.256972
O O16 0.000000 0.794383 0.250000
O O17 0.500000 0.914072 0.750000
O O18 0.566891 0.907211 0.000000
O O19 0.130501 0.314511 0.500000
O O20 0.127796 0.377552 0.234007
O O21 0.905676 0.500000 0.750000
O O22 0.000000 0.592248 0.750000
O O23 0.932219 0.566018 0.000000
#
# Coordination Sequence:
#
# PCOD8204593 Si02
#       8
#     8   8   8   8   8   8   8   8
#     4   9  16  25  39  63  97 135 174 215 259 312
#     4   9  17  32  51  71  99 133 168 211 262 318
#     4  11  23  41  60  81 105 135 174 220 274 330
#     4   9  17  30  49  72 102 139 174 215 266 316
#     4  12  25  41  61  84 109 139 176 221 270 326
#     4   9  16  25  41  67  96 128 166 208 255 310
#     4  11  21  37  58  84 116 149 183 225 272 322
#     4  11  22  38  58  83 113 151 191 230 271 321
#
# _framework density 18.266255999999998
#
# number of rings (size 3 to 8) (size 9 to 14) (size 15 to 20)
#    0.000    1.875    1.250    4.500    0.000    5.250 
#    0.000    1.250    0.000    0.375    0.000    2.625 
#    0.000    0.500    0.000    5.250    0.000    2.500 
#
# Total GULP energy -793638.806877 kJ/mol
# GULP energy per Si atom -12400.606357 kJ/mol
# Density = 1.822468 g / cm^3
# Si number density = 18.266256 Si / 1000 Ang^3
#
#
#
# Elastic Constant Matrix: (Units=GPa)
#
#
# Indices 1 2 3 4 5 6 
#
# 1 93.3672 25.8036 50.1251 0.0000 0.0000 0.0000
# 2 25.8036 65.9050 30.7021 0.0000 0.0000 0.0000
# 3 50.1251 30.7021 121.0564 0.0000 0.0000 0.0000
# 4 0.0000 0.0000 0.0000 23.5361 0.0000 0.0000
# 5 0.0000 0.0000 0.0000 0.0000 35.9922 0.0000
# 6 0.0000 0.0000 0.0000 0.0000 0.0000 15.1849
#
#
#
# Elastic Compliance Matrix: (Units=1/GPa)
#
#
# Indices 1 2 3 4 5 6 
#
# 1 0.014355 -0.003233 -0.005124 0.000000 0.000000 0.000000
# 2 -0.003233 0.017935 -0.003210 0.000000 0.000000 0.000000
# 3 -0.005124 -0.003210 0.011196 0.000000 0.000000 0.000000
# 4 0.000000 0.000000 0.000000 0.042488 0.000000 0.000000
# 5 0.000000 0.000000 0.000000 0.000000 0.027784 0.000000
# 6 0.000000 0.000000 0.000000 0.000000 0.000000 0.065855
#
#
# Mechanical properties :
#
#
# Convention : Reuss Voigt Hill
#
# Bulk Modulus (GPa) = 49.13550 54.84335 51.98943
# Shear Modulus (GPa) = 23.86295 26.52248 25.19272
#
# Velocity S-wave (km/s) = 3.61833 3.81464 3.71778
# Velocity P-wave (km/s) = 6.66441 7.03502 6.85222
#
# Compressibility (1/GPa) = 0.02035188
#
# Stress axis : x y z
#
# Youngs Moduli (GPa) = 69.66346 55.75827 89.31594
#
# Poissons Ratio (x) = 0.18029 0.45763
# Poissons Ratio (y) = 0.22525 0.28668
# Poissons Ratio (z) = 0.35694 0.17897
#
# Static dielectric constant tensor:
#      x y z
#    x 3.572320 0.000000 0.000000 
#    y 0.000000 3.063780 0.000000 
#    z 0.000000 0.000000 3.464350 
# 
# 
# High freq. dielectric constant tensor:
#      x y z
#    x 1.720490 0.000000 0.000000 
#    y 0.000000 1.659150 0.000000 
#    z 0.000000 0.000000 1.721280 
# 
# From -- ./inp_files/5323.got.cif
#   From: 2010.03.12/outbox.cif.g09.slc.cpg/sg49_3_cif.got.tgz:5323.got - 2010.04.14 03:58:27.
