data_PCOD8204676
_publ_section_title
;
Structure prediction by ZEFSAII (Michael W. Deem and Ramdas Pophale) SiO2 
 PCOD8204676
Probable space group: P C C M
;
_chemical_formula_sum "Si O2"
_cell_formula_units_Z 34
_cell_length_a 7.338299
_cell_length_b 19.901378
_cell_length_c 10.127483
_cell_angle_alpha 90.000000
_cell_angle_beta 90.000000
_cell_angle_gamma 90.000000
_cell_volume 1479.040528
_symmetry_space_group_name_H-M "P C C M"
_symmetry_group_IT_number 49
_symmetry_cell_setting 'orthorhombic'
loop_
_space_group_symop_operation_xyz
x,y,z
-x,-y,z
x,-y,1/2-z
-x,y,1/2-z
-x,-y,-z
x,y,-z
-x,y,1/2+z
x,-y,1/2+z
loop_
_atom_site_type_symbol
_atom_site_label
_atom_site_fract_x
_atom_site_fract_y
_atom_site_fract_z
Si Si1 0.500000 0.500000 0.250000
Si Si2 0.742351 0.057982 0.500000
Si Si3 0.644963 0.708614 0.853587
Si Si4 0.842322 0.579330 0.852509
Si Si5 0.677984 0.089168 0.000000
Si Si6 0.800611 0.845979 0.768068
O O1 0.358526 0.454191 0.166012
O O2 0.527760 0.066489 0.500000
O O3 0.820254 0.091355 0.632503
O O4 0.798858 0.979175 0.500000
O O5 0.500000 0.681579 0.750000
O O6 0.819966 0.660059 0.839038
O O7 0.684156 0.786794 0.830936
O O8 0.561143 0.702065 0.000000
O O9 0.000000 0.555380 0.750000
O O10 0.911392 0.561387 0.000000
O O11 0.714247 0.132764 0.129492
O O12 0.000000 0.815765 0.750000
#
# Coordination Sequence:
#
# PCOD8204676 Si02
#       6
#     2   4   8   8   4   8
#     4  12  24  48  76 112 150 200 236 294 350 418
#     4  11  23  45  63  95 129 171 232 273 340 419
#     4  11  24  45  71 101 136 182 235 288 346 412
#     4  11  26  47  75 111 150 193 244 296 353 423
#     4  11  25  41  69  91 129 179 220 281 342 413
#     4  12  25  41  64  97 132 173 221 284 345 409
#
# _framework density 22.987877000000001
#
# number of rings (size 3 to 8) (size 9 to 14) (size 15 to 20)
#    0.000    0.706    2.353    4.941    1.647    8.471 
#    0.000    0.000    0.000    0.000    0.000    0.000 
#    0.000    0.000    0.000    0.000    0.000    0.000 
#
# Total GULP energy -421522.275707 kJ/mol
# GULP energy per Si atom -12397.713991 kJ/mol
# Density = 2.293556 g / cm^3
# Si number density = 22.987877 Si / 1000 Ang^3
#
#
#
# Elastic Constant Matrix: (Units=GPa)
#
#
# Indices 1 2 3 4 5 6 
#
# 1 99.7539 12.6326 49.2387 0.0000 0.0000 0.0000
# 2 12.6326 115.9399 48.0719 0.0000 0.0000 0.0000
# 3 49.2387 48.0719 203.3288 0.0000 0.0000 0.0000
# 4 0.0000 0.0000 0.0000 50.3791 0.0000 0.0000
# 5 0.0000 0.0000 0.0000 0.0000 30.9970 0.0000
# 6 0.0000 0.0000 0.0000 0.0000 0.0000 28.1824
#
#
#
# Elastic Compliance Matrix: (Units=1/GPa)
#
#
# Indices 1 2 3 4 5 6 
#
# 1 0.011387 -0.000108 -0.002732 0.000000 0.000000 0.000000
# 2 -0.000108 0.009564 -0.002235 0.000000 0.000000 0.000000
# 3 -0.002732 -0.002235 0.006108 0.000000 0.000000 0.000000
# 4 0.000000 0.000000 0.000000 0.019850 0.000000 0.000000
# 5 0.000000 0.000000 0.000000 0.000000 0.032261 0.000000
# 6 0.000000 0.000000 0.000000 0.000000 0.000000 0.035483
#
#
# Mechanical properties :
#
#
# Convention : Reuss Voigt Hill
#
# Bulk Modulus (GPa) = 59.14049 70.98989 65.06519
# Shear Modulus (GPa) = 38.33228 42.51698 40.42463
#
# Velocity S-wave (km/s) = 4.08793 4.30529 4.19802
# Velocity P-wave (km/s) = 6.93284 7.46073 7.20163
#
# Compressibility (1/GPa) = 0.01690889
#
# Stress axis : x y z
#
# Youngs Moduli (GPa) = 87.82068 104.56334 163.71681
#
# Poissons Ratio (x) = 0.01129 0.44727
# Poissons Ratio (y) = 0.00948 0.36589
# Poissons Ratio (z) = 0.23992 0.23369
#
# Static dielectric constant tensor:
#      x y z
#    x 4.026110 0.000000 0.000000 
#    y 0.000000 4.358300 0.000000 
#    z 0.000000 0.000000 4.188810 
# 
# 
# High freq. dielectric constant tensor:
#      x y z
#    x 1.899470 0.000000 0.000000 
#    y 0.000000 1.928700 0.000000 
#    z 0.000000 0.000000 1.916240 
# 
# From -- ./inp_files/1563.got.cif
#   From: 2010.03.12/outbox.cif.g09.slc.cpg/sg49_1_cif.got.tgz:1563.got - 2010.04.14 03:58:27.
