data_PCOD8204347
_publ_section_title
;
Structure prediction by ZEFSAII (Michael W. Deem and Ramdas Pophale) SiO2 
 PCOD8204347
Probable space group: P C C M
;
_chemical_formula_sum "Si O2"
_cell_formula_units_Z 48
_cell_length_a 16.612260
_cell_length_b 8.559641
_cell_length_c 17.037368
_cell_angle_alpha 90.000000
_cell_angle_beta 90.000000
_cell_angle_gamma 90.000000
_cell_volume 2422.628233
_symmetry_space_group_name_H-M "P C C M"
_symmetry_group_IT_number 49
_symmetry_cell_setting 'orthorhombic'
loop_
_space_group_symop_operation_xyz
x,y,z
-x,-y,z
x,-y,1/2-z
-x,y,1/2-z
-x,-y,-z
x,y,-z
-x,y,1/2+z
x,-y,1/2+z
loop_
_atom_site_type_symbol
_atom_site_label
_atom_site_fract_x
_atom_site_fract_y
_atom_site_fract_z
Si Si1 0.348631 0.806852 0.408125
Si Si2 0.492031 0.321103 0.658091
Si Si3 0.783916 0.393499 0.322170
Si Si4 0.090635 0.181660 0.265337
Si Si5 0.830903 0.682781 0.410829
Si Si6 0.340384 0.160844 0.410606
O O1 0.331055 0.780556 0.500000
O O2 0.441603 0.775986 0.389254
O O3 0.293106 0.691613 0.358063
O O4 0.329960 0.983327 0.381473
O O5 0.500000 0.500000 0.631498
O O6 0.500000 0.299765 0.750000
O O7 0.404559 0.255330 0.639299
O O8 0.753023 0.500000 0.250000
O O9 0.849715 0.270682 0.292977
O O10 0.827240 0.500565 0.387444
O O11 0.108133 0.221408 0.356095
O O12 0.000000 0.237391 0.250000
O O13 0.101973 0.000000 0.250000
O O14 0.861401 0.698872 0.500000
O O15 0.743079 0.753157 0.398865
O O16 0.369914 0.161421 0.500000
#
# Coordination Sequence:
#
# PCOD8204347 Si02
#       6
#     8   8   8   8   8   8
#     4  11  23  39  60  86 118 157 201 247 297 351
#     4  11  25  38  56  83 119 158 203 247 296 350
#     4  10  22  37  62  90 121 157 197 244 297 358
#     4  10  22  42  65  91 123 161 198 244 300 359
#     4  10  21  39  64  91 123 159 202 248 299 355
#     4  10  22  40  60  85 117 157 200 247 296 346
#
# _framework density 19.813191
#
# number of rings (size 3 to 8) (size 9 to 14) (size 15 to 20)
#    0.000    1.667    0.000    3.500    7.000    8.333 
#    0.000    5.000    0.000    0.000    0.000    0.000 
#    0.000    0.000    0.000    0.000    0.000    0.000 
#
# Total GULP energy -595449.229229 kJ/mol
# GULP energy per Si atom -12405.192276 kJ/mol
# Density = 1.976810 g / cm^3
# Si number density = 19.813191 Si / 1000 Ang^3
#
#
#
# Elastic Constant Matrix: (Units=GPa)
#
#
# Indices 1 2 3 4 5 6 
#
# 1 88.7762 33.8552 61.1484 0.0000 0.0000 0.0000
# 2 33.8552 106.1257 55.9512 0.0000 0.0000 0.0000
# 3 61.1484 55.9512 114.8509 0.0000 0.0000 0.0000
# 4 0.0000 0.0000 0.0000 28.4688 0.0000 0.0000
# 5 0.0000 0.0000 0.0000 0.0000 31.4120 0.0000
# 6 0.0000 0.0000 0.0000 0.0000 0.0000 42.7673
#
#
#
# Elastic Compliance Matrix: (Units=1/GPa)
#
#
# Indices 1 2 3 4 5 6 
#
# 1 0.017854 -0.000920 -0.009057 0.000000 0.000000 0.000000
# 2 -0.000920 0.012727 -0.005710 0.000000 0.000000 0.000000
# 3 -0.009057 -0.005710 0.016311 0.000000 0.000000 0.000000
# 4 0.000000 0.000000 0.000000 0.035126 0.000000 0.000000
# 5 0.000000 0.000000 0.000000 0.000000 0.031835 0.000000
# 6 0.000000 0.000000 0.000000 0.000000 0.000000 0.023382
#
#
# Mechanical properties :
#
#
# Convention : Reuss Voigt Hill
#
# Bulk Modulus (GPa) = 64.44888 67.96248 66.20568
# Shear Modulus (GPa) = 28.77159 31.11615 29.94387
#
# Velocity S-wave (km/s) = 3.81483 3.96722 3.89177
# Velocity P-wave (km/s) = 7.21130 7.44051 7.32680
#
# Compressibility (1/GPa) = 0.01551617
#
# Stress axis : x y z
#
# Youngs Moduli (GPa) = 56.01021 78.57425 61.30873
#
# Poissons Ratio (x) = 0.07232 0.55529
# Poissons Ratio (y) = 0.05155 0.35007
# Poissons Ratio (z) = 0.50730 0.44866
#
# Static dielectric constant tensor:
#      x y z
#    x 3.463330 0.000000 0.000000 
#    y 0.000000 3.829990 0.000000 
#    z 0.000000 0.000000 3.742100 
# 
# 
# High freq. dielectric constant tensor:
#      x y z
#    x 1.768020 0.000000 0.000000 
#    y 0.000000 1.790040 0.000000 
#    z 0.000000 0.000000 1.780200 
# 
# From -- ./inp_files/14043.got.cif
#   From: 2010.03.12/outbox.cif.g09.slc.cpg/sg49_8_cif.got.tgz:14043.got - 2010.04.14 03:58:27.
