data_PCOD8204794
_publ_section_title
;
Structure prediction by ZEFSAII (Michael W. Deem and Ramdas Pophale) SiO2 
 PCOD8204794
Probable space group: P B A N
;
_chemical_formula_sum "Si O2"
_cell_formula_units_Z 44
_cell_length_a 9.596340
_cell_length_b 13.870783
_cell_length_c 16.134525
_cell_angle_alpha 90.000000
_cell_angle_beta 90.000000
_cell_angle_gamma 90.000000
_cell_volume 2147.646450
_symmetry_space_group_name_H-M "P B A N"
_symmetry_group_IT_number 50
_space_group.IT_coordinate_system_code '2'
_symmetry_cell_setting 'orthorhombic'
loop_
_space_group_symop_operation_xyz
x,y,z
1/2-x,1/2-y,z
x,1/2-y,-z
1/2-x,y,-z
-x,-y,-z
1/2+x,1/2+y,-z
-x,1/2+y,z
1/2+x,-y,z
loop_
_atom_site_type_symbol
_atom_site_label
_atom_site_fract_x
_atom_site_fract_y
_atom_site_fract_z
Si Si1 0.547841 0.534840 0.808209
Si Si2 0.780465 0.063304 0.404446
Si Si3 0.781607 0.447292 0.907741
Si Si4 0.521911 0.590514 0.333518
Si Si5 0.466923 0.701170 0.701316
Si Si6 0.250000 0.750000 0.161862
O O1 0.700992 0.514779 0.842483
O O2 0.445409 0.555243 0.885997
O O3 0.472210 0.446116 0.761070
O O4 0.569432 0.621757 0.741608
O O5 0.750000 0.081126 0.500000
O O6 0.633046 0.059992 0.360080
O O7 0.870675 0.152316 0.368955
O O8 0.862044 0.962140 0.390254
O O9 0.721327 0.339968 0.897882
O O10 0.750000 0.484517 0.000000
O O11 0.545855 0.706480 0.338561
O O12 0.381146 0.738155 0.779279
#
# Coordination Sequence:
#
# PCOD8204794 Si02
#       6
#     8   8   8   8   8   4
#     4  10  21  37  61  86 118 159 207 247 293 378
#     4  11  23  38  62  94 125 155 206 261 303 356
#     4  11  21  36  60  89 122 156 198 262 311 346
#     4  11  20  40  62  86 120 164 205 248 302 365
#     4  10  19  36  64  84 117 166 210 238 297 369
#     4  10  17  36  59  86 112 158 218 232 279 386
#
# _framework density 20.487544
#
# number of rings (size 3 to 8) (size 9 to 14) (size 15 to 20)
#    0.000    1.455    3.636    3.545    0.000    1.455 
#    0.000    8.182    0.000    5.455    0.000    0.000 
#    0.000    0.000    0.000    0.000    0.000    0.000 
#
# Total GULP energy -545423.173374 kJ/mol
# GULP energy per Si atom -12395.981213 kJ/mol
# Density = 2.044091 g / cm^3
# Si number density = 20.487544 Si / 1000 Ang^3
#
#
#
# Elastic Constant Matrix: (Units=GPa)
#
#
# Indices 1 2 3 4 5 6 
#
# 1 52.4303 52.8890 17.3014 0.0000 0.0000 0.0000
# 2 52.8890 129.7408 32.2307 0.0000 0.0000 0.0000
# 3 17.3014 32.2307 89.2537 0.0000 0.0000 0.0000
# 4 0.0000 0.0000 0.0000 -0.0964 0.0000 0.0000
# 5 0.0000 0.0000 0.0000 0.0000 23.7509 0.0000
# 6 0.0000 0.0000 0.0000 0.0000 0.0000 31.6822
#
#
#
# Elastic Compliance Matrix: (Units=1/GPa)
#
#
# Indices 1 2 3 4 5 6 
#
# 1 0.032619 -0.012882 -0.001671 0.000000 0.000000 0.000000
# 2 -0.012882 0.013555 -0.002398 0.000000 0.000000 0.000000
# 3 -0.001671 -0.002398 0.012394 0.000000 0.000000 0.000000
# 4 0.000000 0.000000 0.000000-10.375809 0.000000 0.000000
# 5 0.000000 0.000000 0.000000 0.000000 0.042104 0.000000
# 6 0.000000 0.000000 0.000000 0.000000 0.000000 0.031563
#
#
# Mechanical properties :
#
#
# Convention : Reuss Voigt Hill
#
# Bulk Modulus (GPa) = 40.54185 52.91856 46.73020
# Shear Modulus (GPa) = -0.49013 22.33427 10.92207
#
# Velocity S-wave (km/s) = -0.48964 3.30531 2.31142
# Velocity P-wave (km/s) = 4.41722 6.36022 5.47559
#
# Compressibility (1/GPa) = 0.02466587
#
# Stress axis : x y z
#
# Youngs Moduli (GPa) = 30.65675 73.77504 80.68558
#
# Poissons Ratio (x) = 0.95038 0.13484
# Poissons Ratio (y) = 0.39492 0.19346
# Poissons Ratio (z) = 0.05123 0.17689
#
# Static dielectric constant tensor:
#      x y z
#    x 3.611420 0.000000 0.000000 
#    y 0.000000 4.191340 0.000000 
#    z 0.000000 0.000000 3.743590 
# 
# 
# High freq. dielectric constant tensor:
#      x y z
#    x 1.785450 0.000000 0.000000 
#    y 0.000000 1.803740 0.000000 
#    z 0.000000 0.000000 1.795350 
# 
# From -- ./inp_files/28635.got.cif
#   From: 2010.03.12/outbox.cif.g09.slc.cpg/sg50_15_cif.got.tgz:28635.got - 2010.04.16 13:23:21.
