data_PCOD8204352
_publ_section_title
;
Structure prediction by ZEFSAII (Michael W. Deem and Ramdas Pophale) SiO2 
 PCOD8204352
Probable space group: P C C M
;
_chemical_formula_sum "Si O2"
_cell_formula_units_Z 56
_cell_length_a 8.616599
_cell_length_b 14.260460
_cell_length_c 21.576472
_cell_angle_alpha 90.000000
_cell_angle_beta 90.000000
_cell_angle_gamma 90.000000
_cell_volume 2651.244930
_symmetry_space_group_name_H-M "P C C M"
_symmetry_group_IT_number 49
_symmetry_cell_setting 'orthorhombic'
loop_
_space_group_symop_operation_xyz
x,y,z
-x,-y,z
x,-y,1/2-z
-x,y,1/2-z
-x,-y,-z
x,y,-z
-x,y,1/2+z
x,-y,1/2+z
loop_
_atom_site_type_symbol
_atom_site_label
_atom_site_fract_x
_atom_site_fract_y
_atom_site_fract_z
Si Si1 0.179605 0.011914 0.428620
Si Si2 0.131785 0.672905 0.430946
Si Si3 0.644122 0.801235 0.428308
Si Si4 0.674855 0.293122 0.733034
Si Si5 0.824630 0.344403 0.143246
Si Si6 0.309646 0.168514 0.879090
Si Si7 0.670646 0.538610 0.858668
O O1 0.217795 0.987955 0.500000
O O2 0.274085 0.941501 0.384292
O O3 0.231745 0.117287 0.412949
O O4 0.000000 0.000000 0.413556
O O5 0.063860 0.655229 0.500000
O O6 0.206026 0.776700 0.429996
O O7 0.268906 0.598532 0.417298
O O8 0.002753 0.663267 0.377460
O O9 0.598797 0.799955 0.500000
O O10 0.719151 0.702209 0.410050
O O11 0.491424 0.816312 0.388418
O O12 0.500000 0.266829 0.750000
O O13 0.790589 0.292274 0.791748
O O14 0.736924 0.211851 0.687442
O O15 0.672270 0.395948 0.701931
O O16 0.786182 0.452878 0.151949
O O17 0.500000 0.500000 0.873067
#
# Coordination Sequence:
#
# PCOD8204352 Si02
#       7
#     8   8   8   8   8   8   8
#     4  10  21  39  64  95 132 171 215 272 333 399
#     4  11  25  42  61  95 137 171 214 277 343 399
#     4  11  22  37  64  97 126 170 221 266 329 399
#     4  11  22  43  68  93 124 166 221 276 322 390
#     4  12  23  40  65  91 129 172 216 268 331 392
#     4  11  22  40  66  94 125 167 219 275 328 389
#     4  11  23  39  66  93 123 174 224 273 325 390
#
# _framework density 21.122152
#
# number of rings (size 3 to 8) (size 9 to 14) (size 15 to 20)
#    0.000    1.000    2.857    4.714    0.000    6.571 
#    0.000    3.571    0.000    0.857    0.000    0.000 
#    0.000    0.000    0.000    0.000    0.000    0.000 
#
# Total GULP energy -694577.593244 kJ/mol
# GULP energy per Si atom -12403.171308 kJ/mol
# Density = 2.107408 g / cm^3
# Si number density = 21.122152 Si / 1000 Ang^3
#
#
#
# Elastic Constant Matrix: (Units=GPa)
#
#
# Indices 1 2 3 4 5 6 
#
# 1 103.2689 7.1764 32.3002 0.0000 0.0000 0.0000
# 2 7.1764 68.2990 24.5952 0.0000 0.0000 0.0000
# 3 32.3002 24.5952 108.6801 0.0000 0.0000 0.0000
# 4 0.0000 0.0000 0.0000 22.2394 0.0000 0.0000
# 5 0.0000 0.0000 0.0000 0.0000 35.1639 0.0000
# 6 0.0000 0.0000 0.0000 0.0000 0.0000 39.1857
#
#
#
# Elastic Compliance Matrix: (Units=1/GPa)
#
#
# Indices 1 2 3 4 5 6 
#
# 1 0.010676 0.000023 -0.003178 0.000000 0.000000 0.000000
# 2 0.000023 0.015941 -0.003614 0.000000 0.000000 0.000000
# 3 -0.003178 -0.003614 0.010964 0.000000 0.000000 0.000000
# 4 0.000000 0.000000 0.000000 0.044965 0.000000 0.000000
# 5 0.000000 0.000000 0.000000 0.000000 0.028438 0.000000
# 6 0.000000 0.000000 0.000000 0.000000 0.000000 0.025520
#
#
# Mechanical properties :
#
#
# Convention : Reuss Voigt Hill
#
# Bulk Modulus (GPa) = 41.59541 45.37686 43.48613
# Shear Modulus (GPa) = 31.63432 33.72956 32.68194
#
# Velocity S-wave (km/s) = 3.87419 4.00043 3.93782
# Velocity P-wave (km/s) = 6.30460 6.54734 6.42712
#
# Compressibility (1/GPa) = 0.02404112
#
# Stress axis : x y z
#
# Youngs Moduli (GPa) = 93.66885 62.73273 91.20935
#
# Poissons Ratio (x) = -0.00142 0.28987
# Poissons Ratio (y) = -0.00213 0.32965
# Poissons Ratio (z) = 0.29769 0.22673
#
# Static dielectric constant tensor:
#      x y z
#    x 3.850700 0.000000 0.000000 
#    y 0.000000 3.910220 0.000000 
#    z 0.000000 0.000000 3.715950 
# 
# 
# High freq. dielectric constant tensor:
#      x y z
#    x 1.835320 0.000000 0.000000 
#    y 0.000000 1.829670 0.000000 
#    z 0.000000 0.000000 1.816880 
# 
# From -- ./inp_files/19902.got.cif
#   From: 2010.03.12/outbox.cif.g09.slc.cpg/sg49_10_cif.got.tgz:19902.got - 2010.04.14 03:58:27.
