data_PCOD8204942
_publ_section_title
;
Structure prediction by ZEFSAII (Michael W. Deem and Ramdas Pophale) SiO2 
 PCOD8204942
Probable space group: P B A N
;
_chemical_formula_sum "Si O2"
_cell_formula_units_Z 48
_cell_length_a 14.789204
_cell_length_b 5.085059
_cell_length_c 30.169763
_cell_angle_alpha 90.000000
_cell_angle_beta 90.000000
_cell_angle_gamma 90.000000
_cell_volume 2268.886099
_symmetry_space_group_name_H-M "P B A N"
_symmetry_group_IT_number 50
_space_group.IT_coordinate_system_code '2'
_symmetry_cell_setting 'orthorhombic'
loop_
_space_group_symop_operation_xyz
x,y,z
1/2-x,1/2-y,z
x,1/2-y,-z
1/2-x,y,-z
-x,-y,-z
1/2+x,1/2+y,-z
-x,1/2+y,z
1/2+x,-y,z
loop_
_atom_site_type_symbol
_atom_site_label
_atom_site_fract_x
_atom_site_fract_y
_atom_site_fract_z
Si Si1 0.437326 0.873988 0.360884
Si Si2 0.058470 0.783086 0.452644
Si Si3 0.806574 0.495043 0.716816
Si Si4 0.148702 0.498942 0.020051
Si Si5 0.941918 0.519903 0.793210
Si Si6 0.059848 0.067905 0.892166
O O1 0.515216 0.655856 0.355942
O O2 0.387237 0.810308 0.408471
O O3 0.361537 0.866161 0.323663
O O4 0.110914 0.750000 0.500000
O O5 0.970803 0.588072 0.451040
O O6 0.750000 0.750000 0.700756
O O7 0.867872 0.594576 0.757062
O O8 0.750000 0.250000 0.735486
O O9 0.142312 0.487796 0.073563
O O10 0.097129 0.750000 0.000000
O O11 0.250000 0.499695 0.000000
O O12 0.096073 0.250000 0.000000
O O13 0.899946 0.547558 0.842514
O O14 0.024404 0.722461 0.786411
O O15 0.979677 0.858569 0.899579
#
# Coordination Sequence:
#
# PCOD8204942 Si02
#       6
#     8   8   8   8   8   8
#     4  10  19  34  57  81 109 153 192 231 286 338
#     4   8  14  25  45  76 106 133 181 237 274 314
#     4  12  24  38  55  87 118 149 190 238 291 343
#     4  10  21  37  53  81 113 145 175 215 273 328
#     4  10  21  41  63  83 112 148 192 237 286 343
#     4  10  21  37  60  85 107 141 185 229 270 323
#
# _framework density 21.155757000000001
#
# number of rings (size 3 to 8) (size 9 to 14) (size 15 to 20)
#    0.000    2.000    0.000    4.000    0.000    2.000 
#    6.000    0.000    0.000    0.500    0.000    1.167 
#    0.000    0.000    0.000    0.000    0.000    0.000 
#
# Total GULP energy -594637.444041 kJ/mol
# GULP energy per Si atom -12388.280084 kJ/mol
# Density = 2.110761 g / cm^3
# Si number density = 21.155757 Si / 1000 Ang^3
#
#
#
# Elastic Constant Matrix: (Units=GPa)
#
#
# Indices 1 2 3 4 5 6 
#
# 1 44.3039 5.0764 52.2620 0.0000 0.0000 0.0000
# 2 5.0764 125.8760 21.4689 0.0000 0.0000 0.0000
# 3 52.2620 21.4689 182.0191 0.0000 0.0000 0.0000
# 4 0.0000 0.0000 0.0000 30.6415 0.0000 0.0000
# 5 0.0000 0.0000 0.0000 0.0000 7.1983 0.0000
# 6 0.0000 0.0000 0.0000 0.0000 0.0000 9.7656
#
#
#
# Elastic Compliance Matrix: (Units=1/GPa)
#
#
# Indices 1 2 3 4 5 6 
#
# 1 0.034143 0.000301 -0.009839 0.000000 0.000000 0.000000
# 2 0.000301 0.008110 -0.001043 0.000000 0.000000 0.000000
# 3 -0.009839 -0.001043 0.008442 0.000000 0.000000 0.000000
# 4 0.000000 0.000000 0.000000 0.032635 0.000000 0.000000
# 5 0.000000 0.000000 0.000000 0.000000 0.138922 0.000000
# 6 0.000000 0.000000 0.000000 0.000000 0.000000 0.102400
#
#
# Mechanical properties :
#
#
# Convention : Reuss Voigt Hill
#
# Bulk Modulus (GPa) = 33.85976 56.64593 45.25284
# Shear Modulus (GPa) = 14.05843 27.74720 20.90281
#
# Velocity S-wave (km/s) = 2.58063 3.62549 3.14673
# Velocity P-wave (km/s) = 4.99192 6.66028 5.88551
#
# Compressibility (1/GPa) = 0.02953358
#
# Stress axis : x y z
#
# Youngs Moduli (GPa) = 29.28864 123.30339 118.45686
#
# Poissons Ratio (x) = -0.03713 1.16547
# Poissons Ratio (y) = -0.00882 0.12355
# Poissons Ratio (z) = 0.28816 0.12861
#
# Static dielectric constant tensor:
#      x y z
#    x 3.154260 0.000000 0.000000 
#    y 0.000000 2.080000 0.000000 
#    z 0.000000 0.000000 4.322540 
# 
# 
# High freq. dielectric constant tensor:
#      x y z
#    x 1.759030 0.000000 0.000000 
#    y 0.000000 1.863150 0.000000 
#    z 0.000000 0.000000 1.853560 
# 
# From -- ./inp_files/32487.got.cif
#   From: 2010.03.12/outbox.cif.g09.slc.cpg/sg50_17_cif.got.tgz:32487.got - 2010.04.16 13:23:21.
