data_PCOD8204555
_publ_section_title
;
Structure prediction by ZEFSAII (Michael W. Deem and Ramdas Pophale) SiO2 
 PCOD8204555
Probable space group: P C C M
;
_chemical_formula_sum "Si O2"
_cell_formula_units_Z 64
_cell_length_a 12.703164
_cell_length_b 17.302661
_cell_length_c 17.862062
_cell_angle_alpha 90.000000
_cell_angle_beta 90.000000
_cell_angle_gamma 90.000000
_cell_volume 3926.055155
_symmetry_space_group_name_H-M "P C C M"
_symmetry_group_IT_number 49
_symmetry_cell_setting 'orthorhombic'
loop_
_space_group_symop_operation_xyz
x,y,z
-x,-y,z
x,-y,1/2-z
-x,y,1/2-z
-x,-y,-z
x,y,-z
-x,y,1/2+z
x,-y,1/2+z
loop_
_atom_site_type_symbol
_atom_site_label
_atom_site_fract_x
_atom_site_fract_y
_atom_site_fract_z
Si Si1 0.379102 0.088913 0.413799
Si Si2 0.195502 0.826295 0.838221
Si Si3 0.882269 0.335450 0.660917
Si Si4 0.000025 0.090560 0.412756
Si Si5 0.804552 0.826306 0.161824
Si Si6 0.117722 0.335453 0.660904
Si Si7 0.379030 0.911129 0.586201
Si Si8 0.874338 0.500001 0.167436
O O1 0.348506 0.102835 0.500000
O O2 0.309323 0.142783 0.361268
O O3 0.500043 0.110985 0.399457
O O4 0.358774 0.000025 0.392347
O O5 0.179306 0.834208 0.750026
O O6 0.190593 0.736241 0.863605
O O7 0.104739 0.874864 0.877278
O O8 0.809393 0.263748 0.636431
O O9 0.885207 0.344086 0.750006
O O10 0.840544 0.418557 0.627330
O O11 0.999993 0.317621 0.631295
O O12 0.999923 0.109649 0.500000
O O13 0.895429 0.125186 0.377159
O O14 0.000000 0.000000 0.396800
O O15 0.690785 0.857293 0.138736
O O16 0.159448 0.418562 0.627321
O O17 0.348419 0.897217 0.500000
O O18 0.823750 0.500000 0.250000
O O19 0.000000 0.500000 0.173102
#
# Coordination Sequence:
#
# PCOD8204555 Si02
#       8
#     8   8   8   8   8   8   8   8
#     4   9  19  36  53  66  85 118 159 196 228 271
#     4  11  20  30  47  72  98 118 145 192 240 273
#     4   8  13  23  38  62  94 122 147 178 218 266
#     4  11  23  35  45  60  89 130 166 185 211 271
#     4  11  20  30  47  72  98 118 145 192 240 273
#     4   8  13  23  38  62  94 122 147 178 218 266
#     4   9  19  36  53  66  85 118 159 196 228 271
#     4   7  10  18  36  58  85 122 153 173 206 261
#
# _framework density 16.301348999999998
#
# number of rings (size 3 to 8) (size 9 to 14) (size 15 to 20)
#    0.000    2.750    1.250    4.125    0.000    5.000 
#    0.000    1.250    0.000    0.000    0.000    5.250 
#    0.000    7.000    0.000    0.000    0.000    0.000 
#
# Total GULP energy -792976.018865 kJ/mol
# GULP energy per Si atom -12390.250295 kJ/mol
# Density = 1.626425 g / cm^3
# Si number density = 16.301349 Si / 1000 Ang^3
#
#
#
# Elastic Constant Matrix: (Units=GPa)
#
#
# Indices 1 2 3 4 5 6 
#
# 1 70.7907 61.0880 25.4114 0.0000 0.0000 0.0000
# 2 61.0880 149.6437 50.6085 0.0000 0.0000 0.0000
# 3 25.4114 50.6085 44.9661 0.0000 0.0000 0.0000
# 4 0.0000 0.0000 0.0000 -3.4333 0.0000 0.0000
# 5 0.0000 0.0000 0.0000 0.0000 25.3464 0.0000
# 6 0.0000 0.0000 0.0000 0.0000 0.0000 16.5739
#
#
#
# Elastic Compliance Matrix: (Units=1/GPa)
#
#
# Indices 1 2 3 4 5 6 
#
# 1 0.022201 -0.007782 -0.003788 0.000000 0.000000 0.000000
# 2 -0.007782 0.013517 -0.010815 0.000000 0.000000 0.000000
# 3 -0.003788 -0.010815 0.036552 0.000000 0.000000 0.000000
# 4 0.000000 0.000000 0.000000 -0.291262 0.000000 0.000000
# 5 0.000000 0.000000 0.000000 0.000000 0.039453 0.000000
# 6 0.000000 0.000000 0.000000 0.000000 0.000000 0.060336
#
#
# Mechanical properties :
#
#
# Convention : Reuss Voigt Hill
#
# Bulk Modulus (GPa) = 36.36389 59.95737 48.16063
# Shear Modulus (GPa) = -76.61046 16.25024 -30.18011
#
# Velocity S-wave (km/s) = -6.86283 3.16074 -4.30744
# Velocity P-wave (km/s) = 6.35942 7.08384 2.20666
#
# Compressibility (1/GPa) = 0.02749981
#
# Stress axis : x y z
#
# Youngs Moduli (GPa) = 45.04246 73.98070 27.35818
#
# Poissons Ratio (x) = 0.57572 0.10363
# Poissons Ratio (y) = 0.35052 0.29589
# Poissons Ratio (z) = 0.17062 0.80013
#
# Static dielectric constant tensor:
#      x y z
#    x 2.834810 0.000000 0.000000 
#    y 0.000000 3.602490 0.000000 
#    z 0.000000 0.000000 2.805920 
# 
# 
# High freq. dielectric constant tensor:
#      x y z
#    x 1.591970 0.000000 0.000000 
#    y 0.000000 1.645130 0.000000 
#    z 0.000000 0.000000 1.597490 
# 
# From -- ./inp_files/17400.got.cif
#   From: 2010.03.12/outbox.cif.g09.slc.cpg/sg49_9_cif.got.tgz:17400.got - 2010.04.14 03:58:27.
