data_PCOD8204384
_publ_section_title
;
Structure prediction by ZEFSAII (Michael W. Deem and Ramdas Pophale) SiO2 
 PCOD8204384
Probable space group: P C C M
;
_chemical_formula_sum "Si O2"
_cell_formula_units_Z 64
_cell_length_a 13.690935
_cell_length_b 12.051081
_cell_length_c 18.279735
_cell_angle_alpha 90.000000
_cell_angle_beta 90.000000
_cell_angle_gamma 90.000000
_cell_volume 3015.983836
_symmetry_space_group_name_H-M "P C C M"
_symmetry_group_IT_number 49
_symmetry_cell_setting 'orthorhombic'
loop_
_space_group_symop_operation_xyz
x,y,z
-x,-y,z
x,-y,1/2-z
-x,y,1/2-z
-x,-y,-z
x,y,-z
-x,y,1/2+z
x,-y,1/2+z
loop_
_atom_site_type_symbol
_atom_site_label
_atom_site_fract_x
_atom_site_fract_y
_atom_site_fract_z
Si Si1 0.605119 0.477380 0.164542
Si Si2 0.230946 0.651570 0.346287
Si Si3 0.098153 0.057585 0.326008
Si Si4 0.111280 0.517606 0.920790
Si Si5 0.290989 0.952115 0.083759
Si Si6 0.369543 0.185851 0.084064
Si Si7 0.099731 0.314939 0.289892
Si Si8 0.415017 0.742627 0.912852
O O1 0.500000 0.500000 0.126929
O O2 0.596475 0.500000 0.250000
O O3 0.687804 0.558675 0.137239
O O4 0.630897 0.353951 0.137393
O O5 0.144101 0.606079 0.396379
O O6 0.277538 0.766728 0.371252
O O7 0.192308 0.668387 0.263887
O O8 0.188294 0.031354 0.377353
O O9 0.083074 0.189008 0.315438
O O10 0.122515 0.000000 0.250000
O O11 0.000000 0.000000 0.358884
O O12 0.129709 0.610650 0.859278
O O13 0.000000 0.500000 0.935007
O O14 0.158781 0.551944 0.000000
O O15 0.348861 0.845419 0.111634
O O16 0.364920 0.054229 0.096326
O O17 0.263216 0.938809 0.000000
O O18 0.473508 0.232284 0.111660
O O19 0.355225 0.218127 0.000000
O O20 0.000000 0.356741 0.250000
O O21 0.408690 0.718457 0.000000
#
# Coordination Sequence:
#
# PCOD8204384 Si02
#       8
#     8   8   8   8   8   8   8   8
#     4  11  24  42  61  95 137 174 221 274 332 396
#     4  12  24  41  69  98 133 184 225 275 333 408
#     4  11  24  44  66  96 131 172 224 277 337 410
#     4  11  25  42  63  96 133 170 223 280 334 402
#     4  10  23  42  69 101 133 175 228 282 340 402
#     4  10  21  41  69 100 136 179 226 277 336 404
#     4  12  24  44  70  92 131 177 223 273 345 408
#     4  10  22  43  69  98 137 180 224 278 339 409
#
# _framework density 21.220274
#
# number of rings (size 3 to 8) (size 9 to 14) (size 15 to 20)
#    0.000    1.125    3.750    2.625    3.500    3.500 
#    0.000    0.000    0.000    0.750    0.000    0.000 
#    0.000    0.000    0.000    0.000    0.000    0.000 
#
# Total GULP energy -793345.475391 kJ/mol
# GULP energy per Si atom -12396.023053 kJ/mol
# Density = 2.117198 g / cm^3
# Si number density = 21.220274 Si / 1000 Ang^3
#
#
#
# Elastic Constant Matrix: (Units=GPa)
#
#
# Indices 1 2 3 4 5 6 
#
# 1 94.1715 26.1280 27.7086 0.0000 0.0000 0.0000
# 2 26.1280 112.3037 38.5887 0.0000 0.0000 0.0000
# 3 27.7086 38.5887 92.0696 0.0000 0.0000 0.0000
# 4 0.0000 0.0000 0.0000 31.3073 0.0000 0.0000
# 5 0.0000 0.0000 0.0000 0.0000 30.7834 0.0000
# 6 0.0000 0.0000 0.0000 0.0000 0.0000 114.9710
#
#
#
# Elastic Compliance Matrix: (Units=1/GPa)
#
#
# Indices 1 2 3 4 5 6 
#
# 1 0.011956 -0.001805 -0.002842 0.000000 0.000000 0.000000
# 2 -0.001805 0.010675 -0.003931 0.000000 0.000000 0.000000
# 3 -0.002842 -0.003931 0.013364 0.000000 0.000000 0.000000
# 4 0.000000 0.000000 0.000000 0.031941 0.000000 0.000000
# 5 0.000000 0.000000 0.000000 0.000000 0.032485 0.000000
# 6 0.000000 0.000000 0.000000 0.000000 0.000000 0.008698
#
#
# Mechanical properties :
#
#
# Convention : Reuss Voigt Hill
#
# Bulk Modulus (GPa) = 53.07942 53.71061 53.39501
# Shear Modulus (GPa) = 37.72028 49.15364 43.43696
#
# Velocity S-wave (km/s) = 4.22068 4.81807 4.52924
# Velocity P-wave (km/s) = 6.98714 7.50451 7.25044
#
# Compressibility (1/GPa) = 0.01883969
#
# Stress axis : x y z
#
# Youngs Moduli (GPa) = 83.64095 93.67574 74.82745
#
# Poissons Ratio (x) = 0.16910 0.21263
# Poissons Ratio (y) = 0.15099 0.29414
# Poissons Ratio (z) = 0.23767 0.36823
#
# Static dielectric constant tensor:
#      x y z
#    x 4.222930 0.000000 0.000000 
#    y 0.000000 4.052870 0.000000 
#    z 0.000000 0.000000 3.807320 
# 
# 
# High freq. dielectric constant tensor:
#      x y z
#    x 1.849160 0.000000 0.000000 
#    y 0.000000 1.838710 0.000000 
#    z 0.000000 0.000000 1.821430 
# 
# From -- ./inp_files/17965.got.cif
#   From: 2010.03.12/outbox.cif.g09.slc.cpg/sg49_9_cif.got.tgz:17965.got - 2010.04.14 03:58:27.
