data_PCOD8204741
_publ_section_title
;
Structure prediction by ZEFSAII (Michael W. Deem and Ramdas Pophale) SiO2 
 PCOD8204741
Probable space group: P B A N
;
_chemical_formula_sum "Si O2"
_cell_formula_units_Z 56
_cell_length_a 5.189615
_cell_length_b 17.083642
_cell_length_c 31.561033
_cell_angle_alpha 90.000000
_cell_angle_beta 90.000000
_cell_angle_gamma 90.000000
_cell_volume 2798.123065
_symmetry_space_group_name_H-M "P B A N"
_symmetry_group_IT_number 50
_space_group.IT_coordinate_system_code '2'
_symmetry_cell_setting 'orthorhombic'
loop_
_space_group_symop_operation_xyz
x,y,z
1/2-x,1/2-y,z
x,1/2-y,-z
1/2-x,y,-z
-x,-y,-z
1/2+x,1/2+y,-z
-x,1/2+y,z
1/2+x,-y,z
loop_
_atom_site_type_symbol
_atom_site_label
_atom_site_fract_x
_atom_site_fract_y
_atom_site_fract_z
Si Si1 0.529125 0.049419 0.325653
Si Si2 0.837152 0.034587 0.952659
Si Si3 0.002156 0.299464 0.074163
Si Si4 0.958678 0.048336 0.772475
Si Si5 0.994762 0.799053 0.172317
Si Si6 0.499977 0.337430 0.518676
Si Si7 0.999902 0.302022 0.384379
O O1 0.520452 0.072728 0.276466
O O2 0.498791 0.128909 0.350972
O O3 0.797018 0.008506 0.337805
O O4 0.957797 0.121143 0.952015
O O5 0.555122 0.022479 0.930426
O O6 0.750000 0.008112 0.000000
O O7 0.250000 0.250000 0.057833
O O8 0.750000 0.250000 0.065711
O O9 0.034767 0.321814 0.123203
O O10 0.999555 0.123088 0.800968
O O11 0.679783 0.013916 0.783580
O O12 0.250000 0.750000 0.181123
O O13 0.750000 0.750000 0.187889
O O14 0.499993 0.250000 0.500000
O O15 0.750000 0.381849 0.500000
O O16 0.499763 0.338881 0.569039
O O17 0.250000 0.381864 0.500000
O O18 0.750000 0.250000 0.376980
O O19 0.250000 0.250000 0.376824
#
# Coordination Sequence:
#
# PCOD8204741 Si02
#       7
#     8   8   8   8   8   8   8
#     4  10  23  41  55  77 118 152 174 223 284 332
#     4  10  21  37  56  80 111 147 190 240 281 319
#     4  10  21  37  56  83 116 150 186 229 291 348
#     4  10  21  38  59  80 108 151 192 219 269 342
#     4  10  21  36  57  85 117 145 179 239 288 322
#     4  10  16  30  49  78 105 131 164 229 270 305
#     4  12  21  33  59  88 101 138 191 227 264 323
#
# _framework density 20.013415999999999
#
# number of rings (size 3 to 8) (size 9 to 14) (size 15 to 20)
#    0.000    1.714    2.857    2.571    0.000    2.571 
#    0.000    0.714    0.000    2.571    0.000    0.000 
#    0.000    0.000    0.000    0.000    0.000    0.000 
#
# Total GULP energy -694216.077235 kJ/mol
# GULP energy per Si atom -12396.715665 kJ/mol
# Density = 1.996786 g / cm^3
# Si number density = 20.013416 Si / 1000 Ang^3
#
#
#
# Elastic Constant Matrix: (Units=GPa)
#
#
# Indices 1 2 3 4 5 6 
#
# 1 172.5778 40.2341 27.2736 0.0000 0.0000 0.0000
# 2 40.2341 83.9083 33.5148 0.0000 0.0000 0.0000
# 3 27.2736 33.5148 36.5124 0.0000 0.0000 0.0000
# 4 0.0000 0.0000 0.0000 -256.3605 0.0000 0.0000
# 5 0.0000 0.0000 0.0000 0.0000 10.0015 0.0000
# 6 0.0000 0.0000 0.0000 0.0000 0.0000 10.4519
#
#
#
# Elastic Compliance Matrix: (Units=1/GPa)
#
#
# Indices 1 2 3 4 5 6 
#
# 1 0.006763 -0.001934 -0.003276 0.000000 0.000000 0.000000
# 2 -0.001934 0.019370 -0.016335 0.000000 0.000000 0.000000
# 3 -0.003276 -0.016335 0.044829 0.000000 0.000000 0.000000
# 4 0.000000 0.000000 0.000000 -0.003901 0.000000 0.000000
# 5 0.000000 0.000000 0.000000 0.000000 0.099985 0.000000
# 6 0.000000 0.000000 0.000000 0.000000 0.000000 0.095676
#
#
# Mechanical properties :
#
#
# Convention : Reuss Voigt Hill
#
# Bulk Modulus (GPa) = 35.87935 55.00484 45.44209
# Shear Modulus (GPa) = 15.86779 -34.38303 -9.25762
#
# Velocity S-wave (km/s) = 2.81883 -4.14937 -2.15308
# Velocity P-wave (km/s) = 5.34424 2.14179 4.07113
#
# Compressibility (1/GPa) = 0.02787118
#
# Stress axis : x y z
#
# Youngs Moduli (GPa) = 147.85814 51.62707 22.30697
#
# Poissons Ratio (x) = 0.09986 0.07309
# Poissons Ratio (y) = 0.28600 0.36438
# Poissons Ratio (z) = 0.48445 0.84331
#
# Static dielectric constant tensor:
#      x y z
#    x 3.696770 0.000000 0.000000 
#    y 0.000000 3.482330 0.000000 
#    z 0.000000 0.000000 3.551750 
# 
# 
# High freq. dielectric constant tensor:
#      x y z
#    x 1.819480 0.000000 0.000000 
#    y 0.000000 1.759590 0.000000 
#    z 0.000000 0.000000 1.769280 
# 
# From -- ./inp_files/32373.got.cif
#   From: 2010.03.12/outbox.cif.g09.slc.cpg/sg50_17_cif.got.tgz:32373.got - 2010.04.16 13:23:21.
