data_PCOD8204194
_publ_section_title
;
Structure prediction by ZEFSAII (Michael W. Deem and Ramdas Pophale) SiO2 
 PCOD8204194
Probable space group: P C C M
;
_chemical_formula_sum "Si O2"
_cell_formula_units_Z 64
_cell_length_a 24.607656
_cell_length_b 8.906005
_cell_length_c 14.608367
_cell_angle_alpha 90.000000
_cell_angle_beta 90.000000
_cell_angle_gamma 90.000000
_cell_volume 3201.509925
_symmetry_space_group_name_H-M "P C C M"
_symmetry_group_IT_number 49
_symmetry_cell_setting 'orthorhombic'
loop_
_space_group_symop_operation_xyz
x,y,z
-x,-y,z
x,-y,1/2-z
-x,y,1/2-z
-x,-y,-z
x,y,-z
-x,y,1/2+z
x,-y,1/2+z
loop_
_atom_site_type_symbol
_atom_site_label
_atom_site_fract_x
_atom_site_fract_y
_atom_site_fract_z
Si Si1 0.000000 0.321284 0.397275
Si Si2 0.792770 0.321326 0.750000
Si Si3 0.915528 0.321785 0.250000
Si Si4 0.392800 0.668726 0.108631
Si Si5 0.500000 0.830695 0.609111
Si Si6 0.716924 0.174886 0.106934
Si Si7 0.283076 0.825114 0.606934
Si Si8 0.607200 0.668725 0.108631
O O1 0.000000 0.252229 0.500000
O O2 0.053280 0.265463 0.341566
O O3 0.000000 0.500000 0.403048
O O4 0.946721 0.265463 0.341566
O O5 0.789859 0.500000 0.750000
O O6 0.854389 0.259933 0.750000
O O7 0.764967 0.259243 0.841303
O O8 0.764968 0.259244 0.658697
O O9 0.915387 0.500000 0.250000
O O10 0.446797 0.747199 0.147985
O O11 0.340493 0.760832 0.142228
O O12 0.389256 0.500000 0.147569
O O13 0.395317 0.667296 0.000000
O O14 0.500000 0.829237 0.500000
O O15 0.446797 0.747199 0.647985
O O16 0.500000 0.000000 0.646440
O O17 0.718385 1.000000 0.130637
O O18 0.725211 0.206084 0.000000
O O19 0.274790 0.793915 0.500000
O O20 0.340493 0.760831 0.642229
O O21 0.604683 0.667296 0.000000
#
# Coordination Sequence:
#
# PCOD8204194 Si02
#       8
#     8   8   8   8   8   8   8   8
#     4   8  13  25  46  71 105 146 178 210 258 312
#     4  11  22  35  54  81 113 146 181 226 275 322
#     4   8  16  28  43  72 109 141 177 216 259 315
#     4   9  16  27  45  70  99 131 172 224 278 329
#     4   9  15  23  39  66  99 134 172 215 268 332
#     4  10  21  37  55  75 103 142 186 229 275 330
#     4  10  21  37  55  75 103 142 186 229 275 330
#     4   9  16  27  45  70  99 131 172 224 278 329
#
# _framework density 19.990566999999999
#
# number of rings (size 3 to 8) (size 9 to 14) (size 15 to 20)
#    0.000    2.750    0.000    3.000    0.000    7.000 
#    0.000    2.500    0.000    0.750    0.000   12.250 
#    0.000   12.000    0.000    0.000    0.000    0.000 
#
# Total GULP energy -793491.872611 kJ/mol
# GULP energy per Si atom -12398.310510 kJ/mol
# Density = 1.994507 g / cm^3
# Si number density = 19.990567 Si / 1000 Ang^3
#
#
#
# Elastic Constant Matrix: (Units=GPa)
#
#
# Indices 1 2 3 4 5 6 
#
# 1 209.0963 68.0135 64.1086 0.0000 0.0000 0.0000
# 2 68.0135 116.3110 30.6625 0.0000 0.0000 0.0000
# 3 64.1086 30.6625 102.3161 0.0000 0.0000 0.0000
# 4 0.0000 0.0000 0.0000 14.7375 0.0000 0.0000
# 5 0.0000 0.0000 0.0000 0.0000 44.2713 0.0000
# 6 0.0000 0.0000 0.0000 0.0000 0.0000 6.6598
#
#
#
# Elastic Compliance Matrix: (Units=1/GPa)
#
#
# Indices 1 2 3 4 5 6 
#
# 1 0.006817 -0.003106 -0.003341 0.000000 0.000000 0.000000
# 2 -0.003106 0.010750 -0.001276 0.000000 0.000000 0.000000
# 3 -0.003341 -0.001276 0.012249 0.000000 0.000000 0.000000
# 4 0.000000 0.000000 0.000000 0.067854 0.000000 0.000000
# 5 0.000000 0.000000 0.000000 0.000000 0.022588 0.000000
# 6 0.000000 0.000000 0.000000 0.000000 0.000000 0.150155
#
#
# Mechanical properties :
#
#
# Convention : Reuss Voigt Hill
#
# Bulk Modulus (GPa) = 69.57898 83.69916 76.63907
# Shear Modulus (GPa) = 17.20298 30.79631 23.99965
#
# Velocity S-wave (km/s) = 2.93670 3.92923 3.46865
# Velocity P-wave (km/s) = 6.81032 7.90856 7.37990
#
# Compressibility (1/GPa) = 0.01437216
#
# Stress axis : x y z
#
# Youngs Moduli (GPa) = 146.69531 93.02387 81.63883
#
# Poissons Ratio (x) = 0.28889 0.27272
# Poissons Ratio (y) = 0.45557 0.10415
# Poissons Ratio (z) = 0.49005 0.11867
#
# Static dielectric constant tensor:
#      x y z
#    x 3.856700 0.000000 0.000000 
#    y 0.000000 3.497960 0.000000 
#    z 0.000000 0.000000 3.517460 
# 
# 
# High freq. dielectric constant tensor:
#      x y z
#    x 1.780660 0.000000 0.000000 
#    y 0.000000 1.761920 0.000000 
#    z 0.000000 0.000000 1.774670 
# 
# From -- ./inp_files/14541.got.cif
#   From: 2010.03.12/outbox.cif.g09.slc.cpg/sg49_8_cif.got.tgz:14541.got - 2010.04.14 03:58:27.
