data_PCOD8204657
_publ_section_title
;
Structure prediction by ZEFSAII (Michael W. Deem and Ramdas Pophale) SiO2 
 PCOD8204657
Probable space group: P C C M
;
_chemical_formula_sum "Si O2"
_cell_formula_units_Z 48
_cell_length_a 15.349475
_cell_length_b 9.704616
_cell_length_c 15.426473
_cell_angle_alpha 90.000000
_cell_angle_beta 90.000000
_cell_angle_gamma 90.000000
_cell_volume 2297.939153
_symmetry_space_group_name_H-M "P C C M"
_symmetry_group_IT_number 49
_symmetry_cell_setting 'orthorhombic'
loop_
_space_group_symop_operation_xyz
x,y,z
-x,-y,z
x,-y,1/2-z
-x,y,1/2-z
-x,-y,-z
x,y,-z
-x,y,1/2+z
x,-y,1/2+z
loop_
_atom_site_type_symbol
_atom_site_label
_atom_site_fract_x
_atom_site_fract_y
_atom_site_fract_z
Si Si1 0.808271 0.220996 0.099275
Si Si2 0.590488 0.578313 0.000000
Si Si3 0.710543 0.960495 0.844484
Si Si4 0.715833 0.483522 0.152881
Si Si5 0.996275 0.843782 0.352212
Si Si6 0.176196 0.723029 0.400115
Si Si7 0.414986 0.907114 0.500000
O O1 0.744175 0.325171 0.147954
O O2 0.910103 0.237879 0.119741
O O3 0.783422 0.067674 0.125878
O O4 0.790765 0.249728 0.000000
O O5 0.500000 0.500000 0.000000
O O6 0.641787 0.532265 0.913901
O O7 0.570845 0.742270 0.000000
O O8 0.763421 0.818100 0.839429
O O9 0.633234 0.952813 0.912725
O O10 0.672480 0.000000 0.750000
O O11 0.679008 0.500000 0.250000
O O12 0.804328 0.569148 0.133074
O O13 0.074949 0.755371 0.391061
O O14 0.000000 0.848491 0.250000
O O15 0.000000 0.000000 0.389776
O O16 0.206296 0.741440 0.500000
O O17 0.500000 0.000000 0.500000
#
# Coordination Sequence:
#
# PCOD8204657 Si02
#       7
#     8   4   8   8   8   8   4
#     4  12  24  40  67 104 137 180 237 280 327 395
#     4  12  28  52  74 101 138 174 218 282 347 417
#     4  12  23  43  71 100 137 182 225 275 336 403
#     4  12  25  47  73  99 136 183 226 274 342 410
#     4  11  23  37  60 100 140 182 236 284 331 390
#     4  12  22  44  68  95 140 191 229 278 340 398
#     4  12  28  50  74 105 137 173 219 281 346 414
#
# _framework density 20.888280999999999
#
# number of rings (size 3 to 8) (size 9 to 14) (size 15 to 20)
#    0.000    0.167    6.667    3.500    2.333    2.000 
#    0.000    5.000    0.000    0.000    0.000    0.000 
#    0.000    0.000    0.000    0.000    0.000    0.000 
#
# Total GULP energy -595367.643997 kJ/mol
# GULP energy per Si atom -12403.492583 kJ/mol
# Density = 2.084074 g / cm^3
# Si number density = 20.888281 Si / 1000 Ang^3
#
#
#
# Elastic Constant Matrix: (Units=GPa)
#
#
# Indices 1 2 3 4 5 6 
#
# 1 118.3269 33.9634 46.6559 0.0000 0.0000 0.0000
# 2 33.9634 72.5904 28.3194 0.0000 0.0000 0.0000
# 3 46.6559 28.3194 153.3953 0.0000 0.0000 0.0000
# 4 0.0000 0.0000 0.0000 37.0577 0.0000 0.0000
# 5 0.0000 0.0000 0.0000 0.0000 14.6717 0.0000
# 6 0.0000 0.0000 0.0000 0.0000 0.0000 35.7289
#
#
#
# Elastic Compliance Matrix: (Units=1/GPa)
#
#
# Indices 1 2 3 4 5 6 
#
# 1 0.010571 -0.003978 -0.002481 0.000000 0.000000 0.000000
# 2 -0.003978 0.016342 -0.001807 0.000000 0.000000 0.000000
# 3 -0.002481 -0.001807 0.007607 0.000000 0.000000 0.000000
# 4 0.000000 0.000000 0.000000 0.026985 0.000000 0.000000
# 5 0.000000 0.000000 0.000000 0.000000 0.068158 0.000000
# 6 0.000000 0.000000 0.000000 0.000000 0.000000 0.027989
#
#
# Mechanical properties :
#
#
# Convention : Reuss Voigt Hill
#
# Bulk Modulus (GPa) = 55.59105 62.46555 59.02830
# Shear Modulus (GPa) = 27.74990 33.18325 30.46658
#
# Velocity S-wave (km/s) = 3.64880 3.99006 3.82324
# Velocity P-wave (km/s) = 6.66506 7.15520 6.91447
#
# Compressibility (1/GPa) = 0.01798851
#
# Stress axis : x y z
#
# Youngs Moduli (GPa) = 94.59657 61.19127 131.45299
#
# Poissons Ratio (x) = 0.24343 0.32611
# Poissons Ratio (y) = 0.37632 0.23755
# Poissons Ratio (z) = 0.23468 0.11058
#
# Static dielectric constant tensor:
#      x y z
#    x 3.568770 0.000000 0.000000 
#    y 0.000000 3.898130 0.000000 
#    z 0.000000 0.000000 3.963650 
# 
# 
# High freq. dielectric constant tensor:
#      x y z
#    x 1.804530 0.000000 0.000000 
#    y 0.000000 1.826390 0.000000 
#    z 0.000000 0.000000 1.835550 
# 
# From -- ./inp_files/17763.got.cif
#   From: 2010.03.12/outbox.cif.g09.slc.cpg/sg49_9_cif.got.tgz:17763.got - 2010.04.14 03:58:27.
