data_PCOD8204908
_publ_section_title
;
Structure prediction by ZEFSAII (Michael W. Deem and Ramdas Pophale) SiO2 
 PCOD8204908
Probable space group: P B A N
;
_chemical_formula_sum "Si O2"
_cell_formula_units_Z 54
_cell_length_a 8.552693
_cell_length_b 19.878056
_cell_length_c 17.123188
_cell_angle_alpha 90.000000
_cell_angle_beta 90.000000
_cell_angle_gamma 90.000000
_cell_volume 2911.128781
_symmetry_space_group_name_H-M "P B A N"
_symmetry_group_IT_number 50
_space_group.IT_coordinate_system_code '2'
_symmetry_cell_setting 'orthorhombic'
loop_
_space_group_symop_operation_xyz
x,y,z
1/2-x,1/2-y,z
x,1/2-y,-z
1/2-x,y,-z
-x,-y,-z
1/2+x,1/2+y,-z
-x,1/2+y,z
1/2+x,-y,z
loop_
_atom_site_type_symbol
_atom_site_label
_atom_site_fract_x
_atom_site_fract_y
_atom_site_fract_z
Si Si1 0.772963 0.525997 0.639806
Si Si2 0.495663 0.471800 0.108468
Si Si3 0.446631 0.138546 0.584204
Si Si4 0.768156 0.442762 0.208861
Si Si5 0.750000 0.750000 0.500000
Si Si6 0.250520 0.672747 0.676653
Si Si7 0.922923 0.417480 0.427282
Si Si8 0.250000 0.461958 0.000000
O O1 0.680897 0.594571 0.627664
O O2 0.748722 0.502137 0.728078
O O3 0.727595 0.466830 0.578215
O O4 0.953556 0.543417 0.626774
O O5 0.595947 0.431003 0.171277
O O6 0.404479 0.535768 0.148053
O O7 0.622821 0.493791 0.044956
O O8 0.359756 0.424907 0.065617
O O9 0.362344 0.205320 0.553771
O O10 0.576268 0.155381 0.647769
O O11 0.516873 0.094122 0.513911
O O12 0.804600 0.371413 0.249176
O O13 0.250000 0.750000 0.700787
O O14 0.127093 0.655626 0.607318
#
# Coordination Sequence:
#
# PCOD8204908 Si02
#       8
#     8   8   8   8   2   8   8   4
#     4  11  21  35  56  79 107 138 179 231 294 337
#     4   9  16  31  53  84 117 135 165 203 256 316
#     4  12  23  38  53  72 101 139 194 245 288 334
#     4  10  19  33  52  80 111 139 170 217 268 325
#     4  12  24  40  54  72  96 148 192 250 296 332
#     4  11  24  38  54  73 105 146 190 229 281 337
#     4  11  22  38  54  80 101 137 186 247 297 336
#     4   8  16  28  54  88 112 140 160 198 258 308
#
# _framework density 18.549503999999999
#
# number of rings (size 3 to 8) (size 9 to 14) (size 15 to 20)
#    0.000    1.481    1.481    6.222    0.000    2.963 
#    0.000    0.000    0.000    0.000    0.000   19.704 
#    0.000    0.000    0.000    0.000    0.000    0.000 
#
# Total GULP energy -668967.311090 kJ/mol
# GULP energy per Si atom -12388.283539 kJ/mol
# Density = 1.850728 g / cm^3
# Si number density = 18.549504 Si / 1000 Ang^3
#
#
#
# Elastic Constant Matrix: (Units=GPa)
#
#
# Indices 1 2 3 4 5 6 
#
# 1 91.3826 28.5199 34.5671 0.0000 0.0000 0.0000
# 2 28.5199 91.5526 25.4024 0.0000 0.0000 0.0000
# 3 34.5671 25.4024 73.5236 0.0000 0.0000 0.0000
# 4 0.0000 0.0000 0.0000 2.8186 0.0000 0.0000
# 5 0.0000 0.0000 0.0000 0.0000 37.2568 0.0000
# 6 0.0000 0.0000 0.0000 0.0000 0.0000 26.5370
#
#
#
# Elastic Compliance Matrix: (Units=1/GPa)
#
#
# Indices 1 2 3 4 5 6 
#
# 1 0.013925 -0.002789 -0.005584 0.000000 0.000000 0.000000
# 2 -0.002789 0.012639 -0.003056 0.000000 0.000000 0.000000
# 3 -0.005584 -0.003056 0.017282 0.000000 0.000000 0.000000
# 4 0.000000 0.000000 0.000000 0.354783 0.000000 0.000000
# 5 0.000000 0.000000 0.000000 0.000000 0.026841 0.000000
# 6 0.000000 0.000000 0.000000 0.000000 0.000000 0.037683
#
#
# Mechanical properties :
#
#
# Convention : Reuss Voigt Hill
#
# Bulk Modulus (GPa) = 47.64040 48.15977 47.90009
# Shear Modulus (GPa) = 10.14186 24.52043 17.33115
#
# Velocity S-wave (km/s) = 2.34080 3.63973 3.05998
# Velocity P-wave (km/s) = 5.74842 6.60929 6.19383
#
# Compressibility (1/GPa) = 0.02099059
#
# Stress axis : x y z
#
# Youngs Moduli (GPa) = 71.81113 79.11849 57.86393
#
# Poissons Ratio (x) = 0.22064 0.32308
# Poissons Ratio (y) = 0.20026 0.17682
# Poissons Ratio (z) = 0.40096 0.24177
#
# Static dielectric constant tensor:
#      x y z
#    x 4.046180 0.000000 0.000000 
#    y 0.000000 3.173050 0.000000 
#    z 0.000000 0.000000 3.732770 
# 
# 
# High freq. dielectric constant tensor:
#      x y z
#    x 1.754020 0.000000 0.000000 
#    y 0.000000 1.673060 0.000000 
#    z 0.000000 0.000000 1.718530 
# 
# From -- ./inp_files/28943.got.cif
#   From: 2010.03.12/outbox.cif.g09.slc.cpg/sg50_15_cif.got.tgz:28943.got - 2010.04.16 13:23:21.
