data_PCOD8204903
_publ_section_title
;
Structure prediction by ZEFSAII (Michael W. Deem and Ramdas Pophale) SiO2 
 PCOD8204903
Probable space group: P B A N
;
_chemical_formula_sum "Si O2"
_cell_formula_units_Z 58
_cell_length_a 9.896668
_cell_length_b 24.055231
_cell_length_c 12.832751
_cell_angle_alpha 90.000000
_cell_angle_beta 90.000000
_cell_angle_gamma 90.000000
_cell_volume 3055.049847
_symmetry_space_group_name_H-M "P B A N"
_symmetry_group_IT_number 50
_space_group.IT_coordinate_system_code '2'
_symmetry_cell_setting 'orthorhombic'
loop_
_space_group_symop_operation_xyz
x,y,z
1/2-x,1/2-y,z
x,1/2-y,-z
1/2-x,y,-z
-x,-y,-z
1/2+x,1/2+y,-z
-x,1/2+y,z
1/2+x,-y,z
loop_
_atom_site_type_symbol
_atom_site_label
_atom_site_fract_x
_atom_site_fract_y
_atom_site_fract_z
Si Si1 0.598228 0.146530 0.992972
Si Si2 0.871799 0.649282 0.373158
Si Si3 0.250000 0.250000 0.500000
Si Si4 0.106949 0.045572 0.524373
Si Si5 0.902672 0.312924 0.217039
Si Si6 0.900206 0.311795 0.767519
Si Si7 0.402957 0.450229 0.961972
Si Si8 0.618865 0.902063 0.735355
O O1 0.573188 0.181638 0.889922
O O2 0.750000 0.119161 0.000000
O O3 0.584520 0.187143 0.091703
O O4 0.476742 0.102805 0.990134
O O5 0.838491 0.708956 0.426248
O O6 0.898888 0.604220 0.463140
O O7 0.759591 0.629010 0.289864
O O8 0.007574 0.651028 0.306032
O O9 0.250000 0.017230 0.500000
O O10 0.085681 0.054843 0.645762
O O11 0.000000 0.000000 0.500000
O O12 0.933648 0.251815 0.259223
O O13 0.753254 0.329709 0.255440
O O14 0.005413 0.355213 0.267795
O O15 0.387653 0.440113 0.838390
O O16 0.250000 0.458977 0.000000
O O17 0.500000 0.500000 0.000000
#
# Coordination Sequence:
#
# PCOD8204903 Si02
#       8
#     8   8   2   8   8   8   8   8
#     4   9  18  35  55  79 116 156 195 240 295 374
#     4  11  22  38  63  89 114 162 206 259 318 379
#     4  12  20  40  68  86 130 156 216 268 328 388
#     4  10  23  42  61  85 113 154 211 252 308 364
#     4   9  19  34  54  85 120 154 190 243 312 369
#     4  10  19  32  57  86 117 152 198 242 305 372
#     4  11  23  37  57  86 118 153 198 252 307 373
#     4  10  21  41  60  82 120 154 203 251 311 375
#
# _framework density 18.984960000000001
#
# number of rings (size 3 to 8) (size 9 to 14) (size 15 to 20)
#    0.000    1.931    2.069    2.483    0.000    6.069 
#    0.000    0.000    0.000    2.483    0.000    0.000 
#    0.000    0.000    0.000    0.000    0.000    0.000 
#
# Total GULP energy -718718.032350 kJ/mol
# GULP energy per Si atom -12391.690213 kJ/mol
# Density = 1.894175 g / cm^3
# Si number density = 18.984960 Si / 1000 Ang^3
#
#
#
# Elastic Constant Matrix: (Units=GPa)
#
#
# Indices 1 2 3 4 5 6 
#
# 1 142.2465 66.8444 65.4090 0.0000 0.0000 0.0000
# 2 66.8444 94.3819 42.8848 0.0000 0.0000 0.0000
# 3 65.4090 42.8848 91.1358 0.0000 0.0000 0.0000
# 4 0.0000 0.0000 0.0000 391.8040 0.0000 0.0000
# 5 0.0000 0.0000 0.0000 0.0000 31.1454 0.0000
# 6 0.0000 0.0000 0.0000 0.0000 0.0000 40.4394
#
#
#
# Elastic Compliance Matrix: (Units=1/GPa)
#
#
# Indices 1 2 3 4 5 6 
#
# 1 0.012858 -0.006250 -0.006288 0.000000 0.000000 0.000000
# 2 -0.006250 0.016514 -0.003286 0.000000 0.000000 0.000000
# 3 -0.006288 -0.003286 0.017031 0.000000 0.000000 0.000000
# 4 0.000000 0.000000 0.000000 0.002552 0.000000 0.000000
# 5 0.000000 0.000000 0.000000 0.000000 0.032107 0.000000
# 6 0.000000 0.000000 0.000000 0.000000 0.000000 0.024728
#
#
# Mechanical properties :
#
#
# Convention : Reuss Voigt Hill
#
# Bulk Modulus (GPa) = 67.75865 75.33785 71.54825
# Shear Modulus (GPa) = 35.12308 102.85284 68.98796
#
# Velocity S-wave (km/s) = 4.30588 7.36842 6.03466
# Velocity P-wave (km/s) = 7.77747 10.59058 9.29111
#
# Compressibility (1/GPa) = 0.01475826
#
# Stress axis : x y z
#
# Youngs Moduli (GPa) = 77.77243 60.55363 58.71539
#
# Poissons Ratio (x) = 0.37843 0.36917
# Poissons Ratio (y) = 0.48604 0.19291
# Poissons Ratio (z) = 0.48900 0.19895
#
# Static dielectric constant tensor:
#      x y z
#    x 3.628380 0.000000 0.000000 
#    y 0.000000 3.459770 0.000000 
#    z 0.000000 0.000000 3.459070 
# 
# 
# High freq. dielectric constant tensor:
#      x y z
#    x 1.747400 0.000000 0.000000 
#    y 0.000000 1.732010 0.000000 
#    z 0.000000 0.000000 1.743270 
# 
# From -- ./inp_files/19433.got.cif
#   From: 2010.03.12/outbox.cif.g09.slc.cpg/sg50_10_cif.got.tgz:19433.got - 2010.04.16 13:23:21.
