data_PCOD8204677
_publ_section_title
;
Structure prediction by ZEFSAII (Michael W. Deem and Ramdas Pophale) SiO2 
 PCOD8204677
Probable space group: P C C M
;
_chemical_formula_sum "Si O2"
_cell_formula_units_Z 18
_cell_length_a 6.924589
_cell_length_b 4.994915
_cell_length_c 20.954161
_cell_angle_alpha 90.000000
_cell_angle_beta 90.000000
_cell_angle_gamma 90.000000
_cell_volume 724.756936
_symmetry_space_group_name_H-M "P C C M"
_symmetry_group_IT_number 49
_symmetry_cell_setting 'orthorhombic'
loop_
_space_group_symop_operation_xyz
x,y,z
-x,-y,z
x,-y,1/2-z
-x,y,1/2-z
-x,-y,-z
x,y,-z
-x,y,1/2+z
x,-y,1/2+z
loop_
_atom_site_type_symbol
_atom_site_label
_atom_site_fract_x
_atom_site_fract_y
_atom_site_fract_z
Si Si1 0.200455 0.890304 0.650634
Si Si2 0.500000 0.000000 0.750000
Si Si3 0.282119 0.403900 0.428554
O O1 0.357219 0.821619 0.705959
O O2 0.283148 0.114377 0.603414
O O3 0.156690 0.620790 0.611084
O O4 0.000000 0.000000 0.680524
O O5 0.500000 0.500000 0.430033
O O6 0.197214 0.381623 0.500000
#
# Coordination Sequence:
#
# PCOD8204677 Si02
#       3
#     8   2   8
#     4  12  26  44  72 101 133 180 226 276 335 395
#     4  12  26  50  66  96 140 182 226 284 316 408
#     4  11  23  45  72 102 138 176 217 278 346 401
#
# _framework density 24.835915
#
# number of rings (size 3 to 8) (size 9 to 14) (size 15 to 20)
#    0.000    0.444    4.444    3.333    0.000   12.444 
#    0.000    4.444    0.000    0.000    0.000    0.000 
#    0.000    0.000    0.000    0.000    0.000    0.000 
#
# Total GULP energy -223216.626527 kJ/mol
# GULP energy per Si atom -12400.923696 kJ/mol
# Density = 2.477939 g / cm^3
# Si number density = 24.835915 Si / 1000 Ang^3
#
#
#
# Elastic Constant Matrix: (Units=GPa)
#
#
# Indices 1 2 3 4 5 6 
#
# 1 120.6593 11.6567 51.8335 0.0000 0.0000 0.0000
# 2 11.6567 125.1321 55.0951 0.0000 0.0000 0.0000
# 3 51.8335 55.0951 170.1857 0.0000 0.0000 0.0000
# 4 0.0000 0.0000 0.0000 3.8082 0.0000 0.0000
# 5 0.0000 0.0000 0.0000 0.0000 13.4831 0.0000
# 6 0.0000 0.0000 0.0000 0.0000 0.0000 41.3501
#
#
#
# Elastic Compliance Matrix: (Units=1/GPa)
#
#
# Indices 1 2 3 4 5 6 
#
# 1 0.009558 0.000456 -0.003059 0.000000 0.000000 0.000000
# 2 0.000456 0.009342 -0.003163 0.000000 0.000000 0.000000
# 3 -0.003059 -0.003163 0.007832 0.000000 0.000000 0.000000
# 4 0.000000 0.000000 0.000000 0.262589 0.000000 0.000000
# 5 0.000000 0.000000 0.000000 0.000000 0.074167 0.000000
# 6 0.000000 0.000000 0.000000 0.000000 0.000000 0.024184
#
#
# Mechanical properties :
#
#
# Convention : Reuss Voigt Hill
#
# Bulk Modulus (GPa) = 65.79004 72.57196 69.18100
# Shear Modulus (GPa) = 12.36803 31.55441 21.96122
#
# Velocity S-wave (km/s) = 2.23399 3.56830 2.97686
# Velocity P-wave (km/s) = 5.76209 6.80154 6.30328
#
# Compressibility (1/GPa) = 0.01519987
#
# Stress axis : x y z
#
# Youngs Moduli (GPa) = 104.62774 107.04559 127.68783
#
# Poissons Ratio (x) = -0.04886 0.39056
# Poissons Ratio (y) = -0.04775 0.40391
# Poissons Ratio (z) = 0.32003 0.33862
#
# Static dielectric constant tensor:
#      x y z
#    x 4.643970 0.000000 0.000000 
#    y 0.000000 4.361620 0.000000 
#    z 0.000000 0.000000 4.729000 
# 
# 
# High freq. dielectric constant tensor:
#      x y z
#    x 2.016160 0.000000 0.000000 
#    y 0.000000 1.972220 0.000000 
#    z 0.000000 0.000000 1.987070 
# 
# From -- ./inp_files/10211.got.cif
#   From: 2010.03.12/outbox.cif.g09.slc.cpg/sg49_6_cif.got.tgz:10211.got - 2010.04.14 03:58:27.
