data_PCOD8204013
_publ_section_title
;
Structure prediction by ZEFSAII (Michael W. Deem and Ramdas Pophale) SiO2 
 PCOD8204013
Probable space group: P C C M
;
_chemical_formula_sum "Si O2"
_cell_formula_units_Z 60
_cell_length_a 11.520577
_cell_length_b 11.594076
_cell_length_c 24.544249
_cell_angle_alpha 90.000000
_cell_angle_beta 90.000000
_cell_angle_gamma 90.000000
_cell_volume 3278.386269
_symmetry_space_group_name_H-M "P C C M"
_symmetry_group_IT_number 49
_symmetry_cell_setting 'orthorhombic'
loop_
_space_group_symop_operation_xyz
x,y,z
-x,-y,z
x,-y,1/2-z
-x,y,1/2-z
-x,-y,-z
x,y,-z
-x,y,1/2+z
x,-y,1/2+z
loop_
_atom_site_type_symbol
_atom_site_label
_atom_site_fract_x
_atom_site_fract_y
_atom_site_fract_z
Si Si1 0.866412 0.230616 0.936326
Si Si2 0.269433 0.999988 0.936417
Si Si3 0.500020 0.244334 0.685328
Si Si4 0.727905 0.635886 0.647783
Si Si5 0.866266 0.230662 0.436320
Si Si6 0.272134 0.364264 0.147773
Si Si7 0.872487 0.636867 0.750010
Si Si8 0.500000 0.000000 0.135443
O O1 0.808804 0.109265 0.920797
O O2 0.794078 0.332262 0.907690
O O3 0.000071 0.230595 0.916806
O O4 0.858513 0.255537 0.000000
O O5 0.191442 0.109381 0.920746
O O6 0.387351 0.999810 0.902570
O O7 0.302616 0.000015 0.000000
O O8 0.500000 0.273194 0.750000
O O9 0.392805 0.299508 0.653661
O O10 0.607106 0.299761 0.653666
O O11 0.500184 0.108094 0.675991
O O12 0.705472 0.500077 0.649646
O O13 0.806967 0.681406 0.696965
O O14 0.858374 0.255483 0.500000
O O15 0.793985 0.332387 0.407713
O O16 0.193029 0.318671 0.196927
O O17 0.879584 0.500000 0.750000
O O18 0.000000 0.692219 0.750000
#
# Coordination Sequence:
#
# PCOD8204013 Si02
#       8
#     8   8   8   8   8   8   8   4
#     4  10  21  38  61  88 120 157 195 240 293 350
#     4  10  20  37  62  88 113 148 200 247 290 346
#     4  12  24  41  62  85 116 154 197 245 297 350
#     4  11  22  37  59  86 118 157 198 238 289 349
#     4  10  21  38  61  88 120 157 195 240 293 350
#     4  11  22  37  59  86 118 157 198 238 289 349
#     4   9  18  33  55  81 110 149 196 239 277 334
#     4  12  22  40  64  86 112 150 194 246 302 344
#
# _framework density 18.301687000000001
#
# number of rings (size 3 to 8) (size 9 to 14) (size 15 to 20)
#    0.000    1.467    4.000    2.000    0.000    4.267 
#    0.000    2.000    0.000    1.600    0.000    5.600 
#    0.000    0.000    0.000    0.000    0.000    0.000 
#
# Total GULP energy -744148.869019 kJ/mol
# GULP energy per Si atom -12402.481150 kJ/mol
# Density = 1.826003 g / cm^3
# Si number density = 18.301687 Si / 1000 Ang^3
#
#
#
# Elastic Constant Matrix: (Units=GPa)
#
#
# Indices 1 2 3 4 5 6 
#
# 1 164.0257 46.9915 52.6715 0.0000 0.0000 0.0000
# 2 46.9915 93.6421 32.5329 0.0000 0.0000 0.0000
# 3 52.6715 32.5329 68.4147 0.0000 0.0000 0.0000
# 4 0.0000 0.0000 0.0000 29.3272 0.0000 0.0000
# 5 0.0000 0.0000 0.0000 0.0000 32.1251 0.0000
# 6 0.0000 0.0000 0.0000 0.0000 0.0000 22.5908
#
#
#
# Elastic Compliance Matrix: (Units=1/GPa)
#
#
# Indices 1 2 3 4 5 6 
#
# 1 0.008524 -0.002393 -0.005425 0.000000 0.000000 0.000000
# 2 -0.002393 0.013464 -0.004560 0.000000 0.000000 0.000000
# 3 -0.005425 -0.004560 0.020962 0.000000 0.000000 0.000000
# 4 0.000000 0.000000 0.000000 0.034098 0.000000 0.000000
# 5 0.000000 0.000000 0.000000 0.000000 0.031128 0.000000
# 6 0.000000 0.000000 0.000000 0.000000 0.000000 0.044266
#
#
# Mechanical properties :
#
#
# Convention : Reuss Voigt Hill
#
# Bulk Modulus (GPa) = 54.96276 65.60825 60.28550
# Shear Modulus (GPa) = 27.28327 29.73438 28.50883
#
# Velocity S-wave (km/s) = 3.86521 4.03510 3.95107
# Velocity P-wave (km/s) = 7.07224 7.59180 7.33662
#
# Compressibility (1/GPa) = 0.01819414
#
# Stress axis : x y z
#
# Youngs Moduli (GPa) = 117.31411 74.27171 47.70617
#
# Poissons Ratio (x) = 0.17773 0.25879
# Poissons Ratio (y) = 0.28073 0.21755
# Poissons Ratio (z) = 0.63639 0.33869
#
# Static dielectric constant tensor:
#      x y z
#    x 3.643280 0.000000 0.000000 
#    y 0.000000 3.254520 0.000000 
#    z 0.000000 0.000000 3.334200 
# 
# 
# High freq. dielectric constant tensor:
#      x y z
#    x 1.729770 0.000000 0.000000 
#    y 0.000000 1.701640 0.000000 
#    z 0.000000 0.000000 1.709150 
# 
# From -- ./inp_files/20577.got.cif
#   From: 2010.03.12/outbox.cif.g09.slc.cpg/sg49_11_cif.got.tgz:20577.got - 2010.04.14 03:58:27.
