data_PCOD8204812
_publ_section_title
;
Structure prediction by ZEFSAII (Michael W. Deem and Ramdas Pophale) SiO2 
 PCOD8204812
Probable space group: P B A N
;
_chemical_formula_sum "Si O2"
_cell_formula_units_Z 30
_cell_length_a 27.834000
_cell_length_b 5.597170
_cell_length_c 8.969723
_cell_angle_alpha 90.000000
_cell_angle_beta 90.000000
_cell_angle_gamma 90.000000
_cell_volume 1397.407765
_symmetry_space_group_name_H-M "P B A N"
_symmetry_group_IT_number 50
_space_group.IT_coordinate_system_code '2'
_symmetry_cell_setting 'orthorhombic'
loop_
_space_group_symop_operation_xyz
x,y,z
1/2-x,1/2-y,z
x,1/2-y,-z
1/2-x,y,-z
-x,-y,-z
1/2+x,1/2+y,-z
-x,1/2+y,z
1/2+x,-y,z
loop_
_atom_site_type_symbol
_atom_site_label
_atom_site_fract_x
_atom_site_fract_y
_atom_site_fract_z
Si Si1 0.687989 0.250000 0.000000
Si Si2 0.707683 0.932584 0.741433
Si Si3 0.625781 0.880899 0.152560
Si Si4 0.750000 0.250000 0.500000
Si Si5 0.981772 0.983948 0.828543
O O1 0.656284 0.381490 0.875332
O O2 0.718555 0.065733 0.899512
O O3 0.750000 0.750000 0.724658
O O4 0.655759 0.799769 0.740382
O O5 0.712080 0.103498 0.599551
O O6 0.574398 0.961988 0.211147
O O7 0.614634 0.750000 0.000000
O O8 0.003860 0.740654 0.755297
O O9 0.000000 0.000000 0.000000
#
# Coordination Sequence:
#
# PCOD8204812 Si02
#       5
#     4   8   8   2   8
#     4  10  22  37  60  90 124 158 196 264 325 386
#     4  11  25  41  61  88 122 164 213 265 323 392
#     4  10  20  33  55  88 125 163 208 252 324 385
#     4  12  26  46  60  78 120 170 218 268 316 388
#     4  10  18  30  52  84 130 169 204 257 317 386
#
# _framework density 21.468323000000002
#
# number of rings (size 3 to 8) (size 9 to 14) (size 15 to 20)
#    0.000    1.600    2.667    3.600    3.733   12.800 
#    0.000    0.000    0.000    0.000    0.000    1.867 
#    0.000    0.000    0.000    0.000    0.000    0.000 
#
# Total GULP energy -371657.280599 kJ/mol
# GULP energy per Si atom -12388.576020 kJ/mol
# Density = 2.141946 g / cm^3
# Si number density = 21.468323 Si / 1000 Ang^3
#
#
#
# Elastic Constant Matrix: (Units=GPa)
#
#
# Indices 1 2 3 4 5 6 
#
# 1 142.9006 58.9793 48.0522 0.0000 0.0000 0.0000
# 2 58.9793 167.0807 42.6348 0.0000 0.0000 0.0000
# 3 48.0522 42.6348 70.3144 0.0000 0.0000 0.0000
# 4 0.0000 0.0000 0.0000 30.0756 0.0000 0.0000
# 5 0.0000 0.0000 0.0000 0.0000 -149.3507 0.0000
# 6 0.0000 0.0000 0.0000 0.0000 0.0000 9.6844
#
#
#
# Elastic Compliance Matrix: (Units=1/GPa)
#
#
# Indices 1 2 3 4 5 6 
#
# 1 0.009638 -0.002037 -0.005352 0.000000 0.000000 0.000000
# 2 -0.002037 0.007511 -0.003162 0.000000 0.000000 0.000000
# 3 -0.005352 -0.003162 0.019797 0.000000 0.000000 0.000000
# 4 0.000000 0.000000 0.000000 0.033250 0.000000 0.000000
# 5 0.000000 0.000000 0.000000 0.000000 -0.006696 0.000000
# 6 0.000000 0.000000 0.000000 0.000000 0.000000 0.103259
#
#
# Mechanical properties :
#
#
# Convention : Reuss Voigt Hill
#
# Bulk Modulus (GPa) = 63.11439 75.51424 69.31432
# Shear Modulus (GPa) = 25.88781 -6.54286 9.67247
#
# Velocity S-wave (km/s) = 3.47632 -1.74765 2.12491
# Velocity P-wave (km/s) = 6.75098 5.58379 6.19493
#
# Compressibility (1/GPa) = 0.01584425
#
# Stress axis : x y z
#
# Youngs Moduli (GPa) = 103.75605 133.13740 50.51359
#
# Poissons Ratio (x) = 0.27115 0.27033
# Poissons Ratio (y) = 0.21131 0.15975
# Poissons Ratio (z) = 0.55526 0.42105
#
# Static dielectric constant tensor:
#      x y z
#    x 4.052110 0.000000 0.000000 
#    y 0.000000 2.853030 0.000000 
#    z 0.000000 0.000000 3.533780 
# 
# 
# High freq. dielectric constant tensor:
#      x y z
#    x 1.844600 0.000000 0.000000 
#    y 0.000000 1.881490 0.000000 
#    z 0.000000 0.000000 1.766050 
# 
# From -- ./inp_files/7925.got.cif
#   From: 2010.03.12/outbox.cif.g09.slc.cpg/sg50_4_cif.got.tgz:7925.got - 2010.04.16 13:23:21.
