data_PCOD8204337
_publ_section_title
;
Structure prediction by ZEFSAII (Michael W. Deem and Ramdas Pophale) SiO2 
 PCOD8204337
Probable space group: P C C M
;
_chemical_formula_sum "Si O2"
_cell_formula_units_Z 64
_cell_length_a 24.230554
_cell_length_b 8.925910
_cell_length_c 14.816116
_cell_angle_alpha 90.000000
_cell_angle_beta 90.000000
_cell_angle_gamma 90.000000
_cell_volume 3204.425779
_symmetry_space_group_name_H-M "P C C M"
_symmetry_group_IT_number 49
_symmetry_cell_setting 'orthorhombic'
loop_
_space_group_symop_operation_xyz
x,y,z
-x,-y,z
x,-y,1/2-z
-x,y,1/2-z
-x,-y,-z
x,y,-z
-x,y,1/2+z
x,-y,1/2+z
loop_
_atom_site_type_symbol
_atom_site_label
_atom_site_fract_x
_atom_site_fract_y
_atom_site_fract_z
Si Si1 0.611452 0.675751 0.105450
Si Si2 0.890839 0.674454 0.102159
Si Si3 0.686607 0.177288 0.750000
Si Si4 0.611452 0.675750 0.605450
Si Si5 0.000000 0.168426 0.107148
Si Si6 0.500000 0.831472 0.606887
Si Si7 0.197338 0.674407 0.750000
Si Si8 0.109161 0.674454 0.102159
O O1 0.660437 0.753448 0.159768
O O2 0.610945 0.500000 0.125592
O O3 0.553887 0.744021 0.141111
O O4 0.620889 0.709321 0.000000
O O5 0.837668 0.714420 0.161224
O O6 0.903888 0.500001 0.105818
O O7 0.944684 0.753838 0.144134
O O8 0.878517 0.728234 0.000000
O O9 0.660436 0.246552 0.840232
O O10 0.750595 0.217744 0.750001
O O11 0.678380 0.000000 0.750000
O O12 0.620888 0.709320 0.500000
O O13 0.553887 0.744020 0.641111
O O14 0.944684 0.246164 0.144134
O O15 0.000000 0.180739 0.000000
O O16 0.000000 0.000000 0.142750
O O17 0.500000 0.835157 0.500000
O O18 0.500000 0.000000 0.646540
O O19 0.215323 0.500000 0.750000
O O20 0.162331 0.714420 0.838776
O O21 0.121483 0.728233 0.000000
#
# Coordination Sequence:
#
# PCOD8204337 Si02
#       8
#     8   8   8   8   8   8   8   8
#     4  10  21  39  63  88 116 152 193 236 282 336
#     4   9  18  34  56  79 105 139 177 220 271 325
#     4  12  26  41  58  83 116 152 193 240 289 342
#     4  10  21  39  63  88 116 152 193 236 282 336
#     4   9  17  30  51  80 111 139 170 213 267 328
#     4   9  17  32  57  90 124 151 181 228 287 346
#     4  10  22  39  56  77 105 140 189 236 272 324
#     4   9  18  34  56  79 105 139 177 220 271 325
#
# _framework density 19.972377999999999
#
# number of rings (size 3 to 8) (size 9 to 14) (size 15 to 20)
#    0.000    2.250    0.000    2.625    0.000    7.500 
#    0.000    7.500    0.000    0.000    0.000    0.000 
#    0.000    0.000    0.000    0.000    0.000    0.000 
#
# Total GULP energy -793728.914798 kJ/mol
# GULP energy per Si atom -12402.014294 kJ/mol
# Density = 1.992692 g / cm^3
# Si number density = 19.972378 Si / 1000 Ang^3
#
#
#
# Elastic Constant Matrix: (Units=GPa)
#
#
# Indices 1 2 3 4 5 6 
#
# 1 155.8327 77.5969 55.8632 0.0000 0.0000 0.0000
# 2 77.5969 131.6660 46.4106 0.0000 0.0000 0.0000
# 3 55.8632 46.4106 90.4222 0.0000 0.0000 0.0000
# 4 0.0000 0.0000 0.0000 18.9538 0.0000 0.0000
# 5 0.0000 0.0000 0.0000 0.0000 152.5917 0.0000
# 6 0.0000 0.0000 0.0000 0.0000 0.0000 30.8063
#
#
#
# Elastic Compliance Matrix: (Units=1/GPa)
#
#
# Indices 1 2 3 4 5 6 
#
# 1 0.010088 -0.004577 -0.003884 0.000000 0.000000 0.000000
# 2 -0.004577 0.011349 -0.002998 0.000000 0.000000 0.000000
# 3 -0.003884 -0.002998 0.014997 0.000000 0.000000 0.000000
# 4 0.000000 0.000000 0.000000 0.052760 0.000000 0.000000
# 5 0.000000 0.000000 0.000000 0.000000 0.006553 0.000000
# 6 0.000000 0.000000 0.000000 0.000000 0.000000 0.032461
#
#
# Mechanical properties :
#
#
# Convention : Reuss Voigt Hill
#
# Bulk Modulus (GPa) = 73.97129 81.96246 77.96688
# Shear Modulus (GPa) = 32.12755 53.67370 42.90062
#
# Velocity S-wave (km/s) = 4.01509 5.18963 4.63968
# Velocity P-wave (km/s) = 7.65583 8.77706 8.23555
#
# Compressibility (1/GPa) = 0.01351876
#
# Stress axis : x y z
#
# Youngs Moduli (GPa) = 99.12561 88.11561 66.67989
#
# Poissons Ratio (x) = 0.40327 0.25895
# Poissons Ratio (y) = 0.45365 0.19987
# Poissons Ratio (z) = 0.38496 0.26413
#
# Static dielectric constant tensor:
#      x y z
#    x 3.600470 0.000000 0.000000 
#    y 0.000000 3.667870 0.000000 
#    z 0.000000 0.000000 3.751160 
# 
# 
# High freq. dielectric constant tensor:
#      x y z
#    x 1.777740 0.000000 0.000000 
#    y 0.000000 1.780770 0.000000 
#    z 0.000000 0.000000 1.780200 
# 
# From -- ./inp_files/14512.got.cif
#   From: 2010.03.12/outbox.cif.g09.slc.cpg/sg49_8_cif.got.tgz:14512.got - 2010.04.14 03:58:27.
