data_PCOD8204078
_publ_section_title
;
Structure prediction by ZEFSAII (Michael W. Deem and Ramdas Pophale) SiO2 
 PCOD8204078
Probable space group: P C C M
;
_chemical_formula_sum "Si O2"
_cell_formula_units_Z 64
_cell_length_a 8.931613
_cell_length_b 14.842059
_cell_length_c 24.560919
_cell_angle_alpha 90.000000
_cell_angle_beta 90.000000
_cell_angle_gamma 90.000000
_cell_volume 3255.882052
_symmetry_space_group_name_H-M "P C C M"
_symmetry_group_IT_number 49
_symmetry_cell_setting 'orthorhombic'
loop_
_space_group_symop_operation_xyz
x,y,z
-x,-y,z
x,-y,1/2-z
-x,y,1/2-z
-x,-y,-z
x,y,-z
-x,y,1/2+z
x,-y,1/2+z
loop_
_atom_site_type_symbol
_atom_site_label
_atom_site_fract_x
_atom_site_fract_y
_atom_site_fract_z
Si Si1 0.220793 0.809418 0.364659
Si Si2 0.712240 0.211985 0.888200
Si Si3 0.145728 0.375872 0.330285
Si Si4 0.172127 0.344357 0.793366
Si Si5 0.501830 0.893898 0.811403
Si Si6 0.423372 0.689121 0.436275
Si Si7 0.024725 0.893617 0.061033
Si Si8 0.350830 0.463594 0.862727
O O1 0.157839 0.760144 0.310114
O O2 0.347075 0.876659 0.344470
O O3 0.286730 0.742220 0.409520
O O4 0.084573 0.859036 0.392602
O O5 0.828619 0.285016 0.864288
O O6 0.639165 0.151301 0.841150
O O7 0.584108 0.268956 0.919429
O O8 0.806528 0.142734 0.926184
O O9 0.207061 0.359975 0.269550
O O10 0.222547 0.459172 0.362749
O O11 0.970771 0.396384 0.319599
O O12 0.316260 0.381754 0.823063
O O13 0.500000 0.854658 0.750000
O O14 0.500000 0.000000 0.810079
O O15 0.407789 0.697818 0.500000
O O16 0.398567 0.583047 0.420385
O O17 0.985144 0.859433 0.000000
O O18 0.000000 0.000000 0.062725
O O19 0.500000 0.500000 0.835485
#
# Coordination Sequence:
#
# PCOD8204078 Si02
#       8
#     8   8   8   8   8   8   8   8
#     4  10  20  39  61  85 117 158 197 246 296 357
#     4  11  21  39  61  86 121 155 203 248 304 363
#     4  11  21  38  57  86 115 158 189 239 292 354
#     4  10  22  37  60  80 120 153 193 232 292 357
#     4  10  21  37  58  87 122 157 194 242 303 369
#     4  10  22  40  61  84 116 160 201 245 298 352
#     4  11  23  39  62  91 120 155 204 260 311 360
#     4  11  22  38  56  89 115 152 193 246 286 343
#
# _framework density 19.656731000000001
#
# number of rings (size 3 to 8) (size 9 to 14) (size 15 to 20)
#    0.000    1.500    2.500    3.000    0.000    2.250 
#    0.000    0.000    0.000   10.500    0.000    0.000 
#    0.000    0.000    0.000    0.000    0.000    0.000 
#
# Total GULP energy -792882.750678 kJ/mol
# GULP energy per Si atom -12388.792979 kJ/mol
# Density = 1.961199 g / cm^3
# Si number density = 19.656731 Si / 1000 Ang^3
#
#
#
# Elastic Constant Matrix: (Units=GPa)
#
#
# Indices 1 2 3 4 5 6 
#
# 1 62.3239 21.0354 24.7974 0.0000 0.0000 0.0000
# 2 21.0354 89.9343 41.3745 0.0000 0.0000 0.0000
# 3 24.7974 41.3745 109.9885 0.0000 0.0000 0.0000
# 4 0.0000 0.0000 0.0000 23.4382 0.0000 0.0000
# 5 0.0000 0.0000 0.0000 0.0000 22.9188 0.0000
# 6 0.0000 0.0000 0.0000 0.0000 0.0000 31.6830
#
#
#
# Elastic Compliance Matrix: (Units=1/GPa)
#
#
# Indices 1 2 3 4 5 6 
#
# 1 0.018218 -0.002868 -0.003029 0.000000 0.000000 0.000000
# 2 -0.002868 0.013898 -0.004581 0.000000 0.000000 0.000000
# 3 -0.003029 -0.004581 0.011498 0.000000 0.000000 0.000000
# 4 0.000000 0.000000 0.000000 0.042665 0.000000 0.000000
# 5 0.000000 0.000000 0.000000 0.000000 0.043632 0.000000
# 6 0.000000 0.000000 0.000000 0.000000 0.000000 0.031563
#
#
# Mechanical properties :
#
#
# Convention : Reuss Voigt Hill
#
# Bulk Modulus (GPa) = 44.13388 48.51792 46.32590
# Shear Modulus (GPa) = 26.31822 27.27731 26.79776
#
# Velocity S-wave (km/s) = 3.66306 3.72920 3.69628
# Velocity P-wave (km/s) = 6.35544 6.57866 6.46802
#
# Compressibility (1/GPa) = 0.02265833
#
# Stress axis : x y z
#
# Youngs Moduli (GPa) = 54.89032 71.95459 86.97156
#
# Poissons Ratio (x) = 0.20636 0.26340
# Poissons Ratio (y) = 0.15742 0.39844
# Poissons Ratio (z) = 0.16624 0.32965
#
# Static dielectric constant tensor:
#      x y z
#    x 3.702150 0.000000 0.000000 
#    y 0.000000 3.821550 0.000000 
#    z 0.000000 0.000000 3.635850 
# 
# 
# High freq. dielectric constant tensor:
#      x y z
#    x 1.773540 0.000000 0.000000 
#    y 0.000000 1.774460 0.000000 
#    z 0.000000 0.000000 1.758820 
# 
# From -- ./inp_files/22579.got.cif
#   From: 2010.03.12/outbox.cif.g09.slc.cpg/sg49_12_cif.got.tgz:22579.got - 2010.04.14 03:58:27.
