data_PCOD8204705
_publ_section_title
;
Structure prediction by ZEFSAII (Michael W. Deem and Ramdas Pophale) SiO2 
 PCOD8204705
Probable space group: P C C M
;
_chemical_formula_sum "Si O2"
_cell_formula_units_Z 48
_cell_length_a 18.988681
_cell_length_b 11.854220
_cell_length_c 14.365634
_cell_angle_alpha 90.000000
_cell_angle_beta 90.000000
_cell_angle_gamma 90.000000
_cell_volume 3233.646781
_symmetry_space_group_name_H-M "P C C M"
_symmetry_group_IT_number 49
_symmetry_cell_setting 'orthorhombic'
loop_
_space_group_symop_operation_xyz
x,y,z
-x,-y,z
x,-y,1/2-z
-x,y,1/2-z
-x,-y,-z
x,y,-z
-x,y,1/2+z
x,-y,1/2+z
loop_
_atom_site_type_symbol
_atom_site_label
_atom_site_fract_x
_atom_site_fract_y
_atom_site_fract_z
Si Si1 0.695435 0.632117 0.750000
Si Si2 0.189452 0.366361 0.396647
Si Si3 0.416650 0.000000 0.396539
Si Si4 0.583044 0.182615 0.250000
Si Si5 0.810548 0.366360 0.396647
Si Si6 0.921270 0.634632 0.250000
O O1 0.677384 0.500000 0.750000
O O2 0.739947 0.666954 0.658723
O O3 0.622212 0.698225 0.750000
O O4 0.739947 0.666954 0.841277
O O5 0.191048 0.312452 0.500000
O O6 0.185149 0.500000 0.402984
O O7 0.120362 0.322201 0.341636
O O8 0.382844 1.000000 0.500000
O O9 0.393418 0.887965 0.341081
O O10 0.500000 0.000000 0.402873
O O11 0.393418 0.112036 0.341081
O O12 0.500000 0.207084 0.250000
O O13 0.808952 0.312452 0.500000
O O14 0.879638 0.322201 0.341636
O O15 0.923556 0.500000 0.250000
O O16 0.000000 0.685647 0.250000
#
# Coordination Sequence:
#
# PCOD8204705 Si02
#       6
#     8   8   8   8   8   8
#     4   9  17  27  38  55  80 108 137 165 192 231
#     4   8  14  24  35  47  69 103 135 159 189 230
#     4   8  15  29  46  61  77  96 121 159 206 250
#     4   9  17  28  43  62  79  99 131 167 204 241
#     4   8  14  24  35  47  69 103 135 159 189 230
#     4   8  13  20  31  49  69  90 126 172 203 222
#
# _framework density 14.843921999999999
#
# number of rings (size 3 to 8) (size 9 to 14) (size 15 to 20)
#    0.000    3.667    0.000    3.000    0.000    2.333 
#    0.000    3.333    0.000    0.000    0.000    9.333 
#    0.000    0.000    0.000   48.000    0.000  125.333 
#
# Total GULP energy -594766.462800 kJ/mol
# GULP energy per Si atom -12390.967975 kJ/mol
# Density = 1.481014 g / cm^3
# Si number density = 14.843922 Si / 1000 Ang^3
#
#
#
# Elastic Constant Matrix: (Units=GPa)
#
#
# Indices 1 2 3 4 5 6 
#
# 1 90.6977 40.1511 49.3737 0.0000 0.0000 0.0000
# 2 40.1511 43.3285 28.9917 0.0000 0.0000 0.0000
# 3 49.3737 28.9917 149.2244 0.0000 0.0000 0.0000
# 4 0.0000 0.0000 0.0000 6.4288 0.0000 0.0000
# 5 0.0000 0.0000 0.0000 0.0000 11.4361 0.0000
# 6 0.0000 0.0000 0.0000 0.0000 0.0000 2.7934
#
#
#
# Elastic Compliance Matrix: (Units=1/GPa)
#
#
# Indices 1 2 3 4 5 6 
#
# 1 0.020166 -0.016348 -0.003496 0.000000 0.000000 0.000000
# 2 -0.016348 0.039781 -0.002320 0.000000 0.000000 0.000000
# 3 -0.003496 -0.002320 0.008309 0.000000 0.000000 0.000000
# 4 0.000000 0.000000 0.000000 0.155550 0.000000 0.000000
# 5 0.000000 0.000000 0.000000 0.000000 0.087442 0.000000
# 6 0.000000 0.000000 0.000000 0.000000 0.000000 0.357983
#
#
# Mechanical properties :
#
#
# Convention : Reuss Voigt Hill
#
# Bulk Modulus (GPa) = 41.79211 57.80929 49.80070
# Shear Modulus (GPa) = 6.92969 15.11395 11.02182
#
# Velocity S-wave (km/s) = 2.16298 3.19437 2.72787
# Velocity P-wave (km/s) = 5.86971 7.25497 6.59879
#
# Compressibility (1/GPa) = 0.02392796
#
# Stress axis : x y z
#
# Youngs Moduli (GPa) = 49.58869 25.13793 120.35471
#
# Poissons Ratio (x) = 0.41095 0.42078
# Poissons Ratio (y) = 0.81066 0.27919
# Poissons Ratio (z) = 0.17337 0.05831
#
# Static dielectric constant tensor:
#      x y z
#    x 2.755740 0.000000 0.000000 
#    y 0.000000 2.323840 0.000000 
#    z 0.000000 0.000000 3.586130 
# 
# 
# High freq. dielectric constant tensor:
#      x y z
#    x 1.553750 0.000000 0.000000 
#    y 0.000000 1.504770 0.000000 
#    z 0.000000 0.000000 1.583020 
# 
# From -- ./inp_files/12968.got.cif
#   From: 2010.03.12/outbox.cif.g09.slc.cpg/sg49_7_cif.got.tgz:12968.got - 2010.04.14 03:58:27.
