data_PCOD8204414
_publ_section_title
;
Structure prediction by ZEFSAII (Michael W. Deem and Ramdas Pophale) SiO2 
 PCOD8204414
Probable space group: P C C M
;
_chemical_formula_sum "Si O2"
_cell_formula_units_Z 58
_cell_length_a 11.443295
_cell_length_b 18.222546
_cell_length_c 13.844777
_cell_angle_alpha 90.000000
_cell_angle_beta 90.000000
_cell_angle_gamma 90.000000
_cell_volume 2886.995547
_symmetry_space_group_name_H-M "P C C M"
_symmetry_group_IT_number 49
_symmetry_cell_setting 'orthorhombic'
loop_
_space_group_symop_operation_xyz
x,y,z
-x,-y,z
x,-y,1/2-z
-x,y,1/2-z
-x,-y,-z
x,y,-z
-x,y,1/2+z
x,-y,1/2+z
loop_
_atom_site_type_symbol
_atom_site_label
_atom_site_fract_x
_atom_site_fract_y
_atom_site_fract_z
Si Si1 0.435717 0.113686 0.885273
Si Si2 0.824436 0.842934 0.607847
Si Si3 0.637828 0.621564 0.239639
Si Si4 0.914963 0.122829 0.387750
Si Si5 0.361874 0.490573 0.605820
Si Si6 0.000000 0.000000 0.250000
Si Si7 0.336137 0.966281 0.110896
Si Si8 0.278686 0.220346 0.789844
O O1 0.562478 0.087290 0.847247
O O2 0.401171 0.186361 0.826449
O O3 0.341509 0.050034 0.850455
O O4 0.431104 0.130142 0.000000
O O5 0.786763 0.820116 0.500000
O O6 0.961615 0.835746 0.623794
O O7 0.789744 0.928875 0.627073
O O8 0.749473 0.792738 0.677881
O O9 0.500000 0.638797 0.250000
O O10 0.675350 0.585437 0.341955
O O11 0.679818 0.562823 0.160803
O O12 0.710531 0.692352 0.205873
O O13 0.893069 0.098970 0.500000
O O14 0.821348 0.184127 0.356930
O O15 0.916758 0.051267 0.318243
O O16 0.500000 0.500000 0.602132
O O17 0.305150 0.488186 0.500000
O O18 0.371359 0.974751 0.000000
#
# Coordination Sequence:
#
# PCOD8204414 Si02
#       8
#     8   8   8   8   8   2   8   8
#     4   9  19  33  50  75 109 146 188 241 300 359
#     4  10  22  39  56  73 104 151 204 254 297 350
#     4   9  20  34  54  88 126 157 192 234 283 358
#     4  11  25  42  60  84 111 147 204 264 311 357
#     4   8  15  34  60  84 115 159 199 229 273 345
#     4  12  22  44  64  86 102 154 210 268 320 356
#     4   8  17  35  52  69  99 146 200 245 288 347
#     4  12  23  35  54  84 122 150 186 239 310 358
#
# _framework density 20.09009
#
# number of rings (size 3 to 8) (size 9 to 14) (size 15 to 20)
#    0.000    2.345    1.379    2.276    3.862    2.207 
#    0.000    1.379    0.000    0.000    0.000    7.724 
#    0.000   13.241    0.000    0.000    0.000    0.000 
#
# Total GULP energy -718657.778263 kJ/mol
# GULP energy per Si atom -12390.651349 kJ/mol
# Density = 2.004436 g / cm^3
# Si number density = 20.090090 Si / 1000 Ang^3
#
#
#
# Elastic Constant Matrix: (Units=GPa)
#
#
# Indices 1 2 3 4 5 6 
#
# 1 45.2959 35.1963 26.6429 0.0000 0.0000 0.0000
# 2 35.1963 142.7211 60.8947 0.0000 0.0000 0.0000
# 3 26.6429 60.8947 130.6715 0.0000 0.0000 0.0000
# 4 0.0000 0.0000 0.0000 14.1870 0.0000 0.0000
# 5 0.0000 0.0000 0.0000 0.0000 22.8197 0.0000
# 6 0.0000 0.0000 0.0000 0.0000 0.0000 23.5984
#
#
#
# Elastic Compliance Matrix: (Units=1/GPa)
#
#
# Indices 1 2 3 4 5 6 
#
# 1 0.028308 -0.005640 -0.003144 0.000000 0.000000 0.000000
# 2 -0.005640 0.009869 -0.003449 0.000000 0.000000 0.000000
# 3 -0.003144 -0.003449 0.009901 0.000000 0.000000 0.000000
# 4 0.000000 0.000000 0.000000 0.070487 0.000000 0.000000
# 5 0.000000 0.000000 0.000000 0.000000 0.043822 0.000000
# 6 0.000000 0.000000 0.000000 0.000000 0.000000 0.042376
#
#
# Mechanical properties :
#
#
# Convention : Reuss Voigt Hill
#
# Bulk Modulus (GPa) = 42.34894 62.68402 52.51648
# Shear Modulus (GPa) = 21.08814 25.18465 23.13639
#
# Velocity S-wave (km/s) = 3.24339 3.54444 3.39725
# Velocity P-wave (km/s) = 5.92886 6.92964 6.44869
#
# Compressibility (1/GPa) = 0.02361334
#
# Stress axis : x y z
#
# Youngs Moduli (GPa) = 35.32513 101.32534 100.99841
#
# Poissons Ratio (x) = 0.57146 0.31750
# Poissons Ratio (y) = 0.19923 0.34837
# Poissons Ratio (z) = 0.11105 0.34950
#
# Static dielectric constant tensor:
#      x y z
#    x 3.397960 0.000000 0.000000 
#    y 0.000000 3.354360 0.000000 
#    z 0.000000 0.000000 4.113030 
# 
# 
# High freq. dielectric constant tensor:
#      x y z
#    x 1.759710 0.000000 0.000000 
#    y 0.000000 1.748770 0.000000 
#    z 0.000000 0.000000 1.805710 
# 
# From -- ./inp_files/13040.got.cif
#   From: 2010.03.12/outbox.cif.g09.slc.cpg/sg49_7_cif.got.tgz:13040.got - 2010.04.14 03:58:27.
