data_PCOD8204751
_publ_section_title
;
Structure prediction by ZEFSAII (Michael W. Deem and Ramdas Pophale) SiO2 
 PCOD8204751
Probable space group: P B A N
;
_chemical_formula_sum "Si O2"
_cell_formula_units_Z 36
_cell_length_a 15.084237
_cell_length_b 13.612941
_cell_length_c 8.891485
_cell_angle_alpha 90.000000
_cell_angle_beta 90.000000
_cell_angle_gamma 90.000000
_cell_volume 1825.784895
_symmetry_space_group_name_H-M "P B A N"
_symmetry_group_IT_number 50
_space_group.IT_coordinate_system_code '2'
_symmetry_cell_setting 'orthorhombic'
loop_
_space_group_symop_operation_xyz
x,y,z
1/2-x,1/2-y,z
x,1/2-y,-z
1/2-x,y,-z
-x,-y,-z
1/2+x,1/2+y,-z
-x,1/2+y,z
1/2+x,-y,z
loop_
_atom_site_type_symbol
_atom_site_label
_atom_site_fract_x
_atom_site_fract_y
_atom_site_fract_z
Si Si1 0.533076 0.085789 0.179755
Si Si2 0.250000 0.250000 0.500000
Si Si3 0.998895 0.363691 0.841116
Si Si4 0.750000 0.750000 0.000000
Si Si5 0.871076 0.808935 0.244956
Si Si6 0.852854 0.245523 0.677783
O O1 0.439331 0.102570 0.262737
O O2 0.612488 0.139388 0.266401
O O3 0.543696 0.969667 0.186075
O O4 0.525424 0.139445 0.017397
O O5 0.186351 0.185162 0.604020
O O6 0.908715 0.335745 0.751301
O O7 0.076043 0.292094 0.784681
O O8 0.807061 0.824066 0.102424
O O9 0.750000 0.250000 0.725177
O O10 0.865166 0.250000 0.500000
#
# Coordination Sequence:
#
# PCOD8204751 Si02
#       6
#     8   2   8   2   8   8
#     4  10  21  39  62  86 113 149 194 238 291 334
#     4  10  24  34  56  82 118 148 196 214 292 338
#     4  10  21  39  62  86 113 149 194 238 291 334
#     4  10  16  34  60  74 118 148 184 230 288 322
#     4  10  19  38  54  85 114 153 180 238 280 340
#     4  10  22  41  59  85 119 156 192 235 284 348
#
# _framework density 19.717548000000001
#
# number of rings (size 3 to 8) (size 9 to 14) (size 15 to 20)
#    0.000    2.000    2.222    2.000    6.222    2.667 
#    8.000    0.000    0.000    0.000    0.000    0.000 
#    0.000    0.000    0.000    0.000    0.000    0.000 
#
# Total GULP energy -446118.268321 kJ/mol
# GULP energy per Si atom -12392.174120 kJ/mol
# Density = 1.967267 g / cm^3
# Si number density = 19.717548 Si / 1000 Ang^3
#
#
#
# Elastic Constant Matrix: (Units=GPa)
#
#
# Indices 1 2 3 4 5 6 
#
# 1 142.7767 29.1228 60.7640 0.0000 0.0000 0.0000
# 2 29.1228 72.9625 21.2543 0.0000 0.0000 0.0000
# 3 60.7640 21.2543 116.1238 0.0000 0.0000 0.0000
# 4 0.0000 0.0000 0.0000 18.0858 0.0000 0.0000
# 5 0.0000 0.0000 0.0000 0.0000 70.5937 0.0000
# 6 0.0000 0.0000 0.0000 0.0000 0.0000 10.7404
#
#
#
# Elastic Compliance Matrix: (Units=1/GPa)
#
#
# Indices 1 2 3 4 5 6 
#
# 1 0.009408 -0.002452 -0.004474 0.000000 0.000000 0.000000
# 2 -0.002452 0.015117 -0.001484 0.000000 0.000000 0.000000
# 3 -0.004474 -0.001484 0.011224 0.000000 0.000000 0.000000
# 4 0.000000 0.000000 0.000000 0.055292 0.000000 0.000000
# 5 0.000000 0.000000 0.000000 0.000000 0.014166 0.000000
# 6 0.000000 0.000000 0.000000 0.000000 0.000000 0.093106
#
#
# Mechanical properties :
#
#
# Convention : Reuss Voigt Hill
#
# Bulk Modulus (GPa) = 52.82840 61.57168 57.20004
# Shear Modulus (GPa) = 22.57922 34.59879 28.58901
#
# Velocity S-wave (km/s) = 3.38765 4.19348 3.81192
# Velocity P-wave (km/s) = 6.49248 7.39876 6.96039
#
# Compressibility (1/GPa) = 0.01892921
#
# Stress axis : x y z
#
# Youngs Moduli (GPa) = 106.28948 66.15249 89.09214
#
# Poissons Ratio (x) = 0.16220 0.39862
# Poissons Ratio (y) = 0.26061 0.13219
# Poissons Ratio (z) = 0.47557 0.09816
#
# Static dielectric constant tensor:
#      x y z
#    x 3.881690 0.000000 0.000000 
#    y 0.000000 3.363160 0.000000 
#    z 0.000000 0.000000 3.760530 
# 
# 
# High freq. dielectric constant tensor:
#      x y z
#    x 1.782350 0.000000 0.000000 
#    y 0.000000 1.744280 0.000000 
#    z 0.000000 0.000000 1.777680 
# 
# From -- ./inp_files/12468.got.cif
#   From: 2010.03.12/outbox.cif.g09.slc.cpg/sg50_7_cif.got.tgz:12468.got - 2010.04.16 13:23:21.
