data_PCOD8204375
_publ_section_title
;
Structure prediction by ZEFSAII (Michael W. Deem and Ramdas Pophale) SiO2 
 PCOD8204375
Probable space group: P C C M
;
_chemical_formula_sum "Si O2"
_cell_formula_units_Z 56
_cell_length_a 11.713626
_cell_length_b 11.254814
_cell_length_c 21.164363
_cell_angle_alpha 90.000000
_cell_angle_beta 90.000000
_cell_angle_gamma 90.000000
_cell_volume 2790.197064
_symmetry_space_group_name_H-M "P C C M"
_symmetry_group_IT_number 49
_symmetry_cell_setting 'orthorhombic'
loop_
_space_group_symop_operation_xyz
x,y,z
-x,-y,z
x,-y,1/2-z
-x,y,1/2-z
-x,-y,-z
x,y,-z
-x,y,1/2+z
x,-y,1/2+z
loop_
_atom_site_type_symbol
_atom_site_label
_atom_site_fract_x
_atom_site_fract_y
_atom_site_fract_z
Si Si1 0.802125 0.187172 0.430601
Si Si2 0.394136 0.343258 0.895665
Si Si3 0.643508 0.386218 0.072027
Si Si4 0.180406 0.260481 0.659326
Si Si5 0.049321 0.623139 0.371476
Si Si6 0.743752 0.621185 0.220267
Si Si7 0.864685 0.001615 0.824394
O O1 0.823597 0.126338 0.500000
O O2 0.674114 0.240877 0.432973
O O3 0.891411 0.296608 0.425100
O O4 0.815028 0.103411 0.368805
O O5 0.359081 0.472097 0.922255
O O6 0.529219 0.324637 0.900929
O O7 0.358622 0.331143 0.822766
O O8 0.752638 0.334674 0.107103
O O9 0.655713 0.349013 0.000000
O O10 0.234118 0.278415 0.728186
O O11 0.185044 0.120992 0.644280
O O12 0.050065 0.302213 0.661654
O O13 0.141834 0.590777 0.318294
O O14 0.000000 0.500000 0.400504
O O15 0.698376 0.500000 0.250000
O O16 0.828520 0.000000 0.750000
O O17 0.000000 0.000000 0.829739
#
# Coordination Sequence:
#
# PCOD8204375 Si02
#       7
#     8   8   8   8   8   8   8
#     4  11  23  41  64  91 123 168 218 263 313 380
#     4  10  21  41  64  92 123 164 206 257 319 379
#     4  11  23  40  63  90 127 167 203 255 319 383
#     4  12  23  38  59  94 124 163 207 259 314 374
#     4  11  21  34  58  93 130 163 195 254 325 386
#     4  11  20  35  61  94 128 156 205 255 313 385
#     4  11  24  43  64  87 123 170 216 261 316 379
#
# _framework density 20.070267999999999
#
# number of rings (size 3 to 8) (size 9 to 14) (size 15 to 20)
#    0.000    1.000    4.286    4.714    2.000    2.286 
#    0.000    0.714    0.000    2.571    0.000    0.000 
#    0.000    0.000    0.000    0.000    0.000    0.000 
#
# Total GULP energy -694268.870447 kJ/mol
# GULP energy per Si atom -12397.658401 kJ/mol
# Density = 2.002459 g / cm^3
# Si number density = 20.070268 Si / 1000 Ang^3
#
#
#
# Elastic Constant Matrix: (Units=GPa)
#
#
# Indices 1 2 3 4 5 6 
#
# 1 53.6622 5.9729 37.1311 0.0000 0.0000 0.0000
# 2 5.9729 80.9905 19.8185 0.0000 0.0000 0.0000
# 3 37.1311 19.8185 124.1100 0.0000 0.0000 0.0000
# 4 0.0000 0.0000 0.0000 15.2905 0.0000 0.0000
# 5 0.0000 0.0000 0.0000 0.0000 1.2692 0.0000
# 6 0.0000 0.0000 0.0000 0.0000 0.0000 20.8755
#
#
#
# Elastic Compliance Matrix: (Units=1/GPa)
#
#
# Indices 1 2 3 4 5 6 
#
# 1 0.023500 -0.000013 -0.007029 0.000000 0.000000 0.000000
# 2 -0.000013 0.012849 -0.002048 0.000000 0.000000 0.000000
# 3 -0.007029 -0.002048 0.010487 0.000000 0.000000 0.000000
# 4 0.000000 0.000000 0.000000 0.065400 0.000000 0.000000
# 5 0.000000 0.000000 0.000000 0.000000 0.787913 0.000000
# 6 0.000000 0.000000 0.000000 0.000000 0.000000 0.047903
#
#
# Mechanical properties :
#
#
# Convention : Reuss Voigt Hill
#
# Bulk Modulus (GPa) = 34.89541 42.73419 38.81480
# Shear Modulus (GPa) = 5.12408 20.54303 12.83356
#
# Velocity S-wave (km/s) = 1.59957 3.20278 2.53144
# Velocity P-wave (km/s) = 4.56463 5.91739 5.28448
#
# Compressibility (1/GPa) = 0.02865707
#
# Stress axis : x y z
#
# Youngs Moduli (GPa) = 42.55335 77.82570 95.35436
#
# Poissons Ratio (x) = 0.00102 0.67021
# Poissons Ratio (y) = 0.00056 0.19528
# Poissons Ratio (z) = 0.29909 0.15938
#
# Static dielectric constant tensor:
#      x y z
#    x 3.686910 0.000000 0.000000 
#    y 0.000000 3.645830 0.000000 
#    z 0.000000 0.000000 3.775700 
# 
# 
# High freq. dielectric constant tensor:
#      x y z
#    x 1.775420 0.000000 0.000000 
#    y 0.000000 1.769720 0.000000 
#    z 0.000000 0.000000 1.786180 
# 
# From -- ./inp_files/20494.got.cif
#   From: 2010.03.12/outbox.cif.g09.slc.cpg/sg49_11_cif.got.tgz:20494.got - 2010.04.14 03:58:27.
