data_PCOD8204185
_publ_section_title
;
Structure prediction by ZEFSAII (Michael W. Deem and Ramdas Pophale) SiO2 
 PCOD8204185
Probable space group: P C C M
;
_chemical_formula_sum "Si O2"
_cell_formula_units_Z 58
_cell_length_a 8.473429
_cell_length_b 19.372086
_cell_length_c 17.078821
_cell_angle_alpha 90.000000
_cell_angle_beta 90.000000
_cell_angle_gamma 90.000000
_cell_volume 2803.454229
_symmetry_space_group_name_H-M "P C C M"
_symmetry_group_IT_number 49
_symmetry_cell_setting 'orthorhombic'
loop_
_space_group_symop_operation_xyz
x,y,z
-x,-y,z
x,-y,1/2-z
-x,y,1/2-z
-x,-y,-z
x,y,-z
-x,y,1/2+z
x,-y,1/2+z
loop_
_atom_site_type_symbol
_atom_site_label
_atom_site_fract_x
_atom_site_fract_y
_atom_site_fract_z
Si Si1 0.743472 0.815017 0.836314
Si Si2 0.510437 0.082405 0.411496
Si Si3 0.408354 0.674377 0.326347
Si Si4 0.942156 0.225986 0.910665
Si Si5 0.793895 0.112278 0.822506
Si Si6 0.000000 0.000000 0.750000
Si Si7 0.287372 0.348825 0.590816
Si Si8 0.185374 0.421817 0.742366
O O1 0.675812 0.881045 0.885868
O O2 0.612689 0.756829 0.825391
O O3 0.809350 0.842049 0.754709
O O4 0.884668 0.770634 0.873796
O O5 0.471639 0.107756 0.500000
O O6 0.387332 0.104176 0.345370
O O7 0.500000 0.000000 0.410354
O O8 0.500000 0.651299 0.250000
O O9 0.521970 0.660591 0.401139
O O10 0.253497 0.626156 0.314294
O O11 0.878111 0.149417 0.894763
O O12 0.811440 0.280907 0.881547
O O13 0.971787 0.239111 0.000000
O O14 0.885737 0.041469 0.808087
O O15 0.252169 0.368720 0.500000
O O16 0.232509 0.405536 0.652590
O O17 0.244568 0.500000 0.750000
O O18 0.000000 0.414447 0.750000
#
# Coordination Sequence:
#
# PCOD8204185 Si02
#       8
#     8   8   8   8   8   2   8   8
#     4  12  22  40  63  90 120 159 214 265 321 394
#     4  11  25  42  60  85 117 158 204 262 333 400
#     4  10  21  36  62  92 122 165 211 262 321 386
#     4  11  23  39  61  89 123 161 204 264 327 385
#     4  12  23  40  60  85 114 155 202 258 317 384
#     4  12  24  40  60  88 116 152 214 264 320 392
#     4  10  22  40  63  95 132 168 214 272 329 384
#     4  10  21  41  66  95 132 177 221 265 320 394
#
# _framework density 20.688762000000001
#
# number of rings (size 3 to 8) (size 9 to 14) (size 15 to 20)
#    0.000    1.103    1.379    6.207    0.000    5.241 
#    0.000    4.138    0.000    0.000    0.000    0.000 
#    0.000    0.000    0.000    0.000    0.000    0.000 
#
# Total GULP energy -718639.891971 kJ/mol
# GULP energy per Si atom -12390.342965 kJ/mol
# Density = 2.064167 g / cm^3
# Si number density = 20.688762 Si / 1000 Ang^3
#
#
#
# Elastic Constant Matrix: (Units=GPa)
#
#
# Indices 1 2 3 4 5 6 
#
# 1 100.0012 39.9870 39.6586 0.0000 0.0000 0.0000
# 2 39.9870 118.2928 43.2755 0.0000 0.0000 0.0000
# 3 39.6586 43.2755 93.5353 0.0000 0.0000 0.0000
# 4 0.0000 0.0000 0.0000 27.6056 0.0000 0.0000
# 5 0.0000 0.0000 0.0000 0.0000 26.7622 0.0000
# 6 0.0000 0.0000 0.0000 0.0000 0.0000 30.3096
#
#
#
# Elastic Compliance Matrix: (Units=1/GPa)
#
#
# Indices 1 2 3 4 5 6 
#
# 1 0.012752 -0.002808 -0.004108 0.000000 0.000000 0.000000
# 2 -0.002808 0.010794 -0.003804 0.000000 0.000000 0.000000
# 3 -0.004108 -0.003804 0.014193 0.000000 0.000000 0.000000
# 4 0.000000 0.000000 0.000000 0.036224 0.000000 0.000000
# 5 0.000000 0.000000 0.000000 0.000000 0.037366 0.000000
# 6 0.000000 0.000000 0.000000 0.000000 0.000000 0.032993
#
#
# Mechanical properties :
#
#
# Convention : Reuss Voigt Hill
#
# Bulk Modulus (GPa) = 61.34810 61.96351 61.65580
# Shear Modulus (GPa) = 29.20677 29.52937 29.36807
#
# Velocity S-wave (km/s) = 3.76136 3.78208 3.77174
# Velocity P-wave (km/s) = 6.97001 7.00625 6.98815
#
# Compressibility (1/GPa) = 0.01630042
#
# Stress axis : x y z
#
# Youngs Moduli (GPa) = 78.42157 92.64212 70.45963
#
# Poissons Ratio (x) = 0.26012 0.28942
# Poissons Ratio (y) = 0.22019 0.26800
# Poissons Ratio (z) = 0.32212 0.35237
#
# Static dielectric constant tensor:
#      x y z
#    x 4.221110 0.000000 0.000000 
#    y 0.000000 3.722200 0.000000 
#    z 0.000000 0.000000 3.758580 
# 
# 
# High freq. dielectric constant tensor:
#      x y z
#    x 1.823700 0.000000 0.000000 
#    y 0.000000 1.804580 0.000000 
#    z 0.000000 0.000000 1.803650 
# 
# From -- ./inp_files/16492.got.cif
#   From: 2010.03.12/outbox.cif.g09.slc.cpg/sg49_9_cif.got.tgz:16492.got - 2010.04.14 03:58:27.
