data_PCOD8204933
_publ_section_title
;
Structure prediction by ZEFSAII (Michael W. Deem and Ramdas Pophale) SiO2 
 PCOD8204933
Probable space group: P B A N
;
_chemical_formula_sum "Si O2"
_cell_formula_units_Z 64
_cell_length_a 24.970509
_cell_length_b 14.219715
_cell_length_c 8.656324
_cell_angle_alpha 90.000000
_cell_angle_beta 90.000000
_cell_angle_gamma 90.000000
_cell_volume 3073.631445
_symmetry_space_group_name_H-M "P B A N"
_symmetry_group_IT_number 50
_space_group.IT_coordinate_system_code '2'
_symmetry_cell_setting 'orthorhombic'
loop_
_space_group_symop_operation_xyz
x,y,z
1/2-x,1/2-y,z
x,1/2-y,-z
1/2-x,y,-z
-x,-y,-z
1/2+x,1/2+y,-z
-x,1/2+y,z
1/2+x,-y,z
loop_
_atom_site_type_symbol
_atom_site_label
_atom_site_fract_x
_atom_site_fract_y
_atom_site_fract_z
Si Si1 0.196747 0.212582 0.827022
Si Si2 0.349481 0.908648 0.334822
Si Si3 0.157747 0.540044 0.690814
Si Si4 0.553525 0.957553 0.686677
Si Si5 0.812148 0.264661 0.179678
Si Si6 0.052310 0.432027 0.674699
Si Si7 0.579889 0.760096 0.817118
Si Si8 0.239005 0.012893 0.826414
O O1 0.250000 0.250000 0.737492
O O2 0.140838 0.242535 0.748848
O O3 0.199491 0.100965 0.828125
O O4 0.198493 0.250000 0.000000
O O5 0.344839 0.924356 0.516308
O O6 0.353139 0.799111 0.284655
O O7 0.398099 0.971898 0.269724
O O8 0.292939 0.931053 0.256425
O O9 0.168814 0.628969 0.797266
O O10 0.103939 0.486225 0.741431
O O11 0.206578 0.467759 0.728260
O O12 0.555216 0.927621 0.508999
O O13 0.553866 0.860919 0.782002
O O14 0.499481 0.011660 0.731314
O O15 0.750000 0.250000 0.227904
O O16 0.821742 0.250000 0.000000
O O17 0.048251 0.325494 0.737981
O O18 0.579919 0.750000 0.000000
O O19 0.250000 0.979281 0.000000
#
# Coordination Sequence:
#
# PCOD8204933 Si02
#       8
#     8   8   8   8   8   8   8   8
#     4  10  19  34  55  88 124 165 202 235 299 369
#     4  11  23  40  63  91 124 164 210 261 310 364
#     4  11  24  39  63  93 126 162 212 261 310 366
#     4  10  23  46  67  90 124 168 213 253 312 373
#     4  11  23  40  61  89 125 168 208 255 317 376
#     4  10  24  44  68  91 123 169 210 256 311 374
#     4  11  23  39  65  95 129 161 205 262 311 361
#     4  12  21  35  61  89 128 165 200 251 306 377
#
# _framework density 20.822275000000001
#
# number of rings (size 3 to 8) (size 9 to 14) (size 15 to 20)
#    0.000    1.250    3.750    2.625    1.750    3.000 
#    0.000    5.000    0.000    0.000    0.000    0.000 
#    0.000    0.000    0.000    0.000    0.000    0.000 
#
# Total GULP energy -793433.061169 kJ/mol
# GULP energy per Si atom -12397.391581 kJ/mol
# Density = 2.077488 g / cm^3
# Si number density = 20.822275 Si / 1000 Ang^3
#
#
#
# Elastic Constant Matrix: (Units=GPa)
#
#
# Indices 1 2 3 4 5 6 
#
# 1 136.0962 53.3622 31.5813 0.0000 0.0000 0.0000
# 2 53.3622 128.2566 32.4442 0.0000 0.0000 0.0000
# 3 31.5813 32.4442 60.5026 0.0000 0.0000 0.0000
# 4 0.0000 0.0000 0.0000 33.8887 0.0000 0.0000
# 5 0.0000 0.0000 0.0000 0.0000 19.6293 0.0000
# 6 0.0000 0.0000 0.0000 0.0000 0.0000 28.5751
#
#
#
# Elastic Compliance Matrix: (Units=1/GPa)
#
#
# Indices 1 2 3 4 5 6 
#
# 1 0.009290 -0.003053 -0.003212 0.000000 0.000000 0.000000
# 2 -0.003053 0.010024 -0.003782 0.000000 0.000000 0.000000
# 3 -0.003212 -0.003782 0.020233 0.000000 0.000000 0.000000
# 4 0.000000 0.000000 0.000000 0.029508 0.000000 0.000000
# 5 0.000000 0.000000 0.000000 0.000000 0.050944 0.000000
# 6 0.000000 0.000000 0.000000 0.000000 0.000000 0.034996
#
#
# Mechanical properties :
#
#
# Convention : Reuss Voigt Hill
#
# Bulk Modulus (GPa) = 51.40508 62.18121 56.79314
# Shear Modulus (GPa) = 27.53723 30.24978 28.89350
#
# Velocity S-wave (km/s) = 3.64055 3.81564 3.72912
# Velocity P-wave (km/s) = 6.51250 7.02423 6.77320
#
# Compressibility (1/GPa) = 0.01945333
#
# Stress axis : x y z
#
# Youngs Moduli (GPa) = 107.64187 99.76487 49.42450
#
# Poissons Ratio (x) = 0.30454 0.15877
# Poissons Ratio (y) = 0.32859 0.18691
# Poissons Ratio (z) = 0.34578 0.37728
#
# Static dielectric constant tensor:
#      x y z
#    x 4.133700 0.000000 0.000000 
#    y 0.000000 3.876140 0.000000 
#    z 0.000000 0.000000 3.619390 
# 
# 
# High freq. dielectric constant tensor:
#      x y z
#    x 1.812430 0.000000 0.000000 
#    y 0.000000 1.832130 0.000000 
#    z 0.000000 0.000000 1.798680 
# 
# From -- ./inp_files/16131.got.cif
#   From: 2010.03.12/outbox.cif.g09.slc.cpg/sg50_9_cif.got.tgz:16131.got - 2010.04.16 13:23:21.
