data_PCOD8204435
_publ_section_title
;
Structure prediction by ZEFSAII (Michael W. Deem and Ramdas Pophale) SiO2 
 PCOD8204435
Probable space group: P C C M
;
_chemical_formula_sum "Si O2"
_cell_formula_units_Z 48
_cell_length_a 9.713302
_cell_length_b 8.633244
_cell_length_c 28.496182
_cell_angle_alpha 90.000000
_cell_angle_beta 90.000000
_cell_angle_gamma 90.000000
_cell_volume 2389.613060
_symmetry_space_group_name_H-M "P C C M"
_symmetry_group_IT_number 49
_symmetry_cell_setting 'orthorhombic'
loop_
_space_group_symop_operation_xyz
x,y,z
-x,-y,z
x,-y,1/2-z
-x,y,1/2-z
-x,-y,-z
x,y,-z
-x,y,1/2+z
x,-y,1/2+z
loop_
_atom_site_type_symbol
_atom_site_label
_atom_site_fract_x
_atom_site_fract_y
_atom_site_fract_z
Si Si1 0.028517 0.674503 0.054082
Si Si2 0.518873 0.754800 0.700201
Si Si3 0.537481 0.664744 0.102868
Si Si4 0.695040 0.840046 0.446447
Si Si5 0.273210 0.004192 0.199065
Si Si6 0.198448 0.861049 0.603074
O O1 0.190017 0.707420 0.060373
O O2 0.000000 0.500000 0.070918
O O3 0.948335 0.795974 0.086980
O O4 0.982080 0.697854 0.000000
O O5 0.500000 0.665353 0.750000
O O6 0.490242 0.638388 0.657983
O O7 0.405804 0.888766 0.702675
O O8 0.669934 0.830083 0.690260
O O9 0.500000 0.500000 0.078030
O O10 0.440153 0.799885 0.083191
O O11 0.694739 0.718400 0.097083
O O12 0.648257 0.851454 0.500000
O O13 0.754028 0.004582 0.431442
O O14 0.181284 0.069484 0.155955
O O15 0.194274 0.000000 0.250000
#
# Coordination Sequence:
#
# PCOD8204435 Si02
#       6
#     8   8   8   8   8   8
#     4  10  22  40  59  81 112 151 190 232 287 345
#     4   8  14  28  49  76 110 143 177 221 273 329
#     4  11  22  34  52  84 118 147 181 229 288 332
#     4  11  23  38  57  81 111 148 190 233 275 331
#     4   8  14  27  51  81 106 137 178 230 275 322
#     4  11  20  35  59  84 109 147 191 237 275 334
#
# _framework density 20.086932999999998
#
# number of rings (size 3 to 8) (size 9 to 14) (size 15 to 20)
#    0.000    2.167    1.667    3.500    0.000    4.000 
#    0.000    0.000    0.000    2.000    0.000    1.167 
#    0.000    0.000    0.000    0.000    0.000    0.000 
#
# Total GULP energy -594866.562411 kJ/mol
# GULP energy per Si atom -12393.053384 kJ/mol
# Density = 2.004121 g / cm^3
# Si number density = 20.086933 Si / 1000 Ang^3
#
#
#
# Elastic Constant Matrix: (Units=GPa)
#
#
# Indices 1 2 3 4 5 6 
#
# 1 39.8931 -3.3524 24.9115 0.0000 0.0000 0.0000
# 2 -3.3524 61.8110 7.9613 0.0000 0.0000 0.0000
# 3 24.9115 7.9613 109.3247 0.0000 0.0000 0.0000
# 4 0.0000 0.0000 0.0000 16.5076 0.0000 0.0000
# 5 0.0000 0.0000 0.0000 0.0000 24.4223 0.0000
# 6 0.0000 0.0000 0.0000 0.0000 0.0000 22.4732
#
#
#
# Elastic Compliance Matrix: (Units=1/GPa)
#
#
# Indices 1 2 3 4 5 6 
#
# 1 0.029603 0.002498 -0.006927 0.000000 0.000000 0.000000
# 2 0.002498 0.016542 -0.001774 0.000000 0.000000 0.000000
# 3 -0.006927 -0.001774 0.010855 0.000000 0.000000 0.000000
# 4 0.000000 0.000000 0.000000 0.060578 0.000000 0.000000
# 5 0.000000 0.000000 0.000000 0.000000 0.040946 0.000000
# 6 0.000000 0.000000 0.000000 0.000000 0.000000 0.044497
#
#
# Mechanical properties :
#
#
# Convention : Reuss Voigt Hill
#
# Bulk Modulus (GPa) = 22.42505 30.00774 26.21639
# Shear Modulus (GPa) = 21.71149 24.78118 23.24633
#
# Velocity S-wave (km/s) = 3.29123 3.51621 3.40558
# Velocity P-wave (km/s) = 5.06273 5.60860 5.34264
#
# Compressibility (1/GPa) = 0.04459299
#
# Stress axis : x y z
#
# Youngs Moduli (GPa) = 33.78063 60.45111 92.12550
#
# Poissons Ratio (x) = -0.15099 0.63819
# Poissons Ratio (y) = -0.08438 0.16341
# Poissons Ratio (z) = 0.23401 0.10723
#
# Static dielectric constant tensor:
#      x y z
#    x 3.315800 0.000000 0.000000 
#    y 0.000000 3.446560 0.000000 
#    z 0.000000 0.000000 4.098190 
# 
# 
# High freq. dielectric constant tensor:
#      x y z
#    x 1.751680 0.000000 0.000000 
#    y 0.000000 1.776190 0.000000 
#    z 0.000000 0.000000 1.792870 
# 
# From -- ./inp_files/26265.got.cif
#   From: 2010.03.12/outbox.cif.g09.slc.cpg/sg49_14_cif.got.tgz:26265.got - 2010.04.14 03:58:27.
