data_PCOD8204612
_publ_section_title
;
Structure prediction by ZEFSAII (Michael W. Deem and Ramdas Pophale) SiO2 
 PCOD8204612
Probable space group: P C C M
;
_chemical_formula_sum "Si O2"
_cell_formula_units_Z 64
_cell_length_a 10.885065
_cell_length_b 16.094070
_cell_length_c 18.384834
_cell_angle_alpha 90.000000
_cell_angle_beta 90.000000
_cell_angle_gamma 90.000000
_cell_volume 3220.747109
_symmetry_space_group_name_H-M "P C C M"
_symmetry_group_IT_number 49
_symmetry_cell_setting 'orthorhombic'
loop_
_space_group_symop_operation_xyz
x,y,z
-x,-y,z
x,-y,1/2-z
-x,y,1/2-z
-x,-y,-z
x,y,-z
-x,y,1/2+z
x,-y,1/2+z
loop_
_atom_site_type_symbol
_atom_site_label
_atom_site_fract_x
_atom_site_fract_y
_atom_site_fract_z
Si Si1 0.875861 0.953495 0.586934
Si Si2 0.864380 0.767197 0.585522
Si Si3 0.100118 0.327244 0.916564
Si Si4 0.458421 0.629467 0.330744
Si Si5 0.658423 0.227756 0.582499
Si Si6 0.784792 0.525989 0.169217
Si Si7 0.698654 0.620384 0.585312
Si Si8 0.627415 0.961051 0.086063
O O1 0.877280 0.954489 0.500000
O O2 0.868172 0.859598 0.618994
O O3 0.750954 0.995697 0.616992
O O4 0.000000 0.000000 0.615417
O O5 0.879638 0.776804 0.500000
O O6 0.740637 0.715151 0.604318
O O7 0.977104 0.713080 0.615107
O O8 0.199836 0.253708 0.912818
O O9 0.127284 0.403881 0.863554
O O10 0.087846 0.359152 0.000000
O O11 0.500000 0.648186 0.250000
O O12 0.418699 0.716484 0.363696
O O13 0.354166 0.559863 0.330725
O O14 0.569794 0.596995 0.379206
O O15 0.609383 0.239417 0.500000
O O16 0.637918 0.134387 0.609219
O O17 0.826790 0.500000 0.250000
O O18 0.795966 0.445271 0.117907
O O19 0.690751 0.606185 0.500000
O O20 0.500000 0.000000 0.117879
O O21 0.626547 0.971630 0.000000
#
# Coordination Sequence:
#
# PCOD8204612 Si02
#       8
#     8   8   8   8   8   8   8   8
#     4   9  16  28  50  79 115 155 188 227 291 352
#     4   9  19  34  53  83 119 149 185 239 288 338
#     4   9  18  35  57  80 112 149 190 236 283 338
#     4  11  22  37  58  78 111 150 187 237 289 342
#     4   9  18  32  54  82 110 146 191 232 279 343
#     4  11  22  38  58  79 112 147 193 241 286 340
#     4  11  23  36  57  85 114 148 189 236 291 343
#     4   9  17  27  45  78 116 146 180 237 292 334
#
# _framework density 19.871165000000001
#
# number of rings (size 3 to 8) (size 9 to 14) (size 15 to 20)
#    0.000    2.250    1.250    1.875    1.750    5.500 
#    0.000    3.125    0.000    0.375    0.000    0.000 
#    0.000    0.000    0.000    0.000    0.000    0.000 
#
# Total GULP energy -793375.336235 kJ/mol
# GULP energy per Si atom -12396.489629 kJ/mol
# Density = 1.982594 g / cm^3
# Si number density = 19.871165 Si / 1000 Ang^3
#
#
#
# Elastic Constant Matrix: (Units=GPa)
#
#
# Indices 1 2 3 4 5 6 
#
# 1 87.3997 36.5304 22.5158 0.0000 0.0000 0.0000
# 2 36.5304 137.8596 45.0567 0.0000 0.0000 0.0000
# 3 22.5158 45.0567 78.2596 0.0000 0.0000 0.0000
# 4 0.0000 0.0000 0.0000 13.3721 0.0000 0.0000
# 5 0.0000 0.0000 0.0000 0.0000 28.2155 0.0000
# 6 0.0000 0.0000 0.0000 0.0000 0.0000 21.0624
#
#
#
# Elastic Compliance Matrix: (Units=1/GPa)
#
#
# Indices 1 2 3 4 5 6 
#
# 1 0.013165 -0.002772 -0.002192 0.000000 0.000000 0.000000
# 2 -0.002772 0.009519 -0.004683 0.000000 0.000000 0.000000
# 3 -0.002192 -0.004683 0.016105 0.000000 0.000000 0.000000
# 4 0.000000 0.000000 0.000000 0.074783 0.000000 0.000000
# 5 0.000000 0.000000 0.000000 0.000000 0.035441 0.000000
# 6 0.000000 0.000000 0.000000 0.000000 0.000000 0.047478
#
#
# Mechanical properties :
#
#
# Convention : Reuss Voigt Hill
#
# Bulk Modulus (GPa) = 51.29450 56.85829 54.07640
# Shear Modulus (GPa) = 22.49397 25.82441 24.15919
#
# Velocity S-wave (km/s) = 3.36816 3.60890 3.49060
# Velocity P-wave (km/s) = 6.40278 6.78536 6.59684
#
# Compressibility (1/GPa) = 0.01949527
#
# Stress axis : x y z
#
# Youngs Moduli (GPa) = 75.95911 105.05532 62.09440
#
# Poissons Ratio (x) = 0.29124 0.13609
# Poissons Ratio (y) = 0.21057 0.29077
# Poissons Ratio (z) = 0.16647 0.49194
#
# Static dielectric constant tensor:
#      x y z
#    x 3.720830 0.000000 0.000000 
#    y 0.000000 3.828820 0.000000 
#    z 0.000000 0.000000 3.174500 
# 
# 
# High freq. dielectric constant tensor:
#      x y z
#    x 1.781960 0.000000 0.000000 
#    y 0.000000 1.788430 0.000000 
#    z 0.000000 0.000000 1.725950 
# 
# From -- ./inp_files/17275.got.cif
#   From: 2010.03.12/outbox.cif.g09.slc.cpg/sg49_9_cif.got.tgz:17275.got - 2010.04.14 03:58:27.
