data_PCOD8204052
_publ_section_title
;
Structure prediction by ZEFSAII (Michael W. Deem and Ramdas Pophale) SiO2 
 PCOD8204052
Probable space group: P C C M
;
_chemical_formula_sum "Si O2"
_cell_formula_units_Z 64
_cell_length_a 13.295114
_cell_length_b 12.729354
_cell_length_c 18.134251
_cell_angle_alpha 90.000000
_cell_angle_beta 90.000000
_cell_angle_gamma 90.000000
_cell_volume 3069.008226
_symmetry_space_group_name_H-M "P C C M"
_symmetry_group_IT_number 49
_symmetry_cell_setting 'orthorhombic'
loop_
_space_group_symop_operation_xyz
x,y,z
-x,-y,z
x,-y,1/2-z
-x,y,1/2-z
-x,-y,-z
x,y,-z
-x,y,1/2+z
x,-y,1/2+z
loop_
_atom_site_type_symbol
_atom_site_label
_atom_site_fract_x
_atom_site_fract_y
_atom_site_fract_z
Si Si1 0.042846 0.640726 0.833312
Si Si2 0.351822 0.059153 0.322468
Si Si3 0.502198 0.231911 0.664761
Si Si4 0.366230 0.410951 0.311264
Si Si5 0.155064 0.721762 0.381644
Si Si6 0.320329 0.137225 0.919220
Si Si7 0.803391 0.505521 0.413974
Si Si8 0.217010 0.762067 0.222630
O O1 0.093872 0.534736 0.868088
O O2 0.135286 0.722367 0.835998
O O3 0.000000 0.617155 0.750000
O O4 0.963101 0.692836 0.890424
O O5 0.428586 0.138706 0.364762
O O6 0.252479 0.122055 0.298009
O O7 0.397023 0.000000 0.250000
O O8 0.316379 0.975891 0.382522
O O9 0.500000 0.205305 0.750000
O O10 0.465855 0.354202 0.653839
O O11 0.611546 0.218320 0.628429
O O12 0.391585 0.500000 0.250000
O O13 0.297012 0.445719 0.378919
O O14 0.311202 0.316580 0.268387
O O15 0.206866 0.815266 0.427969
O O16 0.214894 0.617563 0.404236
O O17 0.161576 0.763275 0.299359
O O18 0.367828 0.125574 0.000000
O O19 0.812530 0.538190 0.500000
#
# Coordination Sequence:
#
# PCOD8204052 Si02
#       8
#     8   8   8   8   8   8   8   8
#     4   9  21  37  64  94 124 164 213 260 306 367
#     4  11  20  39  67  86 118 156 205 260 309 377
#     4  11  23  39  63  95 118 158 212 261 306 374
#     4  10  20  38  62  88 125 162 208 253 307 365
#     4  11  20  38  60  85 130 163 207 258 307 368
#     4  12  26  41  62  93 126 165 207 264 332 377
#     4  11  23  37  59  92 128 169 206 249 314 375
#     4   9  18  36  63  96 113 156 212 258 298 368
#
# _framework density 20.853643000000002
#
# number of rings (size 3 to 8) (size 9 to 14) (size 15 to 20)
#    0.000    1.500    3.750    1.875    0.000    4.750 
#    0.000    5.625    0.000    2.250    0.000    0.000 
#    0.000    0.000    0.000    0.000    0.000    0.000 
#
# Total GULP energy -792877.295787 kJ/mol
# GULP energy per Si atom -12388.707747 kJ/mol
# Density = 2.080618 g / cm^3
# Si number density = 20.853643 Si / 1000 Ang^3
#
#
#
# Elastic Constant Matrix: (Units=GPa)
#
#
# Indices 1 2 3 4 5 6 
#
# 1 61.1988 42.6115 14.4095 0.0000 0.0000 0.0000
# 2 42.6115 119.3656 33.7275 0.0000 0.0000 0.0000
# 3 14.4095 33.7275 101.9478 0.0000 0.0000 0.0000
# 4 0.0000 0.0000 0.0000 -2.9469 0.0000 0.0000
# 5 0.0000 0.0000 0.0000 0.0000 12.7524 0.0000
# 6 0.0000 0.0000 0.0000 0.0000 0.0000 23.6983
#
#
#
# Elastic Compliance Matrix: (Units=1/GPa)
#
#
# Indices 1 2 3 4 5 6 
#
# 1 0.021774 -0.007615 -0.000558 0.000000 0.000000 0.000000
# 2 -0.007615 0.011905 -0.002862 0.000000 0.000000 0.000000
# 3 -0.000558 -0.002862 0.010835 0.000000 0.000000 0.000000
# 4 0.000000 0.000000 0.000000 -0.339342 0.000000 0.000000
# 5 0.000000 0.000000 0.000000 0.000000 0.078417 0.000000
# 6 0.000000 0.000000 0.000000 0.000000 0.000000 0.042197
#
#
# Mechanical properties :
#
#
# Convention : Reuss Voigt Hill
#
# Bulk Modulus (GPa) = 44.55860 51.55658 48.05759
# Shear Modulus (GPa) = -34.56302 19.48501 -7.53901
#
# Velocity S-wave (km/s) = -4.07555 3.06006 -1.90343
# Velocity P-wave (km/s) = 0.85620 6.10426 4.27370
#
# Compressibility (1/GPa) = 0.02244236
#
# Stress axis : x y z
#
# Youngs Moduli (GPa) = 45.92650 83.99950 92.29584
#
# Poissons Ratio (x) = 0.63967 0.05152
# Poissons Ratio (y) = 0.34974 0.26416
# Poissons Ratio (z) = 0.02564 0.24042
#
# Static dielectric constant tensor:
#      x y z
#    x 4.112330 0.000000 0.000000 
#    y 0.000000 3.966320 0.000000 
#    z 0.000000 0.000000 3.549760 
# 
# 
# High freq. dielectric constant tensor:
#      x y z
#    x 1.818660 0.000000 0.000000 
#    y 0.000000 1.818890 0.000000 
#    z 0.000000 0.000000 1.787050 
# 
# From -- ./inp_files/17940.got.cif
#   From: 2010.03.12/outbox.cif.g09.slc.cpg/sg49_9_cif.got.tgz:17940.got - 2010.04.14 03:58:27.
