data_PCOD8204377
_publ_section_title
;
Structure prediction by ZEFSAII (Michael W. Deem and Ramdas Pophale) SiO2 
 PCOD8204377
Probable space group: P C C M
;
_chemical_formula_sum "Si O2"
_cell_formula_units_Z 48
_cell_length_a 7.527264
_cell_length_b 11.028412
_cell_length_c 27.969370
_cell_angle_alpha 90.000000
_cell_angle_beta 90.000000
_cell_angle_gamma 90.000000
_cell_volume 2321.842810
_symmetry_space_group_name_H-M "P C C M"
_symmetry_group_IT_number 49
_symmetry_cell_setting 'orthorhombic'
loop_
_space_group_symop_operation_xyz
x,y,z
-x,-y,z
x,-y,1/2-z
-x,y,1/2-z
-x,-y,-z
x,y,-z
-x,y,1/2+z
x,-y,1/2+z
loop_
_atom_site_type_symbol
_atom_site_label
_atom_site_fract_x
_atom_site_fract_y
_atom_site_fract_z
Si Si1 0.574397 0.133252 0.395362
Si Si2 0.709513 0.491015 0.445431
Si Si3 0.187337 0.848858 0.801295
Si Si4 0.883569 0.234886 0.444867
Si Si5 0.237834 0.269933 0.604051
Si Si6 0.778554 0.869167 0.803836
O O1 0.738541 0.131920 0.432526
O O2 0.419875 0.217409 0.418704
O O3 0.650675 0.187068 0.344544
O O4 0.500000 0.000000 0.388054
O O5 0.500000 0.500000 0.439394
O O6 0.764592 0.522646 0.500000
O O7 0.791602 0.362576 0.430404
O O8 0.791713 0.589909 0.409475
O O9 0.271332 0.756869 0.839714
O O10 0.282249 0.830625 0.749678
O O11 0.978954 0.820603 0.804379
O O12 0.224290 0.987745 0.814552
O O13 0.935293 0.230299 0.500000
O O14 0.060581 0.203441 0.414911
#
# Coordination Sequence:
#
# PCOD8204377 Si02
#       6
#     8   8   8   8   8   8
#     4  12  24  38  63  93 132 166 212 255 314 380
#     4  10  21  41  67  92 117 156 216 270 316 375
#     4   9  18  34  64  88 121 163 207 252 310 366
#     4  11  25  44  64  89 125 167 215 267 318 378
#     4  12  22  37  65  95 121 163 208 264 317 373
#     4   9  18  37  57  90 126 163 204 252 301 375
#
# _framework density 20.673234999999998
#
# number of rings (size 3 to 8) (size 9 to 14) (size 15 to 20)
#    0.000    1.500    5.000    2.000    0.000    3.667 
#    0.000    0.833    0.000    1.000    0.000    0.000 
#    0.000    0.000    0.000    0.000    0.000    0.000 
#
# Total GULP energy -594793.842424 kJ/mol
# GULP energy per Si atom -12391.538384 kJ/mol
# Density = 2.062618 g / cm^3
# Si number density = 20.673235 Si / 1000 Ang^3
#
#
#
# Elastic Constant Matrix: (Units=GPa)
#
#
# Indices 1 2 3 4 5 6 
#
# 1 123.2487 18.9529 29.3251 0.0000 0.0000 0.0000
# 2 18.9529 38.3024 35.6610 0.0000 0.0000 0.0000
# 3 29.3251 35.6610 96.7265 0.0000 0.0000 0.0000
# 4 0.0000 0.0000 0.0000 32.5831 0.0000 0.0000
# 5 0.0000 0.0000 0.0000 0.0000 23.9976 0.0000
# 6 0.0000 0.0000 0.0000 0.0000 0.0000 27.9579
#
#
#
# Elastic Compliance Matrix: (Units=1/GPa)
#
#
# Indices 1 2 3 4 5 6 
#
# 1 0.008951 -0.002897 -0.001646 0.000000 0.000000 0.000000
# 2 -0.002897 0.040691 -0.014124 0.000000 0.000000 0.000000
# 3 -0.001646 -0.014124 0.016044 0.000000 0.000000 0.000000
# 4 0.000000 0.000000 0.000000 0.030691 0.000000 0.000000
# 5 0.000000 0.000000 0.000000 0.000000 0.041671 0.000000
# 6 0.000000 0.000000 0.000000 0.000000 0.000000 0.035768
#
#
# Mechanical properties :
#
#
# Convention : Reuss Voigt Hill
#
# Bulk Modulus (GPa) = 35.26848 47.35064 41.30956
# Shear Modulus (GPa) = 22.66545 28.53026 25.59786
#
# Velocity S-wave (km/s) = 3.31474 3.71894 3.52264
# Velocity P-wave (km/s) = 5.63444 6.43388 6.04739
#
# Compressibility (1/GPa) = 0.02835393
#
# Stress axis : x y z
#
# Youngs Moduli (GPa) = 111.72308 24.57530 62.32678
#
# Poissons Ratio (x) = 0.07119 0.10257
# Poissons Ratio (y) = 0.32365 0.88029
# Poissons Ratio (z) = 0.18385 0.34710
#
# Static dielectric constant tensor:
#      x y z
#    x 4.043910 0.000000 0.000000 
#    y 0.000000 3.378710 0.000000 
#    z 0.000000 0.000000 3.824070 
# 
# 
# High freq. dielectric constant tensor:
#      x y z
#    x 1.833360 0.000000 0.000000 
#    y 0.000000 1.761100 0.000000 
#    z 0.000000 0.000000 1.804480 
# 
# From -- ./inp_files/24467.got.cif
#   From: 2010.03.12/outbox.cif.g09.slc.cpg/sg49_13_cif.got.tgz:24467.got - 2010.04.14 03:58:27.
