data_PCOD8204235
_publ_section_title
;
Structure prediction by ZEFSAII (Michael W. Deem and Ramdas Pophale) SiO2 
 PCOD8204235
Probable space group: P C C M
;
_chemical_formula_sum "Si O2"
_cell_formula_units_Z 32
_cell_length_a 9.260294
_cell_length_b 20.224406
_cell_length_c 8.543424
_cell_angle_alpha 90.000000
_cell_angle_beta 90.000000
_cell_angle_gamma 90.000000
_cell_volume 1600.046155
_symmetry_space_group_name_H-M "P C C M"
_symmetry_group_IT_number 49
_symmetry_cell_setting 'orthorhombic'
loop_
_space_group_symop_operation_xyz
x,y,z
-x,-y,z
x,-y,1/2-z
-x,y,1/2-z
-x,-y,-z
x,y,-z
-x,y,1/2+z
x,-y,1/2+z
loop_
_atom_site_type_symbol
_atom_site_label
_atom_site_fract_x
_atom_site_fract_y
_atom_site_fract_z
Si Si1 0.346846 0.927882 0.815009
Si Si2 0.157776 0.186013 0.184435
Si Si3 0.659411 0.695296 0.684685
Si Si4 0.154936 0.569448 0.817209
O O1 0.500000 0.901534 0.750000
O O2 0.219192 0.879984 0.763000
O O3 0.310721 0.000000 0.750000
O O4 0.356950 0.930938 0.000000
O O5 0.257196 0.247549 0.225895
O O6 0.000000 0.200476 0.250000
O O7 0.151736 0.175857 0.000000
O O8 0.500000 0.693060 0.750000
O O9 0.661572 0.709749 0.500000
O O10 0.731124 0.625514 0.727626
O O11 0.211828 0.500000 0.750000
O O12 0.000000 0.589709 0.750000
O O13 0.136646 0.561365 0.000000
#
# Coordination Sequence:
#
# PCOD8204235 Si02
#       4
#     8   8   8   8
#     4  11  22  40  64  92 124 160 200 244 294 351
#     4  12  25  42  63  89 120 157 199 247 298 354
#     4  11  24  41  61  88 119 157 199 246 298 353
#     4  10  21  37  60  87 118 154 196 241 294 352
#
# _framework density 19.999421999999999
#
# number of rings (size 3 to 8) (size 9 to 14) (size 15 to 20)
#    0.000    1.000    0.000    9.000    0.000    7.000 
#    0.000    5.000    0.000    0.000    0.000    0.000 
#    0.000    0.000    0.000    0.000    0.000    0.000 
#
# Total GULP energy -397006.599577 kJ/mol
# GULP energy per Si atom -12406.456237 kJ/mol
# Density = 1.995390 g / cm^3
# Si number density = 19.999422 Si / 1000 Ang^3
#
#
#
# Elastic Constant Matrix: (Units=GPa)
#
#
# Indices 1 2 3 4 5 6 
#
# 1 141.9435 75.5507 49.7227 0.0000 0.0000 0.0000
# 2 75.5507 117.0898 60.4999 0.0000 0.0000 0.0000
# 3 49.7227 60.4999 157.0245 0.0000 0.0000 0.0000
# 4 0.0000 0.0000 0.0000 79.7184 0.0000 0.0000
# 5 0.0000 0.0000 0.0000 0.0000 32.5266 0.0000
# 6 0.0000 0.0000 0.0000 0.0000 0.0000 50.0226
#
#
#
# Elastic Compliance Matrix: (Units=1/GPa)
#
#
# Indices 1 2 3 4 5 6 
#
# 1 0.010836 -0.006516 -0.000921 0.000000 0.000000 0.000000
# 2 -0.006516 0.014582 -0.003555 0.000000 0.000000 0.000000
# 3 -0.000921 -0.003555 0.008030 0.000000 0.000000 0.000000
# 4 0.000000 0.000000 0.000000 0.012544 0.000000 0.000000
# 5 0.000000 0.000000 0.000000 0.000000 0.030744 0.000000
# 6 0.000000 0.000000 0.000000 0.000000 0.000000 0.019991
#
#
# Mechanical properties :
#
#
# Convention : Reuss Voigt Hill
#
# Bulk Modulus (GPa) = 87.22917 87.51159 87.37038
# Shear Modulus (GPa) = 40.80627 47.80579 44.30603
#
# Velocity S-wave (km/s) = 4.52195 4.89443 4.71187
# Velocity P-wave (km/s) = 8.42464 8.70590 8.56642
#
# Compressibility (1/GPa) = 0.01146406
#
# Stress axis : x y z
#
# Youngs Moduli (GPa) = 92.28739 68.57999 124.53908
#
# Poissons Ratio (x) = 0.44686 0.11466
# Poissons Ratio (y) = 0.60133 0.44271
# Poissons Ratio (z) = 0.08497 0.24379
#
# Static dielectric constant tensor:
#      x y z
#    x 3.744240 0.000000 0.000000 
#    y 0.000000 4.047210 0.000000 
#    z 0.000000 0.000000 3.855960 
# 
# 
# High freq. dielectric constant tensor:
#      x y z
#    x 1.785600 0.000000 0.000000 
#    y 0.000000 1.796260 0.000000 
#    z 0.000000 0.000000 1.803630 
# 
# From -- ./inp_files/1402.got.cif
#   From: 2010.03.12/outbox.cif.g09.slc.cpg/sg49_1_cif.got.tgz:1402.got - 2010.04.14 03:58:27.
