data_PCOD8204008
_publ_section_title
;
Structure prediction by ZEFSAII (Michael W. Deem and Ramdas Pophale) SiO2 
 PCOD8204008
Probable space group: P C C M
;
_chemical_formula_sum "Si O2"
_cell_formula_units_Z 64
_cell_length_a 15.350785
_cell_length_b 23.602998
_cell_length_c 8.901164
_cell_angle_alpha 90.000000
_cell_angle_beta 90.000000
_cell_angle_gamma 90.000000
_cell_volume 3225.110220
_symmetry_space_group_name_H-M "P C C M"
_symmetry_group_IT_number 49
_symmetry_cell_setting 'orthorhombic'
loop_
_space_group_symop_operation_xyz
x,y,z
-x,-y,z
x,-y,1/2-z
-x,y,1/2-z
-x,-y,-z
x,y,-z
-x,y,1/2+z
x,-y,1/2+z
loop_
_atom_site_type_symbol
_atom_site_label
_atom_site_fract_x
_atom_site_fract_y
_atom_site_fract_z
Si Si1 0.912043 0.142261 0.322431
Si Si2 0.663456 0.246279 0.671675
Si Si3 0.410639 0.873084 0.676462
Si Si4 0.910618 0.376296 0.823667
Si Si5 0.154342 0.253886 0.322955
Si Si6 0.589565 0.367006 0.327184
Si Si7 0.261895 0.439619 0.678217
Si Si8 0.757413 0.060145 0.322643
O O1 0.921701 0.143541 0.500000
O O2 0.897224 0.205540 0.264139
O O3 0.832796 0.102799 0.269588
O O4 0.000000 0.117389 0.250000
O O5 0.697047 0.238083 0.500000
O O6 0.610810 0.191094 0.725336
O O7 0.744629 0.254629 0.780475
O O8 0.599157 0.299371 0.684983
O O9 0.500000 0.893667 0.750000
O O10 0.421506 0.877681 0.500000
O O11 0.334208 0.914474 0.733980
O O12 0.887683 0.312968 0.770382
O O13 0.833801 0.418553 0.772841
O O14 0.000000 0.397434 0.750000
O O15 0.922799 0.378278 0.000000
O O16 0.145439 0.244269 0.500000
O O17 0.500000 0.386010 0.250000
O O18 0.589136 0.387010 0.500000
O O19 0.668739 0.395384 0.240339
O O20 0.280742 0.500000 0.750000
O O21 0.271473 0.442903 0.500000
O O22 0.758305 0.053270 0.500000
O O23 0.775177 0.000000 0.250000
#
# Coordination Sequence:
#
# PCOD8204008 Si02
#       8
#     8   8   8   8   8   8   8   8
#     4  11  23  41  62  89 123 158 197 248 300 359
#     4  10  20  37  61  89 125 161 196 241 300 360
#     4  10  21  39  60  88 121 157 196 242 296 352
#     4  10  23  40  61  90 124 158 197 246 297 354
#     4  11  21  36  61  93 124 160 199 242 298 358
#     4  11  23  39  64  94 124 163 200 246 304 361
#     4  11  24  44  64  88 121 158 206 257 301 357
#     4  10  23  42  62  83 118 157 201 251 300 352
#
# _framework density 19.844283000000001
#
# number of rings (size 3 to 8) (size 9 to 14) (size 15 to 20)
#    0.000    1.500    2.500    2.250    0.000    6.500 
#    0.000    5.000    0.000    0.000    0.000    0.000 
#    0.000    0.000    0.000    0.000    0.000    0.000 
#
# Total GULP energy -793943.134026 kJ/mol
# GULP energy per Si atom -12405.361469 kJ/mol
# Density = 1.979912 g / cm^3
# Si number density = 19.844283 Si / 1000 Ang^3
#
#
#
# Elastic Constant Matrix: (Units=GPa)
#
#
# Indices 1 2 3 4 5 6 
#
# 1 121.0071 8.1761 40.6384 0.0000 0.0000 0.0000
# 2 8.1761 73.4503 26.3302 0.0000 0.0000 0.0000
# 3 40.6384 26.3302 64.6646 0.0000 0.0000 0.0000
# 4 0.0000 0.0000 0.0000 24.0569 0.0000 0.0000
# 5 0.0000 0.0000 0.0000 0.0000 39.6720 0.0000
# 6 0.0000 0.0000 0.0000 0.0000 0.0000 7.4342
#
#
#
# Elastic Compliance Matrix: (Units=1/GPa)
#
#
# Indices 1 2 3 4 5 6 
#
# 1 0.010599 0.001414 -0.007237 0.000000 0.000000 0.000000
# 2 0.001414 0.016130 -0.007457 0.000000 0.000000 0.000000
# 3 -0.007237 -0.007457 0.023049 0.000000 0.000000 0.000000
# 4 0.000000 0.000000 0.000000 0.041568 0.000000 0.000000
# 5 0.000000 0.000000 0.000000 0.000000 0.025207 0.000000
# 6 0.000000 0.000000 0.000000 0.000000 0.000000 0.134513
#
#
# Mechanical properties :
#
#
# Convention : Reuss Voigt Hill
#
# Bulk Modulus (GPa) = 43.06749 45.49016 44.27883
# Shear Modulus (GPa) = 17.52149 26.49778 22.00963
#
# Velocity S-wave (km/s) = 2.97467 3.65812 3.33395
# Velocity P-wave (km/s) = 5.79207 6.38872 6.09770
#
# Compressibility (1/GPa) = 0.02321937
#
# Stress axis : x y z
#
# Youngs Moduli (GPa) = 94.35094 61.99512 43.38668
#
# Poissons Ratio (x) = -0.08768 0.31397
# Poissons Ratio (y) = -0.13345 0.32353
# Poissons Ratio (z) = 0.68279 0.46229
#
# Static dielectric constant tensor:
#      x y z
#    x 3.775770 0.000000 0.000000 
#    y 0.000000 3.635120 0.000000 
#    z 0.000000 0.000000 3.556790 
# 
# 
# High freq. dielectric constant tensor:
#      x y z
#    x 1.785850 0.000000 0.000000 
#    y 0.000000 1.773200 0.000000 
#    z 0.000000 0.000000 1.773000 
# 
# From -- ./inp_files/4318.got.cif
#   From: 2010.03.12/outbox.cif.g09.slc.cpg/sg49_3_cif.got.tgz:4318.got - 2010.04.14 03:58:27.
