data_PCOD8204152
_publ_section_title
;
Structure prediction by ZEFSAII (Michael W. Deem and Ramdas Pophale) SiO2 
 PCOD8204152
Probable space group: P C C M
;
_chemical_formula_sum "Si O2"
_cell_formula_units_Z 48
_cell_length_a 14.326718
_cell_length_b 18.369078
_cell_length_c 9.527619
_cell_angle_alpha 90.000000
_cell_angle_beta 90.000000
_cell_angle_gamma 90.000000
_cell_volume 2507.370158
_symmetry_space_group_name_H-M "P C C M"
_symmetry_group_IT_number 49
_symmetry_cell_setting 'orthorhombic'
loop_
_space_group_symop_operation_xyz
x,y,z
-x,-y,z
x,-y,1/2-z
-x,y,1/2-z
-x,-y,-z
x,y,-z
-x,y,1/2+z
x,-y,1/2+z
loop_
_atom_site_type_symbol
_atom_site_label
_atom_site_fract_x
_atom_site_fract_y
_atom_site_fract_z
Si Si1 0.910012 0.897079 0.500000
Si Si2 0.211464 0.854159 0.253723
Si Si3 0.757990 0.690993 0.158688
Si Si4 0.095019 0.567068 0.665661
Si Si5 0.415798 0.315283 0.342101
Si Si6 0.881024 0.068231 0.500000
Si Si7 0.416664 0.857398 0.155170
O O1 0.863770 0.856779 0.369454
O O2 0.021740 0.886677 0.500000
O O3 0.892953 0.982548 0.500000
O O4 0.210640 0.773153 0.314103
O O5 0.179311 0.912439 0.365969
O O6 0.314800 0.879626 0.209738
O O7 0.846087 0.639885 0.180590
O O8 0.680081 0.663369 0.266632
O O9 0.718445 0.685648 0.000000
O O10 0.144514 0.500000 0.750000
O O11 0.078971 0.548433 0.500000
O O12 0.000000 0.581821 0.750000
O O13 0.500000 0.348659 0.250000
O O14 0.417348 0.347903 0.500000
O O15 0.425278 0.229034 0.348932
O O16 0.500000 0.890371 0.250000
O O17 0.429978 0.889909 0.000000
#
# Coordination Sequence:
#
# PCOD8204152 Si02
#       7
#     4   8   8   8   8   4   8
#     4  11  24  42  59  83 112 148 201 236 285 355
#     4  11  21  39  59  87 117 145 192 244 288 334
#     4  10  21  36  55  85 117 147 189 235 282 330
#     4  10  21  38  57  81 113 153 193 232 282 343
#     4   9  17  29  51  81 115 150 184 227 278 333
#     4  11  24  40  63  81 108 158 191 236 293 347
#     4   9  18  31  53  82 112 145 181 228 283 342
#
# _framework density 19.143564999999999
#
# number of rings (size 3 to 8) (size 9 to 14) (size 15 to 20)
#    0.000    2.000    1.667    2.500    2.333    6.000 
#    0.000    0.000    0.000    3.500    0.000    3.500 
#    0.000    0.000    0.000    0.000    0.000    0.000 
#
# Total GULP energy -595058.758431 kJ/mol
# GULP energy per Si atom -12397.057467 kJ/mol
# Density = 1.909999 g / cm^3
# Si number density = 19.143565 Si / 1000 Ang^3
#
#
#
# Elastic Constant Matrix: (Units=GPa)
#
#
# Indices 1 2 3 4 5 6 
#
# 1 117.0146 25.8335 71.3186 0.0000 0.0000 0.0000
# 2 25.8335 38.3419 23.6339 0.0000 0.0000 0.0000
# 3 71.3186 23.6339 178.8403 0.0000 0.0000 0.0000
# 4 0.0000 0.0000 0.0000 20.0497 0.0000 0.0000
# 5 0.0000 0.0000 0.0000 0.0000 36.6129 0.0000
# 6 0.0000 0.0000 0.0000 0.0000 0.0000 9.2635
#
#
#
# Elastic Compliance Matrix: (Units=1/GPa)
#
#
# Indices 1 2 3 4 5 6 
#
# 1 0.012357 -0.005757 -0.004167 0.000000 0.000000 0.000000
# 2 -0.005757 0.031076 -0.001811 0.000000 0.000000 0.000000
# 3 -0.004167 -0.001811 0.007493 0.000000 0.000000 0.000000
# 4 0.000000 0.000000 0.000000 0.049876 0.000000 0.000000
# 5 0.000000 0.000000 0.000000 0.000000 0.027313 0.000000
# 6 0.000000 0.000000 0.000000 0.000000 0.000000 0.107951
#
#
# Mechanical properties :
#
#
# Convention : Reuss Voigt Hill
#
# Bulk Modulus (GPa) = 36.42214 63.97431 50.19822
# Shear Modulus (GPa) = 18.60905 27.41259 23.01082
#
# Velocity S-wave (km/s) = 3.12120 3.78821 3.47077
# Velocity P-wave (km/s) = 5.66183 7.25430 6.50696
#
# Compressibility (1/GPa) = 0.02745583
#
# Stress axis : x y z
#
# Youngs Moduli (GPa) = 80.92905 32.17893 133.46602
#
# Poissons Ratio (x) = 0.18525 0.55612
# Poissons Ratio (y) = 0.46591 0.24170
# Poissons Ratio (z) = 0.33721 0.05828
#
# Static dielectric constant tensor:
#      x y z
#    x 3.618750 0.000000 0.000000 
#    y 0.000000 3.186030 0.000000 
#    z 0.000000 0.000000 3.929330 
# 
# 
# High freq. dielectric constant tensor:
#      x y z
#    x 1.751200 0.000000 0.000000 
#    y 0.000000 1.705840 0.000000 
#    z 0.000000 0.000000 1.768480 
# 
# From -- ./inp_files/3756.got.cif
#   From: 2010.03.12/outbox.cif.g09.slc.cpg/sg49_2_cif.got.tgz:3756.got - 2010.04.14 03:58:27.
