data_PCOD8204278
_publ_section_title
;
Structure prediction by ZEFSAII (Michael W. Deem and Ramdas Pophale) SiO2 
 PCOD8204278
Probable space group: P C C M
;
_chemical_formula_sum "Si O2"
_cell_formula_units_Z 40
_cell_length_a 9.640671
_cell_length_b 24.809698
_cell_length_c 8.565950
_cell_angle_alpha 90.000000
_cell_angle_beta 90.000000
_cell_angle_gamma 90.000000
_cell_volume 2048.822218
_symmetry_space_group_name_H-M "P C C M"
_symmetry_group_IT_number 49
_symmetry_cell_setting 'orthorhombic'
loop_
_space_group_symop_operation_xyz
x,y,z
-x,-y,z
x,-y,1/2-z
-x,y,1/2-z
-x,-y,-z
x,y,-z
-x,y,1/2+z
x,-y,1/2+z
loop_
_atom_site_type_symbol
_atom_site_label
_atom_site_fract_x
_atom_site_fract_y
_atom_site_fract_z
Si Si1 0.148701 0.734326 0.181482
Si Si2 0.852598 0.441325 0.815156
Si Si3 0.147175 0.859784 0.180642
Si Si4 0.653960 0.351937 0.315683
Si Si5 0.348508 0.055159 0.182882
O O1 0.178394 0.797105 0.207794
O O2 0.268209 0.703264 0.273507
O O3 0.000000 0.717646 0.250000
O O4 0.151737 0.718245 0.000000
O O5 0.816702 0.500000 0.750000
O O6 0.731223 0.401867 0.763228
O O7 0.000000 0.420369 0.750000
O O8 0.861826 0.443793 0.000000
O O9 0.260948 0.892876 0.273115
O O10 0.000000 0.876171 0.250000
O O11 0.150862 0.875371 0.000000
O O12 0.500000 0.348740 0.250000
O O13 0.650312 0.360057 0.500000
O O14 0.500000 0.064128 0.250000
O O15 0.281507 0.000000 0.250000
O O16 0.358240 0.049322 0.000000
#
# Coordination Sequence:
#
# PCOD8204278 Si02
#       5
#     8   8   8   8   8
#     4  10  21  39  62  87 116 152 192 237 286 341
#     4  11  22  40  64  91 120 154 196 239 286 340
#     4  10  21  38  60  87 117 149 190 237 288 340
#     4  12  25  41  60  86 119 155 195 240 290 343
#     4  11  22  38  59  83 114 151 192 235 285 342
#
# _framework density 19.523409999999998
#
# number of rings (size 3 to 8) (size 9 to 14) (size 15 to 20)
#    0.000    1.200    0.000    8.400    0.000    4.000 
#    0.000    4.000    0.000    0.000    0.000    0.000 
#    0.000    0.000    0.000    0.000    0.000    0.000 
#
# Total GULP energy -496230.626266 kJ/mol
# GULP energy per Si atom -12405.765657 kJ/mol
# Density = 1.947897 g / cm^3
# Si number density = 19.523410 Si / 1000 Ang^3
#
#
#
# Elastic Constant Matrix: (Units=GPa)
#
#
# Indices 1 2 3 4 5 6 
#
# 1 134.0497 69.4458 62.1764 0.0000 0.0000 0.0000
# 2 69.4458 94.1462 54.1032 0.0000 0.0000 0.0000
# 3 62.1764 54.1032 182.7866 0.0000 0.0000 0.0000
# 4 0.0000 0.0000 0.0000 38.0875 0.0000 0.0000
# 5 0.0000 0.0000 0.0000 0.0000 39.2038 0.0000
# 6 0.0000 0.0000 0.0000 0.0000 0.0000 35.3413
#
#
#
# Elastic Compliance Matrix: (Units=1/GPa)
#
#
# Indices 1 2 3 4 5 6 
#
# 1 0.012570 -0.008212 -0.001845 0.000000 0.000000 0.000000
# 2 -0.008212 0.018163 -0.002583 0.000000 0.000000 0.000000
# 3 -0.001845 -0.002583 0.006863 0.000000 0.000000 0.000000
# 4 0.000000 0.000000 0.000000 0.026255 0.000000 0.000000
# 5 0.000000 0.000000 0.000000 0.000000 0.025508 0.000000
# 6 0.000000 0.000000 0.000000 0.000000 0.000000 0.028296
#
#
# Mechanical properties :
#
#
# Convention : Reuss Voigt Hill
#
# Bulk Modulus (GPa) = 81.19022 86.93703 84.06362
# Shear Modulus (GPa) = 34.00437 37.54366 35.77402
#
# Velocity S-wave (km/s) = 4.17792 4.38997 4.28526
# Velocity P-wave (km/s) = 8.05914 8.38583 8.22411
#
# Compressibility (1/GPa) = 0.01231675
#
# Stress axis : x y z
#
# Youngs Moduli (GPa) = 79.55511 55.05599 145.70810
#
# Poissons Ratio (x) = 0.45210 0.26886
# Poissons Ratio (y) = 0.65328 0.37635
# Poissons Ratio (z) = 0.14679 0.14221
#
# Static dielectric constant tensor:
#      x y z
#    x 3.569290 0.000000 0.000000 
#    y 0.000000 3.684650 0.000000 
#    z 0.000000 0.000000 3.794140 
# 
# 
# High freq. dielectric constant tensor:
#      x y z
#    x 1.760280 0.000000 0.000000 
#    y 0.000000 1.771970 0.000000 
#    z 0.000000 0.000000 1.785770 
# 
# From -- ./inp_files/1670.got.cif
#   From: 2010.03.12/outbox.cif.g09.slc.cpg/sg49_1_cif.got.tgz:1670.got - 2010.04.14 03:58:27.
