data_PCOD8204032
_publ_section_title
;
Structure prediction by ZEFSAII (Michael W. Deem and Ramdas Pophale) SiO2 
 PCOD8204032
Probable space group: P C C M
;
_chemical_formula_sum "Si O2"
_cell_formula_units_Z 64
_cell_length_a 15.343592
_cell_length_b 23.413570
_cell_length_c 8.778869
_cell_angle_alpha 90.000000
_cell_angle_beta 90.000000
_cell_angle_gamma 90.000000
_cell_volume 3153.793460
_symmetry_space_group_name_H-M "P C C M"
_symmetry_group_IT_number 49
_symmetry_cell_setting 'orthorhombic'
loop_
_space_group_symop_operation_xyz
x,y,z
-x,-y,z
x,-y,1/2-z
-x,y,1/2-z
-x,-y,-z
x,y,-z
-x,y,1/2+z
x,-y,1/2+z
loop_
_atom_site_type_symbol
_atom_site_label
_atom_site_fract_x
_atom_site_fract_y
_atom_site_fract_z
Si Si1 0.587946 0.359075 0.821191
Si Si2 0.912054 0.859075 0.321191
Si Si3 0.649925 0.753270 0.178099
Si Si4 0.244571 0.060460 0.681011
Si Si5 0.255429 0.439540 0.318989
Si Si6 0.408005 0.120501 0.180073
Si Si7 0.149925 0.253270 0.178098
Si Si8 0.091995 0.379500 0.180072
O O1 0.500000 0.385484 0.750000
O O2 0.596346 0.293554 0.770397
O O3 0.671079 0.394890 0.764069
O O4 0.578976 0.362207 0.000000
O O5 0.921024 0.862206 0.500000
O O6 0.828921 0.894889 0.264070
O O7 0.903654 0.793554 0.270397
O O8 0.000000 0.885484 0.250000
O O9 0.612507 0.814478 0.225600
O O10 0.750000 0.750000 0.228511
O O11 0.639051 0.740721 0.000000
O O12 0.250731 0.056822 0.500000
O O13 0.336850 0.079017 0.748067
O O14 0.217447 0.000000 0.750000
O O15 0.282552 0.500000 0.250000
O O16 0.249270 0.443178 0.500000
O O17 0.163151 0.420982 0.251934
O O18 0.500000 0.102301 0.250000
O O19 0.408602 0.111842 0.000000
O O20 0.112506 0.314477 0.225596
O O21 0.139052 0.240721 0.000000
O O22 0.000000 0.397700 0.250000
O O23 0.091398 0.388159 0.000000
#
# Coordination Sequence:
#
# PCOD8204032 Si02
#       8
#     8   8   8   8   8   8   8   8
#     4  11  24  40  63  93 126 163 204 252 305 365
#     4  11  24  40  63  93 126 163 204 252 305 365
#     4  10  20  37  63  94 127 164 201 245 305 365
#     4  11  25  44  65  90 120 160 208 257 308 361
#     4  11  25  44  65  90 120 160 208 257 308 361
#     4  11  23  40  64  93 127 163 203 251 303 364
#     4  10  20  37  63  94 127 164 201 245 305 365
#     4  11  23  40  64  93 127 163 203 251 303 364
#
# _framework density 20.293023000000002
#
# number of rings (size 3 to 8) (size 9 to 14) (size 15 to 20)
#    0.000    1.250    2.500    3.000    0.000    8.500 
#    0.000    5.000    0.000    0.000    0.000    0.000 
#    0.000    0.000    0.000    0.000    0.000    0.000 
#
# Total GULP energy -794077.128376 kJ/mol
# GULP energy per Si atom -12407.455131 kJ/mol
# Density = 2.024683 g / cm^3
# Si number density = 20.293023 Si / 1000 Ang^3
#
#
#
# Elastic Constant Matrix: (Units=GPa)
#
#
# Indices 1 2 3 4 5 6 
#
# 1 125.4952 18.4376 32.3034 0.0000 0.0000 0.0000
# 2 18.4376 83.9844 29.9615 0.0000 0.0000 0.0000
# 3 32.3034 29.9615 70.3819 0.0000 0.0000 0.0000
# 4 0.0000 0.0000 0.0000 33.4447 0.0000 0.0000
# 5 0.0000 0.0000 0.0000 0.0000 34.4420 0.0000
# 6 0.0000 0.0000 0.0000 0.0000 0.0000 14.5558
#
#
#
# Elastic Compliance Matrix: (Units=1/GPa)
#
#
# Indices 1 2 3 4 5 6 
#
# 1 0.009061 -0.000596 -0.003905 0.000000 0.000000 0.000000
# 2 -0.000596 0.014078 -0.005720 0.000000 0.000000 0.000000
# 3 -0.003905 -0.005720 0.018435 0.000000 0.000000 0.000000
# 4 0.000000 0.000000 0.000000 0.029900 0.000000 0.000000
# 5 0.000000 0.000000 0.000000 0.000000 0.029034 0.000000
# 6 0.000000 0.000000 0.000000 0.000000 0.000000 0.068701
#
#
# Mechanical properties :
#
#
# Convention : Reuss Voigt Hill
#
# Bulk Modulus (GPa) = 47.31851 49.02961 48.17406
# Shear Modulus (GPa) = 25.41991 29.76576 27.59284
#
# Velocity S-wave (km/s) = 3.54311 3.83403 3.69144
# Velocity P-wave (km/s) = 6.33296 6.61914 6.47763
#
# Compressibility (1/GPa) = 0.02113338
#
# Stress axis : x y z
#
# Youngs Moduli (GPa) = 110.36050 71.03137 54.24373
#
# Poissons Ratio (x) = 0.04234 0.21183
# Poissons Ratio (y) = 0.06579 0.31025
# Poissons Ratio (z) = 0.43097 0.40627
#
# Static dielectric constant tensor:
#      x y z
#    x 3.885640 0.000000 0.000000 
#    y 0.000000 3.679730 0.000000 
#    z 0.000000 0.000000 3.615650 
# 
# 
# High freq. dielectric constant tensor:
#      x y z
#    x 1.810750 0.000000 0.000000 
#    y 0.000000 1.789630 0.000000 
#    z 0.000000 0.000000 1.797110 
# 
# From -- ./inp_files/4398.got.cif
#   From: 2010.03.12/outbox.cif.g09.slc.cpg/sg49_3_cif.got.tgz:4398.got - 2010.04.14 03:58:27.
