data_PCOD8204517
_publ_section_title
;
Structure prediction by ZEFSAII (Michael W. Deem and Ramdas Pophale) SiO2 
 PCOD8204517
Probable space group: P C C M
;
_chemical_formula_sum "Si O2"
_cell_formula_units_Z 40
_cell_length_a 8.470005
_cell_length_b 8.506195
_cell_length_c 23.599055
_cell_angle_alpha 90.000000
_cell_angle_beta 90.000000
_cell_angle_gamma 90.000000
_cell_volume 1700.253250
_symmetry_space_group_name_H-M "P C C M"
_symmetry_group_IT_number 49
_symmetry_cell_setting 'orthorhombic'
loop_
_space_group_symop_operation_xyz
x,y,z
-x,-y,z
x,-y,1/2-z
-x,y,1/2-z
-x,-y,-z
x,y,-z
-x,y,1/2+z
x,-y,1/2+z
loop_
_atom_site_type_symbol
_atom_site_label
_atom_site_fract_x
_atom_site_fract_y
_atom_site_fract_z
Si Si1 0.380063 0.120108 0.839991
Si Si2 0.818726 0.312249 0.247630
Si Si3 0.831020 0.923141 0.936540
Si Si4 0.833146 0.551152 0.064806
Si Si5 0.610540 0.629115 0.648012
O O1 0.269526 0.216023 0.796740
O O2 0.283211 0.017028 0.886528
O O3 0.487583 0.242619 0.875645
O O4 0.500000 0.000000 0.807903
O O5 0.808692 0.500000 0.250000
O O6 0.732616 0.276392 0.188390
O O7 0.000000 0.254997 0.250000
O O8 0.830423 0.736710 0.928257
O O9 0.772144 0.968094 0.000000
O O10 0.000000 0.000000 0.925937
O O11 0.695361 0.460287 0.096932
O O12 0.000000 0.500000 0.091652
O O13 0.820680 0.496362 0.000000
O O14 0.500000 0.500000 0.681012
#
# Coordination Sequence:
#
# PCOD8204517 Si02
#       5
#     8   8   8   8   8
#     4  12  28  46  68 107 146 183 233 300 359 419
#     4  11  25  45  74 100 132 187 243 284 341 422
#     4  10  23  45  71 101 144 192 237 287 352 428
#     4  10  23  42  71 109 142 184 240 291 347 421
#     4  12  24  43  72 102 141 184 233 293 352 416
#
# _framework density 23.525907
#
# number of rings (size 3 to 8) (size 9 to 14) (size 15 to 20)
#    0.000    1.000    4.000    0.600    8.400    3.200 
#    0.000    1.000    0.000    0.000    0.000    0.000 
#    0.000    0.000    0.000    0.000    0.000    0.000 
#
# Total GULP energy -495572.628965 kJ/mol
# GULP energy per Si atom -12389.315724 kJ/mol
# Density = 2.347236 g / cm^3
# Si number density = 23.525907 Si / 1000 Ang^3
#
#
#
# Elastic Constant Matrix: (Units=GPa)
#
#
# Indices 1 2 3 4 5 6 
#
# 1 172.5172 64.4935 81.9713 0.0000 0.0000 0.0000
# 2 64.4935 74.0618 38.8086 0.0000 0.0000 0.0000
# 3 81.9713 38.8086 125.1872 0.0000 0.0000 0.0000
# 4 0.0000 0.0000 0.0000 24.2009 0.0000 0.0000
# 5 0.0000 0.0000 0.0000 0.0000 19.4858 0.0000
# 6 0.0000 0.0000 0.0000 0.0000 0.0000 42.6846
#
#
#
# Elastic Compliance Matrix: (Units=1/GPa)
#
#
# Indices 1 2 3 4 5 6 
#
# 1 0.010613 -0.006687 -0.004877 0.000000 0.000000 0.000000
# 2 -0.006687 0.020334 -0.001925 0.000000 0.000000 0.000000
# 3 -0.004877 -0.001925 0.011778 0.000000 0.000000 0.000000
# 4 0.000000 0.000000 0.000000 0.041321 0.000000 0.000000
# 5 0.000000 0.000000 0.000000 0.000000 0.051319 0.000000
# 6 0.000000 0.000000 0.000000 0.000000 0.000000 0.023428
#
#
# Mechanical properties :
#
#
# Convention : Reuss Voigt Hill
#
# Bulk Modulus (GPa) = 63.49941 82.47922 72.98932
# Shear Modulus (GPa) = 26.17528 29.70712 27.94120
#
# Velocity S-wave (km/s) = 3.33921 3.55736 3.45001
# Velocity P-wave (km/s) = 6.47433 7.21166 6.85292
#
# Compressibility (1/GPa) = 0.01574818
#
# Stress axis : x y z
#
# Youngs Moduli (GPa) = 94.21991 49.17872 84.90411
#
# Poissons Ratio (x) = 0.32885 0.41405
# Poissons Ratio (y) = 0.63004 0.16345
# Poissons Ratio (z) = 0.45947 0.09467
#
# Static dielectric constant tensor:
#      x y z
#    x 4.705140 0.000000 0.000000 
#    y 0.000000 4.373330 0.000000 
#    z 0.000000 0.000000 4.146020 
# 
# 
# High freq. dielectric constant tensor:
#      x y z
#    x 1.951480 0.000000 0.000000 
#    y 0.000000 1.937880 0.000000 
#    z 0.000000 0.000000 1.915400 
# 
# From -- ./inp_files/22187.got.cif
#   From: 2010.03.12/outbox.cif.g09.slc.cpg/sg49_12_cif.got.tgz:22187.got - 2010.04.14 03:58:27.
