data_PCOD8204792
_publ_section_title
;
Structure prediction by ZEFSAII (Michael W. Deem and Ramdas Pophale) SiO2 
 PCOD8204792
Probable space group: P B A N
;
_chemical_formula_sum "Si O2"
_cell_formula_units_Z 46
_cell_length_a 23.098906
_cell_length_b 18.812698
_cell_length_c 6.489671
_cell_angle_alpha 90.000000
_cell_angle_beta 90.000000
_cell_angle_gamma 90.000000
_cell_volume 2820.104332
_symmetry_space_group_name_H-M "P B A N"
_symmetry_group_IT_number 50
_space_group.IT_coordinate_system_code '2'
_symmetry_cell_setting 'orthorhombic'
loop_
_space_group_symop_operation_xyz
x,y,z
1/2-x,1/2-y,z
x,1/2-y,-z
1/2-x,y,-z
-x,-y,-z
1/2+x,1/2+y,-z
-x,1/2+y,z
1/2+x,-y,z
loop_
_atom_site_type_symbol
_atom_site_label
_atom_site_fract_x
_atom_site_fract_y
_atom_site_fract_z
Si Si1 0.887935 0.441391 0.419708
Si Si2 0.478087 0.900010 0.916911
Si Si3 0.250000 0.750000 0.500000
Si Si4 0.581704 0.512180 0.187766
Si Si5 0.430492 0.750000 0.000000
Si Si6 0.316079 0.956913 0.962829
Si Si7 0.154826 0.668971 0.260152
O O1 0.942509 0.427518 0.277433
O O2 0.904534 0.507761 0.567828
O O3 0.830666 0.455821 0.280934
O O4 0.875995 0.373871 0.560101
O O5 0.545283 0.917669 0.870866
O O6 0.471895 0.815826 0.944697
O O7 0.454567 0.941544 0.118532
O O8 0.213335 0.701493 0.347064
O O9 0.643029 0.516040 0.068984
O O10 0.388948 0.768888 0.191990
O O11 0.250000 0.978880 0.000000
O O12 0.330144 0.880047 0.062921
#
# Coordination Sequence:
#
# PCOD8204792 Si02
#       7
#     8   8   2   8   4   8   8
#     4  10  17  36  50  69  94 134 177 203 254 293
#     4  10  19  33  51  70  98 130 165 215 251 297
#     4  12  24  30  48  60 106 144 176 202 244 300
#     4   9  19  34  50  71  95 130 171 206 254 297
#     4  12  20  35  48  70 105 130 164 214 256 298
#     4  10  20  34  51  70 101 132 168 211 242 294
#     4  11  23  33  43  72  98 138 174 202 241 293
#
# _framework density 16.311453
#
# number of rings (size 3 to 8) (size 9 to 14) (size 15 to 20)
#    0.000    1.739    5.217    2.609    2.435    2.087 
#    0.000    0.000    0.000    0.000    0.000    0.609 
#    0.000    0.000    0.000    0.000    0.000    0.000 
#
# Total GULP energy -570313.900761 kJ/mol
# GULP energy per Si atom -12398.128277 kJ/mol
# Density = 1.627433 g / cm^3
# Si number density = 16.311453 Si / 1000 Ang^3
#
#
#
# Elastic Constant Matrix: (Units=GPa)
#
#
# Indices 1 2 3 4 5 6 
#
# 1 122.4204 57.8659 44.6705 0.0000 0.0000 0.0000
# 2 57.8659 67.6713 28.3301 0.0000 0.0000 0.0000
# 3 44.6705 28.3301 110.1165 0.0000 0.0000 0.0000
# 4 0.0000 0.0000 0.0000 13.3419 0.0000 0.0000
# 5 0.0000 0.0000 0.0000 0.0000 23.2973 0.0000
# 6 0.0000 0.0000 0.0000 0.0000 0.0000 28.6385
#
#
#
# Elastic Compliance Matrix: (Units=1/GPa)
#
#
# Indices 1 2 3 4 5 6 
#
# 1 0.014559 -0.011181 -0.003030 0.000000 0.000000 0.000000
# 2 -0.011181 0.025148 -0.001934 0.000000 0.000000 0.000000
# 3 -0.003030 -0.001934 0.010808 0.000000 0.000000 0.000000
# 4 0.000000 0.000000 0.000000 0.074952 0.000000 0.000000
# 5 0.000000 0.000000 0.000000 0.000000 0.042923 0.000000
# 6 0.000000 0.000000 0.000000 0.000000 0.000000 0.034918
#
#
# Mechanical properties :
#
#
# Convention : Reuss Voigt Hill
#
# Bulk Modulus (GPa) = 54.86850 62.43792 58.65321
# Shear Modulus (GPa) = 20.68902 24.34496 22.51699
#
# Velocity S-wave (km/s) = 3.56529 3.86749 3.71946
# Velocity P-wave (km/s) = 7.11754 7.63577 7.38121
#
# Compressibility (1/GPa) = 0.01822539
#
# Stress axis : x y z
#
# Youngs Moduli (GPa) = 68.68470 39.76420 92.52533
#
# Poissons Ratio (x) = 0.44462 0.28031
# Poissons Ratio (y) = 0.76799 0.17895
# Poissons Ratio (z) = 0.20808 0.07691
#
# Static dielectric constant tensor:
#      x y z
#    x 3.216210 0.000000 0.000000 
#    y 0.000000 2.878150 0.000000 
#    z 0.000000 0.000000 3.362120 
# 
# 
# High freq. dielectric constant tensor:
#      x y z
#    x 1.623370 0.000000 0.000000 
#    y 0.000000 1.580090 0.000000 
#    z 0.000000 0.000000 1.646520 
# 
# From -- ./inp_files/4624.got.cif
#   From: 2010.03.12/outbox.cif.g09.slc.cpg/sg50_3_cif.got.tgz:4624.got - 2010.04.16 13:23:21.
