data_PCOD8204869
_publ_section_title
;
Structure prediction by ZEFSAII (Michael W. Deem and Ramdas Pophale) SiO2 
 PCOD8204869
Probable space group: P B A N
;
_chemical_formula_sum "Si O2"
_cell_formula_units_Z 40
_cell_length_a 5.028449
_cell_length_b 18.086095
_cell_length_c 24.188168
_cell_angle_alpha 90.000000
_cell_angle_beta 90.000000
_cell_angle_gamma 90.000000
_cell_volume 2199.793092
_symmetry_space_group_name_H-M "P B A N"
_symmetry_group_IT_number 50
_space_group.IT_coordinate_system_code '2'
_symmetry_cell_setting 'orthorhombic'
loop_
_space_group_symop_operation_xyz
x,y,z
1/2-x,1/2-y,z
x,1/2-y,-z
1/2-x,y,-z
-x,-y,-z
1/2+x,1/2+y,-z
-x,1/2+y,z
1/2+x,-y,z
loop_
_atom_site_type_symbol
_atom_site_label
_atom_site_fract_x
_atom_site_fract_y
_atom_site_fract_z
Si Si1 0.822995 0.951979 0.943478
Si Si2 0.771347 0.834872 0.272089
Si Si3 0.275159 0.951680 0.437241
Si Si4 0.271347 0.665346 0.655815
Si Si5 0.232138 0.050489 0.823984
O O1 0.762630 0.911633 0.885075
O O2 0.631054 0.024584 0.945017
O O3 0.750000 0.905631 0.000000
O O4 0.750000 0.750000 0.252752
O O5 0.560105 0.852803 0.319932
O O6 0.715936 0.885216 0.219448
O O7 0.060167 0.852947 0.296368
O O8 0.250000 0.922862 0.500000
O O9 0.216070 0.883011 0.397961
O O10 0.568099 0.982629 0.425513
O O11 0.250000 0.750000 0.636648
O O12 0.441015 0.983958 0.816130
#
# Coordination Sequence:
#
# PCOD8204869 Si02
#       5
#     8   8   8   8   8
#     4   8  14  25  41  63  91 119 150 193 237 274
#     4  10  21  35  49  70 101 130 157 196 243 282
#     4  10  21  36  54  77 102 126 155 196 243 282
#     4  10  21  36  53  72  96 130 165 193 231 285
#     4  10  19  30  48  73  95 122 163 200 234 283
#
# _framework density 18.183530000000001
#
# number of rings (size 3 to 8) (size 9 to 14) (size 15 to 20)
#    0.000    2.400    0.000    2.400    0.000    5.200 
#    0.000    0.000    0.000    7.800    0.000    0.000 
#    0.000   20.800    0.000    0.000    0.000    3.200 
#
# Total GULP energy -495844.699742 kJ/mol
# GULP energy per Si atom -12396.117494 kJ/mol
# Density = 1.814214 g / cm^3
# Si number density = 18.183530 Si / 1000 Ang^3
#
#
#
# Elastic Constant Matrix: (Units=GPa)
#
#
# Indices 1 2 3 4 5 6 
#
# 1 65.3964 8.6826 4.3586 0.0000 0.0000 0.0000
# 2 8.6826 62.3998 72.9033 0.0000 0.0000 0.0000
# 3 4.3586 72.9033 132.5801 0.0000 0.0000 0.0000
# 4 0.0000 0.0000 0.0000 2.0548 0.0000 0.0000
# 5 0.0000 0.0000 0.0000 0.0000 18.7433 0.0000
# 6 0.0000 0.0000 0.0000 0.0000 0.0000 14.6479
#
#
#
# Elastic Compliance Matrix: (Units=1/GPa)
#
#
# Indices 1 2 3 4 5 6 
#
# 1 0.015752 -0.004438 0.001923 0.000000 0.000000 0.000000
# 2 -0.004438 0.046070 -0.025187 0.000000 0.000000 0.000000
# 3 0.001923 -0.025187 0.021329 0.000000 0.000000 0.000000
# 4 0.000000 0.000000 0.000000 0.486665 0.000000 0.000000
# 5 0.000000 0.000000 0.000000 0.000000 0.053353 0.000000
# 6 0.000000 0.000000 0.000000 0.000000 0.000000 0.068269
#
#
# Mechanical properties :
#
#
# Convention : Reuss Voigt Hill
#
# Bulk Modulus (GPa) = 36.04048 48.02947 42.03497
# Shear Modulus (GPa) = 6.61294 18.71799 12.66547
#
# Velocity S-wave (km/s) = 1.90910 3.21190 2.64206
# Velocity P-wave (km/s) = 4.97222 6.34240 5.69864
#
# Compressibility (1/GPa) = 0.02774658
#
# Stress axis : x y z
#
# Youngs Moduli (GPa) = 63.48218 21.70607 46.88373
#
# Poissons Ratio (x) = 0.09633 -0.09013
# Poissons Ratio (y) = 0.28173 1.18087
# Poissons Ratio (z) = -0.12204 0.54671
#
# Static dielectric constant tensor:
#      x y z
#    x 3.577130 0.000000 0.000000 
#    y 0.000000 2.906660 0.000000 
#    z 0.000000 0.000000 3.598330 
# 
# 
# High freq. dielectric constant tensor:
#      x y z
#    x 1.730140 0.000000 0.000000 
#    y 0.000000 1.649750 0.000000 
#    z 0.000000 0.000000 1.720830 
# 
# From -- ./inp_files/30312.got.cif
#   From: 2010.03.12/outbox.cif.g09.slc.cpg/sg50_16_cif.got.tgz:30312.got - 2010.04.16 13:23:21.
