data_PCOD8204063
_publ_section_title
;
Structure prediction by ZEFSAII (Michael W. Deem and Ramdas Pophale) SiO2 
 PCOD8204063
Probable space group: P C C M
;
_chemical_formula_sum "Si O2"
_cell_formula_units_Z 64
_cell_length_a 16.639256
_cell_length_b 12.324731
_cell_length_c 15.236629
_cell_angle_alpha 90.000000
_cell_angle_beta 90.000000
_cell_angle_gamma 90.000000
_cell_volume 3124.641853
_symmetry_space_group_name_H-M "P C C M"
_symmetry_group_IT_number 49
_symmetry_cell_setting 'orthorhombic'
loop_
_space_group_symop_operation_xyz
x,y,z
-x,-y,z
x,-y,1/2-z
-x,y,1/2-z
-x,-y,-z
x,y,-z
-x,y,1/2+z
x,-y,1/2+z
loop_
_atom_site_type_symbol
_atom_site_label
_atom_site_fract_x
_atom_site_fract_y
_atom_site_fract_z
Si Si1 0.643206 0.268875 0.644778
Si Si2 0.905133 0.874885 0.250000
Si Si3 0.368757 0.500000 0.345674
Si Si4 0.173780 0.738123 0.598773
Si Si5 0.500000 0.120807 0.354425
Si Si6 0.643206 0.268875 0.855222
Si Si7 0.826220 0.738123 0.401227
Si Si8 0.803947 0.500000 0.898736
O O1 0.608913 0.385555 0.608198
O O2 0.730385 0.244672 0.605566
O O3 0.580664 0.179019 0.611218
O O4 0.649848 0.272561 0.750000
O O5 0.871510 0.818423 0.163283
O O6 0.871510 0.818423 0.336717
O O7 0.000000 0.864175 0.250000
O O8 0.877383 0.000000 0.250000
O O9 0.409215 0.500000 0.250000
O O10 0.391087 0.385555 0.391802
O O11 0.272181 0.500000 0.335131
O O12 0.147308 0.767970 0.500000
O O13 0.147952 0.612406 0.619840
O O14 0.500000 0.120779 0.250000
O O15 0.419336 0.179019 0.388782
O O16 0.500000 0.000000 0.393130
O O17 0.730385 0.244672 0.894434
O O18 0.852692 0.767969 0.500000
O O19 0.852047 0.612406 0.380159
O O20 0.774451 0.499999 0.000000
#
# Coordination Sequence:
#
# PCOD8204063 Si02
#       8
#     8   8   8   8   8   8   8   8
#     4   9  16  30  50  78 110 148 189 231 283 338
#     4  11  26  45  63  86 116 152 196 243 286 334
#     4   8  14  23  44  72 105 142 183 229 276 334
#     4  10  20  38  64  91 119 153 191 234 290 353
#     4   9  18  29  44  70 107 148 192 243 290 325
#     4   9  16  30  50  78 110 148 189 231 283 338
#     4  10  20  38  64  91 119 153 191 234 290 353
#     4   8  16  30  55  90 121 146 179 229 287 349
#
# _framework density 20.482346
#
# number of rings (size 3 to 8) (size 9 to 14) (size 15 to 20)
#    0.000    2.750    1.250    0.000    1.750    2.500 
#    0.000    5.625    0.000    3.000    0.000    8.750 
#    0.000    0.000    0.000    0.000    0.000    0.000 
#
# Total GULP energy -792843.221183 kJ/mol
# GULP energy per Si atom -12388.175331 kJ/mol
# Density = 2.043573 g / cm^3
# Si number density = 20.482346 Si / 1000 Ang^3
#
#
#
# Elastic Constant Matrix: (Units=GPa)
#
#
# Indices 1 2 3 4 5 6 
#
# 1 74.1687 71.6102 28.9864 0.0000 0.0000 0.0000
# 2 71.6102 208.1383 57.5911 0.0000 0.0000 0.0000
# 3 28.9864 57.5911 86.2914 0.0000 0.0000 0.0000
# 4 0.0000 0.0000 0.0000 19.0715 0.0000 0.0000
# 5 0.0000 0.0000 0.0000 0.0000 -7.8560 0.0000
# 6 0.0000 0.0000 0.0000 0.0000 0.0000 4.3586
#
#
#
# Elastic Compliance Matrix: (Units=1/GPa)
#
#
# Indices 1 2 3 4 5 6 
#
# 1 0.020689 -0.006372 -0.002697 0.000000 0.000000 0.000000
# 2 -0.006372 0.007855 -0.003102 0.000000 0.000000 0.000000
# 3 -0.002697 -0.003102 0.014565 0.000000 0.000000 0.000000
# 4 0.000000 0.000000 0.000000 0.052434 0.000000 0.000000
# 5 0.000000 0.000000 0.000000 0.000000 -0.127291 0.000000
# 6 0.000000 0.000000 0.000000 0.000000 0.000000 0.229432
#
#
# Mechanical properties :
#
#
# Convention : Reuss Voigt Hill
#
# Bulk Modulus (GPa) = 53.28535 76.10819 64.69677
# Shear Modulus (GPa) = 21.90273 17.14220 19.52246
#
# Velocity S-wave (km/s) = 3.27363 2.89610 3.09064
# Velocity P-wave (km/s) = 6.35300 6.95858 6.66268
#
# Compressibility (1/GPa) = 0.01876689
#
# Stress axis : x y z
#
# Youngs Moduli (GPa) = 48.33537 127.30671 68.65771
#
# Poissons Ratio (x) = 0.81116 0.18518
# Poissons Ratio (y) = 0.30798 0.21299
# Poissons Ratio (z) = 0.13037 0.39492
#
# Static dielectric constant tensor:
#      x y z
#    x 3.317840 0.000000 0.000000 
#    y 0.000000 4.135310 0.000000 
#    z 0.000000 0.000000 3.554570 
# 
# 
# High freq. dielectric constant tensor:
#      x y z
#    x 1.760230 0.000000 0.000000 
#    y 0.000000 1.812620 0.000000 
#    z 0.000000 0.000000 1.788850 
# 
# From -- ./inp_files/14215.got.cif
#   From: 2010.03.12/outbox.cif.g09.slc.cpg/sg49_8_cif.got.tgz:14215.got - 2010.04.14 03:58:27.
