data_PCOD8204613
_publ_section_title
;
Structure prediction by ZEFSAII (Michael W. Deem and Ramdas Pophale) SiO2 
 PCOD8204613
Probable space group: P C C M
;
_chemical_formula_sum "Si O2"
_cell_formula_units_Z 56
_cell_length_a 11.695615
_cell_length_b 13.491541
_cell_length_c 17.935328
_cell_angle_alpha 90.000000
_cell_angle_beta 90.000000
_cell_angle_gamma 90.000000
_cell_volume 2830.048931
_symmetry_space_group_name_H-M "P C C M"
_symmetry_group_IT_number 49
_symmetry_cell_setting 'orthorhombic'
loop_
_space_group_symop_operation_xyz
x,y,z
-x,-y,z
x,-y,1/2-z
-x,y,1/2-z
-x,-y,-z
x,y,-z
-x,y,1/2+z
x,-y,1/2+z
loop_
_atom_site_type_symbol
_atom_site_label
_atom_site_fract_x
_atom_site_fract_y
_atom_site_fract_z
Si Si1 0.622642 0.533442 0.411109
Si Si2 0.362704 0.754415 0.911597
Si Si3 0.859306 0.126447 0.088286
Si Si4 0.057094 0.768067 0.325847
Si Si5 0.777107 0.946683 0.174898
Si Si6 0.773401 0.645148 0.915005
Si Si7 0.603915 0.827574 0.084925
O O1 0.500000 0.500000 0.378849
O O2 0.618042 0.531196 0.500000
O O3 0.650541 0.642888 0.379847
O O4 0.721569 0.457992 0.384175
O O5 0.255112 0.817612 0.884862
O O6 0.478152 0.806379 0.881466
O O7 0.371238 0.747922 0.000000
O O8 0.967250 0.188210 0.115737
O O9 0.855942 0.017137 0.123568
O O10 0.867362 0.115988 0.000000
O O11 0.147403 0.852242 0.303264
O O12 0.118866 0.674944 0.364447
O O13 0.000000 0.729351 0.250000
O O14 0.662766 0.915085 0.131497
O O15 0.737835 0.000000 0.250000
O O16 0.674499 0.726613 0.910457
O O17 0.816442 0.634243 0.000000
O O18 0.596671 0.865561 0.000000
#
# Coordination Sequence:
#
# PCOD8204613 Si02
#       7
#     8   8   8   8   8   8   8
#     4   9  14  27  56  89 118 146 181 228 283 344
#     4   9  18  33  54  85 121 152 185 231 291 346
#     4  11  23  37  56  82 114 154 193 236 286 341
#     4  11  22  38  59  79 110 154 195 245 289 338
#     4  11  22  37  58  81 109 149 200 244 289 345
#     4   9  17  30  56  92 117 144 191 240 285 340
#     4   9  17  32  55  85 119 149 188 239 289 345
#
# _framework density 19.787642999999999
#
# number of rings (size 3 to 8) (size 9 to 14) (size 15 to 20)
#    0.000    2.143    2.857    1.286    0.000    2.857 
#    0.000    4.286    0.000    5.143    0.000    1.000 
#    0.000    0.000    0.000    0.000    0.000    0.429 
#
# Total GULP energy -694498.816739 kJ/mol
# GULP energy per Si atom -12401.764585 kJ/mol
# Density = 1.974261 g / cm^3
# Si number density = 19.787643 Si / 1000 Ang^3
#
#
#
# Elastic Constant Matrix: (Units=GPa)
#
#
# Indices 1 2 3 4 5 6 
#
# 1 106.5490 54.7510 37.8118 0.0000 0.0000 0.0000
# 2 54.7510 69.7022 41.4396 0.0000 0.0000 0.0000
# 3 37.8118 41.4396 80.6225 0.0000 0.0000 0.0000
# 4 0.0000 0.0000 0.0000 13.7483 0.0000 0.0000
# 5 0.0000 0.0000 0.0000 0.0000 10.4665 0.0000
# 6 0.0000 0.0000 0.0000 0.0000 0.0000 36.1009
#
#
#
# Elastic Compliance Matrix: (Units=1/GPa)
#
#
# Indices 1 2 3 4 5 6 
#
# 1 0.015861 -0.011573 -0.001490 0.000000 0.000000 0.000000
# 2 -0.011573 0.029104 -0.009532 0.000000 0.000000 0.000000
# 3 -0.001490 -0.009532 0.018002 0.000000 0.000000 0.000000
# 4 0.000000 0.000000 0.000000 0.072736 0.000000 0.000000
# 5 0.000000 0.000000 0.000000 0.000000 0.095543 0.000000
# 6 0.000000 0.000000 0.000000 0.000000 0.000000 0.027700
#
#
# Mechanical properties :
#
#
# Convention : Reuss Voigt Hill
#
# Bulk Modulus (GPa) = 56.25264 58.31985 57.28624
# Shear Modulus (GPa) = 16.12584 20.25456 18.19020
#
# Velocity S-wave (km/s) = 2.85782 3.20284 3.03524
# Velocity P-wave (km/s) = 6.27530 6.57377 6.42627
#
# Compressibility (1/GPa) = 0.01777694
#
# Stress axis : x y z
#
# Youngs Moduli (GPa) = 63.04769 34.35960 55.55002
#
# Poissons Ratio (x) = 0.39763 0.08280
# Poissons Ratio (y) = 0.72963 0.52949
# Poissons Ratio (z) = 0.09397 0.32751
#
# Static dielectric constant tensor:
#      x y z
#    x 3.668750 0.000000 0.000000 
#    y 0.000000 3.679730 0.000000 
#    z 0.000000 0.000000 3.293700 
# 
# 
# High freq. dielectric constant tensor:
#      x y z
#    x 1.773730 0.000000 0.000000 
#    y 0.000000 1.768650 0.000000 
#    z 0.000000 0.000000 1.741950 
# 
# From -- ./inp_files/20484.got.cif
#   From: 2010.03.12/outbox.cif.g09.slc.cpg/sg49_11_cif.got.tgz:20484.got - 2010.04.14 03:58:27.
