data_PCOD8204559
_publ_section_title
;
Structure prediction by ZEFSAII (Michael W. Deem and Ramdas Pophale) SiO2 
 PCOD8204559
Probable space group: P C C M
;
_chemical_formula_sum "Si O2"
_cell_formula_units_Z 64
_cell_length_a 9.822962
_cell_length_b 16.298819
_cell_length_c 21.899181
_cell_angle_alpha 90.000000
_cell_angle_beta 90.000000
_cell_angle_gamma 90.000000
_cell_volume 3506.117561
_symmetry_space_group_name_H-M "P C C M"
_symmetry_group_IT_number 49
_symmetry_cell_setting 'orthorhombic'
loop_
_space_group_symop_operation_xyz
x,y,z
-x,-y,z
x,-y,1/2-z
-x,y,1/2-z
-x,-y,-z
x,y,-z
-x,y,1/2+z
x,-y,1/2+z
loop_
_atom_site_type_symbol
_atom_site_label
_atom_site_fract_x
_atom_site_fract_y
_atom_site_fract_z
Si Si1 0.650690 0.005803 0.930664
Si Si2 0.338716 0.903398 0.752870
Si Si3 0.492017 0.745008 0.927363
Si Si4 0.093674 0.427956 0.927750
Si Si5 0.399418 0.570121 0.572673
Si Si6 0.273204 0.151519 0.875111
Si Si7 0.751808 0.831529 0.619548
Si Si8 0.979132 0.245381 0.427497
O O1 0.749335 0.941820 0.897041
O O2 0.500000 0.000000 0.899506
O O3 0.716699 0.095086 0.926795
O O4 0.637625 0.977940 0.000000
O O5 0.500000 0.890313 0.750000
O O6 0.270098 0.851698 0.698135
O O7 0.272414 0.863387 0.812389
O O8 0.302627 0.000000 0.750000
O O9 0.546024 0.657550 0.904900
O O10 0.581539 0.818242 0.899991
O O11 0.342093 0.754538 0.898901
O O12 0.488323 0.751645 0.000000
O O13 0.246318 0.439082 0.900964
O O14 0.024417 0.341496 0.910551
O O15 0.000000 0.500000 0.900022
O O16 0.103701 0.435777 0.000000
O O17 0.500000 0.500000 0.599035
O O18 0.397708 0.565855 0.500000
O O19 0.162580 0.210106 0.904480
O O20 0.905296 0.801458 0.610268
O O21 0.996734 0.231761 0.500000
#
# Coordination Sequence:
#
# PCOD8204559 Si02
#       8
#     8   8   8   8   8   8   8   8
#     4  11  20  33  55  83 112 148 195 241 300 357
#     4  11  22  42  63  83 111 151 209 261 289 340
#     4  11  20  34  57  88 122 153 196 247 293 349
#     4   9  18  33  53  80 120 161 187 224 293 366
#     4   9  18  31  52  85 120 154 191 233 289 355
#     4  12  22  38  61  82 114 162 197 240 297 346
#     4  12  24  38  57  87 115 157 203 247 295 341
#     4  11  24  40  57  88 128 157 192 241 300 365
#
# _framework density 18.253807999999999
#
# number of rings (size 3 to 8) (size 9 to 14) (size 15 to 20)
#    0.000    1.250    5.000    2.250    1.750    1.000 
#    0.000    1.875    0.000    0.000    0.000    5.250 
#    0.000    0.000    0.000    0.000    0.000    0.000 
#
# Total GULP energy -793633.387796 kJ/mol
# GULP energy per Si atom -12400.521684 kJ/mol
# Density = 1.821226 g / cm^3
# Si number density = 18.253808 Si / 1000 Ang^3
#
#
#
# Elastic Constant Matrix: (Units=GPa)
#
#
# Indices 1 2 3 4 5 6 
#
# 1 57.6618 39.0465 24.2874 0.0000 0.0000 0.0000
# 2 39.0465 113.2171 30.5069 0.0000 0.0000 0.0000
# 3 24.2874 30.5069 86.7378 0.0000 0.0000 0.0000
# 4 0.0000 0.0000 0.0000 7.9127 0.0000 0.0000
# 5 0.0000 0.0000 0.0000 0.0000 23.8615 0.0000
# 6 0.0000 0.0000 0.0000 0.0000 0.0000 35.2661
#
#
#
# Elastic Compliance Matrix: (Units=1/GPa)
#
#
# Indices 1 2 3 4 5 6 
#
# 1 0.023934 -0.007124 -0.004196 0.000000 0.000000 0.000000
# 2 -0.007124 0.011878 -0.002183 0.000000 0.000000 0.000000
# 3 -0.004196 -0.002183 0.013472 0.000000 0.000000 0.000000
# 4 0.000000 0.000000 0.000000 0.126379 0.000000 0.000000
# 5 0.000000 0.000000 0.000000 0.000000 0.041908 0.000000
# 6 0.000000 0.000000 0.000000 0.000000 0.000000 0.028356
#
#
# Mechanical properties :
#
#
# Convention : Reuss Voigt Hill
#
# Bulk Modulus (GPa) = 44.88784 49.47760 47.18272
# Shear Modulus (GPa) = 17.83438 24.32648 21.08043
#
# Velocity S-wave (km/s) = 3.12913 3.65455 3.40200
# Velocity P-wave (km/s) = 6.14000 6.70610 6.42929
#
# Compressibility (1/GPa) = 0.02227775
#
# Stress axis : x y z
#
# Youngs Moduli (GPa) = 41.78184 84.19235 74.22964
#
# Poissons Ratio (x) = 0.59976 0.31148
# Poissons Ratio (y) = 0.29764 0.16203
# Poissons Ratio (z) = 0.17533 0.18378
#
# Static dielectric constant tensor:
#      x y z
#    x 3.567340 0.000000 0.000000 
#    y 0.000000 3.504280 0.000000 
#    z 0.000000 0.000000 3.103970 
# 
# 
# High freq. dielectric constant tensor:
#      x y z
#    x 1.705790 0.000000 0.000000 
#    y 0.000000 1.715300 0.000000 
#    z 0.000000 0.000000 1.673260 
# 
# From -- ./inp_files/22551.got.cif
#   From: 2010.03.12/outbox.cif.g09.slc.cpg/sg49_12_cif.got.tgz:22551.got - 2010.04.14 03:58:27.
