data_PCOD8204047
_publ_section_title
;
Structure prediction by ZEFSAII (Michael W. Deem and Ramdas Pophale) SiO2 
 PCOD8204047
Probable space group: P C C M
;
_chemical_formula_sum "Si O2"
_cell_formula_units_Z 48
_cell_length_a 30.049883
_cell_length_b 9.547525
_cell_length_c 8.530814
_cell_angle_alpha 90.000000
_cell_angle_beta 90.000000
_cell_angle_gamma 90.000000
_cell_volume 2447.507677
_symmetry_space_group_name_H-M "P C C M"
_symmetry_group_IT_number 49
_symmetry_cell_setting 'orthorhombic'
loop_
_space_group_symop_operation_xyz
x,y,z
-x,-y,z
x,-y,1/2-z
-x,y,1/2-z
-x,-y,-z
x,y,-z
-x,y,1/2+z
x,-y,1/2+z
loop_
_atom_site_type_symbol
_atom_site_label
_atom_site_fract_x
_atom_site_fract_y
_atom_site_fract_z
Si Si1 0.451767 0.649690 0.685259
Si Si2 0.301942 0.349703 0.186293
Si Si3 0.798923 0.646767 0.183955
Si Si4 0.376249 0.844666 0.185252
Si Si5 0.123097 0.154744 0.814157
Si Si6 0.951407 0.648453 0.685254
O O1 0.435563 0.500000 0.750000
O O2 0.500000 0.690357 0.750000
O O3 0.453919 0.640294 0.500000
O O4 0.417890 0.768373 0.736913
O O5 0.317900 0.500000 0.250000
O O6 0.251216 0.320615 0.240245
O O7 0.330648 0.230305 0.267541
O O8 0.308314 0.344737 0.000000
O O9 0.816401 0.500000 0.250000
O O10 0.831865 0.768106 0.242330
O O11 0.799917 0.633299 0.000000
O O12 0.374336 0.000000 0.250000
O O13 0.382062 0.845216 0.000000
O O14 0.080674 0.228490 0.739182
O O15 0.126043 0.000000 0.750000
O O16 0.118103 0.155573 0.000000
O O17 0.933779 0.500000 0.750000
O O18 0.953406 0.640139 0.500000
O O19 0.000000 0.683391 0.750000
#
# Coordination Sequence:
#
# PCOD8204047 Si02
#       6
#     8   8   8   8   8   8
#     4  11  22  40  64  91 119 153 194 240 287 340
#     4  10  20  38  61  88 117 152 194 240 287 339
#     4   9  20  37  60  86 115 149 192 238 286 339
#     4  12  25  41  59  85 118 156 195 239 291 347
#     4  11  23  39  57  84 118 155 193 236 287 344
#     4  11  22  39  62  88 115 149 190 237 285 339
#
# _framework density 19.611785999999999
#
# number of rings (size 3 to 8) (size 9 to 14) (size 15 to 20)
#    0.000    1.333    0.000    7.500    0.000    4.667 
#    0.000    5.000    0.000    0.000    0.000    0.000 
#    0.000    0.000    0.000    0.000    0.000    0.000 
#
# Total GULP energy -595441.399835 kJ/mol
# GULP energy per Si atom -12405.029163 kJ/mol
# Density = 1.956715 g / cm^3
# Si number density = 19.611786 Si / 1000 Ang^3
#
#
#
# Elastic Constant Matrix: (Units=GPa)
#
#
# Indices 1 2 3 4 5 6 
#
# 1 122.2033 95.4047 50.7765 0.0000 0.0000 0.0000
# 2 95.4047 176.1194 57.5859 0.0000 0.0000 0.0000
# 3 50.7765 57.5859 139.6794 0.0000 0.0000 0.0000
# 4 0.0000 0.0000 0.0000 38.1431 0.0000 0.0000
# 5 0.0000 0.0000 0.0000 0.0000 38.5886 0.0000
# 6 0.0000 0.0000 0.0000 0.0000 0.0000 18.2453
#
#
#
# Elastic Compliance Matrix: (Units=1/GPa)
#
#
# Indices 1 2 3 4 5 6 
#
# 1 0.014848 -0.007257 -0.002406 0.000000 0.000000 0.000000
# 2 -0.007257 0.010109 -0.001530 0.000000 0.000000 0.000000
# 3 -0.002406 -0.001530 0.008665 0.000000 0.000000 0.000000
# 4 0.000000 0.000000 0.000000 0.026217 0.000000 0.000000
# 5 0.000000 0.000000 0.000000 0.000000 0.025914 0.000000
# 6 0.000000 0.000000 0.000000 0.000000 0.000000 0.054809
#
#
# Mechanical properties :
#
#
# Convention : Reuss Voigt Hill
#
# Bulk Modulus (GPa) = 88.99064 93.94850 91.46957
# Shear Modulus (GPa) = 29.99548 34.61108 32.30328
#
# Velocity S-wave (km/s) = 3.91508 4.20552 4.06290
# Velocity P-wave (km/s) = 8.11860 8.46109 8.29161
#
# Compressibility (1/GPa) = 0.01123714
#
# Stress axis : x y z
#
# Youngs Moduli (GPa) = 67.34919 98.92100 115.41319
#
# Poissons Ratio (x) = 0.71783 0.27767
# Poissons Ratio (y) = 0.48872 0.17656
# Poissons Ratio (z) = 0.16203 0.15133
#
# Static dielectric constant tensor:
#      x y z
#    x 3.867730 0.000000 0.000000 
#    y 0.000000 3.538330 0.000000 
#    z 0.000000 0.000000 3.736820 
# 
# 
# High freq. dielectric constant tensor:
#      x y z
#    x 1.778830 0.000000 0.000000 
#    y 0.000000 1.764790 0.000000 
#    z 0.000000 0.000000 1.781490 
# 
# From -- ./inp_files/2030.got.cif
#   From: 2010.03.12/outbox.cif.g09.slc.cpg/sg49_2_cif.got.tgz:2030.got - 2010.04.14 03:58:27.
