data_PCOD8204630
_publ_section_title
;
Structure prediction by ZEFSAII (Michael W. Deem and Ramdas Pophale) SiO2 
 PCOD8204630
Probable space group: P C C M
;
_chemical_formula_sum "Si O2"
_cell_formula_units_Z 56
_cell_length_a 30.573412
_cell_length_b 5.014025
_cell_length_c 16.515343
_cell_angle_alpha 90.000000
_cell_angle_beta 90.000000
_cell_angle_gamma 90.000000
_cell_volume 2531.733578
_symmetry_space_group_name_H-M "P C C M"
_symmetry_group_IT_number 49
_symmetry_cell_setting 'orthorhombic'
loop_
_space_group_symop_operation_xyz
x,y,z
-x,-y,z
x,-y,1/2-z
-x,y,1/2-z
-x,-y,-z
x,y,-z
-x,y,1/2+z
x,-y,1/2+z
loop_
_atom_site_type_symbol
_atom_site_label
_atom_site_fract_x
_atom_site_fract_y
_atom_site_fract_z
Si Si1 0.450078 0.530881 0.154748
Si Si2 0.027893 0.738254 0.092453
Si Si3 0.832511 0.413404 0.340733
Si Si4 0.878433 0.897207 0.593124
Si Si5 0.692599 0.009185 0.155758
Si Si6 0.598163 0.976242 0.094324
Si Si7 0.260005 0.522749 0.593595
O O1 0.500000 0.500000 0.127382
O O2 0.444173 0.500000 0.250000
O O3 0.417875 0.323526 0.110787
O O4 0.439000 0.828018 0.126803
O O5 0.075209 0.799659 0.131809
O O6 0.000000 0.500000 0.135304
O O7 0.036746 0.651298 0.000000
O O8 0.000000 0.000000 0.099878
O O9 0.843138 0.500000 0.250000
O O10 0.845977 0.647779 0.402113
O O11 0.780941 0.373937 0.353521
O O12 0.859267 0.143950 0.356887
O O13 0.884092 0.988026 0.500000
O O14 0.724039 0.228681 0.116119
O O15 0.703461 0.000000 0.250000
O O16 0.641647 0.063411 0.142193
O O17 0.701115 0.726221 0.113149
O O18 0.607255 0.014455 0.000000
O O19 0.247008 0.530445 0.500000
#
# Coordination Sequence:
#
# PCOD8204630 Si02
#       7
#     8   8   8   8   8   8   8
#     4  11  24  43  66  93 127 168 212 260 318 382
#     4   9  17  31  55  88 121 153 197 253 304 353
#     4  12  25  42  62  90 128 169 209 255 317 381
#     4  11  22  39  64  93 124 163 213 264 313 369
#     4  12  25  44  67  94 128 167 209 257 318 381
#     4  12  25  42  65  95 129 166 211 262 316 375
#     4  12  25  44  67  94 126 163 212 265 316 372
#
# _framework density 22.119233000000001
#
# number of rings (size 3 to 8) (size 9 to 14) (size 15 to 20)
#    0.000    0.714    0.000    9.000    0.000    5.143 
#    0.000    0.000    0.000    6.429    0.000    0.000 
#    0.000    0.000    0.000    0.000    0.000    0.571 
#
# Total GULP energy -694732.009634 kJ/mol
# GULP energy per Si atom -12405.928743 kJ/mol
# Density = 2.206889 g / cm^3
# Si number density = 22.119233 Si / 1000 Ang^3
#
#
#
# Elastic Constant Matrix: (Units=GPa)
#
#
# Indices 1 2 3 4 5 6 
#
# 1 128.3654 37.6764 28.0014 0.0000 0.0000 0.0000
# 2 37.6764 110.5717 22.8604 0.0000 0.0000 0.0000
# 3 28.0014 22.8604 70.2422 0.0000 0.0000 0.0000
# 4 0.0000 0.0000 0.0000 33.2377 0.0000 0.0000
# 5 0.0000 0.0000 0.0000 0.0000 10.7526 0.0000
# 6 0.0000 0.0000 0.0000 0.0000 0.0000 33.6995
#
#
#
# Elastic Compliance Matrix: (Units=1/GPa)
#
#
# Indices 1 2 3 4 5 6 
#
# 1 0.009150 -0.002534 -0.002823 0.000000 0.000000 0.000000
# 2 -0.002534 0.010398 -0.002374 0.000000 0.000000 0.000000
# 3 -0.002823 -0.002374 0.016134 0.000000 0.000000 0.000000
# 4 0.000000 0.000000 0.000000 0.030086 0.000000 0.000000
# 5 0.000000 0.000000 0.000000 0.000000 0.093001 0.000000
# 6 0.000000 0.000000 0.000000 0.000000 0.000000 0.029674
#
#
# Mechanical properties :
#
#
# Convention : Reuss Voigt Hill
#
# Bulk Modulus (GPa) = 49.45414 54.02842 51.74128
# Shear Modulus (GPa) = 23.73661 30.24737 26.99199
#
# Velocity S-wave (km/s) = 3.27941 3.70194 3.49706
# Velocity P-wave (km/s) = 6.06184 6.53846 6.30466
#
# Compressibility (1/GPa) = 0.02022075
#
# Stress axis : x y z
#
# Youngs Moduli (GPa) = 109.29206 96.17065 61.97973
#
# Poissons Ratio (x) = 0.24371 0.17495
# Poissons Ratio (y) = 0.27696 0.14713
# Poissons Ratio (z) = 0.30850 0.22830
#
# Static dielectric constant tensor:
#      x y z
#    x 4.078750 0.000000 0.000000 
#    y 0.000000 4.044980 0.000000 
#    z 0.000000 0.000000 3.887550 
# 
# 
# High freq. dielectric constant tensor:
#      x y z
#    x 1.886710 0.000000 0.000000 
#    y 0.000000 1.884670 0.000000 
#    z 0.000000 0.000000 1.859200 
# 
# From -- ./inp_files/14609.got.cif
#   From: 2010.03.12/outbox.cif.g09.slc.cpg/sg49_8_cif.got.tgz:14609.got - 2010.04.14 03:58:27.
