data_PCOD8204925
_publ_section_title
;
Structure prediction by ZEFSAII (Michael W. Deem and Ramdas Pophale) SiO2 
 PCOD8204925
Probable space group: P B A N
;
_chemical_formula_sum "Si O2"
_cell_formula_units_Z 36
_cell_length_a 8.786428
_cell_length_b 21.664263
_cell_length_c 9.779206
_cell_angle_alpha 90.000000
_cell_angle_beta 90.000000
_cell_angle_gamma 90.000000
_cell_volume 1861.486404
_symmetry_space_group_name_H-M "P B A N"
_symmetry_group_IT_number 50
_space_group.IT_coordinate_system_code '2'
_symmetry_cell_setting 'orthorhombic'
loop_
_space_group_symop_operation_xyz
x,y,z
1/2-x,1/2-y,z
x,1/2-y,-z
1/2-x,y,-z
-x,-y,-z
1/2+x,1/2+y,-z
-x,1/2+y,z
1/2+x,-y,z
loop_
_atom_site_type_symbol
_atom_site_label
_atom_site_fract_x
_atom_site_fract_y
_atom_site_fract_z
Si Si1 0.074972 0.937098 0.540790
Si Si2 0.750000 0.250000 0.500000
Si Si3 0.497276 0.329231 0.638669
Si Si4 0.879714 0.452848 0.837247
Si Si5 0.250000 0.250000 0.500000
Si Si6 0.961041 0.078475 0.873660
O O1 0.250000 0.935970 0.500000
O O2 0.980300 0.885618 0.464050
O O3 0.049301 0.924245 0.700943
O O4 0.000000 0.000000 0.500000
O O5 0.650591 0.291498 0.603410
O O6 0.350367 0.288035 0.608718
O O7 0.500629 0.357274 0.794189
O O8 0.698542 0.448571 0.822031
O O9 0.912301 0.526088 0.848510
O O10 0.946886 0.411932 0.962301
#
# Coordination Sequence:
#
# PCOD8204925 Si02
#       6
#     8   2   8   8   2   8
#     4  12  21  33  59  93 125 150 191 251 316 371
#     4  10  20  38  62  76 116 158 226 244 288 338
#     4  11  21  40  58  86 114 165 205 262 296 360
#     4  10  19  34  53  95 120 156 179 238 312 391
#     4  10  28  38  62  84 120 170 232 258 292 342
#     4  10  20  34  58  81 130 154 190 232 315 365
#
# _framework density 19.339383999999999
#
# number of rings (size 3 to 8) (size 9 to 14) (size 15 to 20)
#    0.000    1.333    5.556    0.000    1.556    1.778 
#    0.000    0.000    0.000   21.333    0.000    0.000 
#    0.000    0.000    0.000    0.000    0.000    0.000 
#
# Total GULP energy -446217.279765 kJ/mol
# GULP energy per Si atom -12394.924438 kJ/mol
# Density = 1.929537 g / cm^3
# Si number density = 19.339384 Si / 1000 Ang^3
#
#
#
# Elastic Constant Matrix: (Units=GPa)
#
#
# Indices 1 2 3 4 5 6 
#
# 1 90.8991 49.6029 30.4091 0.0000 0.0000 0.0000
# 2 49.6029 115.7855 53.8034 0.0000 0.0000 0.0000
# 3 30.4091 53.8034 165.8372 0.0000 0.0000 0.0000
# 4 0.0000 0.0000 0.0000 41.3912 0.0000 0.0000
# 5 0.0000 0.0000 0.0000 0.0000 20.0000 0.0000
# 6 0.0000 0.0000 0.0000 0.0000 0.0000 26.2674
#
#
#
# Elastic Compliance Matrix: (Units=1/GPa)
#
#
# Indices 1 2 3 4 5 6 
#
# 1 0.014437 -0.005834 -0.000754 0.000000 0.000000 0.000000
# 2 -0.005834 0.012528 -0.002995 0.000000 0.000000 0.000000
# 3 -0.000754 -0.002995 0.007140 0.000000 0.000000 0.000000
# 4 0.000000 0.000000 0.000000 0.024160 0.000000 0.000000
# 5 0.000000 0.000000 0.000000 0.000000 0.050000 0.000000
# 6 0.000000 0.000000 0.000000 0.000000 0.000000 0.038070
#
#
# Mechanical properties :
#
#
# Convention : Reuss Voigt Hill
#
# Bulk Modulus (GPa) = 66.94317 71.12805 69.03561
# Shear Modulus (GPa) = 29.32877 33.44548 31.38712
#
# Velocity S-wave (km/s) = 3.89849 4.16311 4.03297
# Velocity P-wave (km/s) = 7.41312 7.74386 7.58030
#
# Compressibility (1/GPa) = 0.01493804
#
# Stress axis : x y z
#
# Youngs Moduli (GPa) = 69.26446 79.82316 140.05810
#
# Poissons Ratio (x) = 0.46573 0.10567
# Poissons Ratio (y) = 0.40412 0.41941
# Poissons Ratio (z) = 0.05226 0.23904
#
# Static dielectric constant tensor:
#      x y z
#    x 3.419550 0.000000 0.000000 
#    y 0.000000 3.067930 0.000000 
#    z 0.000000 0.000000 3.942470 
# 
# 
# High freq. dielectric constant tensor:
#      x y z
#    x 1.755310 0.000000 0.000000 
#    y 0.000000 1.731990 0.000000 
#    z 0.000000 0.000000 1.761780 
# 
# From -- ./inp_files/18902.got.cif
#   From: 2010.03.12/outbox.cif.g09.slc.cpg/sg50_10_cif.got.tgz:18902.got - 2010.04.16 13:23:21.
