data_PCOD8204175
_publ_section_title
;
Structure prediction by ZEFSAII (Michael W. Deem and Ramdas Pophale) SiO2 
 PCOD8204175
Probable space group: P C C M
;
_chemical_formula_sum "Si O2"
_cell_formula_units_Z 56
_cell_length_a 13.863872
_cell_length_b 23.764454
_cell_length_c 8.902232
_cell_angle_alpha 90.000000
_cell_angle_beta 90.000000
_cell_angle_gamma 90.000000
_cell_volume 2932.994772
_symmetry_space_group_name_H-M "P C C M"
_symmetry_group_IT_number 49
_symmetry_cell_setting 'orthorhombic'
loop_
_space_group_symop_operation_xyz
x,y,z
-x,-y,z
x,-y,1/2-z
-x,y,1/2-z
-x,-y,-z
x,y,-z
-x,y,1/2+z
x,-y,1/2+z
loop_
_atom_site_type_symbol
_atom_site_label
_atom_site_fract_x
_atom_site_fract_y
_atom_site_fract_z
Si Si1 0.101878 0.058972 0.320840
Si Si2 0.406622 0.790619 0.673759
Si Si3 0.199470 0.371677 0.729706
Si Si4 0.204049 0.841060 0.672786
Si Si5 0.098097 0.739745 0.167657
Si Si6 0.870898 0.547539 0.500000
Si Si7 0.907427 0.581321 0.000000
Si Si8 0.399974 0.329111 0.319308
O O1 0.093396 0.053657 0.500000
O O2 0.179338 0.105614 0.275282
O O3 0.000000 0.077463 0.250000
O O4 0.135476 0.000000 0.250000
O O5 0.500000 0.820048 0.750000
O O6 0.426761 0.774143 0.500000
O O7 0.318667 0.833673 0.685905
O O8 0.384193 0.735066 0.769707
O O9 0.164099 0.315362 0.646877
O O10 0.185508 0.429726 0.642170
O O11 0.130595 0.379291 0.869707
O O12 0.314037 0.365469 0.756405
O O13 0.173102 0.851078 0.500000
O O14 0.151091 0.785952 0.732418
O O15 0.000000 0.723045 0.250000
O O16 0.078096 0.763619 0.000000
O O17 0.862807 0.480756 0.500000
O O18 0.978238 0.573807 0.500000
O O19 0.500000 0.352380 0.250000
O O20 0.398501 0.334387 0.500000
#
# Coordination Sequence:
#
# PCOD8204175 Si02
#       8
#     8   8   8   8   8   4   4   8
#     4  11  22  39  62  87 121 165 212 254 295 347
#     4  10  21  36  58  85 119 155 196 243 298 361
#     4  12  24  39  63  89 120 155 197 250 303 362
#     4  11  23  38  58  87 123 159 201 247 298 360
#     4  12  24  37  55  83 122 158 192 240 303 364
#     4  11  22  48  59  95 115 161 201 247 293 356
#     4  11  26  38  71  85 123 155 205 243 295 364
#     4  11  22  38  61  87 119 153 199 247 302 367
#
# _framework density 19.093112999999999
#
# number of rings (size 3 to 8) (size 9 to 14) (size 15 to 20)
#    0.000    0.857    2.857    6.429    4.000    2.857 
#    0.000    0.000    0.000    3.000    0.000    3.000 
#    0.000    0.000    0.000    0.000    0.000    0.000 
#
# Total GULP energy -694278.470191 kJ/mol
# GULP energy per Si atom -12397.829825 kJ/mol
# Density = 1.904966 g / cm^3
# Si number density = 19.093113 Si / 1000 Ang^3
#
#
#
# Elastic Constant Matrix: (Units=GPa)
#
#
# Indices 1 2 3 4 5 6 
#
# 1 116.1003 42.7896 30.1585 0.0000 0.0000 0.0000
# 2 42.7896 81.7368 25.1531 0.0000 0.0000 0.0000
# 3 30.1585 25.1531 121.1794 0.0000 0.0000 0.0000
# 4 0.0000 0.0000 0.0000 23.7421 0.0000 0.0000
# 5 0.0000 0.0000 0.0000 0.0000 22.7303 0.0000
# 6 0.0000 0.0000 0.0000 0.0000 0.0000 25.1253
#
#
#
# Elastic Compliance Matrix: (Units=1/GPa)
#
#
# Indices 1 2 3 4 5 6 
#
# 1 0.010970 -0.005237 -0.001643 0.000000 0.000000 0.000000
# 2 -0.005237 0.015570 -0.001928 0.000000 0.000000 0.000000
# 3 -0.001643 -0.001928 0.009061 0.000000 0.000000 0.000000
# 4 0.000000 0.000000 0.000000 0.042119 0.000000 0.000000
# 5 0.000000 0.000000 0.000000 0.000000 0.043994 0.000000
# 6 0.000000 0.000000 0.000000 0.000000 0.000000 0.039801
#
#
# Mechanical properties :
#
#
# Convention : Reuss Voigt Hill
#
# Bulk Modulus (GPa) = 55.60584 57.24652 56.42618
# Shear Modulus (GPa) = 27.00843 29.04724 28.02783
#
# Velocity S-wave (km/s) = 3.76515 3.90468 3.83555
# Velocity P-wave (km/s) = 6.93459 7.09764 7.01659
#
# Compressibility (1/GPa) = 0.01798372
#
# Stress axis : x y z
#
# Youngs Moduli (GPa) = 91.15492 64.22778 110.35807
#
# Poissons Ratio (x) = 0.33639 0.18133
# Poissons Ratio (y) = 0.47741 0.21280
# Poissons Ratio (z) = 0.14978 0.12385
#
# Static dielectric constant tensor:
#      x y z
#    x 3.696230 0.000000 0.000000 
#    y 0.000000 3.312170 0.000000 
#    z 0.000000 0.000000 3.620940 
# 
# 
# High freq. dielectric constant tensor:
#      x y z
#    x 1.744110 0.000000 0.000000 
#    y 0.000000 1.721190 0.000000 
#    z 0.000000 0.000000 1.763060 
# 
# From -- ./inp_files/4130.got.cif
#   From: 2010.03.12/outbox.cif.g09.slc.cpg/sg49_3_cif.got.tgz:4130.got - 2010.04.14 03:58:27.
