data_PCOD8204585
_publ_section_title
;
Structure prediction by ZEFSAII (Michael W. Deem and Ramdas Pophale) SiO2 
 PCOD8204585
Probable space group: P C C M
;
_chemical_formula_sum "Si O2"
_cell_formula_units_Z 64
_cell_length_a 17.811310
_cell_length_b 12.287903
_cell_length_c 14.602310
_cell_angle_alpha 90.000000
_cell_angle_beta 90.000000
_cell_angle_gamma 90.000000
_cell_volume 3195.914859
_symmetry_space_group_name_H-M "P C C M"
_symmetry_group_IT_number 49
_symmetry_cell_setting 'orthorhombic'
loop_
_space_group_symop_operation_xyz
x,y,z
-x,-y,z
x,-y,1/2-z
-x,y,1/2-z
-x,-y,-z
x,y,-z
-x,y,1/2+z
x,-y,1/2+z
loop_
_atom_site_type_symbol
_atom_site_label
_atom_site_fract_x
_atom_site_fract_y
_atom_site_fract_z
Si Si1 0.912947 0.991758 0.856817
Si Si2 0.814482 0.813145 0.398541
Si Si3 0.811897 0.199349 0.602960
Si Si4 0.922002 0.369754 0.891142
Si Si5 0.410919 0.500240 0.103635
Si Si6 0.088186 0.611849 0.391196
Si Si7 0.588814 0.325115 0.250215
Si Si8 0.304290 0.873201 0.750330
O O1 0.870555 0.086588 0.909491
O O2 0.893386 0.000000 0.750000
O O3 0.884010 0.878605 0.896542
O O4 0.000000 0.000000 0.878452
O O5 0.786212 0.780286 0.500000
O O6 0.861975 0.715734 0.350367
O O7 0.742340 0.845089 0.340484
O O8 0.781582 0.214254 0.500000
O O9 0.843442 0.313115 0.644350
O O10 0.744649 0.149974 0.660927
O O11 0.896214 0.489169 0.857969
O O12 0.006639 0.347661 0.854147
O O13 0.921347 0.360310 0.000000
O O14 0.500000 0.500000 0.098495
O O15 0.384982 0.607921 0.159544
O O16 0.384930 0.392401 0.159288
O O17 0.376829 0.500321 0.000000
O O18 0.084998 0.616473 0.500000
O O19 0.500000 0.310252 0.250000
O O20 0.623463 0.204657 0.251189
O O21 0.329266 0.000000 0.750000
#
# Coordination Sequence:
#
# PCOD8204585 Si02
#       8
#     8   8   8   8   8   8   8   8
#     4  11  21  35  57  82 107 142 198 258 302 347
#     4  11  21  37  57  78 110 153 194 242 301 352
#     4  11  21  37  57  78 110 153 194 242 301 352
#     4   8  15  30  52  77 105 139 183 234 288 350
#     4   8  15  35  68 101 127 148 179 231 289 345
#     4   8  15  30  52  77 105 139 183 234 288 350
#     4   9  20  39  65  95 124 156 194 236 287 352
#     4  12  25  42  56  81 120 158 202 249 290 344
#
# _framework density 20.025565
#
# number of rings (size 3 to 8) (size 9 to 14) (size 15 to 20)
#    0.000    2.250    2.500    2.625    0.000    3.250 
#    4.500    0.000    0.000    1.500    0.000    5.250 
#    0.000    0.000    0.000    0.000    0.000    0.000 
#
# Total GULP energy -793318.063426 kJ/mol
# GULP energy per Si atom -12395.594741 kJ/mol
# Density = 1.997999 g / cm^3
# Si number density = 20.025565 Si / 1000 Ang^3
#
#
#
# Elastic Constant Matrix: (Units=GPa)
#
#
# Indices 1 2 3 4 5 6 
#
# 1 59.3796 47.1977 24.8880 0.0000 0.0000 0.0000
# 2 47.1977 112.4408 17.7306 0.0000 0.0000 0.0000
# 3 24.8880 17.7306 101.4608 0.0000 0.0000 0.0000
# 4 0.0000 0.0000 0.0000 39.4024 0.0000 0.0000
# 5 0.0000 0.0000 0.0000 0.0000 -6.9163 0.0000
# 6 0.0000 0.0000 0.0000 0.0000 0.0000 37.7413
#
#
#
# Elastic Compliance Matrix: (Units=1/GPa)
#
#
# Indices 1 2 3 4 5 6 
#
# 1 0.027410 -0.010741 -0.004846 0.000000 0.000000 0.000000
# 2 -0.010741 0.013355 0.000301 0.000000 0.000000 0.000000
# 3 -0.004846 0.000301 0.010992 0.000000 0.000000 0.000000
# 4 0.000000 0.000000 0.000000 0.025379 0.000000 0.000000
# 5 0.000000 0.000000 0.000000 0.000000 -0.144586 0.000000
# 6 0.000000 0.000000 0.000000 0.000000 0.000000 0.026496
#
#
# Mechanical properties :
#
#
# Convention : Reuss Voigt Hill
#
# Bulk Modulus (GPa) = 47.20666 50.32374 48.76520
# Shear Modulus (GPa) = -1506.28266 26.27648 -740.00309
#
# Velocity S-wave (km/s) = -27.45565 3.62629 -19.24400
# Velocity P-wave (km/s) = 31.32825 6.53587 21.66497
#
# Compressibility (1/GPa) = 0.02118345
#
# Stress axis : x y z
#
# Youngs Moduli (GPa) = 36.48347 74.87964 90.97322
#
# Poissons Ratio (x) = 0.80429 0.44090
# Poissons Ratio (y) = 0.39187 -0.02738
# Poissons Ratio (z) = 0.17682 -0.02254
#
# Static dielectric constant tensor:
#      x y z
#    x 3.004970 0.000000 0.000000 
#    y 0.000000 3.920120 0.000000 
#    z 0.000000 0.000000 3.705430 
# 
# 
# High freq. dielectric constant tensor:
#      x y z
#    x 1.742260 0.000000 0.000000 
#    y 0.000000 1.788630 0.000000 
#    z 0.000000 0.000000 1.783760 
# 
# From -- ./inp_files/14168.got.cif
#   From: 2010.03.12/outbox.cif.g09.slc.cpg/sg49_8_cif.got.tgz:14168.got - 2010.04.14 03:58:27.
