data_PCOD8204099
_publ_section_title
;
Structure prediction by ZEFSAII (Michael W. Deem and Ramdas Pophale) SiO2 
 PCOD8204099
Probable space group: P C C M
;
_chemical_formula_sum "Si O2"
_cell_formula_units_Z 48
_cell_length_a 9.147622
_cell_length_b 9.521946
_cell_length_c 27.985670
_cell_angle_alpha 90.000000
_cell_angle_beta 90.000000
_cell_angle_gamma 90.000000
_cell_volume 2437.640368
_symmetry_space_group_name_H-M "P C C M"
_symmetry_group_IT_number 49
_symmetry_cell_setting 'orthorhombic'
loop_
_space_group_symop_operation_xyz
x,y,z
-x,-y,z
x,-y,1/2-z
-x,y,1/2-z
-x,-y,-z
x,y,-z
-x,y,1/2+z
x,-y,1/2+z
loop_
_atom_site_type_symbol
_atom_site_label
_atom_site_fract_x
_atom_site_fract_y
_atom_site_fract_z
Si Si1 0.748201 0.678522 0.054591
Si Si2 0.929110 0.848674 0.702939
Si Si3 0.975714 0.653755 0.615856
Si Si4 0.577026 0.849363 0.704391
Si Si5 0.296460 0.363287 0.446393
Si Si6 0.513864 0.166683 0.601761
O O1 0.664664 0.528506 0.059469
O O2 0.680692 0.793280 0.090828
O O3 0.914102 0.668785 0.071731
O O4 0.745830 0.731667 0.000000
O O5 0.988983 0.763635 0.658181
O O6 0.752816 0.856946 0.708631
O O7 0.000000 0.777662 0.750000
O O8 0.000000 0.000000 0.696698
O O9 0.818914 0.680031 0.593304
O O10 0.000000 0.500000 0.638682
O O11 0.500000 0.769988 0.750000
O O12 0.534966 0.777329 0.654109
O O13 0.500000 0.000000 0.702762
O O14 0.236793 0.339415 0.500000
O O15 0.430510 0.257356 0.438491
O O16 0.500000 0.000000 0.595252
#
# Coordination Sequence:
#
# PCOD8204099 Si02
#       6
#     8   8   8   8   8   8
#     4  10  22  38  61  85 115 161 201 236 288 348
#     4  11  23  38  65  92 115 155 197 236 293 358
#     4  10  22  39  61  88 119 151 196 248 292 340
#     4  10  21  38  60  86 119 153 191 236 289 348
#     4  10  20  40  61  83 116 157 199 239 287 355
#     4  11  23  36  59  89 119 152 194 244 294 344
#
# _framework density 19.691172999999999
#
# number of rings (size 3 to 8) (size 9 to 14) (size 15 to 20)
#    0.000    1.667    1.667    3.500    7.000    5.000 
#    0.000    0.000    0.000    5.000    0.000    0.000 
#    0.000    0.000    0.000    0.000    0.000    0.000 
#
# Total GULP energy -594842.082834 kJ/mol
# GULP energy per Si atom -12392.543392 kJ/mol
# Density = 1.964636 g / cm^3
# Si number density = 19.691173 Si / 1000 Ang^3
#
#
#
# Elastic Constant Matrix: (Units=GPa)
#
#
# Indices 1 2 3 4 5 6 
#
# 1 89.5202 25.5398 35.3907 0.0000 0.0000 0.0000
# 2 25.5398 69.2792 49.2224 0.0000 0.0000 0.0000
# 3 35.3907 49.2224 145.7762 0.0000 0.0000 0.0000
# 4 0.0000 0.0000 0.0000 50.5487 0.0000 0.0000
# 5 0.0000 0.0000 0.0000 0.0000 -2.1848 0.0000
# 6 0.0000 0.0000 0.0000 0.0000 0.0000 28.0187
#
#
#
# Elastic Compliance Matrix: (Units=1/GPa)
#
#
# Indices 1 2 3 4 5 6 
#
# 1 0.012916 -0.003333 -0.002010 0.000000 0.000000 0.000000
# 2 -0.003333 0.019850 -0.005893 0.000000 0.000000 0.000000
# 3 -0.002010 -0.005893 0.009338 0.000000 0.000000 0.000000
# 4 0.000000 0.000000 0.000000 0.019783 0.000000 0.000000
# 5 0.000000 0.000000 0.000000 0.000000 -0.457712 0.000000
# 6 0.000000 0.000000 0.000000 0.000000 0.000000 0.035690
#
#
# Mechanical properties :
#
#
# Convention : Reuss Voigt Hill
#
# Bulk Modulus (GPa) = 50.94080 58.32015 54.63047
# Shear Modulus (GPa) = -15.10041 28.23804 6.56882
#
# Velocity S-wave (km/s) = -2.77223 3.79099 1.82843
# Velocity P-wave (km/s) = 3.95967 6.98884 5.67991
#
# Compressibility (1/GPa) = 0.01963063
#
# Stress axis : x y z
#
# Youngs Moduli (GPa) = 77.42106 50.37683 107.09150
#
# Poissons Ratio (x) = 0.16792 0.21528
# Poissons Ratio (y) = 0.25807 0.63113
# Poissons Ratio (z) = 0.15563 0.29689
#
# Static dielectric constant tensor:
#      x y z
#    x 3.662960 0.000000 0.000000 
#    y 0.000000 3.447070 0.000000 
#    z 0.000000 0.000000 4.168410 
# 
# 
# High freq. dielectric constant tensor:
#      x y z
#    x 1.778220 0.000000 0.000000 
#    y 0.000000 1.740700 0.000000 
#    z 0.000000 0.000000 1.784890 
# 
# From -- ./inp_files/26291.got.cif
#   From: 2010.03.12/outbox.cif.g09.slc.cpg/sg49_14_cif.got.tgz:26291.got - 2010.04.14 03:58:27.
