data_PCOD8204841
_publ_section_title
;
Structure prediction by ZEFSAII (Michael W. Deem and Ramdas Pophale) SiO2 
 PCOD8204841
Probable space group: P B A N
;
_chemical_formula_sum "Si O2"
_cell_formula_units_Z 58
_cell_length_a 17.052226
_cell_length_b 8.892618
_cell_length_c 17.443958
_cell_angle_alpha 90.000000
_cell_angle_beta 90.000000
_cell_angle_gamma 90.000000
_cell_volume 2645.183159
_symmetry_space_group_name_H-M "P B A N"
_symmetry_group_IT_number 50
_space_group.IT_coordinate_system_code '2'
_symmetry_cell_setting 'orthorhombic'
loop_
_space_group_symop_operation_xyz
x,y,z
1/2-x,1/2-y,z
x,1/2-y,-z
1/2-x,y,-z
-x,-y,-z
1/2+x,1/2+y,-z
-x,1/2+y,z
1/2+x,-y,z
loop_
_atom_site_type_symbol
_atom_site_label
_atom_site_fract_x
_atom_site_fract_y
_atom_site_fract_z
Si Si1 0.589731 0.922876 0.351315
Si Si2 0.607700 0.923384 0.066944
Si Si3 0.750000 0.750000 0.000000
Si Si4 0.156265 0.901714 0.786794
Si Si5 0.078570 0.068800 0.653287
Si Si6 0.666010 0.430492 0.786119
Si Si7 0.559928 0.369116 0.060830
Si Si8 0.086669 0.930261 0.501508
O O1 0.576030 0.746240 0.362244
O O2 0.508761 0.008031 0.336077
O O3 0.644727 0.946647 0.277926
O O4 0.630201 0.997443 0.427382
O O5 0.529314 0.827494 0.089199
O O6 0.617635 0.045774 0.134827
O O7 0.691472 0.841607 0.056216
O O8 0.575129 0.976965 0.984903
O O9 0.243768 0.949139 0.807443
O O10 0.149831 0.734576 0.750212
O O11 0.111623 0.890713 0.865442
O O12 0.123791 0.029184 0.730690
O O13 0.123457 0.988166 0.581698
O O14 0.594000 0.250000 0.000000
O O15 0.087032 0.750000 0.500000
O O16 0.000000 0.000000 0.500000
#
# Coordination Sequence:
#
# PCOD8204841 Si02
#       8
#     8   8   2   8   8   8   8   8
#     4  11  22  38  64  95 132 172 221 274 333 400
#     4  11  24  40  66  93 132 167 213 276 336 406
#     4  12  24  40  58 104 132 166 214 286 344 408
#     4  11  24  42  65  91 128 171 221 279 335 408
#     4  11  22  39  64  96 132 175 219 273 332 403
#     4  11  24  42  61  92 126 169 218 274 340 401
#     4  11  22  44  68  93 123 170 223 269 334 406
#     4  10  18  34  62  95 132 170 220 272 327 394
#
# _framework density 21.926646999999999
#
# number of rings (size 3 to 8) (size 9 to 14) (size 15 to 20)
#    0.000    1.103    2.069    7.034    0.000    2.759 
#    0.000    0.690    0.000    4.138    0.000    0.000 
#    0.000    0.000    0.000    0.000    0.000    0.000 
#
# Total GULP energy -718636.410150 kJ/mol
# GULP energy per Si atom -12390.282934 kJ/mol
# Density = 2.187674 g / cm^3
# Si number density = 21.926647 Si / 1000 Ang^3
#
#
#
# Elastic Constant Matrix: (Units=GPa)
#
#
# Indices 1 2 3 4 5 6 
#
# 1 107.6574 37.3301 60.7758 0.0000 0.0000 0.0000
# 2 37.3301 151.0519 54.2850 0.0000 0.0000 0.0000
# 3 60.7758 54.2850 149.9785 0.0000 0.0000 0.0000
# 4 0.0000 0.0000 0.0000 26.3846 0.0000 0.0000
# 5 0.0000 0.0000 0.0000 0.0000 -20.6096 0.0000
# 6 0.0000 0.0000 0.0000 0.0000 0.0000 30.0016
#
#
#
# Elastic Compliance Matrix: (Units=1/GPa)
#
#
# Indices 1 2 3 4 5 6 
#
# 1 0.012309 -0.001436 -0.004468 0.000000 0.000000 0.000000
# 2 -0.001436 0.007778 -0.002233 0.000000 0.000000 0.000000
# 3 -0.004468 -0.002233 0.009287 0.000000 0.000000 0.000000
# 4 0.000000 0.000000 0.000000 0.037901 0.000000 0.000000
# 5 0.000000 0.000000 0.000000 0.000000 -0.048521 0.000000
# 6 0.000000 0.000000 0.000000 0.000000 0.000000 0.033332
#
#
# Mechanical properties :
#
#
# Convention : Reuss Voigt Hill
#
# Bulk Modulus (GPa) = 76.34587 79.27440 77.81013
# Shear Modulus (GPa) = 68.75108 24.24178 46.49643
#
# Velocity S-wave (km/s) = 5.60563 3.32864 4.60993
# Velocity P-wave (km/s) = 8.76309 7.14185 7.99368
#
# Compressibility (1/GPa) = 0.01309829
#
# Stress axis : x y z
#
# Youngs Moduli (GPa) = 81.24023 128.57212 107.68245
#
# Poissons Ratio (x) = 0.18466 0.48115
# Poissons Ratio (y) = 0.11668 0.24047
# Poissons Ratio (z) = 0.36300 0.28712
#
# Static dielectric constant tensor:
#      x y z
#    x 3.838020 0.000000 0.000000 
#    y 0.000000 4.081660 0.000000 
#    z 0.000000 0.000000 4.496710 
# 
# 
# High freq. dielectric constant tensor:
#      x y z
#    x 1.840710 0.000000 0.000000 
#    y 0.000000 1.866420 0.000000 
#    z 0.000000 0.000000 1.877370 
# 
# From -- ./inp_files/29707.got.cif
#   From: 2010.03.12/outbox.cif.g09.slc.cpg/sg50_15_cif.got.tgz:29707.got - 2010.04.16 13:23:21.
