data_PCOD8204625
_publ_section_title
;
Structure prediction by ZEFSAII (Michael W. Deem and Ramdas Pophale) SiO2 
 PCOD8204625
Probable space group: P C C M
;
_chemical_formula_sum "Si O2"
_cell_formula_units_Z 48
_cell_length_a 9.322112
_cell_length_b 28.745751
_cell_length_c 8.842371
_cell_angle_alpha 90.000000
_cell_angle_beta 90.000000
_cell_angle_gamma 90.000000
_cell_volume 2369.499975
_symmetry_space_group_name_H-M "P C C M"
_symmetry_group_IT_number 49
_symmetry_cell_setting 'orthorhombic'
loop_
_space_group_symop_operation_xyz
x,y,z
-x,-y,z
x,-y,1/2-z
-x,y,1/2-z
-x,-y,-z
x,y,-z
-x,y,1/2+z
x,-y,1/2+z
loop_
_atom_site_type_symbol
_atom_site_label
_atom_site_fract_x
_atom_site_fract_y
_atom_site_fract_z
Si Si1 0.651104 0.702248 0.830022
Si Si2 0.155140 0.775952 0.819590
Si Si3 0.157929 0.869986 0.317860
Si Si4 0.176422 0.542028 0.500000
Si Si5 0.855402 0.432058 0.000000
Si Si6 0.655470 0.048484 0.817724
Si Si7 0.669726 0.401521 0.731533
O O1 0.500000 0.706439 0.750000
O O2 0.757723 0.730323 0.723388
O O3 0.697883 0.648567 0.842849
O O4 0.646153 0.722986 0.000000
O O5 0.227016 0.821491 0.741175
O O6 0.000000 0.768569 0.750000
O O7 0.147660 0.782360 0.000000
O O8 0.158615 0.872691 0.500000
O O9 0.242681 0.911788 0.243271
O O10 0.000000 0.872833 0.250000
O O11 0.161624 0.487213 0.500000
O O12 0.273994 0.554932 0.639592
O O13 0.028428 0.572506 0.500000
O O14 0.774425 0.404083 0.128194
O O15 0.500000 0.058727 0.750000
O O16 0.714081 0.000000 0.750000
O O17 0.651416 0.046939 0.000000
O O18 0.500000 0.409225 0.750000
#
# Coordination Sequence:
#
# PCOD8204625 Si02
#       7
#     8   8   8   4   4   8   8
#     4  11  24  43  65  91 125 161 204 257 313 372
#     4  11  23  41  65  94 127 164 208 256 311 374
#     4  11  22  40  63  91 127 166 211 263 317 375
#     4  11  23  45  59  95 125 165 205 261 308 379
#     4  11  25  39  67  89 129 163 207 255 318 371
#     4  11  22  39  61  90 125 166 214 265 321 380
#     4  11  24  41  65  91 125 163 209 257 314 377
#
# _framework density 20.257439000000002
#
# number of rings (size 3 to 8) (size 9 to 14) (size 15 to 20)
#    0.000    1.000    0.833    8.000    4.667    5.667 
#    0.000    5.000    0.000    0.000    0.000    0.000 
#    0.000    0.000    0.000    0.000    0.000    0.000 
#
# Total GULP energy -594802.273088 kJ/mol
# GULP energy per Si atom -12391.714023 kJ/mol
# Density = 2.021133 g / cm^3
# Si number density = 20.257439 Si / 1000 Ang^3
#
#
#
# Elastic Constant Matrix: (Units=GPa)
#
#
# Indices 1 2 3 4 5 6 
#
# 1 88.0294 60.0616 37.2706 0.0000 0.0000 0.0000
# 2 60.0616 86.5173 34.7275 0.0000 0.0000 0.0000
# 3 37.2706 34.7275 182.8770 0.0000 0.0000 0.0000
# 4 0.0000 0.0000 0.0000 40.3400 0.0000 0.0000
# 5 0.0000 0.0000 0.0000 0.0000 31.1907 0.0000
# 6 0.0000 0.0000 0.0000 0.0000 0.0000 64.9969
#
#
#
# Elastic Compliance Matrix: (Units=1/GPa)
#
#
# Indices 1 2 3 4 5 6 
#
# 1 0.022071 -0.014632 -0.001720 0.000000 0.000000 0.000000
# 2 -0.014632 0.022212 -0.001236 0.000000 0.000000 0.000000
# 3 -0.001720 -0.001236 0.006053 0.000000 0.000000 0.000000
# 4 0.000000 0.000000 0.000000 0.024789 0.000000 0.000000
# 5 0.000000 0.000000 0.000000 0.000000 0.032061 0.000000
# 6 0.000000 0.000000 0.000000 0.000000 0.000000 0.015385
#
#
# Mechanical properties :
#
#
# Convention : Reuss Voigt Hill
#
# Bulk Modulus (GPa) = 65.95575 69.06034 67.50805
# Shear Modulus (GPa) = 30.71238 42.32979 36.52108
#
# Velocity S-wave (km/s) = 3.89794 4.57616 4.25060
# Velocity P-wave (km/s) = 7.27242 7.87954 7.58206
#
# Compressibility (1/GPa) = 0.01516168
#
# Stress axis : x y z
#
# Youngs Moduli (GPa) = 45.30814 45.02040 165.19849
#
# Poissons Ratio (x) = 0.65873 0.28408
# Poissons Ratio (y) = 0.66294 0.20418
# Poissons Ratio (z) = 0.07791 0.05564
#
# Static dielectric constant tensor:
#      x y z
#    x 3.707900 0.000000 0.000000 
#    y 0.000000 4.030290 0.000000 
#    z 0.000000 0.000000 3.826840 
# 
# 
# High freq. dielectric constant tensor:
#      x y z
#    x 1.791640 0.000000 0.000000 
#    y 0.000000 1.802200 0.000000 
#    z 0.000000 0.000000 1.816260 
# 
# From -- ./inp_files/2138.got.cif
#   From: 2010.03.12/outbox.cif.g09.slc.cpg/sg49_2_cif.got.tgz:2138.got - 2010.04.14 03:58:27.
