data_PCOD8204255
_publ_section_title
;
Structure prediction by ZEFSAII (Michael W. Deem and Ramdas Pophale) SiO2 
 PCOD8204255
Probable space group: P C C M
;
_chemical_formula_sum "Si O2"
_cell_formula_units_Z 36
_cell_length_a 13.029248
_cell_length_b 16.076803
_cell_length_c 8.945110
_cell_angle_alpha 90.000000
_cell_angle_beta 90.000000
_cell_angle_gamma 90.000000
_cell_volume 1873.720146
_symmetry_space_group_name_H-M "P C C M"
_symmetry_group_IT_number 49
_symmetry_cell_setting 'orthorhombic'
loop_
_space_group_symop_operation_xyz
x,y,z
-x,-y,z
x,-y,1/2-z
-x,y,1/2-z
-x,-y,-z
x,y,-z
-x,y,1/2+z
x,-y,1/2+z
loop_
_atom_site_type_symbol
_atom_site_label
_atom_site_fract_x
_atom_site_fract_y
_atom_site_fract_z
Si Si1 0.903695 0.119389 0.165721
Si Si2 0.108565 0.411785 0.319994
Si Si3 0.736135 0.000000 0.750000
Si Si4 0.394752 0.849282 0.664868
Si Si5 0.789080 0.261604 0.678290
O O1 0.810312 0.054466 0.144694
O O2 0.876265 0.198127 0.268407
O O3 0.000000 0.076690 0.250000
O O4 0.934504 0.149564 0.000000
O O5 0.139774 0.500000 0.250000
O O6 0.101918 0.416539 0.500000
O O7 0.196052 0.347858 0.266250
O O8 0.000000 0.383088 0.250000
O O9 0.664184 0.062481 0.657643
O O10 0.500000 0.857406 0.750000
O O11 0.426687 0.823839 0.500000
O O12 0.320979 0.776580 0.728685
O O13 0.796352 0.273819 0.500000
#
# Coordination Sequence:
#
# PCOD8204255 Si02
#       5
#     8   8   4   8   8
#     4  11  22  35  52  75 106 144 184 224 269 322
#     4  11  21  35  57  86 118 150 181 215 258 310
#     4  10  22  36  54  76 104 140 182 226 272 324
#     4  10  22  38  57  79 104 136 177 227 277 324
#     4  10  21  38  56  78 109 144 182 222 267 319
#
# _framework density 19.213114000000001
#
# number of rings (size 3 to 8) (size 9 to 14) (size 15 to 20)
#    0.000    1.556    0.000    6.000    0.000    9.778 
#    0.000    0.000    0.000    0.667    0.000    4.667 
#    0.000    0.000    0.000    0.000    0.000    0.000 
#
# Total GULP energy -446226.994388 kJ/mol
# GULP energy per Si atom -12395.194289 kJ/mol
# Density = 1.916938 g / cm^3
# Si number density = 19.213114 Si / 1000 Ang^3
#
#
#
# Elastic Constant Matrix: (Units=GPa)
#
#
# Indices 1 2 3 4 5 6 
#
# 1 124.8566 59.1051 52.2416 0.0000 0.0000 0.0000
# 2 59.1051 118.8719 41.7639 0.0000 0.0000 0.0000
# 3 52.2416 41.7639 132.2356 0.0000 0.0000 0.0000
# 4 0.0000 0.0000 0.0000 18.4874 0.0000 0.0000
# 5 0.0000 0.0000 0.0000 0.0000 18.4043 0.0000
# 6 0.0000 0.0000 0.0000 0.0000 0.0000 19.2804
#
#
#
# Elastic Compliance Matrix: (Units=1/GPa)
#
#
# Indices 1 2 3 4 5 6 
#
# 1 0.011489 -0.004632 -0.003076 0.000000 0.000000 0.000000
# 2 -0.004632 0.011330 -0.001748 0.000000 0.000000 0.000000
# 3 -0.003076 -0.001748 0.009330 0.000000 0.000000 0.000000
# 4 0.000000 0.000000 0.000000 0.054091 0.000000 0.000000
# 5 0.000000 0.000000 0.000000 0.000000 0.054335 0.000000
# 6 0.000000 0.000000 0.000000 0.000000 0.000000 0.051866
#
#
# Mechanical properties :
#
#
# Convention : Reuss Voigt Hill
#
# Bulk Modulus (GPa) = 75.55210 75.79837 75.67523
# Shear Modulus (GPa) = 23.17341 26.09132 24.63237
#
# Velocity S-wave (km/s) = 3.47670 3.68910 3.58447
# Velocity P-wave (km/s) = 7.45152 7.59493 7.52357
#
# Compressibility (1/GPa) = 0.01323590
#
# Stress axis : x y z
#
# Youngs Moduli (GPa) = 87.04134 88.26391 107.18491
#
# Poissons Ratio (x) = 0.40881 0.32970
# Poissons Ratio (y) = 0.40315 0.18740
# Poissons Ratio (z) = 0.26774 0.15432
#
# Static dielectric constant tensor:
#      x y z
#    x 3.448800 0.000000 0.000000 
#    y 0.000000 3.503710 0.000000 
#    z 0.000000 0.000000 3.479750 
# 
# 
# High freq. dielectric constant tensor:
#      x y z
#    x 1.734060 0.000000 0.000000 
#    y 0.000000 1.740260 0.000000 
#    z 0.000000 0.000000 1.756290 
# 
# From -- ./inp_files/3383.got.cif
#   From: 2010.03.12/outbox.cif.g09.slc.cpg/sg49_2_cif.got.tgz:3383.got - 2010.04.14 03:58:27.
