data_PCOD8204787
_publ_section_title
;
Structure prediction by ZEFSAII (Michael W. Deem and Ramdas Pophale) SiO2 
 PCOD8204787
Probable space group: P B A N
;
_chemical_formula_sum "Si O2"
_cell_formula_units_Z 54
_cell_length_a 21.090700
_cell_length_b 17.104903
_cell_length_c 8.209218
_cell_angle_alpha 90.000000
_cell_angle_beta 90.000000
_cell_angle_gamma 90.000000
_cell_volume 2961.511331
_symmetry_space_group_name_H-M "P B A N"
_symmetry_group_IT_number 50
_space_group.IT_coordinate_system_code '2'
_symmetry_cell_setting 'orthorhombic'
loop_
_space_group_symop_operation_xyz
x,y,z
1/2-x,1/2-y,z
x,1/2-y,-z
1/2-x,y,-z
-x,-y,-z
1/2+x,1/2+y,-z
-x,1/2+y,z
1/2+x,-y,z
loop_
_atom_site_type_symbol
_atom_site_label
_atom_site_fract_x
_atom_site_fract_y
_atom_site_fract_z
Si Si1 0.558459 0.915823 0.880604
Si Si2 0.020481 0.935068 0.678215
Si Si3 0.750000 0.551376 0.000000
Si Si4 0.250000 0.250000 0.500000
Si Si5 0.817806 0.619623 0.703316
Si Si6 0.372088 0.976242 0.892897
Si Si7 0.445837 0.837801 0.021226
Si Si8 0.392614 0.484919 0.457745
O O1 0.618528 0.869343 0.808713
O O2 0.526560 0.979229 0.762151
O O3 0.508712 0.847861 0.913599
O O4 0.574116 0.961175 0.050103
O O5 0.037237 0.862216 0.793656
O O6 0.950860 0.926330 0.595114
O O7 0.076358 0.939048 0.543522
O O8 0.739341 0.599769 0.168902
O O9 0.809574 0.495190 0.008196
O O10 0.203873 0.302153 0.388055
O O11 0.837107 0.555058 0.566456
O O12 0.358183 0.983073 0.702474
O O13 0.389872 0.889680 0.947418
O O14 0.422210 0.750000 0.000000
#
# Coordination Sequence:
#
# PCOD8204787 Si02
#       8
#     8   8   4   2   8   8   8   8
#     4   9  17  36  54  81 106 147 188 220 270 337
#     4   9  17  31  56  83 113 140 178 234 281 330
#     4  10  22  41  59  80  98 148 210 224 256 332
#     4  12  24  42  48  80 128 150 178 232 282 314
#     4  10  23  36  56  78 111 150 191 229 270 326
#     4  10  18  35  60  78 107 144 190 236 264 328
#     4  11  20  33  53  85 117 146 176 224 296 349
#     4  10  17  32  61  82 104 140 193 233 272 312
#
# _framework density 18.233934000000001
#
# number of rings (size 3 to 8) (size 9 to 14) (size 15 to 20)
#    0.000    2.074    2.963    2.667    0.000    1.481 
#    5.333    1.111    0.000    0.000    0.000    2.074 
#    0.000    0.000    0.000    0.000    0.000    0.000 
#
# Total GULP energy -669158.650319 kJ/mol
# GULP energy per Si atom -12391.826858 kJ/mol
# Density = 1.819243 g / cm^3
# Si number density = 18.233934 Si / 1000 Ang^3
#
#
#
# Elastic Constant Matrix: (Units=GPa)
#
#
# Indices 1 2 3 4 5 6 
#
# 1 64.1937 37.5989 20.1818 0.0000 0.0000 0.0000
# 2 37.5989 101.7432 39.0559 0.0000 0.0000 0.0000
# 3 20.1818 39.0559 108.8799 0.0000 0.0000 0.0000
# 4 0.0000 0.0000 0.0000 25.6799 0.0000 0.0000
# 5 0.0000 0.0000 0.0000 0.0000 37.2766 0.0000
# 6 0.0000 0.0000 0.0000 0.0000 0.0000 21.9417
#
#
#
# Elastic Compliance Matrix: (Units=1/GPa)
#
#
# Indices 1 2 3 4 5 6 
#
# 1 0.020021 -0.006928 -0.001226 0.000000 0.000000 0.000000
# 2 -0.006928 0.013796 -0.003664 0.000000 0.000000 0.000000
# 3 -0.001226 -0.003664 0.010726 0.000000 0.000000 0.000000
# 4 0.000000 0.000000 0.000000 0.038941 0.000000 0.000000
# 5 0.000000 0.000000 0.000000 0.000000 0.026826 0.000000
# 6 0.000000 0.000000 0.000000 0.000000 0.000000 0.045575
#
#
# Mechanical properties :
#
#
# Convention : Reuss Voigt Hill
#
# Bulk Modulus (GPa) = 47.83327 52.05443 49.94385
# Shear Modulus (GPa) = 26.81094 28.84500 27.82797
#
# Velocity S-wave (km/s) = 3.83872 3.98168 3.91085
# Velocity P-wave (km/s) = 6.77774 7.05326 6.91687
#
# Compressibility (1/GPa) = 0.02090595
#
# Stress axis : x y z
#
# Youngs Moduli (GPa) = 49.94714 72.48699 93.23057
#
# Poissons Ratio (x) = 0.50220 0.11429
# Poissons Ratio (y) = 0.34604 0.34163
# Poissons Ratio (z) = 0.06123 0.26562
#
# Static dielectric constant tensor:
#      x y z
#    x 3.407760 0.000000 0.000000 
#    y 0.000000 2.864140 0.000000 
#    z 0.000000 0.000000 3.861360 
# 
# 
# High freq. dielectric constant tensor:
#      x y z
#    x 1.705980 0.000000 0.000000 
#    y 0.000000 1.651650 0.000000 
#    z 0.000000 0.000000 1.732590 
# 
# From -- ./inp_files/16172.got.cif
#   From: 2010.03.12/outbox.cif.g09.slc.cpg/sg50_9_cif.got.tgz:16172.got - 2010.04.16 13:23:21.
