data_PCOD8204586
_publ_section_title
;
Structure prediction by ZEFSAII (Michael W. Deem and Ramdas Pophale) SiO2 
 PCOD8204586
Probable space group: P C C M
;
_chemical_formula_sum "Si O2"
_cell_formula_units_Z 40
_cell_length_a 12.299351
_cell_length_b 4.884616
_cell_length_c 32.464124
_cell_angle_alpha 90.000000
_cell_angle_beta 90.000000
_cell_angle_gamma 90.000000
_cell_volume 1950.366873
_symmetry_space_group_name_H-M "P C C M"
_symmetry_group_IT_number 49
_symmetry_cell_setting 'orthorhombic'
loop_
_space_group_symop_operation_xyz
x,y,z
-x,-y,z
x,-y,1/2-z
-x,y,1/2-z
-x,-y,-z
x,y,-z
-x,y,1/2+z
x,-y,1/2+z
loop_
_atom_site_type_symbol
_atom_site_label
_atom_site_fract_x
_atom_site_fract_y
_atom_site_fract_z
Si Si1 0.206828 0.917717 0.046451
Si Si2 0.696107 0.565402 0.345346
Si Si3 0.431202 0.740893 0.077686
Si Si4 0.373643 0.055236 0.796983
Si Si5 0.123381 0.568125 0.405855
O O1 0.336830 0.879401 0.050303
O O2 0.157137 0.623261 0.056217
O O3 0.151866 0.126300 0.078790
O O4 0.178266 0.006088 0.000000
O O5 0.613708 0.571824 0.383513
O O6 0.701897 0.864628 0.325282
O O7 0.813752 0.486879 0.363101
O O8 0.653402 0.364283 0.309771
O O9 0.500000 0.500000 0.053766
O O10 0.500000 0.000000 0.093010
O O11 0.500000 0.000000 0.804916
O O12 0.341997 0.000000 0.750000
O O13 0.000000 0.500000 0.395031
#
# Coordination Sequence:
#
# PCOD8204586 Si02
#       5
#     8   8   8   8   8
#     4  11  24  39  57  86 117 147 191 242 292 345
#     4  11  21  37  58  81 114 148 189 234 272 335
#     4  11  21  35  57  84 116 157 193 227 280 346
#     4  11  22  35  57  89 120 149 179 220 279 339
#     4  11  24  41  62  84 108 149 198 244 293 336
#
# _framework density 20.508963000000001
#
# number of rings (size 3 to 8) (size 9 to 14) (size 15 to 20)
#    0.000    1.000    0.000   10.200    0.000    4.800 
#    0.000    0.000    0.000    3.600    0.000    0.000 
#    0.000    0.000    0.000    0.000    0.000    0.000 
#
# Total GULP energy -495943.764332 kJ/mol
# GULP energy per Si atom -12398.594108 kJ/mol
# Density = 2.046228 g / cm^3
# Si number density = 20.508963 Si / 1000 Ang^3
#
#
#
# Elastic Constant Matrix: (Units=GPa)
#
#
# Indices 1 2 3 4 5 6 
#
# 1 114.6700 17.8572 25.2819 0.0000 0.0000 0.0000
# 2 17.8572 85.7300 7.5003 0.0000 0.0000 0.0000
# 3 25.2819 7.5003 90.2292 0.0000 0.0000 0.0000
# 4 0.0000 0.0000 0.0000 11.1875 0.0000 0.0000
# 5 0.0000 0.0000 0.0000 0.0000 10.1507 0.0000
# 6 0.0000 0.0000 0.0000 0.0000 0.0000 30.9228
#
#
#
# Elastic Compliance Matrix: (Units=1/GPa)
#
#
# Indices 1 2 3 4 5 6 
#
# 1 0.009554 -0.001769 -0.002530 0.000000 0.000000 0.000000
# 2 -0.001769 0.012077 -0.000508 0.000000 0.000000 0.000000
# 3 -0.002530 -0.000508 0.011834 0.000000 0.000000 0.000000
# 4 0.000000 0.000000 0.000000 0.089386 0.000000 0.000000
# 5 0.000000 0.000000 0.000000 0.000000 0.098515 0.000000
# 6 0.000000 0.000000 0.000000 0.000000 0.000000 0.032339
#
#
# Mechanical properties :
#
#
# Convention : Reuss Voigt Hill
#
# Bulk Modulus (GPa) = 41.92635 43.54533 42.73584
# Shear Modulus (GPa) = 18.43190 26.45153 22.44172
#
# Velocity S-wave (km/s) = 3.00113 3.59521 3.31152
# Velocity P-wave (km/s) = 5.70055 6.20584 5.95856
#
# Compressibility (1/GPa) = 0.02385135
#
# Stress axis : x y z
#
# Youngs Moduli (GPa) = 104.66925 82.79917 84.50212
#
# Poissons Ratio (x) = 0.14645 0.21379
# Poissons Ratio (y) = 0.18513 0.04296
# Poissons Ratio (z) = 0.26481 0.04209
#
# Static dielectric constant tensor:
#      x y z
#    x 3.916210 0.000000 0.000000 
#    y 0.000000 3.867550 0.000000 
#    z 0.000000 0.000000 3.504220 
# 
# 
# High freq. dielectric constant tensor:
#      x y z
#    x 1.787120 0.000000 0.000000 
#    y 0.000000 1.825290 0.000000 
#    z 0.000000 0.000000 1.784200 
# 
# From -- ./inp_files/26561.got.cif
#   From: 2010.03.12/outbox.cif.g09.slc.cpg/sg49_14_cif.got.tgz:26561.got - 2010.04.14 03:58:27.
