data_PCOD8204251
_publ_section_title
;
Structure prediction by ZEFSAII (Michael W. Deem and Ramdas Pophale) SiO2 
 PCOD8204251
Probable space group: P C C M
;
_chemical_formula_sum "Si O2"
_cell_formula_units_Z 56
_cell_length_a 19.209810
_cell_length_b 8.910549
_cell_length_c 14.662383
_cell_angle_alpha 90.000000
_cell_angle_beta 90.000000
_cell_angle_gamma 90.000000
_cell_volume 2509.759413
_symmetry_space_group_name_H-M "P C C M"
_symmetry_group_IT_number 49
_symmetry_cell_setting 'orthorhombic'
loop_
_space_group_symop_operation_xyz
x,y,z
-x,-y,z
x,-y,1/2-z
-x,y,1/2-z
-x,-y,-z
x,y,-z
-x,y,1/2+z
x,-y,1/2+z
loop_
_atom_site_type_symbol
_atom_site_label
_atom_site_fract_x
_atom_site_fract_y
_atom_site_fract_z
Si Si1 0.932344 0.067907 0.602744
Si Si2 0.991233 0.338189 0.856496
Si Si3 0.621010 0.668110 0.601148
Si Si4 0.346235 0.672151 0.395487
Si Si5 0.278677 0.822533 0.765928
Si Si6 0.511901 0.169017 0.643310
Si Si7 0.155376 0.183929 0.395279
O O1 0.935043 0.006762 0.500000
O O2 0.940424 0.246254 0.608532
O O3 0.861047 0.990139 0.637825
O O4 0.000000 0.000000 0.655857
O O5 0.916909 0.273694 0.886585
O O6 0.000000 0.500000 0.902236
O O7 0.000000 0.348134 0.750000
O O8 0.653260 0.687954 0.500000
O O9 0.631751 0.496218 0.633375
O O10 0.654725 0.783696 0.672316
O O11 0.539689 0.711108 0.596437
O O12 0.319573 0.677793 0.500000
O O13 0.284040 0.732241 0.329778
O O14 0.410505 0.784221 0.383282
O O15 0.212483 0.759471 0.823367
O O16 0.277302 0.000000 0.750000
O O17 0.500000 0.176164 0.750000
O O18 0.500000 0.000000 0.606303
O O19 0.183086 0.196056 0.500000
#
# Coordination Sequence:
#
# PCOD8204251 Si02
#       7
#     8   8   8   8   8   8   8
#     4   8  16  33  59  87 116 152 199 256 316 380
#     4  10  21  37  63  99 133 168 210 270 330 395
#     4  11  24  44  69  99 136 179 224 278 347 410
#     4  11  25  45  68  99 137 181 229 281 340 405
#     4  12  26  43  68  96 132 183 228 283 330 400
#     4  11  22  38  68 106 136 173 225 287 345 398
#     4  10  23  43  67  97 132 172 222 272 330 399
#
# _framework density 22.312897
#
# number of rings (size 3 to 8) (size 9 to 14) (size 15 to 20)
#    0.000    1.571    1.429    3.857    2.000    8.286 
#    5.143    0.000    0.000    0.000    0.000    0.000 
#    0.000    0.000    0.000    0.000    0.000    0.000 
#
# Total GULP energy -693906.265234 kJ/mol
# GULP energy per Si atom -12391.183308 kJ/mol
# Density = 2.226211 g / cm^3
# Si number density = 22.312897 Si / 1000 Ang^3
#
#
#
# Elastic Constant Matrix: (Units=GPa)
#
#
# Indices 1 2 3 4 5 6 
#
# 1 95.1641 38.9266 42.2516 0.0000 0.0000 0.0000
# 2 38.9266 147.5018 41.7281 0.0000 0.0000 0.0000
# 3 42.2516 41.7281 123.9069 0.0000 0.0000 0.0000
# 4 0.0000 0.0000 0.0000 33.7483 0.0000 0.0000
# 5 0.0000 0.0000 0.0000 0.0000 34.6145 0.0000
# 6 0.0000 0.0000 0.0000 0.0000 0.0000 24.2859
#
#
#
# Elastic Compliance Matrix: (Units=1/GPa)
#
#
# Indices 1 2 3 4 5 6 
#
# 1 0.013126 -0.002429 -0.003658 0.000000 0.000000 0.000000
# 2 -0.002429 0.007943 -0.001847 0.000000 0.000000 0.000000
# 3 -0.003658 -0.001847 0.009940 0.000000 0.000000 0.000000
# 4 0.000000 0.000000 0.000000 0.029631 0.000000 0.000000
# 5 0.000000 0.000000 0.000000 0.000000 0.028890 0.000000
# 6 0.000000 0.000000 0.000000 0.000000 0.000000 0.041176
#
#
# Mechanical properties :
#
#
# Convention : Reuss Voigt Hill
#
# Bulk Modulus (GPa) = 66.04395 68.04283 67.04339
# Shear Modulus (GPa) = 32.97721 34.77417 33.87569
#
# Velocity S-wave (km/s) = 3.84857 3.95204 3.90065
# Velocity P-wave (km/s) = 7.02936 7.16839 7.09922
#
# Compressibility (1/GPa) = 0.01514143
#
# Stress axis : x y z
#
# Youngs Moduli (GPa) = 76.18575 125.89591 100.60620
#
# Poissons Ratio (x) = 0.30583 0.36799
# Poissons Ratio (y) = 0.18507 0.18578
# Poissons Ratio (z) = 0.27867 0.23248
#
# Static dielectric constant tensor:
#      x y z
#    x 3.885070 0.000000 0.000000 
#    y 0.000000 4.365550 0.000000 
#    z 0.000000 0.000000 4.153430 
# 
# 
# High freq. dielectric constant tensor:
#      x y z
#    x 1.855560 0.000000 0.000000 
#    y 0.000000 1.880280 0.000000 
#    z 0.000000 0.000000 1.893170 
# 
# From -- ./inp_files/14387.got.cif
#   From: 2010.03.12/outbox.cif.g09.slc.cpg/sg49_8_cif.got.tgz:14387.got - 2010.04.14 03:58:27.
