data_PCOD8204858
_publ_section_title
;
Structure prediction by ZEFSAII (Michael W. Deem and Ramdas Pophale) SiO2 
 PCOD8204858
Probable space group: P B A N
;
_chemical_formula_sum "Si O2"
_cell_formula_units_Z 40
_cell_length_a 15.429525
_cell_length_b 33.019749
_cell_length_c 5.079113
_cell_angle_alpha 90.000000
_cell_angle_beta 90.000000
_cell_angle_gamma 90.000000
_cell_volume 2587.701629
_symmetry_space_group_name_H-M "P B A N"
_symmetry_group_IT_number 50
_space_group.IT_coordinate_system_code '2'
_symmetry_cell_setting 'orthorhombic'
loop_
_space_group_symop_operation_xyz
x,y,z
1/2-x,1/2-y,z
x,1/2-y,-z
1/2-x,y,-z
-x,-y,-z
1/2+x,1/2+y,-z
-x,1/2+y,z
1/2+x,-y,z
loop_
_atom_site_type_symbol
_atom_site_label
_atom_site_fract_x
_atom_site_fract_y
_atom_site_fract_z
Si Si1 0.693331 0.001272 0.252814
Si Si2 0.352479 0.795016 0.509868
Si Si3 0.852524 0.154931 0.005955
Si Si4 0.440938 0.570614 0.114818
Si Si5 0.965885 0.957138 0.593892
O O1 0.750000 0.015273 0.500000
O O2 0.636265 0.040150 0.181841
O O3 0.636631 0.962223 0.346331
O O4 0.750000 0.988431 0.000000
O O5 0.393873 0.750000 0.500000
O O6 0.250000 0.790979 0.500000
O O7 0.383819 0.824437 0.276317
O O8 0.382266 0.814139 0.782395
O O9 0.750000 0.146314 0.000000
O O10 0.902265 0.113594 0.959260
O O11 0.508695 0.574398 0.361063
O O12 0.490482 0.554182 0.864999
O O13 0.000000 0.000000 0.500000
#
# Coordination Sequence:
#
# PCOD8204858 Si02
#       5
#     8   8   8   8   8
#     4  11  20  31  47  64  82 111 152 189 219 255
#     4   9  17  29  42  58  83 112 143 179 214 251
#     4  10  19  28  43  64  83 110 149 185 216 247
#     4  11  20  32  45  63  89 113 144 188 229 255
#     4  10  20  33  45  60  85 116 143 178 228 271
#
# _framework density 15.457731000000001
#
# number of rings (size 3 to 8) (size 9 to 14) (size 15 to 20)
#    0.000    1.800    0.000    8.400    0.000    4.800 
#    0.000    0.000    0.000    0.000    0.000    0.000 
#    0.000    0.000    0.000    0.000    0.000  210.000 
#
# Total GULP energy -495831.264856 kJ/mol
# GULP energy per Si atom -12395.781621 kJ/mol
# Density = 1.542255 g / cm^3
# Si number density = 15.457731 Si / 1000 Ang^3
#
#
#
# Elastic Constant Matrix: (Units=GPa)
#
#
# Indices 1 2 3 4 5 6 
#
# 1 57.0977 41.8133 41.6172 0.0000 0.0000 0.0000
# 2 41.8133 83.1244 33.7747 0.0000 0.0000 0.0000
# 3 41.6172 33.7747 124.9092 0.0000 0.0000 0.0000
# 4 0.0000 0.0000 0.0000 19.4993 0.0000 0.0000
# 5 0.0000 0.0000 0.0000 0.0000 27.5108 0.0000
# 6 0.0000 0.0000 0.0000 0.0000 0.0000 6.8192
#
#
#
# Elastic Compliance Matrix: (Units=1/GPa)
#
#
# Indices 1 2 3 4 5 6 
#
# 1 0.032669 -0.013493 -0.007236 0.000000 0.000000 0.000000
# 2 -0.013493 0.019088 -0.000666 0.000000 0.000000 0.000000
# 3 -0.007236 -0.000666 0.010597 0.000000 0.000000 0.000000
# 4 0.000000 0.000000 0.000000 0.051284 0.000000 0.000000
# 5 0.000000 0.000000 0.000000 0.000000 0.036349 0.000000
# 6 0.000000 0.000000 0.000000 0.000000 0.000000 0.146645
#
#
# Mechanical properties :
#
#
# Convention : Reuss Voigt Hill
#
# Bulk Modulus (GPa) = 51.11439 55.50462 53.30950
# Shear Modulus (GPa) = 14.45319 20.62759 17.54039
#
# Velocity S-wave (km/s) = 3.06112 3.65698 3.37223
# Velocity P-wave (km/s) = 6.75521 7.33598 7.05158
#
# Compressibility (1/GPa) = 0.01956396
#
# Stress axis : x y z
#
# Youngs Moduli (GPa) = 30.60966 52.38906 94.36816
#
# Poissons Ratio (x) = 0.70689 0.68288
# Poissons Ratio (y) = 0.41302 0.06281
# Poissons Ratio (z) = 0.22150 0.03487
#
# Static dielectric constant tensor:
#      x y z
#    x 3.174420 0.000000 0.000000 
#    y 0.000000 2.994470 0.000000 
#    z 0.000000 0.000000 3.022970 
# 
# 
# High freq. dielectric constant tensor:
#      x y z
#    x 1.552240 0.000000 0.000000 
#    y 0.000000 1.573350 0.000000 
#    z 0.000000 0.000000 1.625830 
# 
# From -- ./inp_files/3642.got.cif
#   From: 2010.03.12/outbox.cif.g09.slc.cpg/sg50_2_cif.got.tgz:3642.got - 2010.04.16 13:23:21.
