data_PCOD8204576
_publ_section_title
;
Structure prediction by ZEFSAII (Michael W. Deem and Ramdas Pophale) SiO2 
 PCOD8204576
Probable space group: P C C M
;
_chemical_formula_sum "Si O2"
_cell_formula_units_Z 56
_cell_length_a 9.378206
_cell_length_b 14.902893
_cell_length_c 20.399710
_cell_angle_alpha 90.000000
_cell_angle_beta 90.000000
_cell_angle_gamma 90.000000
_cell_volume 2851.112440
_symmetry_space_group_name_H-M "P C C M"
_symmetry_group_IT_number 49
_symmetry_cell_setting 'orthorhombic'
loop_
_space_group_symop_operation_xyz
x,y,z
-x,-y,z
x,-y,1/2-z
-x,y,1/2-z
-x,-y,-z
x,y,-z
-x,y,1/2+z
x,-y,1/2+z
loop_
_atom_site_type_symbol
_atom_site_label
_atom_site_fract_x
_atom_site_fract_y
_atom_site_fract_z
Si Si1 0.327444 0.900312 0.819121
Si Si2 0.868761 0.412526 0.926895
Si Si3 0.672443 0.718117 0.624323
Si Si4 0.361551 0.751664 0.573778
Si Si5 0.665530 0.097474 0.672457
Si Si6 0.335942 0.606098 0.750454
Si Si7 0.177110 0.602954 0.619335
O O1 0.272487 0.820007 0.865379
O O2 0.275883 0.877855 0.744929
O O3 0.496665 0.903095 0.822468
O O4 0.273231 0.997613 0.844448
O O5 0.762005 0.328020 0.933475
O O6 0.785710 0.499206 0.897011
O O7 0.005997 0.387651 0.882583
O O8 0.921721 0.435934 0.000000
O O9 0.505171 0.715605 0.608408
O O10 0.722191 0.655582 0.685381
O O11 0.394455 0.786561 0.500000
O O12 0.289400 0.832074 0.616304
O O13 0.250951 0.669560 0.567316
O O14 0.321553 0.500000 0.750000
O O15 0.500000 0.637449 0.750000
O O16 0.242761 0.637411 0.688376
#
# Coordination Sequence:
#
# PCOD8204576 Si02
#       7
#     8   8   8   8   8   8   8
#     4   8  15  29  53  78 108 145 178 231 300 345
#     4  11  24  41  55  77 115 156 196 231 273 347
#     4  11  21  35  55  84 115 146 187 236 296 338
#     4  11  21  34  56  85 112 150 195 238 284 345
#     4   8  15  30  51  80 109 140 184 234 289 346
#     4  11  21  36  56  85 116 140 180 246 294 328
#     4  11  22  40  59  77 107 154 194 234 282 334
#
# _framework density 19.641455000000001
#
# number of rings (size 3 to 8) (size 9 to 14) (size 15 to 20)
#    0.000    1.857    2.857    3.857    2.000    1.143 
#    0.000    7.857    0.000    0.857    0.000    4.000 
#    0.000    0.000    0.000    0.000    0.000    0.000 
#
# Total GULP energy -693856.954808 kJ/mol
# GULP energy per Si atom -12390.302764 kJ/mol
# Density = 1.959675 g / cm^3
# Si number density = 19.641455 Si / 1000 Ang^3
#
#
#
# Elastic Constant Matrix: (Units=GPa)
#
#
# Indices 1 2 3 4 5 6 
#
# 1 51.3726 46.3751 24.7242 0.0000 0.0000 0.0000
# 2 46.3751 146.2523 44.4806 0.0000 0.0000 0.0000
# 3 24.7242 44.4806 102.2604 0.0000 0.0000 0.0000
# 4 0.0000 0.0000 0.0000 14.0569 0.0000 0.0000
# 5 0.0000 0.0000 0.0000 0.0000 15.3273 0.0000
# 6 0.0000 0.0000 0.0000 0.0000 0.0000 15.2734
#
#
#
# Elastic Compliance Matrix: (Units=1/GPa)
#
#
# Indices 1 2 3 4 5 6 
#
# 1 0.028251 -0.007930 -0.003381 0.000000 0.000000 0.000000
# 2 -0.007930 0.010106 -0.002478 0.000000 0.000000 0.000000
# 3 -0.003381 -0.002478 0.011675 0.000000 0.000000 0.000000
# 4 0.000000 0.000000 0.000000 0.071139 0.000000 0.000000
# 5 0.000000 0.000000 0.000000 0.000000 0.065243 0.000000
# 6 0.000000 0.000000 0.000000 0.000000 0.000000 0.065473
#
#
# Mechanical properties :
#
#
# Convention : Reuss Voigt Hill
#
# Bulk Modulus (GPa) = 44.53844 59.00501 51.77172
# Shear Modulus (GPa) = 17.42459 21.21855 19.32157
#
# Velocity S-wave (km/s) = 2.98171 3.29035 3.13982
# Velocity P-wave (km/s) = 5.88040 6.67394 6.28970
#
# Compressibility (1/GPa) = 0.02245251
#
# Stress axis : x y z
#
# Youngs Moduli (GPa) = 35.39648 98.95327 85.65647
#
# Poissons Ratio (x) = 0.78469 0.28962
# Poissons Ratio (y) = 0.28069 0.21230
# Poissons Ratio (z) = 0.11968 0.24526
#
# Static dielectric constant tensor:
#      x y z
#    x 3.110260 0.000000 0.000000 
#    y 0.000000 3.973370 0.000000 
#    z 0.000000 0.000000 3.593910 
# 
# 
# High freq. dielectric constant tensor:
#      x y z
#    x 1.717540 0.000000 0.000000 
#    y 0.000000 1.773490 0.000000 
#    z 0.000000 0.000000 1.762090 
# 
# From -- ./inp_files/19895.got.cif
#   From: 2010.03.12/outbox.cif.g09.slc.cpg/sg49_10_cif.got.tgz:19895.got - 2010.04.14 03:58:27.
