data_PCOD8204050
_publ_section_title
;
Structure prediction by ZEFSAII (Michael W. Deem and Ramdas Pophale) SiO2 
 PCOD8204050
Probable space group: P C C M
;
_chemical_formula_sum "Si O2"
_cell_formula_units_Z 48
_cell_length_a 15.338495
_cell_length_b 18.224763
_cell_length_c 8.711120
_cell_angle_alpha 90.000000
_cell_angle_beta 90.000000
_cell_angle_gamma 90.000000
_cell_volume 2435.110284
_symmetry_space_group_name_H-M "P C C M"
_symmetry_group_IT_number 49
_symmetry_cell_setting 'orthorhombic'
loop_
_space_group_symop_operation_xyz
x,y,z
-x,-y,z
x,-y,1/2-z
-x,y,1/2-z
-x,-y,-z
x,y,-z
-x,y,1/2+z
x,-y,1/2+z
loop_
_atom_site_type_symbol
_atom_site_label
_atom_site_fract_x
_atom_site_fract_y
_atom_site_fract_z
Si Si1 0.409007 0.320450 0.181805
Si Si2 0.411094 0.848471 0.680240
Si Si3 0.907727 0.643139 0.182185
Si Si4 0.909666 0.189206 0.319389
Si Si5 0.262927 0.422693 0.682351
Si Si6 0.236449 0.921735 0.317577
O O1 0.500000 0.350703 0.250000
O O2 0.397227 0.235744 0.228814
O O3 0.328876 0.361465 0.258466
O O4 0.407384 0.332507 0.000000
O O5 0.500000 0.880635 0.750000
O O6 0.417675 0.855242 0.500000
O O7 0.330994 0.896527 0.743935
O O8 0.889915 0.727385 0.230586
O O9 0.833821 0.593515 0.257553
O O10 0.000000 0.616783 0.250000
O O11 0.906986 0.632557 0.000000
O O12 0.917228 0.183598 0.500000
O O13 0.833108 0.137455 0.256212
O O14 0.000000 0.160758 0.250000
O O15 0.294490 0.500000 0.750000
O O16 0.263509 0.425257 0.500000
O O17 0.235147 0.925292 0.500000
O O18 0.211298 0.000000 0.250000
#
# Coordination Sequence:
#
# PCOD8204050 Si02
#       6
#     8   8   8   8   8   8
#     4  10  20  38  62  87 113 145 185 233 282 333
#     4   9  19  36  58  81 108 141 181 226 275 326
#     4  10  20  38  62  87 113 145 185 233 282 333
#     4   9  19  36  58  81 108 141 181 226 275 326
#     4  12  25  40  58  84 116 152 189 228 276 332
#     4  10  21  36  52  76 110 148 183 222 272 326
#
# _framework density 19.711634
#
# number of rings (size 3 to 8) (size 9 to 14) (size 15 to 20)
#    0.000    2.000    0.000    3.500    0.000    6.667 
#    0.000    8.333    0.000    0.000    0.000    0.000 
#    0.000    0.000    0.000    0.000    0.000    0.000 
#
# Total GULP energy -595386.334496 kJ/mol
# GULP energy per Si atom -12403.881969 kJ/mol
# Density = 1.966677 g / cm^3
# Si number density = 19.711634 Si / 1000 Ang^3
#
#
#
# Elastic Constant Matrix: (Units=GPa)
#
#
# Indices 1 2 3 4 5 6 
#
# 1 93.9953 13.8169 24.2800 0.0000 0.0000 0.0000
# 2 13.8169 45.7513 17.1459 0.0000 0.0000 0.0000
# 3 24.2800 17.1459 70.4654 0.0000 0.0000 0.0000
# 4 0.0000 0.0000 0.0000 29.9903 0.0000 0.0000
# 5 0.0000 0.0000 0.0000 0.0000 39.1587 0.0000
# 6 0.0000 0.0000 0.0000 0.0000 0.0000 13.8672
#
#
#
# Elastic Compliance Matrix: (Units=1/GPa)
#
#
# Indices 1 2 3 4 5 6 
#
# 1 0.011887 -0.002261 -0.003546 0.000000 0.000000 0.000000
# 2 -0.002261 0.024481 -0.005178 0.000000 0.000000 0.000000
# 3 -0.003546 -0.005178 0.016673 0.000000 0.000000 0.000000
# 4 0.000000 0.000000 0.000000 0.033344 0.000000 0.000000
# 5 0.000000 0.000000 0.000000 0.000000 0.025537 0.000000
# 6 0.000000 0.000000 0.000000 0.000000 0.000000 0.072113
#
#
# Mechanical properties :
#
#
# Convention : Reuss Voigt Hill
#
# Bulk Modulus (GPa) = 32.18358 35.63307 33.90833
# Shear Modulus (GPa) = 23.10959 26.93453 25.02206
#
# Velocity S-wave (km/s) = 3.42772 3.70053 3.56674
# Velocity P-wave (km/s) = 5.65936 6.03117 5.84822
#
# Compressibility (1/GPa) = 0.03107174
#
# Stress axis : x y z
#
# Youngs Moduli (GPa) = 84.12483 40.84875 59.97746
#
# Poissons Ratio (x) = 0.09236 0.21266
# Poissons Ratio (y) = 0.19021 0.31054
# Poissons Ratio (z) = 0.29828 0.21150
#
# Static dielectric constant tensor:
#      x y z
#    x 3.860870 0.000000 0.000000 
#    y 0.000000 3.607770 0.000000 
#    z 0.000000 0.000000 3.535050 
# 
# 
# High freq. dielectric constant tensor:
#      x y z
#    x 1.782890 0.000000 0.000000 
#    y 0.000000 1.763330 0.000000 
#    z 0.000000 0.000000 1.766430 
# 
# From -- ./inp_files/3713.got.cif
#   From: 2010.03.12/outbox.cif.g09.slc.cpg/sg49_2_cif.got.tgz:3713.got - 2010.04.14 03:58:27.
