data_PCOD8204862
_publ_section_title
;
Structure prediction by ZEFSAII (Michael W. Deem and Ramdas Pophale) SiO2 
 PCOD8204862
Probable space group: P B A N
;
_chemical_formula_sum "Si O2"
_cell_formula_units_Z 56
_cell_length_a 14.815777
_cell_length_b 21.819479
_cell_length_c 9.881589
_cell_angle_alpha 90.000000
_cell_angle_beta 90.000000
_cell_angle_gamma 90.000000
_cell_volume 3194.446327
_symmetry_space_group_name_H-M "P B A N"
_symmetry_group_IT_number 50
_space_group.IT_coordinate_system_code '2'
_symmetry_cell_setting 'orthorhombic'
loop_
_space_group_symop_operation_xyz
x,y,z
1/2-x,1/2-y,z
x,1/2-y,-z
1/2-x,y,-z
-x,-y,-z
1/2+x,1/2+y,-z
-x,1/2+y,z
1/2+x,-y,z
loop_
_atom_site_type_symbol
_atom_site_label
_atom_site_fract_x
_atom_site_fract_y
_atom_site_fract_z
Si Si1 0.588576 0.596916 0.715797
Si Si2 0.688966 0.473115 0.125486
Si Si3 0.518992 0.070262 0.474519
Si Si4 0.902601 0.902466 0.224294
Si Si5 0.487010 0.928361 0.021198
Si Si6 0.751750 0.677870 0.342301
Si Si7 0.692637 0.474938 0.629182
O O1 0.502719 0.605350 0.614703
O O2 0.553583 0.595791 0.866294
O O3 0.652289 0.655497 0.711614
O O4 0.643334 0.534951 0.685289
O O5 0.641956 0.532960 0.187152
O O6 0.617674 0.421888 0.069643
O O7 0.747937 0.445340 0.249499
O O8 0.750000 0.493983 0.000000
O O9 0.449685 0.096140 0.367634
O O10 0.621709 0.077068 0.421352
O O11 0.500000 0.000000 0.500000
O O12 0.826462 0.850648 0.245750
O O13 0.981788 0.889979 0.112210
O O14 0.500000 0.000000 0.000000
O O15 0.750000 0.750000 0.324636
O O16 0.750000 0.657993 0.500000
O O17 0.750000 0.496017 0.500000
#
# Coordination Sequence:
#
# PCOD8204862 Si02
#       7
#     8   8   8   8   8   8   8
#     4  11  19  34  49  70 106 144 173 219 264 306
#     4  11  19  30  48  73 109 143 172 201 256 321
#     4  10  19  29  47  71  98 138 181 210 258 323
#     4  11  20  34  49  70 104 143 175 217 263 307
#     4  10  21  32  47  73 105 144 173 206 260 328
#     4  11  23  38  57  79 101 142 192 232 266 305
#     4  11  18  27  47  73 102 134 179 209 250 320
#
# _framework density 17.530424
#
# number of rings (size 3 to 8) (size 9 to 14) (size 15 to 20)
#    0.000    1.286    2.857    9.000    0.000    0.000 
#    0.000    1.429    0.000    0.000    0.000    0.000 
#    0.000   17.143    0.000    0.000    0.000    0.000 
#
# Total GULP energy -693934.896345 kJ/mol
# GULP energy per Si atom -12391.694578 kJ/mol
# Density = 1.749052 g / cm^3
# Si number density = 17.530424 Si / 1000 Ang^3
#
#
#
# Elastic Constant Matrix: (Units=GPa)
#
#
# Indices 1 2 3 4 5 6 
#
# 1 91.5648 27.1707 27.6053 0.0000 0.0000 0.0000
# 2 27.1707 44.7457 17.7481 0.0000 0.0000 0.0000
# 3 27.6053 17.7481 99.7386 0.0000 0.0000 0.0000
# 4 0.0000 0.0000 0.0000 3.1021 0.0000 0.0000
# 5 0.0000 0.0000 0.0000 0.0000 45.5529 0.0000
# 6 0.0000 0.0000 0.0000 0.0000 0.0000 16.2943
#
#
#
# Elastic Compliance Matrix: (Units=1/GPa)
#
#
# Indices 1 2 3 4 5 6 
#
# 1 0.013887 -0.007432 -0.002521 0.000000 0.000000 0.000000
# 2 -0.007432 0.028024 -0.002930 0.000000 0.000000 0.000000
# 3 -0.002521 -0.002930 0.011245 0.000000 0.000000 0.000000
# 4 0.000000 0.000000 0.000000 0.322359 0.000000 0.000000
# 5 0.000000 0.000000 0.000000 0.000000 0.021952 0.000000
# 6 0.000000 0.000000 0.000000 0.000000 0.000000 0.061371
#
#
# Mechanical properties :
#
#
# Convention : Reuss Voigt Hill
#
# Bulk Modulus (GPa) = 36.51003 42.34412 39.42708
# Shear Modulus (GPa) = 10.12691 23.89155 17.00923
#
# Velocity S-wave (km/s) = 2.40610 3.69570 3.11829
# Velocity P-wave (km/s) = 5.34705 6.51291 5.95856
#
# Compressibility (1/GPa) = 0.02738973
#
# Stress axis : x y z
#
# Youngs Moduli (GPa) = 72.01115 35.68410 88.92638
#
# Poissons Ratio (x) = 0.26522 0.22418
# Poissons Ratio (y) = 0.53522 0.26052
# Poissons Ratio (z) = 0.18154 0.10454
#
# Static dielectric constant tensor:
#      x y z
#    x 4.147140 0.000000 0.000000 
#    y 0.000000 2.451730 0.000000 
#    z 0.000000 0.000000 3.841700 
# 
# 
# High freq. dielectric constant tensor:
#      x y z
#    x 1.695300 0.000000 0.000000 
#    y 0.000000 1.588720 0.000000 
#    z 0.000000 0.000000 1.705620 
# 
# From -- ./inp_files/14578.got.cif
#   From: 2010.03.12/outbox.cif.g09.slc.cpg/sg50_8_cif.got.tgz:14578.got - 2010.04.16 13:23:21.
