data_PCOD8204178
_publ_section_title
;
Structure prediction by ZEFSAII (Michael W. Deem and Ramdas Pophale) SiO2 
 PCOD8204178
Probable space group: P C C M
;
_chemical_formula_sum "Si O2"
_cell_formula_units_Z 56
_cell_length_a 14.843528
_cell_length_b 10.304009
_cell_length_c 15.312805
_cell_angle_alpha 90.000000
_cell_angle_beta 90.000000
_cell_angle_gamma 90.000000
_cell_volume 2342.060543
_symmetry_space_group_name_H-M "P C C M"
_symmetry_group_IT_number 49
_symmetry_cell_setting 'orthorhombic'
loop_
_space_group_symop_operation_xyz
x,y,z
-x,-y,z
x,-y,1/2-z
-x,y,1/2-z
-x,-y,-z
x,y,-z
-x,y,1/2+z
x,-y,1/2+z
loop_
_atom_site_type_symbol
_atom_site_label
_atom_site_fract_x
_atom_site_fract_y
_atom_site_fract_z
Si Si1 0.409852 0.662045 0.215735
Si Si2 0.239705 0.011894 0.353921
Si Si3 0.886665 0.364522 0.204665
Si Si4 0.054198 0.129924 0.601091
Si Si5 0.433448 0.892821 0.899886
Si Si6 0.254531 0.732196 0.339366
Si Si7 0.270886 0.534661 0.904499
O O1 0.500000 0.591283 0.250000
O O2 0.454056 0.760179 0.147660
O O3 0.348189 0.738177 0.285581
O O4 0.349079 0.554415 0.167054
O O5 0.238635 0.865539 0.391614
O O6 0.235658 0.000000 0.250000
O O7 0.159313 0.096723 0.392530
O O8 0.328734 0.079634 0.387421
O O9 0.924723 0.500000 0.250000
O O10 0.961293 0.261906 0.162463
O O11 0.829702 0.285928 0.274974
O O12 0.821967 0.399795 0.124221
O O13 0.028197 0.160874 0.500000
O O14 0.000000 0.000000 0.633848
O O15 0.500000 0.000000 0.858510
O O16 0.458427 0.873740 0.000000
O O17 0.256763 0.619226 0.410787
O O18 0.297635 0.588679 0.000000
#
# Coordination Sequence:
#
# PCOD8204178 Si02
#       7
#     8   8   8   8   8   8   8
#     4  11  21  37  59  81 118 167 219 273 336 407
#     4  12  21  39  66  95 132 178 223 276 340 410
#     4   9  18  38  67  96 130 174 231 278 338 405
#     4  11  24  41  67 107 148 184 228 287 351 416
#     4  11  24  38  60  94 127 164 218 281 343 405
#     4  10  21  36  58  91 119 163 223 273 330 400
#     4  10  21  37  60  87 124 169 220 279 339 410
#
# _framework density 23.910568999999999
#
# number of rings (size 3 to 8) (size 9 to 14) (size 15 to 20)
#    0.000    1.429    2.857    4.286    0.000    2.571 
#    0.000    2.143    0.000    7.714    0.000    9.000 
#    0.000   10.286    0.000    0.000    0.000    0.000 
#
# Total GULP energy -693975.239154 kJ/mol
# GULP energy per Si atom -12392.414985 kJ/mol
# Density = 2.385615 g / cm^3
# Si number density = 23.910569 Si / 1000 Ang^3
#
#
#
# Elastic Constant Matrix: (Units=GPa)
#
#
# Indices 1 2 3 4 5 6 
#
# 1 100.7649 17.7234 15.9457 0.0000 0.0000 0.0000
# 2 17.7234 152.4675 25.7564 0.0000 0.0000 0.0000
# 3 15.9457 25.7564 83.7325 0.0000 0.0000 0.0000
# 4 0.0000 0.0000 0.0000 29.8274 0.0000 0.0000
# 5 0.0000 0.0000 0.0000 0.0000 19.3441 0.0000
# 6 0.0000 0.0000 0.0000 0.0000 0.0000 17.4279
#
#
#
# Elastic Compliance Matrix: (Units=1/GPa)
#
#
# Indices 1 2 3 4 5 6 
#
# 1 0.010353 -0.000918 -0.001689 0.000000 0.000000 0.000000
# 2 -0.000918 0.007000 -0.001978 0.000000 0.000000 0.000000
# 3 -0.001689 -0.001978 0.012873 0.000000 0.000000 0.000000
# 4 0.000000 0.000000 0.000000 0.033526 0.000000 0.000000
# 5 0.000000 0.000000 0.000000 0.000000 0.051695 0.000000
# 6 0.000000 0.000000 0.000000 0.000000 0.000000 0.057379
#
#
# Mechanical properties :
#
#
# Convention : Reuss Voigt Hill
#
# Bulk Modulus (GPa) = 47.49585 50.64621 49.07103
# Shear Modulus (GPa) = 26.45284 31.82251 29.13767
#
# Velocity S-wave (km/s) = 3.32975 3.65210 3.49465
# Velocity P-wave (km/s) = 5.88983 6.24590 6.07048
#
# Compressibility (1/GPa) = 0.02105447
#
# Stress axis : x y z
#
# Youngs Moduli (GPa) = 96.59150 142.86344 77.68204
#
# Poissons Ratio (x) = 0.13116 0.13122
# Poissons Ratio (y) = 0.08868 0.15368
# Poissons Ratio (z) = 0.16316 0.28262
#
# Static dielectric constant tensor:
#      x y z
#    x 4.151520 0.000000 0.000000 
#    y 0.000000 4.744320 0.000000 
#    z 0.000000 0.000000 4.256250 
# 
# 
# High freq. dielectric constant tensor:
#      x y z
#    x 1.937670 0.000000 0.000000 
#    y 0.000000 1.971340 0.000000 
#    z 0.000000 0.000000 1.932190 
# 
# From -- ./inp_files/13599.got.cif
#   From: 2010.03.12/outbox.cif.g09.slc.cpg/sg49_7_cif.got.tgz:13599.got - 2010.04.14 03:58:27.
