data_PCOD8204256
_publ_section_title
;
Structure prediction by ZEFSAII (Michael W. Deem and Ramdas Pophale) SiO2 
 PCOD8204256
Probable space group: P C C M
;
_chemical_formula_sum "Si O2"
_cell_formula_units_Z 58
_cell_length_a 25.332722
_cell_length_b 14.595154
_cell_length_c 8.834885
_cell_angle_alpha 90.000000
_cell_angle_beta 90.000000
_cell_angle_gamma 90.000000
_cell_volume 3266.566018
_symmetry_space_group_name_H-M "P C C M"
_symmetry_group_IT_number 49
_symmetry_cell_setting 'orthorhombic'
loop_
_space_group_symop_operation_xyz
x,y,z
-x,-y,z
x,-y,1/2-z
-x,y,1/2-z
-x,-y,-z
x,y,-z
-x,y,1/2+z
x,-y,1/2+z
loop_
_atom_site_type_symbol
_atom_site_label
_atom_site_fract_x
_atom_site_fract_y
_atom_site_fract_z
Si Si1 0.192769 0.589553 0.323905
Si Si2 0.666125 0.098404 0.323457
Si Si3 0.000000 0.500000 0.750000
Si Si4 0.845546 0.908598 0.321935
Si Si5 0.449822 0.900611 0.322721
Si Si6 0.084074 0.641507 0.830992
Si Si7 0.054355 0.827424 0.679518
Si Si8 0.236009 0.782642 0.325058
O O1 0.220150 0.500000 0.250000
O O2 0.180615 0.573737 0.500000
O O3 0.137521 0.602605 0.239034
O O4 0.233804 0.673329 0.301092
O O5 0.670031 0.079306 0.500000
O O6 0.608085 0.140332 0.283248
O O7 0.707941 0.175649 0.271987
O O8 0.678051 0.000000 0.250000
O O9 0.038857 0.564189 0.847986
O O10 0.850698 0.918970 0.500000
O O11 0.902153 0.894890 0.246625
O O12 0.809267 0.822804 0.281054
O O13 0.819843 0.000000 0.250000
O O14 0.500000 0.845161 0.250000
O O15 0.459209 0.906657 0.500000
O O16 0.449818 0.000000 0.250000
O O17 0.064356 0.722506 0.723916
O O18 0.095322 0.679580 0.000000
O O19 0.053241 0.835132 0.500000
O O20 0.000000 0.862299 0.750000
O O21 0.224185 0.807586 0.500000
#
# Coordination Sequence:
#
# PCOD8204256 Si02
#       8
#     8   8   2   8   8   8   8   8
#     4  11  23  38  58  79 106 136 171 213 262 318
#     4   9  18  31  48  73 105 143 184 223 263 309
#     4  12  26  36  60  82 112 132 166 204 260 316
#     4  12  25  41  61  83 107 137 174 215 261 313
#     4   9  15  24  40  64  98 139 181 220 260 305
#     4  12  24  38  57  81 107 133 165 203 254 314
#     4  12  25  42  61  81 106 133 166 206 255 310
#     4  10  21  38  57  78 107 141 177 219 266 314
#
# _framework density 17.755648999999998
#
# number of rings (size 3 to 8) (size 9 to 14) (size 15 to 20)
#    0.000    1.241    2.759    4.759    0.000    4.138 
#    0.000    1.379    0.000    0.000    0.000    0.000 
#    0.000    0.552    0.000    6.897    0.000    0.000 
#
# Total GULP energy -719022.227524 kJ/mol
# GULP energy per Si atom -12396.934957 kJ/mol
# Density = 1.771524 g / cm^3
# Si number density = 17.755649 Si / 1000 Ang^3
#
#
#
# Elastic Constant Matrix: (Units=GPa)
#
#
# Indices 1 2 3 4 5 6 
#
# 1 126.1524 43.7560 48.1177 0.0000 0.0000 0.0000
# 2 43.7560 80.1295 35.1834 0.0000 0.0000 0.0000
# 3 48.1177 35.1834 124.5808 0.0000 0.0000 0.0000
# 4 0.0000 0.0000 0.0000 24.0028 0.0000 0.0000
# 5 0.0000 0.0000 0.0000 0.0000 -8.5023 0.0000
# 6 0.0000 0.0000 0.0000 0.0000 0.0000 11.4983
#
#
#
# Elastic Compliance Matrix: (Units=1/GPa)
#
#
# Indices 1 2 3 4 5 6 
#
# 1 0.010571 -0.004543 -0.002800 0.000000 0.000000 0.000000
# 2 -0.004543 0.016199 -0.002820 0.000000 0.000000 0.000000
# 3 -0.002800 -0.002820 0.009905 0.000000 0.000000 0.000000
# 4 0.000000 0.000000 0.000000 0.041662 0.000000 0.000000
# 5 0.000000 0.000000 0.000000 0.000000 -0.117616 0.000000
# 6 0.000000 0.000000 0.000000 0.000000 0.000000 0.086969
#
#
# Mechanical properties :
#
#
# Convention : Reuss Voigt Hill
#
# Bulk Modulus (GPa) = 61.16772 64.99744 63.08258
# Shear Modulus (GPa) = 68.06013 18.98680 43.52346
#
# Velocity S-wave (km/s) = 6.19796 3.27362 4.95638
# Velocity P-wave (km/s) = 9.25982 7.13967 8.26798
#
# Compressibility (1/GPa) = 0.01634849
#
# Stress axis : x y z
#
# Youngs Moduli (GPa) = 94.60276 61.73298 100.96176
#
# Poissons Ratio (x) = 0.28045 0.28267
# Poissons Ratio (y) = 0.42977 0.28473
# Poissons Ratio (z) = 0.26486 0.17410
#
# Static dielectric constant tensor:
#      x y z
#    x 4.388500 0.000000 0.000000 
#    y 0.000000 3.266260 0.000000 
#    z 0.000000 0.000000 3.368040 
# 
# 
# High freq. dielectric constant tensor:
#      x y z
#    x 1.676630 0.000000 0.000000 
#    y 0.000000 1.662290 0.000000 
#    z 0.000000 0.000000 1.700430 
# 
# From -- ./inp_files/6470.got.cif
#   From: 2010.03.12/outbox.cif.g09.slc.cpg/sg49_4_cif.got.tgz:6470.got - 2010.04.14 03:58:27.
