data_PCOD8204036
_publ_section_title
;
Structure prediction by ZEFSAII (Michael W. Deem and Ramdas Pophale) SiO2 
 PCOD8204036
Probable space group: P C C M
;
_chemical_formula_sum "Si O2"
_cell_formula_units_Z 64
_cell_length_a 10.726030
_cell_length_b 8.841345
_cell_length_c 32.659826
_cell_angle_alpha 90.000000
_cell_angle_beta 90.000000
_cell_angle_gamma 90.000000
_cell_volume 3097.213985
_symmetry_space_group_name_H-M "P C C M"
_symmetry_group_IT_number 49
_symmetry_cell_setting 'orthorhombic'
loop_
_space_group_symop_operation_xyz
x,y,z
-x,-y,z
x,-y,1/2-z
-x,y,1/2-z
-x,-y,-z
x,y,-z
-x,y,1/2+z
x,-y,1/2+z
loop_
_atom_site_type_symbol
_atom_site_label
_atom_site_fract_x
_atom_site_fract_y
_atom_site_fract_z
Si Si1 0.848592 0.639025 0.220319
Si Si2 0.322370 0.387468 0.144416
Si Si3 0.366233 0.174622 0.737974
Si Si4 0.959441 0.665918 0.547644
Si Si5 0.014908 0.835850 0.828940
Si Si6 0.163674 0.182897 0.905144
Si Si7 0.216300 0.154097 0.603925
Si Si8 0.415827 0.280543 0.650795
O O1 0.876384 0.500000 0.250000
O O2 0.780294 0.586740 0.179200
O O3 0.755186 0.757345 0.240875
O O4 0.983307 0.712766 0.206849
O O5 0.268191 0.311881 0.102641
O O6 0.435059 0.273365 0.157179
O O7 0.376699 0.551851 0.137364
O O8 0.500000 0.250516 0.750000
O O9 0.349871 0.208528 0.690310
O O10 0.368936 0.000000 0.750000
O O11 0.927577 0.665285 0.500000
O O12 0.837856 0.725528 0.571423
O O13 0.000000 0.500000 0.563407
O O14 0.076468 0.774998 0.556682
O O15 0.909398 0.824763 0.862982
O O16 0.145902 0.816696 0.852349
O O17 0.000000 0.000000 0.807895
O O18 0.211382 0.014289 0.914429
O O19 0.362707 0.182808 0.612692
#
# Coordination Sequence:
#
# PCOD8204036 Si02
#       8
#     8   8   8   8   8   8   8   8
#     4  11  20  37  61  79 106 145 200 254 307 357
#     4  10  21  36  58  84 112 150 199 252 297 354
#     4  11  24  35  53  81 112 150 200 259 310 353
#     4  10  20  37  64  96 127 159 191 230 284 351
#     4   8  18  35  57  78 110 150 189 240 297 351
#     4   9  19  35  59  90 118 151 192 243 289 340
#     4  10  21  37  60  87 120 155 198 241 290 359
#     4  11  22  36  58  82 113 157 199 249 304 353
#
# _framework density 20.663733000000001
#
# number of rings (size 3 to 8) (size 9 to 14) (size 15 to 20)
#    0.000    2.000    2.500    1.875    5.250    1.750 
#    0.000    0.625    2.750    0.750    0.000    5.250 
#    0.000    0.000    0.000    0.000    0.000    0.000 
#
# Total GULP energy -792988.897672 kJ/mol
# GULP energy per Si atom -12390.451526 kJ/mol
# Density = 2.061670 g / cm^3
# Si number density = 20.663733 Si / 1000 Ang^3
#
#
#
# Elastic Constant Matrix: (Units=GPa)
#
#
# Indices 1 2 3 4 5 6 
#
# 1 60.6889 20.5012 16.3446 0.0000 0.0000 0.0000
# 2 20.5012 104.6964 29.1310 0.0000 0.0000 0.0000
# 3 16.3446 29.1310 60.0145 0.0000 0.0000 0.0000
# 4 0.0000 0.0000 0.0000 17.5062 0.0000 0.0000
# 5 0.0000 0.0000 0.0000 0.0000 18.9821 0.0000
# 6 0.0000 0.0000 0.0000 0.0000 0.0000 31.1603
#
#
#
# Elastic Compliance Matrix: (Units=1/GPa)
#
#
# Indices 1 2 3 4 5 6 
#
# 1 0.018351 -0.002547 -0.003762 0.000000 0.000000 0.000000
# 2 -0.002547 0.011396 -0.004838 0.000000 0.000000 0.000000
# 3 -0.003762 -0.004838 0.020036 0.000000 0.000000 0.000000
# 4 0.000000 0.000000 0.000000 0.057123 0.000000 0.000000
# 5 0.000000 0.000000 0.000000 0.000000 0.052681 0.000000
# 6 0.000000 0.000000 0.000000 0.000000 0.000000 0.032092
#
#
# Mechanical properties :
#
#
# Convention : Reuss Voigt Hill
#
# Bulk Modulus (GPa) = 36.37722 39.70593 38.04157
# Shear Modulus (GPa) = 22.40797 24.15791 23.28294
#
# Velocity S-wave (km/s) = 3.29661 3.42292 3.36036
# Velocity P-wave (km/s) = 5.66858 5.90583 5.78842
#
# Compressibility (1/GPa) = 0.02748973
#
# Stress axis : x y z
#
# Youngs Moduli (GPa) = 54.49338 87.74772 49.91139
#
# Poissons Ratio (x) = 0.22347 0.18774
# Poissons Ratio (y) = 0.13878 0.24148
# Poissons Ratio (z) = 0.20498 0.42454
#
# Static dielectric constant tensor:
#      x y z
#    x 4.140640 0.000000 0.000000 
#    y 0.000000 3.896040 0.000000 
#    z 0.000000 0.000000 3.395340 
# 
# 
# High freq. dielectric constant tensor:
#      x y z
#    x 1.808870 0.000000 0.000000 
#    y 0.000000 1.820230 0.000000 
#    z 0.000000 0.000000 1.768470 
# 
# From -- ./inp_files/26670.got.cif
#   From: 2010.03.12/outbox.cif.g09.slc.cpg/sg49_14_cif.got.tgz:26670.got - 2010.04.14 03:58:27.
