data_PCOD8204319
_publ_section_title
;
Structure prediction by ZEFSAII (Michael W. Deem and Ramdas Pophale) SiO2 
 PCOD8204319
Probable space group: P C C M
;
_chemical_formula_sum "Si O2"
_cell_formula_units_Z 64
_cell_length_a 15.092717
_cell_length_b 11.647882
_cell_length_c 17.702050
_cell_angle_alpha 90.000000
_cell_angle_beta 90.000000
_cell_angle_gamma 90.000000
_cell_volume 3111.988290
_symmetry_space_group_name_H-M "P C C M"
_symmetry_group_IT_number 49
_symmetry_cell_setting 'orthorhombic'
loop_
_space_group_symop_operation_xyz
x,y,z
-x,-y,z
x,-y,1/2-z
-x,y,1/2-z
-x,-y,-z
x,y,-z
-x,y,1/2+z
x,-y,1/2+z
loop_
_atom_site_type_symbol
_atom_site_label
_atom_site_fract_x
_atom_site_fract_y
_atom_site_fract_z
Si Si1 0.501421 0.636868 0.084158
Si Si2 0.123943 0.860019 0.087749
Si Si3 0.639321 0.614921 0.296648
Si Si4 0.681698 0.270970 0.352532
Si Si5 0.855654 0.379455 0.585225
Si Si6 0.784018 0.054710 0.327804
Si Si7 0.207491 0.381655 0.414052
Si Si8 0.041462 0.202236 0.827421
O O1 0.500000 0.500000 0.085857
O O2 0.438304 0.673489 0.153366
O O3 0.596603 0.694040 0.098687
O O4 0.470487 0.677611 0.000000
O O5 0.162158 0.736150 0.110573
O O6 0.029158 0.876055 0.127839
O O7 0.194581 0.955830 0.112105
O O8 0.107014 0.872058 0.000000
O O9 0.610359 0.500000 0.250000
O O10 0.667982 0.710597 0.236874
O O11 0.716391 0.584540 0.355300
O O12 0.760993 0.350476 0.379721
O O13 0.707572 0.136607 0.362723
O O14 0.858178 0.333668 0.500000
O O15 0.866199 0.517391 0.589585
O O16 0.936081 0.318134 0.627593
O O17 0.871856 0.127913 0.310653
O O18 0.749844 0.000000 0.250000
O O19 0.245953 0.373703 0.500000
O O20 0.000000 0.245037 0.750000
#
# Coordination Sequence:
#
# PCOD8204319 Si02
#       8
#     8   8   8   8   8   8   8   8
#     4  11  22  37  59  93 136 168 194 245 318 389
#     4  11  24  40  63  90 122 170 222 269 324 380
#     4  12  21  35  62  94 128 163 210 256 308 389
#     4  11  23  37  64  94 125 164 210 261 321 380
#     4  10  21  39  60  91 130 168 209 260 322 390
#     4  11  23  42  64  88 123 165 214 279 324 370
#     4  10  22  40  61  88 130 176 212 257 325 393
#     4  11  23  38  64  90 126 164 215 272 330 382
#
# _framework density 20.565629999999999
#
# number of rings (size 3 to 8) (size 9 to 14) (size 15 to 20)
#    0.000    1.125    3.750    2.625    1.750    6.000 
#    0.000    2.500    0.000    5.250    0.000    5.250 
#    0.000    0.000    0.000    0.000    0.000    0.000 
#
# Total GULP energy -793593.345194 kJ/mol
# GULP energy per Si atom -12399.896019 kJ/mol
# Density = 2.051882 g / cm^3
# Si number density = 20.565630 Si / 1000 Ang^3
#
#
#
# Elastic Constant Matrix: (Units=GPa)
#
#
# Indices 1 2 3 4 5 6 
#
# 1 75.9005 43.8805 51.2164 0.0000 0.0000 0.0000
# 2 43.8805 120.3057 37.7730 0.0000 0.0000 0.0000
# 3 51.2164 37.7730 136.0850 0.0000 0.0000 0.0000
# 4 0.0000 0.0000 0.0000 23.2951 0.0000 0.0000
# 5 0.0000 0.0000 0.0000 0.0000 31.5060 0.0000
# 6 0.0000 0.0000 0.0000 0.0000 0.0000 32.6647
#
#
#
# Elastic Compliance Matrix: (Units=1/GPa)
#
#
# Indices 1 2 3 4 5 6 
#
# 1 0.020571 -0.005557 -0.006200 0.000000 0.000000 0.000000
# 2 -0.005557 0.010607 -0.000853 0.000000 0.000000 0.000000
# 3 -0.006200 -0.000853 0.009918 0.000000 0.000000 0.000000
# 4 0.000000 0.000000 0.000000 0.042927 0.000000 0.000000
# 5 0.000000 0.000000 0.000000 0.000000 0.031740 0.000000
# 6 0.000000 0.000000 0.000000 0.000000 0.000000 0.030614
#
#
# Mechanical properties :
#
#
# Convention : Reuss Voigt Hill
#
# Bulk Modulus (GPa) = 62.98084 66.44787 64.71436
# Shear Modulus (GPa) = 28.26643 30.78792 29.52717
#
# Velocity S-wave (km/s) = 3.71138 3.87338 3.79324
# Velocity P-wave (km/s) = 7.00404 7.23771 7.12183
#
# Compressibility (1/GPa) = 0.01587784
#
# Stress axis : x y z
#
# Youngs Moduli (GPa) = 48.61210 94.28061 100.82311
#
# Poissons Ratio (x) = 0.52388 0.62507
# Poissons Ratio (y) = 0.27012 0.08598
# Poissons Ratio (z) = 0.30138 0.08041
#
# Static dielectric constant tensor:
#      x y z
#    x 3.622390 0.000000 0.000000 
#    y 0.000000 3.712300 0.000000 
#    z 0.000000 0.000000 4.043800 
# 
# 
# High freq. dielectric constant tensor:
#      x y z
#    x 1.788280 0.000000 0.000000 
#    y 0.000000 1.790680 0.000000 
#    z 0.000000 0.000000 1.824520 
# 
# From -- ./inp_files/17960.got.cif
#   From: 2010.03.12/outbox.cif.g09.slc.cpg/sg49_9_cif.got.tgz:17960.got - 2010.04.14 03:58:27.
