data_PCOD8204522
_publ_section_title
;
Structure prediction by ZEFSAII (Michael W. Deem and Ramdas Pophale) SiO2 
 PCOD8204522
Probable space group: P C C M
;
_chemical_formula_sum "Si O2"
_cell_formula_units_Z 22
_cell_length_a 11.772073
_cell_length_b 6.514219
_cell_length_c 12.965358
_cell_angle_alpha 90.000000
_cell_angle_beta 90.000000
_cell_angle_gamma 90.000000
_cell_volume 994.259649
_symmetry_space_group_name_H-M "P C C M"
_symmetry_group_IT_number 49
_symmetry_cell_setting 'orthorhombic'
loop_
_space_group_symop_operation_xyz
x,y,z
-x,-y,z
x,-y,1/2-z
-x,y,1/2-z
-x,-y,-z
x,y,-z
-x,y,1/2+z
x,-y,1/2+z
loop_
_atom_site_type_symbol
_atom_site_label
_atom_site_fract_x
_atom_site_fract_y
_atom_site_fract_z
Si Si1 0.694486 0.679509 0.379583
Si Si2 0.106602 0.362078 0.881677
Si Si3 0.500000 0.500000 0.750000
Si Si4 0.821904 0.000000 0.750000
O O1 0.672652 0.712413 0.500000
O O2 0.777925 0.486682 0.359484
O O3 0.575537 0.641855 0.323687
O O4 0.745255 0.888948 0.335353
O O5 0.100122 0.161108 0.811100
O O6 0.000000 0.500000 0.850588
O O7 0.097966 0.292995 0.000000
#
# Coordination Sequence:
#
# PCOD8204522 Si02
#       4
#     8   8   2   4
#     4  11  25  44  68 101 140 182 232 287 342 408
#     4  10  23  44  69 102 142 180 225 285 349 415
#     4  12  22  50  66  98 138 192 226 288 348 398
#     4  12  22  44  70 106 132 183 233 276 344 416
#
# _framework density 22.127016000000001
#
# number of rings (size 3 to 8) (size 9 to 14) (size 15 to 20)
#    0.000    1.091    3.636    1.636    0.000    6.545 
#    0.000    7.273    0.000    3.273    0.000    0.000 
#    0.000    0.000    0.000    0.000    0.000    0.000 
#
# Total GULP energy -272948.588510 kJ/mol
# GULP energy per Si atom -12406.754023 kJ/mol
# Density = 2.207665 g / cm^3
# Si number density = 22.127016 Si / 1000 Ang^3
#
#
#
# Elastic Constant Matrix: (Units=GPa)
#
#
# Indices 1 2 3 4 5 6 
#
# 1 141.1307 66.6005 76.5457 0.0000 0.0000 0.0000
# 2 66.6005 151.5074 104.1306 0.0000 0.0000 0.0000
# 3 76.5457 104.1306 197.9405 0.0000 0.0000 0.0000
# 4 0.0000 0.0000 0.0000 48.1367 0.0000 0.0000
# 5 0.0000 0.0000 0.0000 0.0000 -29.6718 0.0000
# 6 0.0000 0.0000 0.0000 0.0000 0.0000 23.5067
#
#
#
# Elastic Compliance Matrix: (Units=1/GPa)
#
#
# Indices 1 2 3 4 5 6 
#
# 1 0.009582 -0.002609 -0.002333 0.000000 0.000000 0.000000
# 2 -0.002609 0.011048 -0.004804 0.000000 0.000000 0.000000
# 3 -0.002333 -0.004804 0.008481 0.000000 0.000000 0.000000
# 4 0.000000 0.000000 0.000000 0.020774 0.000000 0.000000
# 5 0.000000 0.000000 0.000000 0.000000 -0.033702 0.000000
# 6 0.000000 0.000000 0.000000 0.000000 0.000000 0.042541
#
#
# Mechanical properties :
#
#
# Convention : Reuss Voigt Hill
#
# Bulk Modulus (GPa) = 103.93617 109.45916 106.69766
# Shear Modulus (GPa) = 61.40789 24.61442 43.01116
#
# Velocity S-wave (km/s) = 5.27377 3.33891 4.41367
# Velocity P-wave (km/s) = 9.17377 8.02747 8.61970
#
# Compressibility (1/GPa) = 0.00962129
#
# Stress axis : x y z
#
# Youngs Moduli (GPa) = 104.36127 90.51044 117.90656
#
# Poissons Ratio (x) = 0.23610 0.27510
# Poissons Ratio (y) = 0.27223 0.56637
# Poissons Ratio (z) = 0.24350 0.43477
#
# Static dielectric constant tensor:
#      x y z
#    x 3.928460 0.000000 0.000000 
#    y 0.000000 4.239160 0.000000 
#    z 0.000000 0.000000 4.365760 
# 
# 
# High freq. dielectric constant tensor:
#      x y z
#    x 1.867090 0.000000 0.000000 
#    y 0.000000 1.865170 0.000000 
#    z 0.000000 0.000000 1.907930 
# 
# From -- ./inp_files/12264.got.cif
#   From: 2010.03.12/outbox.cif.g09.slc.cpg/sg49_7_cif.got.tgz:12264.got - 2010.04.14 03:58:27.
