data_PCOD8204109
_publ_section_title
;
Structure prediction by ZEFSAII (Michael W. Deem and Ramdas Pophale) SiO2 
 PCOD8204109
Probable space group: P C C M
;
_chemical_formula_sum "Si O2"
_cell_formula_units_Z 48
_cell_length_a 9.766043
_cell_length_b 13.757364
_cell_length_c 15.643972
_cell_angle_alpha 90.000000
_cell_angle_beta 90.000000
_cell_angle_gamma 90.000000
_cell_volume 2101.845989
_symmetry_space_group_name_H-M "P C C M"
_symmetry_group_IT_number 49
_symmetry_cell_setting 'orthorhombic'
loop_
_space_group_symop_operation_xyz
x,y,z
-x,-y,z
x,-y,1/2-z
-x,y,1/2-z
-x,-y,-z
x,y,-z
-x,y,1/2+z
x,-y,1/2+z
loop_
_atom_site_type_symbol
_atom_site_label
_atom_site_fract_x
_atom_site_fract_y
_atom_site_fract_z
Si Si1 0.956232 0.199105 0.598671
Si Si2 0.501292 0.763477 0.346759
Si Si3 0.623819 0.570102 0.902071
Si Si4 0.701387 0.919628 0.897969
Si Si5 0.757678 0.865983 0.600735
Si Si6 0.921085 0.587641 0.841122
O O1 0.961301 0.171920 0.500000
O O2 0.096597 0.162958 0.642424
O O3 0.831227 0.139412 0.639229
O O4 0.936361 0.313567 0.607573
O O5 0.500000 0.727393 0.250000
O O6 0.428814 0.681163 0.402938
O O7 0.430731 0.868272 0.358306
O O8 0.657257 0.778142 0.375427
O O9 0.500000 0.500000 0.869654
O O10 0.757851 0.560681 0.840293
O O11 0.664136 0.543774 0.000000
O O12 0.709054 0.029709 0.863302
O O13 0.689445 0.915757 0.000000
O O14 0.771348 0.874018 0.500000
O O15 0.000000 0.500000 0.889898
O O16 0.000000 0.598138 0.750000
#
# Coordination Sequence:
#
# PCOD8204109 Si02
#       6
#     8   8   8   8   8   8
#     4  10  21  39  67  97 130 171 223 278 330 397
#     4  12  26  40  63  94 136 176 220 282 343 404
#     4  11  26  49  76 102 133 180 236 283 337 413
#     4  10  20  41  65  91 130 177 229 281 334 397
#     4  10  22  38  64  97 129 173 228 280 333 401
#     4  11  26  44  69 100 139 177 215 276 345 413
#
# _framework density 22.837067000000001
#
# number of rings (size 3 to 8) (size 9 to 14) (size 15 to 20)
#    0.000    1.333    1.667    3.000    4.667    7.667 
#    0.000    0.000    0.000    3.000    0.000    0.000 
#    0.000    0.000    0.000    0.000    0.000    0.000 
#
# Total GULP energy -595082.795109 kJ/mol
# GULP energy per Si atom -12397.558231 kJ/mol
# Density = 2.278509 g / cm^3
# Si number density = 22.837067 Si / 1000 Ang^3
#
#
#
# Elastic Constant Matrix: (Units=GPa)
#
#
# Indices 1 2 3 4 5 6 
#
# 1 153.4545 38.6888 25.1304 0.0000 0.0000 0.0000
# 2 38.6888 109.9020 0.9997 0.0000 0.0000 0.0000
# 3 25.1304 0.9997 43.2657 0.0000 0.0000 0.0000
# 4 0.0000 0.0000 0.0000 19.9364 0.0000 0.0000
# 5 0.0000 0.0000 0.0000 0.0000 18.3223 0.0000
# 6 0.0000 0.0000 0.0000 0.0000 0.0000 57.9427
#
#
#
# Elastic Compliance Matrix: (Units=1/GPa)
#
#
# Indices 1 2 3 4 5 6 
#
# 1 0.007959 -0.002760 -0.004559 0.000000 0.000000 0.000000
# 2 -0.002760 0.010058 0.001371 0.000000 0.000000 0.000000
# 3 -0.004559 0.001371 0.025730 0.000000 0.000000 0.000000
# 4 0.000000 0.000000 0.000000 0.050160 0.000000 0.000000
# 5 0.000000 0.000000 0.000000 0.000000 0.054578 0.000000
# 6 0.000000 0.000000 0.000000 0.000000 0.000000 0.017258
#
#
# Mechanical properties :
#
#
# Convention : Reuss Voigt Hill
#
# Bulk Modulus (GPa) = 31.39754 48.47331 39.93543
# Shear Modulus (GPa) = 26.55941 35.36049 30.95995
#
# Velocity S-wave (km/s) = 3.41397 3.93922 3.68596
# Velocity P-wave (km/s) = 5.41467 6.47779 5.96994
#
# Compressibility (1/GPa) = 0.03184962
#
# Stress axis : x y z
#
# Youngs Moduli (GPa) = 125.64112 99.42052 38.86588
#
# Poissons Ratio (x) = 0.27444 0.17720
# Poissons Ratio (y) = 0.34682 -0.05328
# Poissons Ratio (z) = 0.57283 -0.13630
#
# Static dielectric constant tensor:
#      x y z
#    x 4.574950 0.000000 0.000000 
#    y 0.000000 4.285890 0.000000 
#    z 0.000000 0.000000 3.657150 
# 
# 
# High freq. dielectric constant tensor:
#      x y z
#    x 1.920560 0.000000 0.000000 
#    y 0.000000 1.909930 0.000000 
#    z 0.000000 0.000000 1.869310 
# 
# From -- ./inp_files/16270.got.cif
#   From: 2010.03.12/outbox.cif.g09.slc.cpg/sg49_9_cif.got.tgz:16270.got - 2010.04.14 03:58:27.
