data_PCOD8204295
_publ_section_title
;
Structure prediction by ZEFSAII (Michael W. Deem and Ramdas Pophale) SiO2 
 PCOD8204295
Probable space group: P C C M
;
_chemical_formula_sum "Si O2"
_cell_formula_units_Z 56
_cell_length_a 8.899246
_cell_length_b 22.008274
_cell_length_c 14.018476
_cell_angle_alpha 90.000000
_cell_angle_beta 90.000000
_cell_angle_gamma 90.000000
_cell_volume 2745.617276
_symmetry_space_group_name_H-M "P C C M"
_symmetry_group_IT_number 49
_symmetry_cell_setting 'orthorhombic'
loop_
_space_group_symop_operation_xyz
x,y,z
-x,-y,z
x,-y,1/2-z
-x,y,1/2-z
-x,-y,-z
x,y,-z
-x,y,1/2+z
x,-y,1/2+z
loop_
_atom_site_type_symbol
_atom_site_label
_atom_site_fract_x
_atom_site_fract_y
_atom_site_fract_z
Si Si1 0.403338 0.906467 0.000000
Si Si2 0.172733 0.633843 0.388160
Si Si3 0.164501 0.059258 0.793487
Si Si4 0.167183 0.393926 0.387709
Si Si5 0.654729 0.839301 0.304228
Si Si6 0.666710 0.488187 0.387082
Si Si7 0.268119 0.961715 0.500000
Si Si8 0.324107 0.704605 0.232362
O O1 0.362231 0.865926 0.090598
O O2 0.578687 0.923149 0.000000
O O3 0.302563 0.966751 0.000000
O O4 0.185997 0.647948 0.500000
O O5 0.274523 0.577334 0.354055
O O6 0.232721 0.692258 0.330609
O O7 0.003456 0.618495 0.356792
O O8 0.235890 0.121320 0.760078
O O9 0.000000 0.057836 0.750000
O O10 0.252095 0.000000 0.750000
O O11 0.167938 0.055638 0.908282
O O12 0.183580 0.392440 0.500000
O O13 0.221162 0.459566 0.348305
O O14 0.276618 0.342689 0.348047
O O15 0.500000 0.839018 0.250000
O O16 0.719430 0.771082 0.307325
O O17 0.500000 0.500000 0.345768
O O18 0.664891 0.489977 0.500000
O O19 0.500000 0.698231 0.250000
#
# Coordination Sequence:
#
# PCOD8204295 Si02
#       8
#     4   8   8   8   8   8   4   8
#     4  11  22  39  76 101 132 171 221 270 321 394
#     4  10  21  40  62  87 123 165 210 260 321 389
#     4  11  24  41  65  98 143 170 211 273 319 392
#     4  10  21  38  62  90 121 163 209 259 321 388
#     4  11  24  44  65  96 129 172 219 268 323 378
#     4   9  17  32  59  92 125 155 201 266 328 381
#     4  11  22  40  73 106 129 180 220 262 340 382
#     4  11  25  41  61  87 122 164 209 264 309 380
#
# _framework density 20.396142999999999
#
# number of rings (size 3 to 8) (size 9 to 14) (size 15 to 20)
#    0.000    1.571    2.857    1.714    1.000    7.143 
#    5.143    2.857    0.000    0.000    0.000    0.000 
#    0.000    0.000    0.000    0.000    0.000    0.000 
#
# Total GULP energy -694393.537374 kJ/mol
# GULP energy per Si atom -12399.884596 kJ/mol
# Density = 2.034972 g / cm^3
# Si number density = 20.396143 Si / 1000 Ang^3
#
#
#
# Elastic Constant Matrix: (Units=GPa)
#
#
# Indices 1 2 3 4 5 6 
#
# 1 97.0626 51.1168 31.6162 0.0000 0.0000 0.0000
# 2 51.1168 146.4270 49.4790 0.0000 0.0000 0.0000
# 3 31.6162 49.4790 129.8028 0.0000 0.0000 0.0000
# 4 0.0000 0.0000 0.0000 25.5391 0.0000 0.0000
# 5 0.0000 0.0000 0.0000 0.0000 26.7562 0.0000
# 6 0.0000 0.0000 0.0000 0.0000 0.0000 31.4207
#
#
#
# Elastic Compliance Matrix: (Units=1/GPa)
#
#
# Indices 1 2 3 4 5 6 
#
# 1 0.012920 -0.003957 -0.001639 0.000000 0.000000 0.000000
# 2 -0.003957 0.009051 -0.002486 0.000000 0.000000 0.000000
# 3 -0.001639 -0.002486 0.009051 0.000000 0.000000 0.000000
# 4 0.000000 0.000000 0.000000 0.039156 0.000000 0.000000
# 5 0.000000 0.000000 0.000000 0.000000 0.037375 0.000000
# 6 0.000000 0.000000 0.000000 0.000000 0.000000 0.031826
#
#
# Mechanical properties :
#
#
# Convention : Reuss Voigt Hill
#
# Bulk Modulus (GPa) = 67.30194 70.85740 69.07967
# Shear Modulus (GPa) = 31.15376 32.81520 31.98448
#
# Velocity S-wave (km/s) = 3.91248 4.01545 3.96430
# Velocity P-wave (km/s) = 7.31294 7.50430 7.40923
#
# Compressibility (1/GPa) = 0.01485841
#
# Stress axis : x y z
#
# Youngs Moduli (GPa) = 77.39873 110.48872 110.48632
#
# Poissons Ratio (x) = 0.43716 0.18106
# Poissons Ratio (y) = 0.30623 0.27470
# Poissons Ratio (z) = 0.12684 0.27471
#
# Static dielectric constant tensor:
#      x y z
#    x 3.738490 0.000000 0.000000 
#    y 0.000000 4.703800 0.000000 
#    z 0.000000 0.000000 3.704010 
# 
# 
# High freq. dielectric constant tensor:
#      x y z
#    x 1.797820 0.000000 0.000000 
#    y 0.000000 1.797980 0.000000 
#    z 0.000000 0.000000 1.810910 
# 
# From -- ./inp_files/12068.got.cif
#   From: 2010.03.12/outbox.cif.g09.slc.cpg/sg49_7_cif.got.tgz:12068.got - 2010.04.14 03:58:27.
