data_PCOD8204954
_publ_section_title
;
Structure prediction by ZEFSAII (Michael W. Deem and Ramdas Pophale) SiO2 
 PCOD8204954
Probable space group: P B A N
;
_chemical_formula_sum "Si O2"
_cell_formula_units_Z 52
_cell_length_a 19.094526
_cell_length_b 8.650180
_cell_length_c 15.426709
_cell_angle_alpha 90.000000
_cell_angle_beta 90.000000
_cell_angle_gamma 90.000000
_cell_volume 2548.046293
_symmetry_space_group_name_H-M "P B A N"
_symmetry_group_IT_number 50
_space_group.IT_coordinate_system_code '2'
_symmetry_cell_setting 'orthorhombic'
loop_
_space_group_symop_operation_xyz
x,y,z
1/2-x,1/2-y,z
x,1/2-y,-z
1/2-x,y,-z
-x,-y,-z
1/2+x,1/2+y,-z
-x,1/2+y,z
1/2+x,-y,z
loop_
_atom_site_type_symbol
_atom_site_label
_atom_site_fract_x
_atom_site_fract_y
_atom_site_fract_z
Si Si1 0.868582 0.556798 0.318979
Si Si2 0.524218 0.700568 0.260964
Si Si3 0.356230 0.025652 0.165026
Si Si4 0.750000 0.750000 0.747805
Si Si5 0.832280 0.427029 0.011677
Si Si6 0.953570 0.106483 0.557968
Si Si7 0.378657 0.680300 0.183282
O O1 0.935818 0.636327 0.271655
O O2 0.803347 0.671146 0.319182
O O3 0.887209 0.500868 0.416032
O O4 0.849936 0.399606 0.269355
O O5 0.577325 0.572424 0.222615
O O6 0.496027 0.653154 0.355614
O O7 0.461658 0.717075 0.191589
O O8 0.288604 0.126639 0.190679
O O9 0.337630 0.843371 0.176407
O O10 0.369426 0.038858 0.060200
O O11 0.860809 0.450675 0.109389
O O12 0.855017 0.250000 0.000000
O O13 0.750000 0.453364 0.000000
O O14 0.927925 0.250000 0.500000
O O15 0.000000 0.000000 0.500000
#
# Coordination Sequence:
#
# PCOD8204954 Si02
#       7
#     8   8   8   4   8   8   8
#     4  10  21  37  58  90 121 157 200 244 305 368
#     4  10  21  37  57  94 124 151 194 248 315 358
#     4  10  21  37  60  83 122 163 202 251 297 360
#     4  10  22  40  57  85 120 164 206 246 306 361
#     4   9  18  33  53  81 115 160 209 244 283 342
#     4  11  21  37  65  95 117 150 195 251 304 371
#     4  10  19  34  60  87 119 156 206 253 293 357
#
# _framework density 20.407792000000001
#
# number of rings (size 3 to 8) (size 9 to 14) (size 15 to 20)
#    0.000    2.000    1.538    2.769    2.154    2.462 
#    0.000    8.846    0.000    7.385    8.000    0.000 
#    0.000    0.000    0.000    0.000    0.000    0.000 
#
# Total GULP energy -644278.980933 kJ/mol
# GULP energy per Si atom -12389.980403 kJ/mol
# Density = 2.036134 g / cm^3
# Si number density = 20.407792 Si / 1000 Ang^3
#
#
#
# Elastic Constant Matrix: (Units=GPa)
#
#
# Indices 1 2 3 4 5 6 
#
# 1 104.9092 44.7632 58.0159 0.0000 0.0000 0.0000
# 2 44.7632 105.0461 55.3409 0.0000 0.0000 0.0000
# 3 58.0159 55.3409 134.3844 0.0000 0.0000 0.0000
# 4 0.0000 0.0000 0.0000 40.3564 0.0000 0.0000
# 5 0.0000 0.0000 0.0000 0.0000 30.3714 0.0000
# 6 0.0000 0.0000 0.0000 0.0000 0.0000 27.5665
#
#
#
# Elastic Compliance Matrix: (Units=1/GPa)
#
#
# Indices 1 2 3 4 5 6 
#
# 1 0.013411 -0.003403 -0.004388 0.000000 0.000000 0.000000
# 2 -0.003403 0.013021 -0.003893 0.000000 0.000000 0.000000
# 3 -0.004388 -0.003893 0.010939 0.000000 0.000000 0.000000
# 4 0.000000 0.000000 0.000000 0.024779 0.000000 0.000000
# 5 0.000000 0.000000 0.000000 0.000000 0.032926 0.000000
# 6 0.000000 0.000000 0.000000 0.000000 0.000000 0.036276
#
#
# Mechanical properties :
#
#
# Convention : Reuss Voigt Hill
#
# Bulk Modulus (GPa) = 71.41769 73.39776 72.40773
# Shear Modulus (GPa) = 31.37023 32.07351 31.72187
#
# Velocity S-wave (km/s) = 3.92493 3.96868 3.94686
# Velocity P-wave (km/s) = 7.45730 7.55276 7.50518
#
# Compressibility (1/GPa) = 0.01400213
#
# Stress axis : x y z
#
# Youngs Moduli (GPa) = 74.56685 76.80148 91.41596
#
# Poissons Ratio (x) = 0.26134 0.40116
# Poissons Ratio (y) = 0.25374 0.35588
# Poissons Ratio (z) = 0.32722 0.29898
#
# Static dielectric constant tensor:
#      x y z
#    x 3.690520 0.000000 0.000000 
#    y 0.000000 3.657240 0.000000 
#    z 0.000000 0.000000 3.797560 
# 
# 
# High freq. dielectric constant tensor:
#      x y z
#    x 1.779910 0.000000 0.000000 
#    y 0.000000 1.805240 0.000000 
#    z 0.000000 0.000000 1.793540 
# 
# From -- ./inp_files/27193.got.cif
#   From: 2010.03.12/outbox.cif.g09.slc.cpg/sg50_14_cif.got.tgz:27193.got - 2010.04.16 13:23:21.
