data_PCOD8204333
_publ_section_title
;
Structure prediction by ZEFSAII (Michael W. Deem and Ramdas Pophale) SiO2 
 PCOD8204333
Probable space group: P C C M
;
_chemical_formula_sum "Si O2"
_cell_formula_units_Z 64
_cell_length_a 23.725460
_cell_length_b 15.427978
_cell_length_c 8.585116
_cell_angle_alpha 90.000000
_cell_angle_beta 90.000000
_cell_angle_gamma 90.000000
_cell_volume 3142.460446
_symmetry_space_group_name_H-M "P C C M"
_symmetry_group_IT_number 49
_symmetry_cell_setting 'orthorhombic'
loop_
_space_group_symop_operation_xyz
x,y,z
-x,-y,z
x,-y,1/2-z
-x,y,1/2-z
-x,-y,-z
x,y,-z
-x,y,1/2+z
x,-y,1/2+z
loop_
_atom_site_type_symbol
_atom_site_label
_atom_site_fract_x
_atom_site_fract_y
_atom_site_fract_z
Si Si1 0.627630 0.591239 0.316300
Si Si2 0.939465 0.253701 0.183912
Si Si3 0.860000 0.411966 0.815665
Si Si4 0.361154 0.909664 0.315681
Si Si5 0.123850 0.907789 0.315297
Si Si6 0.438306 0.752360 0.315353
Si Si7 0.243138 0.157591 0.815131
Si Si8 0.745118 0.646523 0.184197
O O1 0.605968 0.500000 0.250000
O O2 0.621757 0.591767 0.500000
O O3 0.587439 0.663862 0.246195
O O4 0.692123 0.604881 0.268949
O O5 0.897566 0.330320 0.235138
O O6 0.919908 0.163695 0.258049
O O7 0.000000 0.278930 0.250000
O O8 0.942176 0.243201 0.000000
O O9 0.888794 0.500000 0.750000
O O10 0.799907 0.406882 0.731301
O O11 0.852555 0.416200 0.000000
O O12 0.362016 0.912612 0.500000
O O13 0.400399 0.832192 0.254493
O O14 0.297488 0.894508 0.252962
O O15 0.384495 0.000000 0.250000
O O16 0.123459 0.909943 0.500000
O O17 0.186349 0.886206 0.248877
O O18 0.104006 0.000000 0.250000
O O19 0.500000 0.767092 0.250000
O O20 0.439613 0.749084 0.500000
O O21 0.247104 0.255662 0.754299
O O22 0.241666 0.158196 0.000000
O O23 0.734861 0.642580 0.000000
#
# Coordination Sequence:
#
# PCOD8204333 Si02
#       8
#     8   8   8   8   8   8   8   8
#     4  12  25  42  65  95 127 164 207 254 311 371
#     4  11  25  44  65  90 121 160 210 261 310 368
#     4  11  24  41  63  94 127 162 206 253 308 370
#     4  10  21  39  62  91 126 163 205 250 305 364
#     4  11  22  39  64  94 127 164 204 251 310 370
#     4  11  24  44  66  90 124 164 211 263 311 367
#     4   9  18  35  61  91 124 163 199 244 305 366
#     4  11  20  38  65  93 128 166 205 250 308 369
#
# _framework density 20.366206999999999
#
# number of rings (size 3 to 8) (size 9 to 14) (size 15 to 20)
#    0.000    1.250    2.500    3.750    0.000    3.500 
#    0.000    5.625    0.000    0.000    0.000    0.000 
#    0.000    0.000    0.000    0.000    0.000    0.000 
#
# Total GULP energy -793938.483105 kJ/mol
# GULP energy per Si atom -12405.288799 kJ/mol
# Density = 2.031985 g / cm^3
# Si number density = 20.366207 Si / 1000 Ang^3
#
#
#
# Elastic Constant Matrix: (Units=GPa)
#
#
# Indices 1 2 3 4 5 6 
#
# 1 91.0219 20.5600 23.8640 0.0000 0.0000 0.0000
# 2 20.5600 140.0957 31.6926 0.0000 0.0000 0.0000
# 3 23.8640 31.6926 68.4117 0.0000 0.0000 0.0000
# 4 0.0000 0.0000 0.0000 33.3812 0.0000 0.0000
# 5 0.0000 0.0000 0.0000 0.0000 29.9398 0.0000
# 6 0.0000 0.0000 0.0000 0.0000 0.0000 5.7076
#
#
#
# Elastic Compliance Matrix: (Units=1/GPa)
#
#
# Indices 1 2 3 4 5 6 
#
# 1 0.012199 -0.000924 -0.003827 0.000000 0.000000 0.000000
# 2 -0.000924 0.008044 -0.003404 0.000000 0.000000 0.000000
# 3 -0.003827 -0.003404 0.017529 0.000000 0.000000 0.000000
# 4 0.000000 0.000000 0.000000 0.029957 0.000000 0.000000
# 5 0.000000 0.000000 0.000000 0.000000 0.033400 0.000000
# 6 0.000000 0.000000 0.000000 0.000000 0.000000 0.175205
#
#
# Mechanical properties :
#
#
# Convention : Reuss Voigt Hill
#
# Bulk Modulus (GPa) = 46.59640 50.19583 48.39611
# Shear Modulus (GPa) = 16.67789 28.69990 22.68889
#
# Velocity S-wave (km/s) = 2.86475 3.75799 3.34135
# Velocity P-wave (km/s) = 5.81991 6.59774 6.22099
#
# Compressibility (1/GPa) = 0.02146089
#
# Stress axis : x y z
#
# Youngs Moduli (GPa) = 81.97710 124.32129 57.04765
#
# Poissons Ratio (x) = 0.11493 0.21832
# Poissons Ratio (y) = 0.07579 0.19418
# Poissons Ratio (z) = 0.31372 0.42317
#
# Static dielectric constant tensor:
#      x y z
#    x 3.717420 0.000000 0.000000 
#    y 0.000000 3.993780 0.000000 
#    z 0.000000 0.000000 3.589260 
# 
# 
# High freq. dielectric constant tensor:
#      x y z
#    x 1.794690 0.000000 0.000000 
#    y 0.000000 1.814760 0.000000 
#    z 0.000000 0.000000 1.791570 
# 
# From -- ./inp_files/6547.got.cif
#   From: 2010.03.12/outbox.cif.g09.slc.cpg/sg49_4_cif.got.tgz:6547.got - 2010.04.14 03:58:27.
