data_PCOD8204777
_publ_section_title
;
Structure prediction by ZEFSAII (Michael W. Deem and Ramdas Pophale) SiO2 
 PCOD8204777
Probable space group: P B A N
;
_chemical_formula_sum "Si O2"
_cell_formula_units_Z 40
_cell_length_a 17.959790
_cell_length_b 11.391800
_cell_length_c 9.564851
_cell_angle_alpha 90.000000
_cell_angle_beta 90.000000
_cell_angle_gamma 90.000000
_cell_volume 1956.914337
_symmetry_space_group_name_H-M "P B A N"
_symmetry_group_IT_number 50
_space_group.IT_coordinate_system_code '2'
_symmetry_cell_setting 'orthorhombic'
loop_
_space_group_symop_operation_xyz
x,y,z
1/2-x,1/2-y,z
x,1/2-y,-z
1/2-x,y,-z
-x,-y,-z
1/2+x,1/2+y,-z
-x,1/2+y,z
1/2+x,-y,z
loop_
_atom_site_type_symbol
_atom_site_label
_atom_site_fract_x
_atom_site_fract_y
_atom_site_fract_z
Si Si1 0.837058 0.881250 0.525163
Si Si2 0.417876 0.976006 0.294360
Si Si3 0.085677 0.769516 0.150683
Si Si4 0.426805 0.363945 0.949879
Si Si5 0.082057 0.488740 0.762500
O O1 0.868016 0.750000 0.500000
O O2 0.750000 0.886554 0.500000
O O3 0.857446 0.907278 0.686522
O O4 0.874665 0.982795 0.431922
O O5 0.403359 0.840338 0.254329
O O6 0.505386 0.993902 0.325070
O O7 0.387060 0.057367 0.167020
O O8 0.999765 0.804900 0.120727
O O9 0.120811 0.883123 0.226368
O O10 0.125327 0.750000 0.000000
O O11 0.377841 0.250000 0.000000
O O12 0.443717 0.444875 0.084100
#
# Coordination Sequence:
#
# PCOD8204777 Si02
#       5
#     8   8   8   8   8
#     4  11  27  46  59  81 126 172 213 254 301 367
#     4  11  20  37  63  93 125 158 201 260 311 363
#     4  10  17  32  59  99 126 145 187 257 321 352
#     4  10  17  30  59  94 127 150 192 256 312 355
#     4  11  20  36  63  94 124 160 203 251 307 370
#
# _framework density 20.440342999999999
#
# number of rings (size 3 to 8) (size 9 to 14) (size 15 to 20)
#    0.000    1.400    6.000    3.000    2.800    0.800 
#    0.000    3.000    0.000    4.800    0.000    0.000 
#    0.000    0.000    0.000    0.000    0.000    0.000 
#
# Total GULP energy -495625.258612 kJ/mol
# GULP energy per Si atom -12390.631465 kJ/mol
# Density = 2.039382 g / cm^3
# Si number density = 20.440343 Si / 1000 Ang^3
#
#
#
# Elastic Constant Matrix: (Units=GPa)
#
#
# Indices 1 2 3 4 5 6 
#
# 1 38.9344 14.3411 20.7235 0.0000 0.0000 0.0000
# 2 14.3411 171.2545 38.1995 0.0000 0.0000 0.0000
# 3 20.7235 38.1995 80.4475 0.0000 0.0000 0.0000
# 4 0.0000 0.0000 0.0000 47.1747 0.0000 0.0000
# 5 0.0000 0.0000 0.0000 0.0000 12.0322 0.0000
# 6 0.0000 0.0000 0.0000 0.0000 0.0000 15.0759
#
#
#
# Elastic Compliance Matrix: (Units=1/GPa)
#
#
# Indices 1 2 3 4 5 6 
#
# 1 0.029883 -0.000878 -0.007281 0.000000 0.000000 0.000000
# 2 -0.000878 0.006557 -0.002887 0.000000 0.000000 0.000000
# 3 -0.007281 -0.002887 0.015677 0.000000 0.000000 0.000000
# 4 0.000000 0.000000 0.000000 0.021198 0.000000 0.000000
# 5 0.000000 0.000000 0.000000 0.000000 0.083110 0.000000
# 6 0.000000 0.000000 0.000000 0.000000 0.000000 0.066331
#
#
# Mechanical properties :
#
#
# Convention : Reuss Voigt Hill
#
# Bulk Modulus (GPa) = 33.30660 48.57382 40.94021
# Shear Modulus (GPa) = 19.61887 29.34807 24.48347
#
# Velocity S-wave (km/s) = 3.10144 3.79329 3.46468
# Velocity P-wave (km/s) = 5.39955 6.55749 6.00649
#
# Compressibility (1/GPa) = 0.03002408
#
# Stress axis : x y z
#
# Youngs Moduli (GPa) = 33.46369 152.51300 63.78786
#
# Poissons Ratio (x) = 0.13397 0.46443
# Poissons Ratio (y) = 0.02939 0.18416
# Poissons Ratio (z) = 0.24364 0.44033
#
# Static dielectric constant tensor:
#      x y z
#    x 2.982360 0.000000 0.000000 
#    y 0.000000 4.631710 0.000000 
#    z 0.000000 0.000000 3.788970 
# 
# 
# High freq. dielectric constant tensor:
#      x y z
#    x 1.716730 0.000000 0.000000 
#    y 0.000000 1.833110 0.000000 
#    z 0.000000 0.000000 1.802550 
# 
# From -- ./inp_files/13909.got.cif
#   From: 2010.03.12/outbox.cif.g09.slc.cpg/sg50_7_cif.got.tgz:13909.got - 2010.04.16 13:23:21.
