data_PCOD8204893
_publ_section_title
;
Structure prediction by ZEFSAII (Michael W. Deem and Ramdas Pophale) SiO2 
 PCOD8204893
Probable space group: P B A N
;
_chemical_formula_sum "Si O2"
_cell_formula_units_Z 48
_cell_length_a 5.165736
_cell_length_b 13.512830
_cell_length_c 31.868954
_cell_angle_alpha 90.000000
_cell_angle_beta 90.000000
_cell_angle_gamma 90.000000
_cell_volume 2224.571299
_symmetry_space_group_name_H-M "P B A N"
_symmetry_group_IT_number 50
_space_group.IT_coordinate_system_code '2'
_symmetry_cell_setting 'orthorhombic'
loop_
_space_group_symop_operation_xyz
x,y,z
1/2-x,1/2-y,z
x,1/2-y,-z
1/2-x,y,-z
-x,-y,-z
1/2+x,1/2+y,-z
-x,1/2+y,z
1/2+x,-y,z
loop_
_atom_site_type_symbol
_atom_site_label
_atom_site_fract_x
_atom_site_fract_y
_atom_site_fract_z
Si Si1 0.733711 0.937220 0.819171
Si Si2 0.751137 0.362421 0.678854
Si Si3 0.248770 0.132056 0.724301
Si Si4 0.750000 0.250000 0.064969
Si Si5 0.250000 0.567059 0.500000
Si Si6 0.250000 0.250000 0.121956
Si Si7 0.310210 0.935641 0.410989
Si Si8 0.750000 0.072173 0.000000
O O1 0.732908 0.907230 0.770944
O O2 0.734522 0.843083 0.848232
O O3 0.481135 0.998536 0.830448
O O4 0.750000 0.250000 0.693082
O O5 0.490589 0.411239 0.697162
O O6 0.762658 0.365700 0.628518
O O7 0.997998 0.412448 0.701284
O O8 0.250000 0.250000 0.724515
O O9 0.498388 0.255524 0.093068
O O10 0.742330 0.146999 0.039310
O O11 0.500000 0.500000 0.500000
O O12 0.237294 0.625661 0.455197
O O13 0.604752 0.974431 0.409123
O O14 0.500000 0.000000 0.000000
#
# Coordination Sequence:
#
# PCOD8204893 Si02
#       8
#     8   8   8   4   4   4   8   4
#     4  12  26  42  66  94 124 173 224 266 324 385
#     4  10  21  34  55  79 109 144 182 235 304 356
#     4  10  21  40  57  78 116 156 192 251 310 363
#     4  11  26  44  72 104 138 190 222 268 342 389
#     4   8  16  30  47  68  97 134 168 214 282 344
#     4  12  26  47  66  98 146 174 226 279 322 386
#     4  10  19  32  51  74 101 133 177 227 278 348
#     4  11  24  45  74 108 144 179 230 283 326 386
#
# _framework density 21.577193000000001
#
# number of rings (size 3 to 8) (size 9 to 14) (size 15 to 20)
#    0.000    1.500    0.833    4.000    0.000    9.333 
#    0.000    0.417    0.000    0.000    0.000   10.500 
#    0.000    0.000    0.000    0.000    0.000    0.000 
#
# Total GULP energy -594857.932811 kJ/mol
# GULP energy per Si atom -12392.873600 kJ/mol
# Density = 2.152808 g / cm^3
# Si number density = 21.577193 Si / 1000 Ang^3
#
#
#
# Elastic Constant Matrix: (Units=GPa)
#
#
# Indices 1 2 3 4 5 6 
#
# 1 181.1907 41.3311 53.6359 0.0000 0.0000 0.0000
# 2 41.3311 98.9402 55.9166 0.0000 0.0000 0.0000
# 3 53.6359 55.9166 162.3673 0.0000 0.0000 0.0000
# 4 0.0000 0.0000 0.0000 36.4346 0.0000 0.0000
# 5 0.0000 0.0000 0.0000 0.0000 42.3423 0.0000
# 6 0.0000 0.0000 0.0000 0.0000 0.0000 -1.9263
#
#
#
# Elastic Compliance Matrix: (Units=1/GPa)
#
#
# Indices 1 2 3 4 5 6 
#
# 1 0.006373 -0.001828 -0.001476 0.000000 0.000000 0.000000
# 2 -0.001828 0.013074 -0.003899 0.000000 0.000000 0.000000
# 3 -0.001476 -0.003899 0.007989 0.000000 0.000000 0.000000
# 4 0.000000 0.000000 0.000000 0.027446 0.000000 0.000000
# 5 0.000000 0.000000 0.000000 0.000000 0.023617 0.000000
# 6 0.000000 0.000000 0.000000 0.000000 0.000000 -0.519121
#
#
# Mechanical properties :
#
#
# Convention : Reuss Voigt Hill
#
# Bulk Modulus (GPa) = 76.73938 82.69617 79.71778
# Shear Modulus (GPa) = -11.85192 34.81108 11.47958
#
# Velocity S-wave (km/s) = -2.34621 4.02098 2.30907
# Velocity P-wave (km/s) = 5.32002 7.74381 6.64339
#
# Compressibility (1/GPa) = 0.01303112
#
# Stress axis : x y z
#
# Youngs Moduli (GPa) = 156.91475 76.48672 125.17340
#
# Poissons Ratio (x) = 0.13984 0.18470
# Poissons Ratio (y) = 0.28688 0.48800
# Poissons Ratio (z) = 0.23154 0.29819
#
# Static dielectric constant tensor:
#      x y z
#    x 4.358080 0.000000 0.000000 
#    y 0.000000 3.691400 0.000000 
#    z 0.000000 0.000000 4.286210 
# 
# 
# High freq. dielectric constant tensor:
#      x y z
#    x 1.872400 0.000000 0.000000 
#    y 0.000000 1.835260 0.000000 
#    z 0.000000 0.000000 1.866730 
# 
# From -- ./inp_files/32060.got.cif
#   From: 2010.03.12/outbox.cif.g09.slc.cpg/sg50_17_cif.got.tgz:32060.got - 2010.04.16 13:23:21.
