data_PCOD8204320
_publ_section_title
;
Structure prediction by ZEFSAII (Michael W. Deem and Ramdas Pophale) SiO2 
 PCOD8204320
Probable space group: P C C M
;
_chemical_formula_sum "Si O2"
_cell_formula_units_Z 48
_cell_length_a 9.072052
_cell_length_b 10.724207
_cell_length_c 23.972944
_cell_angle_alpha 90.000000
_cell_angle_beta 90.000000
_cell_angle_gamma 90.000000
_cell_volume 2332.341232
_symmetry_space_group_name_H-M "P C C M"
_symmetry_group_IT_number 49
_symmetry_cell_setting 'orthorhombic'
loop_
_space_group_symop_operation_xyz
x,y,z
-x,-y,z
x,-y,1/2-z
-x,y,1/2-z
-x,-y,-z
x,y,-z
-x,y,1/2+z
x,-y,1/2+z
loop_
_atom_site_type_symbol
_atom_site_label
_atom_site_fract_x
_atom_site_fract_y
_atom_site_fract_z
Si Si1 0.710733 0.762889 0.561591
Si Si2 0.672420 0.969719 0.348953
Si Si3 0.077428 0.634080 0.136798
Si Si4 0.213829 0.236693 0.855423
Si Si5 0.419424 0.623929 0.437916
Si Si6 0.835684 0.792861 0.733491
O O1 0.772346 0.793795 0.500000
O O2 0.716618 0.882099 0.600282
O O3 0.806622 0.646469 0.586088
O O4 0.539896 0.730964 0.557705
O O5 0.742330 0.907581 0.293198
O O6 0.500000 0.000000 0.339656
O O7 0.750730 0.094971 0.369094
O O8 0.160671 0.669950 0.194253
O O9 0.000000 0.500000 0.140112
O O10 0.955759 0.741558 0.128730
O O11 0.302661 0.337686 0.891399
O O12 0.246122 0.255476 0.789409
O O13 0.500000 0.500000 0.416902
O O14 0.347838 0.604116 0.500000
O O15 0.000000 0.840642 0.750000
#
# Coordination Sequence:
#
# PCOD8204320 Si02
#       6
#     8   8   8   8   8   8
#     4  10  22  40  62  91 126 164 207 260 315 367
#     4  11  22  40  62  90 127 164 208 260 310 373
#     4  10  22  41  63  89 126 163 206 256 312 372
#     4  11  22  37  62  88 117 161 207 249 310 376
#     4  10  21  39  61  87 121 160 204 256 308 365
#     4   9  22  39  61  88 122 161 205 252 313 369
#
# _framework density 20.580179999999999
#
# number of rings (size 3 to 8) (size 9 to 14) (size 15 to 20)
#    0.000    1.833    1.667    1.500    0.000   14.333 
#    0.000    0.833    0.000    0.000    0.000    0.000 
#    0.000    0.000    0.000    0.000    0.000    0.000 
#
# Total GULP energy -594927.389016 kJ/mol
# GULP energy per Si atom -12394.320605 kJ/mol
# Density = 2.053334 g / cm^3
# Si number density = 20.580180 Si / 1000 Ang^3
#
#
#
# Elastic Constant Matrix: (Units=GPa)
#
#
# Indices 1 2 3 4 5 6 
#
# 1 53.7255 21.8580 35.5261 0.0000 0.0000 0.0000
# 2 21.8580 83.2000 38.4966 0.0000 0.0000 0.0000
# 3 35.5261 38.4966 138.2476 0.0000 0.0000 0.0000
# 4 0.0000 0.0000 0.0000 25.4397 0.0000 0.0000
# 5 0.0000 0.0000 0.0000 0.0000 24.3649 0.0000
# 6 0.0000 0.0000 0.0000 0.0000 0.0000 37.8455
#
#
#
# Elastic Compliance Matrix: (Units=1/GPa)
#
#
# Indices 1 2 3 4 5 6 
#
# 1 0.023463 -0.003873 -0.004951 0.000000 0.000000 0.000000
# 2 -0.003873 0.014436 -0.003025 0.000000 0.000000 0.000000
# 3 -0.004951 -0.003025 0.009348 0.000000 0.000000 0.000000
# 4 0.000000 0.000000 0.000000 0.039309 0.000000 0.000000
# 5 0.000000 0.000000 0.000000 0.000000 0.041043 0.000000
# 6 0.000000 0.000000 0.000000 0.000000 0.000000 0.026423
#
#
# Mechanical properties :
#
#
# Convention : Reuss Voigt Hill
#
# Bulk Modulus (GPa) = 42.46379 51.88162 47.17270
# Shear Modulus (GPa) = 26.94423 29.48285 28.21354
#
# Velocity S-wave (km/s) = 3.62226 3.78906 3.70659
# Velocity P-wave (km/s) = 6.17839 6.66384 6.42570
#
# Compressibility (1/GPa) = 0.02354948
#
# Stress axis : x y z
#
# Youngs Moduli (GPa) = 42.62092 69.26977 106.97654
#
# Poissons Ratio (x) = 0.26830 0.52961
# Poissons Ratio (y) = 0.16508 0.32356
# Poissons Ratio (z) = 0.21100 0.20951
#
# Static dielectric constant tensor:
#      x y z
#    x 3.829750 0.000000 0.000000 
#    y 0.000000 3.655690 0.000000 
#    z 0.000000 0.000000 4.077500 
# 
# 
# High freq. dielectric constant tensor:
#      x y z
#    x 1.800240 0.000000 0.000000 
#    y 0.000000 1.803280 0.000000 
#    z 0.000000 0.000000 1.812320 
# 
# From -- ./inp_files/22415.got.cif
#   From: 2010.03.12/outbox.cif.g09.slc.cpg/sg49_12_cif.got.tgz:22415.got - 2010.04.14 03:58:27.
