data_PCOD8204584
_publ_section_title
;
Structure prediction by ZEFSAII (Michael W. Deem and Ramdas Pophale) SiO2 
 PCOD8204584
Probable space group: P C C M
;
_chemical_formula_sum "Si O2"
_cell_formula_units_Z 48
_cell_length_a 30.826463
_cell_length_b 9.534880
_cell_length_c 8.548782
_cell_angle_alpha 90.000000
_cell_angle_beta 90.000000
_cell_angle_gamma 90.000000
_cell_volume 2512.714646
_symmetry_space_group_name_H-M "P C C M"
_symmetry_group_IT_number 49
_symmetry_cell_setting 'orthorhombic'
loop_
_space_group_symop_operation_xyz
x,y,z
-x,-y,z
x,-y,1/2-z
-x,y,1/2-z
-x,-y,-z
x,y,-z
-x,y,1/2+z
x,-y,1/2+z
loop_
_atom_site_type_symbol
_atom_site_label
_atom_site_fract_x
_atom_site_fract_y
_atom_site_fract_z
Si Si1 0.707022 0.654317 0.316500
Si Si2 0.802039 0.345952 0.182877
Si Si3 0.952286 0.352031 0.314430
Si Si4 0.453656 0.849559 0.815754
Si Si5 0.379876 0.656572 0.315849
Si Si6 0.880046 0.844700 0.313942
O O1 0.710524 0.500000 0.250000
O O2 0.696754 0.651785 0.500000
O O3 0.754305 0.721214 0.279322
O O4 0.666493 0.729663 0.229098
O O5 0.809212 0.500000 0.250000
O O6 0.838096 0.240135 0.248805
O O7 0.807493 0.363880 0.000000
O O8 0.934012 0.500000 0.250000
O O9 0.953360 0.357871 0.500000
O O10 0.922753 0.225548 0.256183
O O11 0.000000 0.323297 0.250000
O O12 0.500000 0.801059 0.750000
O O13 0.418446 0.736929 0.767093
O O14 0.439669 0.000000 0.750000
O O15 0.457034 0.860040 0.000000
O O16 0.379909 0.500000 0.250000
O O17 0.386998 0.658548 0.500000
O O18 0.882911 0.845913 0.500000
O O19 0.876098 0.000000 0.250000
#
# Coordination Sequence:
#
# PCOD8204584 Si02
#       6
#     8   8   8   8   8   8
#     4   9  16  30  51  78 108 141 178 224 274 325
#     4   9  19  34  56  81 108 141 183 227 272 324
#     4  11  22  39  62  88 114 145 183 228 273 324
#     4  11  22  39  59  81 108 143 182 224 270 326
#     4  11  21  35  55  83 113 145 182 227 276 326
#     4  11  23  39  56  81 114 150 187 229 277 329
#
# _framework density 19.102846
#
# number of rings (size 3 to 8) (size 9 to 14) (size 15 to 20)
#    0.000    1.667    0.000    8.000    0.000    4.000 
#    0.000    4.167    0.000    2.000    0.000    0.000 
#    0.000    0.000    0.000    0.000    0.000    0.000 
#
# Total GULP energy -595094.134462 kJ/mol
# GULP energy per Si atom -12397.794468 kJ/mol
# Density = 1.905937 g / cm^3
# Si number density = 19.102846 Si / 1000 Ang^3
#
#
#
# Elastic Constant Matrix: (Units=GPa)
#
#
# Indices 1 2 3 4 5 6 
#
# 1 136.3366 72.8922 50.0710 0.0000 0.0000 0.0000
# 2 72.8922 100.1075 37.7360 0.0000 0.0000 0.0000
# 3 50.0710 37.7360 133.4066 0.0000 0.0000 0.0000
# 4 0.0000 0.0000 0.0000 29.5304 0.0000 0.0000
# 5 0.0000 0.0000 0.0000 0.0000 29.6914 0.0000
# 6 0.0000 0.0000 0.0000 0.0000 0.0000 4.0254
#
#
#
# Elastic Compliance Matrix: (Units=1/GPa)
#
#
# Indices 1 2 3 4 5 6 
#
# 1 0.012662 -0.008315 -0.002400 0.000000 0.000000 0.000000
# 2 -0.008315 0.016642 -0.001587 0.000000 0.000000 0.000000
# 3 -0.002400 -0.001587 0.008846 0.000000 0.000000 0.000000
# 4 0.000000 0.000000 0.000000 0.033863 0.000000 0.000000
# 5 0.000000 0.000000 0.000000 0.000000 0.033680 0.000000
# 6 0.000000 0.000000 0.000000 0.000000 0.000000 0.248425
#
#
# Mechanical properties :
#
#
# Convention : Reuss Voigt Hill
#
# Bulk Modulus (GPa) = 73.82445 76.80545 75.31495
# Shear Modulus (GPa) = 13.04682 26.59288 19.81985
#
# Velocity S-wave (km/s) = 2.61622 3.73512 3.22457
# Velocity P-wave (km/s) = 6.91779 7.67431 7.30585
#
# Compressibility (1/GPa) = 0.01354565
#
# Stress axis : x y z
#
# Youngs Moduli (GPa) = 78.97773 60.09040 113.05069
#
# Poissons Ratio (x) = 0.49963 0.27136
# Poissons Ratio (y) = 0.65668 0.17936
# Poissons Ratio (z) = 0.18958 0.09534
#
# Static dielectric constant tensor:
#      x y z
#    x 4.299290 0.000000 0.000000 
#    y 0.000000 3.296160 0.000000 
#    z 0.000000 0.000000 3.699410 
# 
# 
# High freq. dielectric constant tensor:
#      x y z
#    x 1.767140 0.000000 0.000000 
#    y 0.000000 1.713130 0.000000 
#    z 0.000000 0.000000 1.760400 
# 
# From -- ./inp_files/6859.got.cif
#   From: 2010.03.12/outbox.cif.g09.slc.cpg/sg49_4_cif.got.tgz:6859.got - 2010.04.14 03:58:27.
