data_PCOD8204891
_publ_section_title
;
Structure prediction by ZEFSAII (Michael W. Deem and Ramdas Pophale) SiO2 
 PCOD8204891
Probable space group: P B A N
;
_chemical_formula_sum "Si O2"
_cell_formula_units_Z 64
_cell_length_a 9.402260
_cell_length_b 30.304753
_cell_length_c 13.598347
_cell_angle_alpha 90.000000
_cell_angle_beta 90.000000
_cell_angle_gamma 90.000000
_cell_volume 3874.620076
_symmetry_space_group_name_H-M "P B A N"
_symmetry_group_IT_number 50
_space_group.IT_coordinate_system_code '2'
_symmetry_cell_setting 'orthorhombic'
loop_
_space_group_symop_operation_xyz
x,y,z
1/2-x,1/2-y,z
x,1/2-y,-z
1/2-x,y,-z
-x,-y,-z
1/2+x,1/2+y,-z
-x,1/2+y,z
1/2+x,-y,z
loop_
_atom_site_type_symbol
_atom_site_label
_atom_site_fract_x
_atom_site_fract_y
_atom_site_fract_z
Si Si1 0.093060 0.742088 0.615684
Si Si2 0.410467 0.337905 0.603971
Si Si3 0.381123 0.517456 0.570497
Si Si4 0.438915 0.453238 0.100467
Si Si5 0.147868 0.428035 0.316247
Si Si6 0.096192 0.177902 0.373355
Si Si7 0.474278 0.410093 0.297329
Si Si8 0.890107 0.541765 0.887872
O O1 0.250000 0.750000 0.662086
O O2 0.102422 0.750000 0.500000
O O3 0.039029 0.692858 0.643880
O O4 0.975394 0.776031 0.657324
O O5 0.439338 0.389956 0.625739
O O6 0.405765 0.331600 0.488461
O O7 0.263082 0.322583 0.656949
O O8 0.250000 0.530125 0.500000
O O9 0.500000 0.500000 0.500000
O O10 0.358862 0.477387 0.644501
O O11 0.422795 0.559825 0.635928
O O12 0.491406 0.417425 0.179940
O O13 0.535344 0.495096 0.120531
O O14 0.277224 0.468357 0.114708
O O15 0.448006 0.434697 0.988096
O O16 0.312586 0.417778 0.327727
O O17 0.080707 0.427201 0.206180
O O18 0.998572 0.141264 0.319057
#
# Coordination Sequence:
#
# PCOD8204891 Si02
#       8
#     8   8   8   8   8   8   8   8
#     4   9  17  31  45  66  93 115 143 191 236 269
#     4   9  17  29  48  64  85 123 157 186 220 275
#     4  12  22  32  43  62  97 134 164 192 225 270
#     4   9  17  30  48  65  89 117 156 197 239 273
#     4  10  19  32  48  66  93 124 164 194 228 278
#     4   9  17  30  47  64  88 119 159 184 221 278
#     4  10  19  33  46  68  91 126 161 196 230 275
#     4   9  17  30  47  67  87 119 154 199 237 273
#
# _framework density 16.517748000000001
#
# number of rings (size 3 to 8) (size 9 to 14) (size 15 to 20)
#    0.000    2.375    2.500    1.125    1.750    1.500 
#    6.750    0.000    0.000    0.000    0.000    0.875 
#    0.000    7.000    0.000    0.000    0.000    0.000 
#
# Total GULP energy -792886.667237 kJ/mol
# GULP energy per Si atom -12388.854176 kJ/mol
# Density = 1.648015 g / cm^3
# Si number density = 16.517748 Si / 1000 Ang^3
#
#
#
# Elastic Constant Matrix: (Units=GPa)
#
#
# Indices 1 2 3 4 5 6 
#
# 1 55.2803 22.4753 25.3049 0.0000 0.0000 0.0000
# 2 22.4753 79.7862 26.5314 0.0000 0.0000 0.0000
# 3 25.3049 26.5314 65.0774 0.0000 0.0000 0.0000
# 4 0.0000 0.0000 0.0000 0.4726 0.0000 0.0000
# 5 0.0000 0.0000 0.0000 0.0000 15.9835 0.0000
# 6 0.0000 0.0000 0.0000 0.0000 0.0000 21.3917
#
#
#
# Elastic Compliance Matrix: (Units=1/GPa)
#
#
# Indices 1 2 3 4 5 6 
#
# 1 0.023096 -0.004072 -0.007321 0.000000 0.000000 0.000000
# 2 -0.004072 0.015217 -0.004621 0.000000 0.000000 0.000000
# 3 -0.007321 -0.004621 0.020097 0.000000 0.000000 0.000000
# 4 0.000000 0.000000 0.000000 2.115911 0.000000 0.000000
# 5 0.000000 0.000000 0.000000 0.000000 0.062565 0.000000
# 6 0.000000 0.000000 0.000000 0.000000 0.000000 0.046747
#
#
# Mechanical properties :
#
#
# Convention : Reuss Voigt Hill
#
# Bulk Modulus (GPa) = 37.90208 38.75191 38.32700
# Shear Modulus (GPa) = 2.15104 15.95838 9.05471
#
# Velocity S-wave (km/s) = 1.14240 3.11164 2.34387
# Velocity P-wave (km/s) = 4.97355 6.03502 5.52981
#
# Compressibility (1/GPa) = 0.02638377
#
# Stress axis : x y z
#
# Youngs Moduli (GPa) = 43.29723 65.71630 49.75936
#
# Poissons Ratio (x) = 0.26757 0.36428
# Poissons Ratio (y) = 0.17629 0.22992
# Poissons Ratio (z) = 0.31697 0.30365
#
# Static dielectric constant tensor:
#      x y z
#    x 3.184280 0.000000 0.000000 
#    y 0.000000 3.066400 0.000000 
#    z 0.000000 0.000000 3.202190 
# 
# 
# High freq. dielectric constant tensor:
#      x y z
#    x 1.633780 0.000000 0.000000 
#    y 0.000000 1.620500 0.000000 
#    z 0.000000 0.000000 1.611730 
# 
# From -- ./inp_files/25500.got.cif
#   From: 2010.03.12/outbox.cif.g09.slc.cpg/sg50_13_cif.got.tgz:25500.got - 2010.04.16 13:23:21.
