data_PCOD8204503
_publ_section_title
;
Structure prediction by ZEFSAII (Michael W. Deem and Ramdas Pophale) SiO2 
 PCOD8204503
Probable space group: P C C M
;
_chemical_formula_sum "Si O2"
_cell_formula_units_Z 48
_cell_length_a 30.414358
_cell_length_b 9.137213
_cell_length_c 8.518914
_cell_angle_alpha 90.000000
_cell_angle_beta 90.000000
_cell_angle_gamma 90.000000
_cell_volume 2367.427219
_symmetry_space_group_name_H-M "P C C M"
_symmetry_group_IT_number 49
_symmetry_cell_setting 'orthorhombic'
loop_
_space_group_symop_operation_xyz
x,y,z
-x,-y,z
x,-y,1/2-z
-x,y,1/2-z
-x,-y,-z
x,y,-z
-x,y,1/2+z
x,-y,1/2+z
loop_
_atom_site_type_symbol
_atom_site_label
_atom_site_fract_x
_atom_site_fract_y
_atom_site_fract_z
Si Si1 0.451884 0.344230 0.814215
Si Si2 0.705534 0.338562 0.686580
Si Si3 0.209416 0.161212 0.815010
Si Si4 0.874559 0.339987 0.313609
Si Si5 0.374964 0.840429 0.814591
Si Si6 0.047850 0.155953 0.685458
O O1 0.434499 0.500000 0.750000
O O2 0.500000 0.308793 0.750000
O O3 0.420570 0.214071 0.758668
O O4 0.453211 0.352075 0.000000
O O5 0.712141 0.500000 0.750000
O O6 0.699713 0.337989 0.500000
O O7 0.747917 0.248303 0.743417
O O8 0.662936 0.270501 0.765993
O O9 0.165495 0.239826 0.752920
O O10 0.211546 0.000000 0.750000
O O11 0.208631 0.154727 0.000000
O O12 0.865050 0.500000 0.250000
O O13 0.878432 0.341291 0.500000
O O14 0.919584 0.282223 0.240139
O O15 0.363328 0.000000 0.750000
O O16 0.379425 0.846526 0.000000
O O17 0.045859 0.147442 0.500000
O O18 0.000000 0.195660 0.750000
O O19 0.064492 0.000000 0.750000
#
# Coordination Sequence:
#
# PCOD8204503 Si02
#       6
#     8   8   8   8   8   8
#     4  11  22  40  64  92 123 160 202 249 300 357
#     4  11  23  41  63  91 122 159 201 247 298 354
#     4  10  23  40  62  89 121 157 199 245 297 354
#     4  11  23  40  60  88 121 158 200 247 298 355
#     4  12  25  42  62  89 122 160 202 250 301 357
#     4  11  22  39  62  89 119 156 198 246 297 355
#
# _framework density 20.275174
#
# number of rings (size 3 to 8) (size 9 to 14) (size 15 to 20)
#    0.000    1.000    0.000    8.500    0.000    6.000 
#    0.000    3.333    0.000    0.000    0.000    0.000 
#    0.000    0.000    0.000    0.000    0.000    0.000 
#
# Total GULP energy -595541.286510 kJ/mol
# GULP energy per Si atom -12407.110136 kJ/mol
# Density = 2.022903 g / cm^3
# Si number density = 20.275174 Si / 1000 Ang^3
#
#
#
# Elastic Constant Matrix: (Units=GPa)
#
#
# Indices 1 2 3 4 5 6 
#
# 1 120.6480 70.3087 48.3526 0.0000 0.0000 0.0000
# 2 70.3087 155.1433 44.6186 0.0000 0.0000 0.0000
# 3 48.3526 44.6186 146.4572 0.0000 0.0000 0.0000
# 4 0.0000 0.0000 0.0000 40.0914 0.0000 0.0000
# 5 0.0000 0.0000 0.0000 0.0000 29.8355 0.0000
# 6 0.0000 0.0000 0.0000 0.0000 0.0000 52.5276
#
#
#
# Elastic Compliance Matrix: (Units=1/GPa)
#
#
# Indices 1 2 3 4 5 6 
#
# 1 0.012068 -0.004738 -0.002541 0.000000 0.000000 0.000000
# 2 -0.004738 0.008925 -0.001155 0.000000 0.000000 0.000000
# 3 -0.002541 -0.001155 0.008019 0.000000 0.000000 0.000000
# 4 0.000000 0.000000 0.000000 0.024943 0.000000 0.000000
# 5 0.000000 0.000000 0.000000 0.000000 0.033517 0.000000
# 6 0.000000 0.000000 0.000000 0.000000 0.000000 0.019038
#
#
# Mechanical properties :
#
#
# Convention : Reuss Voigt Hill
#
# Bulk Modulus (GPa) = 82.34392 83.20090 82.77241
# Shear Modulus (GPa) = 39.23870 41.75550 40.49710
#
# Velocity S-wave (km/s) = 4.40399 4.54303 4.47405
# Velocity P-wave (km/s) = 8.15852 8.28515 8.22208
#
# Compressibility (1/GPa) = 0.01214419
#
# Stress axis : x y z
#
# Youngs Moduli (GPa) = 82.86250 112.04330 124.71130
#
# Poissons Ratio (x) = 0.53091 0.31686
# Poissons Ratio (y) = 0.39264 0.14400
# Poissons Ratio (z) = 0.21053 0.12937
#
# Static dielectric constant tensor:
#      x y z
#    x 2.908580 0.000000 0.000000 
#    y 0.000000 3.701270 0.000000 
#    z 0.000000 0.000000 3.811180 
# 
# 
# High freq. dielectric constant tensor:
#      x y z
#    x 1.808670 0.000000 0.000000 
#    y 0.000000 1.801790 0.000000 
#    z 0.000000 0.000000 1.807400 
# 
# From -- ./inp_files/2085.got.cif
#   From: 2010.03.12/outbox.cif.g09.slc.cpg/sg49_2_cif.got.tgz:2085.got - 2010.04.14 03:58:27.
