data_PCOD8204807
_publ_section_title
;
Structure prediction by ZEFSAII (Michael W. Deem and Ramdas Pophale) SiO2 
 PCOD8204807
Probable space group: P B A N
;
_chemical_formula_sum "Si O2"
_cell_formula_units_Z 56
_cell_length_a 20.426289
_cell_length_b 11.025930
_cell_length_c 13.822642
_cell_angle_alpha 90.000000
_cell_angle_beta 90.000000
_cell_angle_gamma 90.000000
_cell_volume 3113.119296
_symmetry_space_group_name_H-M "P B A N"
_symmetry_group_IT_number 50
_space_group.IT_coordinate_system_code '2'
_symmetry_cell_setting 'orthorhombic'
loop_
_space_group_symop_operation_xyz
x,y,z
1/2-x,1/2-y,z
x,1/2-y,-z
1/2-x,y,-z
-x,-y,-z
1/2+x,1/2+y,-z
-x,1/2+y,z
1/2+x,-y,z
loop_
_atom_site_type_symbol
_atom_site_label
_atom_site_fract_x
_atom_site_fract_y
_atom_site_fract_z
Si Si1 0.416176 0.367782 0.746647
Si Si2 0.555099 0.086039 0.612321
Si Si3 0.074681 0.632644 0.942924
Si Si4 0.173612 0.224984 0.392949
Si Si5 0.419786 0.118629 0.037547
Si Si6 0.915202 0.981680 0.583974
Si Si7 0.057001 0.687739 0.729880
O O1 0.440037 0.488861 0.696392
O O2 0.357438 0.308899 0.688053
O O3 0.391356 0.397813 0.854370
O O4 0.480244 0.280976 0.750512
O O5 0.479824 0.105296 0.574803
O O6 0.585384 0.204915 0.662962
O O7 0.598179 0.048770 0.518498
O O8 0.092875 0.663534 0.831834
O O9 0.997776 0.621822 0.960786
O O10 0.103042 0.750000 0.000000
O O11 0.104405 0.500356 0.975678
O O12 0.250000 0.250000 0.387164
O O13 0.145533 0.250000 0.500000
O O14 0.150478 0.086427 0.379198
O O15 0.393183 0.250000 0.000000
O O16 0.933180 0.068800 0.669552
#
# Coordination Sequence:
#
# PCOD8204807 Si02
#       7
#     8   8   8   8   8   8   8
#     4  10  19  31  50  74 106 142 178 210 270 320
#     4  10  18  30  48  77 112 140 166 220 268 333
#     4   9  17  29  42  69 107 144 172 200 271 341
#     4  11  22  37  54  74 104 145 184 219 259 324
#     4   9  18  28  45  69 103 140 175 220 260 319
#     4  10  20  30  49  76 109 138 179 212 271 318
#     4  10  19  28  51  78 111 137 169 219 274 333
#
# _framework density 17.988389000000002
#
# number of rings (size 3 to 8) (size 9 to 14) (size 15 to 20)
#    0.000    2.143    2.857    1.286    2.000    3.429 
#    0.000    0.000    0.000    1.286    0.000    0.000 
#    0.000    0.000    0.000    0.000    0.000    0.000 
#
# Total GULP energy -693768.327327 kJ/mol
# GULP energy per Si atom -12388.720131 kJ/mol
# Density = 1.794745 g / cm^3
# Si number density = 17.988389 Si / 1000 Ang^3
#
#
#
# Elastic Constant Matrix: (Units=GPa)
#
#
# Indices 1 2 3 4 5 6 
#
# 1 46.8952 32.7765 28.7778 0.0000 0.0000 0.0000
# 2 32.7765 114.7257 50.7929 0.0000 0.0000 0.0000
# 3 28.7778 50.7929 131.9867 0.0000 0.0000 0.0000
# 4 0.0000 0.0000 0.0000 33.8552 0.0000 0.0000
# 5 0.0000 0.0000 0.0000 0.0000 11.5172 0.0000
# 6 0.0000 0.0000 0.0000 0.0000 0.0000 37.5095
#
#
#
# Elastic Compliance Matrix: (Units=1/GPa)
#
#
# Indices 1 2 3 4 5 6 
#
# 1 0.028033 -0.006392 -0.003652 0.000000 0.000000 0.000000
# 2 -0.006392 0.011964 -0.003210 0.000000 0.000000 0.000000
# 3 -0.003652 -0.003210 0.009608 0.000000 0.000000 0.000000
# 4 0.000000 0.000000 0.000000 0.029538 0.000000 0.000000
# 5 0.000000 0.000000 0.000000 0.000000 0.086827 0.000000
# 6 0.000000 0.000000 0.000000 0.000000 0.000000 0.026660
#
#
# Mechanical properties :
#
#
# Convention : Reuss Voigt Hill
#
# Bulk Modulus (GPa) = 43.29782 57.58911 50.44346
# Shear Modulus (GPa) = 22.04221 28.66041 25.35131
#
# Velocity S-wave (km/s) = 3.50431 3.99591 3.75816
# Velocity P-wave (km/s) = 6.36362 7.30574 6.85090
#
# Compressibility (1/GPa) = 0.02309585
#
# Stress axis : x y z
#
# Youngs Moduli (GPa) = 35.67238 83.58459 104.07590
#
# Poissons Ratio (x) = 0.53426 0.38013
# Poissons Ratio (y) = 0.22801 0.33413
# Poissons Ratio (z) = 0.13029 0.26835
#
# Static dielectric constant tensor:
#      x y z
#    x 2.674480 0.000000 0.000000 
#    y 0.000000 3.061330 0.000000 
#    z 0.000000 0.000000 3.538400 
# 
# 
# High freq. dielectric constant tensor:
#      x y z
#    x 1.610290 0.000000 0.000000 
#    y 0.000000 1.703700 0.000000 
#    z 0.000000 0.000000 1.717250 
# 
# From -- ./inp_files/22404.got.cif
#   From: 2010.03.12/outbox.cif.g09.slc.cpg/sg50_12_cif.got.tgz:22404.got - 2010.04.16 13:23:21.
