data_PCOD8204485
_publ_section_title
;
Structure prediction by ZEFSAII (Michael W. Deem and Ramdas Pophale) SiO2 
 PCOD8204485
Probable space group: P C C M
;
_chemical_formula_sum "Si O2"
_cell_formula_units_Z 48
_cell_length_a 8.264230
_cell_length_b 9.005243
_cell_length_c 30.358377
_cell_angle_alpha 90.000000
_cell_angle_beta 90.000000
_cell_angle_gamma 90.000000
_cell_volume 2259.312899
_symmetry_space_group_name_H-M "P C C M"
_symmetry_group_IT_number 49
_symmetry_cell_setting 'orthorhombic'
loop_
_space_group_symop_operation_xyz
x,y,z
-x,-y,z
x,-y,1/2-z
-x,y,1/2-z
-x,-y,-z
x,y,-z
-x,y,1/2+z
x,-y,1/2+z
loop_
_atom_site_type_symbol
_atom_site_label
_atom_site_fract_x
_atom_site_fract_y
_atom_site_fract_z
Si Si1 0.861957 0.881211 0.883821
Si Si2 0.583526 0.841944 0.949573
Si Si3 0.087773 0.650251 0.158100
Si Si4 0.175734 0.822960 0.240473
Si Si5 0.418538 0.345241 0.620290
Si Si6 0.396516 0.136804 0.814166
O O1 0.761443 0.845432 0.927745
O O2 0.741240 0.937905 0.845367
O O3 0.941052 0.733104 0.865213
O O4 0.000000 0.000000 0.894472
O O5 0.465424 0.722318 0.927052
O O6 0.500000 0.000000 0.944235
O O7 0.606619 0.795497 0.000000
O O8 0.194023 0.752996 0.192088
O O9 0.226123 0.623308 0.121561
O O10 0.000000 0.500000 0.176455
O O11 0.315093 0.766791 0.274212
O O12 0.000000 0.755949 0.250000
O O13 0.175808 0.000000 0.250000
O O14 0.500000 0.500000 0.627867
O O15 0.485845 0.239612 0.658469
O O16 0.500000 0.000000 0.793989
#
# Coordination Sequence:
#
# PCOD8204485 Si02
#       6
#     8   8   8   8   8   8
#     4  11  20  38  65  96 130 163 205 255 316 375
#     4  10  22  42  68  97 127 162 205 257 316 376
#     4  12  25  42  65  92 128 172 213 262 318 372
#     4  11  23  40  62  90 124 166 212 264 314 362
#     4  11  24  43  63  93 128 168 213 254 313 381
#     4  11  22  40  65  91 123 167 216 265 304 366
#
# _framework density 21.245396
#
# number of rings (size 3 to 8) (size 9 to 14) (size 15 to 20)
#    0.000    1.000    1.667    8.000    0.000    3.333 
#    0.000    1.667    0.000    2.000    0.000    0.000 
#    0.000    0.000    0.000    0.000    0.000    0.000 
#
# Total GULP energy -594719.181883 kJ/mol
# GULP energy per Si atom -12389.982956 kJ/mol
# Density = 2.119704 g / cm^3
# Si number density = 21.245396 Si / 1000 Ang^3
#
#
#
# Elastic Constant Matrix: (Units=GPa)
#
#
# Indices 1 2 3 4 5 6 
#
# 1 137.8541 34.5133 71.9890 0.0000 0.0000 0.0000
# 2 34.5133 104.7020 44.7324 0.0000 0.0000 0.0000
# 3 71.9890 44.7324 132.9135 0.0000 0.0000 0.0000
# 4 0.0000 0.0000 0.0000 21.1588 0.0000 0.0000
# 5 0.0000 0.0000 0.0000 0.0000 -9.5035 0.0000
# 6 0.0000 0.0000 0.0000 0.0000 0.0000 26.2067
#
#
#
# Elastic Compliance Matrix: (Units=1/GPa)
#
#
# Indices 1 2 3 4 5 6 
#
# 1 0.010237 -0.001175 -0.005149 0.000000 0.000000 0.000000
# 2 -0.001175 0.011290 -0.003163 0.000000 0.000000 0.000000
# 3 -0.005149 -0.003163 0.011377 0.000000 0.000000 0.000000
# 4 0.000000 0.000000 0.000000 0.047262 0.000000 0.000000
# 5 0.000000 0.000000 0.000000 0.000000 -0.105224 0.000000
# 6 0.000000 0.000000 0.000000 0.000000 0.000000 0.038158
#
#
# Mechanical properties :
#
#
# Convention : Reuss Voigt Hill
#
# Bulk Modulus (GPa) = 71.78999 75.32654 73.55827
# Shear Modulus (GPa) = 136.17361 22.52137 79.34749
#
# Velocity S-wave (km/s) = 8.01466 3.25939 6.11794
# Velocity P-wave (km/s) = 10.93209 7.04963 9.19804
#
# Compressibility (1/GPa) = 0.01392952
#
# Stress axis : x y z
#
# Youngs Moduli (GPa) = 97.68316 88.57716 87.89371
#
# Poissons Ratio (x) = 0.10403 0.45260
# Poissons Ratio (y) = 0.11473 0.27804
# Poissons Ratio (z) = 0.50301 0.28020
#
# Static dielectric constant tensor:
#      x y z
#    x 4.210660 0.000000 0.000000 
#    y 0.000000 3.624660 0.000000 
#    z 0.000000 0.000000 3.858970 
# 
# 
# High freq. dielectric constant tensor:
#      x y z
#    x 1.863160 0.000000 0.000000 
#    y 0.000000 1.820270 0.000000 
#    z 0.000000 0.000000 1.811850 
# 
# From -- ./inp_files/26294.got.cif
#   From: 2010.03.12/outbox.cif.g09.slc.cpg/sg49_14_cif.got.tgz:26294.got - 2010.04.14 03:58:27.
