data_PCOD8204135
_publ_section_title
;
Structure prediction by ZEFSAII (Michael W. Deem and Ramdas Pophale) SiO2 
 PCOD8204135
Probable space group: P C C M
;
_chemical_formula_sum "Si O2"
_cell_formula_units_Z 58
_cell_length_a 17.707111
_cell_length_b 17.707111
_cell_length_c 10.138679
_cell_angle_alpha 90.000000
_cell_angle_beta 90.000000
_cell_angle_gamma 90.000000
_cell_volume 3178.899460
_symmetry_space_group_name_H-M "P C C M"
_symmetry_group_IT_number 49
_symmetry_cell_setting 'orthorhombic'
loop_
_space_group_symop_operation_xyz
x,y,z
-x,-y,z
x,-y,1/2-z
-x,y,1/2-z
-x,-y,-z
x,y,-z
-x,y,1/2+z
x,-y,1/2+z
loop_
_atom_site_type_symbol
_atom_site_label
_atom_site_fract_x
_atom_site_fract_y
_atom_site_fract_z
Si Si1 0.879991 0.620009 0.151673
Si Si2 0.323223 0.942702 0.353710
Si Si3 0.557298 0.176777 0.646290
Si Si4 0.000000 0.500000 0.750000
Si Si5 0.437186 0.351339 0.149715
Si Si6 0.148661 0.937186 0.649715
Si Si7 0.066167 0.217627 0.846460
Si Si8 0.282373 0.433833 0.153540
O O1 0.902626 0.701998 0.209430
O O2 0.798002 0.597374 0.209430
O O3 0.944482 0.555518 0.168846
O O4 0.866683 0.633317 0.000000
O O5 0.335144 0.976317 0.500000
O O6 0.361442 0.861442 0.339488
O O7 0.236466 0.931214 0.320910
O O8 0.360695 0.000000 0.250000
O O9 0.500000 0.139305 0.750000
O O10 0.523683 0.164856 0.500000
O O11 0.568786 0.263534 0.679090
O O12 0.500000 0.387210 0.250000
O O13 0.351349 0.376681 0.172766
O O14 0.463436 0.369885 0.000000
O O15 0.130115 0.963436 0.500000
O O16 0.123319 0.851349 0.672766
O O17 0.112790 0.000000 0.750000
O O18 0.000000 0.194033 0.750000
O O19 0.040780 0.225063 0.000000
O O20 0.305967 0.500000 0.250000
O O21 0.274937 0.459220 0.000000
#
# Coordination Sequence:
#
# PCOD8204135 Si02
#       8
#     8   8   8   2   8   8   8   8
#     4  10  21  35  55  82 113 145 181 223 274 328
#     4   9  18  32  50  73  99 132 171 212 257 307
#     4   9  18  32  50  73  99 132 171 212 257 307
#     4  12  18  36  60  82 112 148 182 224 282 320
#     4   9  19  35  56  78 105 139 177 219 266 316
#     4   9  19  35  56  78 105 139 177 219 266 316
#     4  10  21  37  56  81 108 140 179 221 264 319
#     4  10  21  37  56  81 108 140 179 221 264 319
#
# _framework density 18.245308000000001
#
# number of rings (size 3 to 8) (size 9 to 14) (size 15 to 20)
#    0.000    2.483    1.379    0.207    1.931    2.483 
#    0.000    4.828    0.000    0.000    0.000    0.000 
#    0.000    0.000    0.000    0.000    0.000    0.000 
#
# Total GULP energy -718635.726913 kJ/mol
# GULP energy per Si atom -12390.271154 kJ/mol
# Density = 1.820378 g / cm^3
# Si number density = 18.245308 Si / 1000 Ang^3
#
#
#
# Elastic Constant Matrix: (Units=GPa)
#
#
# Indices 1 2 3 4 5 6 
#
# 1 97.1207 38.4044 49.5072 0.0000 0.0000 0.0000
# 2 38.4044 97.1207 49.5072 0.0000 0.0000 0.0000
# 3 49.5072 49.5072 88.3141 0.0000 0.0000 0.0000
# 4 0.0000 0.0000 0.0000 25.0067 0.0000 0.0000
# 5 0.0000 0.0000 0.0000 0.0000 25.0066 0.0000
# 6 0.0000 0.0000 0.0000 0.0000 0.0000 28.4814
#
#
#
# Elastic Compliance Matrix: (Units=1/GPa)
#
#
# Indices 1 2 3 4 5 6 
#
# 1 0.014764 -0.002267 -0.007006 0.000000 0.000000 0.000000
# 2 -0.002267 0.014764 -0.007006 0.000000 0.000000 0.000000
# 3 -0.007006 -0.007006 0.019178 0.000000 0.000000 0.000000
# 4 0.000000 0.000000 0.000000 0.039989 0.000000 0.000000
# 5 0.000000 0.000000 0.000000 0.000000 0.039989 0.000000
# 6 0.000000 0.000000 0.000000 0.000000 0.000000 0.035111
#
#
# Mechanical properties :
#
#
# Convention : Reuss Voigt Hill
#
# Bulk Modulus (GPa) = 61.92229 61.93256 61.92742
# Shear Modulus (GPa) = 24.78508 25.37473 25.07990
#
# Velocity S-wave (km/s) = 3.68969 3.73333 3.71157
# Velocity P-wave (km/s) = 7.22248 7.25270 7.23761
#
# Compressibility (1/GPa) = 0.01614927
#
# Stress axis : x y z
#
# Youngs Moduli (GPa) = 67.73238 67.73238 52.14424
#
# Poissons Ratio (x) = 0.15355 0.36530
# Poissons Ratio (y) = 0.15355 0.36530
# Poissons Ratio (z) = 0.47450 0.47450
#
# Static dielectric constant tensor:
#      x y z
#    x 3.459320 0.000000 0.000000 
#    y 0.000000 3.459320 0.000000 
#    z 0.000000 0.000000 3.508190 
# 
# 
# High freq. dielectric constant tensor:
#      x y z
#    x 1.706590 0.000000 0.000000 
#    y 0.000000 1.706590 0.000000 
#    z 0.000000 0.000000 1.703710 
# 
# From -- ./inp_files/5072.got.cif
#   From: 2010.03.12/outbox.cif.g09.slc.cpg/sg49_3_cif.got.tgz:5072.got - 2010.04.14 03:58:27.
