data_PCOD8204108
_publ_section_title
;
Structure prediction by ZEFSAII (Michael W. Deem and Ramdas Pophale) SiO2 
 PCOD8204108
Probable space group: P C C M
;
_chemical_formula_sum "Si O2"
_cell_formula_units_Z 48
_cell_length_a 13.967894
_cell_length_b 9.351263
_cell_length_c 16.703842
_cell_angle_alpha 90.000000
_cell_angle_beta 90.000000
_cell_angle_gamma 90.000000
_cell_volume 2181.813253
_symmetry_space_group_name_H-M "P C C M"
_symmetry_group_IT_number 49
_symmetry_cell_setting 'orthorhombic'
loop_
_space_group_symop_operation_xyz
x,y,z
-x,-y,z
x,-y,1/2-z
-x,y,1/2-z
-x,-y,-z
x,y,-z
-x,y,1/2+z
x,-y,1/2+z
loop_
_atom_site_type_symbol
_atom_site_label
_atom_site_fract_x
_atom_site_fract_y
_atom_site_fract_z
Si Si1 0.080190 0.616641 0.407062
Si Si2 0.737175 0.480295 0.840477
Si Si3 0.704240 0.032467 0.411117
Si Si4 0.091469 0.072735 0.161607
Si Si5 0.615325 0.223769 0.167451
Si Si6 0.593634 0.282270 0.649824
O O1 0.067995 0.665609 0.500000
O O2 0.181977 0.536637 0.400045
O O3 0.077119 0.753932 0.346548
O O4 0.000000 0.500000 0.382545
O O5 0.775495 0.500000 0.750000
O O6 0.708604 0.316456 0.858548
O O7 0.634957 0.558447 0.852066
O O8 0.703650 0.971204 0.500000
O O9 0.812593 0.029973 0.382277
O O10 0.659802 0.190655 0.409759
O O11 0.634515 0.937231 0.357912
O O12 0.096747 0.000000 0.250000
O O13 0.000000 0.000000 0.118261
O O14 0.605347 0.218936 0.262029
O O15 0.517927 0.280873 0.125390
#
# Coordination Sequence:
#
# PCOD8204108 Si02
#       6
#     8   8   8   8   8   8
#     4  11  26  47  71 102 143 182 220 276 351 417
#     4  10  22  39  67  96 130 172 225 282 330 398
#     4  12  25  40  63  95 136 176 218 273 336 404
#     4  11  26  46  73 100 129 173 227 282 334 407
#     4  10  22  38  64  97 128 174 228 279 332 393
#     4  10  20  41  64  91 131 174 225 282 335 390
#
# _framework density 22.000050000000002
#
# number of rings (size 3 to 8) (size 9 to 14) (size 15 to 20)
#    0.000    1.333    1.667    3.000    4.667    8.333 
#    0.000    0.000    0.000    3.000    0.000    0.000 
#    0.000    0.000    0.000    0.000    0.000    0.000 
#
# Total GULP energy -595006.188358 kJ/mol
# GULP energy per Si atom -12395.962257 kJ/mol
# Density = 2.194998 g / cm^3
# Si number density = 22.000050 Si / 1000 Ang^3
#
#
#
# Elastic Constant Matrix: (Units=GPa)
#
#
# Indices 1 2 3 4 5 6 
#
# 1 131.2120 28.4252 27.1218 0.0000 0.0000 0.0000
# 2 28.4252 91.4804 37.1280 0.0000 0.0000 0.0000
# 3 27.1218 37.1280 57.8584 0.0000 0.0000 0.0000
# 4 0.0000 0.0000 0.0000 16.5390 0.0000 0.0000
# 5 0.0000 0.0000 0.0000 0.0000 -1.7457 0.0000
# 6 0.0000 0.0000 0.0000 0.0000 0.0000 24.9885
#
#
#
# Elastic Compliance Matrix: (Units=1/GPa)
#
#
# Indices 1 2 3 4 5 6 
#
# 1 0.008569 -0.001396 -0.003121 0.000000 0.000000 0.000000
# 2 -0.001396 0.015008 -0.008977 0.000000 0.000000 0.000000
# 3 -0.003121 -0.008977 0.024507 0.000000 0.000000 0.000000
# 4 0.000000 0.000000 0.000000 0.060463 0.000000 0.000000
# 5 0.000000 0.000000 0.000000 0.000000 -0.572852 0.000000
# 6 0.000000 0.000000 0.000000 0.000000 0.000000 0.040018
#
#
# Mechanical properties :
#
#
# Convention : Reuss Voigt Hill
#
# Bulk Modulus (GPa) = 47.39983 51.76676 49.58330
# Shear Modulus (GPa) = -12.81173 20.48142 3.83485
#
# Velocity S-wave (km/s) = -2.41581 3.05449 1.32170
# Velocity P-wave (km/s) = 3.71626 6.00177 4.99159
#
# Compressibility (1/GPa) = 0.02109712
#
# Stress axis : x y z
#
# Youngs Moduli (GPa) = 116.70301 66.63020 40.80494
#
# Poissons Ratio (x) = 0.09301 0.12735
# Poissons Ratio (y) = 0.16290 0.36629
# Poissons Ratio (z) = 0.36423 0.59811
#
# Static dielectric constant tensor:
#      x y z
#    x 4.197800 0.000000 0.000000 
#    y 0.000000 4.068360 0.000000 
#    z 0.000000 0.000000 3.714720 
# 
# 
# High freq. dielectric constant tensor:
#      x y z
#    x 1.881190 0.000000 0.000000 
#    y 0.000000 1.871180 0.000000 
#    z 0.000000 0.000000 1.839760 
# 
# From -- ./inp_files/17723.got.cif
#   From: 2010.03.12/outbox.cif.g09.slc.cpg/sg49_9_cif.got.tgz:17723.got - 2010.04.14 03:58:27.
