data_PCOD8204437
_publ_section_title
;
Structure prediction by ZEFSAII (Michael W. Deem and Ramdas Pophale) SiO2 
 PCOD8204437
Probable space group: P C C M
;
_chemical_formula_sum "Si O2"
_cell_formula_units_Z 48
_cell_length_a 8.705467
_cell_length_b 29.269541
_cell_length_c 9.595057
_cell_angle_alpha 90.000000
_cell_angle_beta 90.000000
_cell_angle_gamma 90.000000
_cell_volume 2444.868722
_symmetry_space_group_name_H-M "P C C M"
_symmetry_group_IT_number 49
_symmetry_cell_setting 'orthorhombic'
loop_
_space_group_symop_operation_xyz
x,y,z
-x,-y,z
x,-y,1/2-z
-x,y,1/2-z
-x,-y,-z
x,y,-z
-x,y,1/2+z
x,-y,1/2+z
loop_
_atom_site_type_symbol
_atom_site_label
_atom_site_fract_x
_atom_site_fract_y
_atom_site_fract_z
Si Si1 0.145899 0.311371 0.842740
Si Si2 0.154238 0.564796 0.000000
Si Si3 0.319575 0.600357 0.267291
Si Si4 0.151676 0.859453 0.659857
Si Si5 0.805255 0.542431 0.000000
Si Si6 0.841340 0.960408 0.164439
Si Si7 0.347908 0.226421 0.836808
O O1 0.266775 0.352473 0.835650
O O2 0.226468 0.264953 0.791613
O O3 0.000000 0.322554 0.750000
O O4 0.087529 0.305551 0.000000
O O5 0.224982 0.591728 0.128151
O O6 0.193813 0.511730 0.000000
O O7 0.970053 0.567938 0.000000
O O8 0.500000 0.603869 0.250000
O O9 0.287113 0.557194 0.364546
O O10 0.101058 0.852269 0.500000
O O11 0.230017 0.909682 0.678840
O O12 0.278739 0.822747 0.704109
O O13 0.000000 0.852594 0.750000
O O14 0.000000 0.957904 0.250000
O O15 0.745208 0.000000 0.250000
O O16 0.861041 0.973280 0.000000
O O17 0.500000 0.234674 0.750000
O O18 0.387602 0.229894 0.000000
#
# Coordination Sequence:
#
# PCOD8204437 Si02
#       7
#     8   4   8   8   4   8   8
#     4  11  24  42  65  90 119 152 193 238 288 352
#     4  11  25  41  69  89 121 169 199 251 292 347
#     4  12  25  41  63  93 126 159 197 247 300 351
#     4   9  18  32  52  78 111 145 188 237 287 345
#     4  11  23  45  63  93 125 157 213 243 292 351
#     4   9  15  24  41  69 103 141 180 230 284 336
#     4  10  22  40  59  84 116 149 189 238 289 344
#
# _framework density 19.632954999999999
#
# number of rings (size 3 to 8) (size 9 to 14) (size 15 to 20)
#    0.000    1.667    0.833    4.500    1.167    5.333 
#    0.000    0.000    0.000    0.500    0.000    3.500 
#    0.000    0.000    0.000    0.000    0.000    0.000 
#
# Total GULP energy -595049.894830 kJ/mol
# GULP energy per Si atom -12396.872809 kJ/mol
# Density = 1.958827 g / cm^3
# Si number density = 19.632955 Si / 1000 Ang^3
#
#
#
# Elastic Constant Matrix: (Units=GPa)
#
#
# Indices 1 2 3 4 5 6 
#
# 1 98.2840 33.1447 31.3694 0.0000 0.0000 0.0000
# 2 33.1447 104.5205 26.2026 0.0000 0.0000 0.0000
# 3 31.3694 26.2026 99.1232 0.0000 0.0000 0.0000
# 4 0.0000 0.0000 0.0000 33.3294 0.0000 0.0000
# 5 0.0000 0.0000 0.0000 0.0000 31.1887 0.0000
# 6 0.0000 0.0000 0.0000 0.0000 0.0000 15.1414
#
#
#
# Elastic Compliance Matrix: (Units=1/GPa)
#
#
# Indices 1 2 3 4 5 6 
#
# 1 0.012191 -0.003104 -0.003037 0.000000 0.000000 0.000000
# 2 -0.003104 0.011037 -0.001935 0.000000 0.000000 0.000000
# 3 -0.003037 -0.001935 0.011561 0.000000 0.000000 0.000000
# 4 0.000000 0.000000 0.000000 0.030004 0.000000 0.000000
# 5 0.000000 0.000000 0.000000 0.000000 0.032063 0.000000
# 6 0.000000 0.000000 0.000000 0.000000 0.000000 0.066044
#
#
# Mechanical properties :
#
#
# Convention : Reuss Voigt Hill
#
# Bulk Modulus (GPa) = 53.66156 53.70680 53.68418
# Shear Modulus (GPa) = 26.98831 30.01263 28.50047
#
# Velocity S-wave (km/s) = 3.71164 3.91408 3.81421
# Velocity P-wave (km/s) = 6.76462 6.91676 6.84111
#
# Compressibility (1/GPa) = 0.01863531
#
# Stress axis : x y z
#
# Youngs Moduli (GPa) = 82.02786 90.60367 86.49583
#
# Poissons Ratio (x) = 0.28127 0.26272
# Poissons Ratio (y) = 0.25465 0.16738
# Poissons Ratio (z) = 0.24915 0.17533
#
# Static dielectric constant tensor:
#      x y z
#    x 3.268670 0.000000 0.000000 
#    y 0.000000 4.230350 0.000000 
#    z 0.000000 0.000000 3.712360 
# 
# 
# High freq. dielectric constant tensor:
#      x y z
#    x 1.733740 0.000000 0.000000 
#    y 0.000000 1.791290 0.000000 
#    z 0.000000 0.000000 1.776380 
# 
# From -- ./inp_files/2161.got.cif
#   From: 2010.03.12/outbox.cif.g09.slc.cpg/sg49_2_cif.got.tgz:2161.got - 2010.04.14 03:58:27.
