data_PCOD8204763
_publ_section_title
;
Structure prediction by ZEFSAII (Michael W. Deem and Ramdas Pophale) SiO2 
 PCOD8204763
Probable space group: P B A N
;
_chemical_formula_sum "Si O2"
_cell_formula_units_Z 48
_cell_length_a 9.054015
_cell_length_b 27.786503
_cell_length_c 8.843098
_cell_angle_alpha 90.000000
_cell_angle_beta 90.000000
_cell_angle_gamma 90.000000
_cell_volume 2224.741421
_symmetry_space_group_name_H-M "P B A N"
_symmetry_group_IT_number 50
_space_group.IT_coordinate_system_code '2'
_symmetry_cell_setting 'orthorhombic'
loop_
_space_group_symop_operation_xyz
x,y,z
1/2-x,1/2-y,z
x,1/2-y,-z
1/2-x,y,-z
-x,-y,-z
1/2+x,1/2+y,-z
-x,1/2+y,z
1/2+x,-y,z
loop_
_atom_site_type_symbol
_atom_site_label
_atom_site_fract_x
_atom_site_fract_y
_atom_site_fract_z
Si Si1 0.975437 0.065804 0.266887
Si Si2 0.415481 0.243875 0.322165
Si Si3 0.571387 0.339290 0.843659
Si Si4 0.413076 0.831775 0.189911
Si Si5 0.238684 0.008355 0.231589
Si Si6 0.506069 0.058515 0.089720
O O1 0.954606 0.122633 0.301069
O O2 0.836743 0.031902 0.321334
O O3 0.128931 0.042735 0.334169
O O4 0.980178 0.068255 0.085880
O O5 0.250000 0.250000 0.260454
O O6 0.420677 0.250000 0.500000
O O7 0.468274 0.191580 0.266600
O O8 0.522064 0.283926 0.257907
O O9 0.738547 0.324953 0.812891
O O10 0.549239 0.395678 0.807314
O O11 0.525303 0.333693 0.019083
O O12 0.123621 0.983443 0.118270
O O13 0.342548 0.043475 0.137048
#
# Coordination Sequence:
#
# PCOD8204763 Si02
#       6
#     8   8   8   8   8   8
#     4  10  17  27  45  77 118 156 186 220 272 330
#     4  11  26  45  62  82 108 145 194 245 294 348
#     4  10  21  37  59  90 122 150 186 235 287 341
#     4  10  21  37  59  90 122 150 186 235 287 341
#     4  10  17  26  44  74 119 160 187 220 267 326
#     4  10  17  27  45  77 118 156 186 220 272 330
#
# _framework density 21.575541999999999
#
# number of rings (size 3 to 8) (size 9 to 14) (size 15 to 20)
#    0.000    1.833    1.667    5.000    2.333    4.000 
#    0.000    0.000    0.000    0.000    0.000    7.000 
#    0.000    0.000    0.000    0.000    0.000    0.000 
#
# Total GULP energy -594761.744256 kJ/mol
# GULP energy per Si atom -12390.869672 kJ/mol
# Density = 2.152644 g / cm^3
# Si number density = 21.575542 Si / 1000 Ang^3
#
#
#
# Elastic Constant Matrix: (Units=GPa)
#
#
# Indices 1 2 3 4 5 6 
#
# 1 125.6055 39.0360 17.7450 0.0000 0.0000 0.0000
# 2 39.0360 120.3613 19.5585 0.0000 0.0000 0.0000
# 3 17.7450 19.5585 23.8012 0.0000 0.0000 0.0000
# 4 0.0000 0.0000 0.0000 -0.2616 0.0000 0.0000
# 5 0.0000 0.0000 0.0000 0.0000 15.4351 0.0000
# 6 0.0000 0.0000 0.0000 0.0000 0.0000 37.5917
#
#
#
# Elastic Compliance Matrix: (Units=1/GPa)
#
#
# Indices 1 2 3 4 5 6 
#
# 1 0.009377 -0.002199 -0.005184 0.000000 0.000000 0.000000
# 2 -0.002199 0.010104 -0.006664 0.000000 0.000000 0.000000
# 3 -0.005184 -0.006664 0.051356 0.000000 0.000000 0.000000
# 4 0.000000 0.000000 0.000000 -3.823023 0.000000 0.000000
# 5 0.000000 0.000000 0.000000 0.000000 0.064788 0.000000
# 6 0.000000 0.000000 0.000000 0.000000 0.000000 0.026602
#
#
# Mechanical properties :
#
#
# Convention : Reuss Voigt Hill
#
# Bulk Modulus (GPa) = 23.39545 46.93856 35.16701
# Shear Modulus (GPa) = -1.38181 23.44828 11.03324
#
# Velocity S-wave (km/s) = -0.80115 3.30024 2.26382
# Velocity P-wave (km/s) = 3.16406 6.02700 4.81332
#
# Compressibility (1/GPa) = 0.04274335
#
# Stress axis : x y z
#
# Youngs Moduli (GPa) = 106.64163 98.96772 19.47204
#
# Poissons Ratio (x) = 0.21761 0.10095
# Poissons Ratio (y) = 0.23448 0.12976
# Poissons Ratio (z) = 0.55286 0.65950
#
# Static dielectric constant tensor:
#      x y z
#    x 4.319430 0.000000 0.000000 
#    y 0.000000 4.758250 0.000000 
#    z 0.000000 0.000000 3.267210 
# 
# 
# High freq. dielectric constant tensor:
#      x y z
#    x 1.863390 0.000000 0.000000 
#    y 0.000000 1.868800 0.000000 
#    z 0.000000 0.000000 1.782090 
# 
# From -- ./inp_files/10058.got.cif
#   From: 2010.03.12/outbox.cif.g09.slc.cpg/sg50_6_cif.got.tgz:10058.got - 2010.04.16 13:23:21.
