data_PCOD8204569
_publ_section_title
;
Structure prediction by ZEFSAII (Michael W. Deem and Ramdas Pophale) SiO2 
 PCOD8204569
Probable space group: P C C M
;
_chemical_formula_sum "Si O2"
_cell_formula_units_Z 28
_cell_length_a 4.990115
_cell_length_b 16.795280
_cell_length_c 14.290646
_cell_angle_alpha 90.000000
_cell_angle_beta 90.000000
_cell_angle_gamma 90.000000
_cell_volume 1197.704453
_symmetry_space_group_name_H-M "P C C M"
_symmetry_group_IT_number 49
_symmetry_cell_setting 'orthorhombic'
loop_
_space_group_symop_operation_xyz
x,y,z
-x,-y,z
x,-y,1/2-z
-x,y,1/2-z
-x,-y,-z
x,y,-z
-x,y,1/2+z
x,-y,1/2+z
loop_
_atom_site_type_symbol
_atom_site_label
_atom_site_fract_x
_atom_site_fract_y
_atom_site_fract_z
Si Si1 0.391865 0.278696 0.605615
Si Si2 0.246869 0.056693 0.000000
Si Si3 0.112640 0.817567 0.650926
Si Si4 0.246154 0.549416 0.889224
O O1 0.502587 0.291854 0.500000
O O2 0.645810 0.246282 0.665678
O O3 0.281995 0.361052 0.650536
O O4 0.142222 0.218796 0.598020
O O5 0.242383 0.110523 0.092801
O O6 0.500000 0.000000 0.000000
O O7 0.000000 0.000000 0.000000
O O8 0.000000 0.848401 0.750000
O O9 0.500000 0.500000 0.858137
O O10 0.000000 0.500000 0.844867
O O11 0.208656 0.555757 0.000000
#
# Coordination Sequence:
#
# PCOD8204569 Si02
#       4
#     8   4   8   8
#     4  11  20  39  67  96 139 188 234 286 343 406
#     4  12  26  48  76 102 138 178 224 278 352 428
#     4  12  25  44  70 104 139 180 231 283 343 416
#     4   9  17  29  52  91 131 175 232 283 330 388
#
# _framework density 23.378055
#
# number of rings (size 3 to 8) (size 9 to 14) (size 15 to 20)
#    0.000    1.143    2.857    4.286    0.000    5.143 
#    0.000    1.429    0.000   12.857    0.000    0.000 
#    0.000    0.000    0.000    0.286    0.000    0.000 
#
# Total GULP energy -347178.236899 kJ/mol
# GULP energy per Si atom -12399.222746 kJ/mol
# Density = 2.332485 g / cm^3
# Si number density = 23.378055 Si / 1000 Ang^3
#
#
#
# Elastic Constant Matrix: (Units=GPa)
#
#
# Indices 1 2 3 4 5 6 
#
# 1 191.3112 79.3509 34.8946 0.0000 0.0000 0.0000
# 2 79.3509 159.1667 54.8394 0.0000 0.0000 0.0000
# 3 34.8946 54.8394 93.7525 0.0000 0.0000 0.0000
# 4 0.0000 0.0000 0.0000 10.5391 0.0000 0.0000
# 5 0.0000 0.0000 0.0000 0.0000 -17.3970 0.0000
# 6 0.0000 0.0000 0.0000 0.0000 0.0000 471.6281
#
#
#
# Elastic Compliance Matrix: (Units=1/GPa)
#
#
# Indices 1 2 3 4 5 6 
#
# 1 0.006623 -0.003072 -0.000668 0.000000 0.000000 0.000000
# 2 -0.003072 0.009293 -0.004293 0.000000 0.000000 0.000000
# 3 -0.000668 -0.004293 0.013426 0.000000 0.000000 0.000000
# 4 0.000000 0.000000 0.000000 0.094885 0.000000 0.000000
# 5 0.000000 0.000000 0.000000 0.000000 -0.057481 0.000000
# 6 0.000000 0.000000 0.000000 0.000000 0.000000 0.002120
#
#
# Mechanical properties :
#
#
# Convention : Reuss Voigt Hill
#
# Bulk Modulus (GPa) = 75.31846 86.93335 81.12591
# Shear Modulus (GPa) = 55.95535 111.29707 83.62621
#
# Velocity S-wave (km/s) = 4.89765 6.90730 5.98740
# Velocity P-wave (km/s) = 8.01687 10.04396 9.08711
#
# Compressibility (1/GPa) = 0.01327696
#
# Stress axis : x y z
#
# Youngs Moduli (GPa) = 150.98917 107.60823 74.48195
#
# Poissons Ratio (x) = 0.33052 0.04979
# Poissons Ratio (y) = 0.46377 0.31972
# Poissons Ratio (z) = 0.10092 0.46192
#
# Static dielectric constant tensor:
#      x y z
#    x 4.310050 0.000000 0.000000 
#    y 0.000000 4.324480 0.000000 
#    z 0.000000 0.000000 3.779900 
# 
# 
# High freq. dielectric constant tensor:
#      x y z
#    x 1.942530 0.000000 0.000000 
#    y 0.000000 1.921230 0.000000 
#    z 0.000000 0.000000 1.909660 
# 
# From -- ./inp_files/10495.got.cif
#   From: 2010.03.12/outbox.cif.g09.slc.cpg/sg49_6_cif.got.tgz:10495.got - 2010.04.14 03:58:27.
