data_PCOD8204930
_publ_section_title
;
Structure prediction by ZEFSAII (Michael W. Deem and Ramdas Pophale) SiO2 
 PCOD8204930
Probable space group: P B A N
;
_chemical_formula_sum "Si O2"
_cell_formula_units_Z 58
_cell_length_a 14.569853
_cell_length_b 9.481589
_cell_length_c 22.180209
_cell_angle_alpha 90.000000
_cell_angle_beta 90.000000
_cell_angle_gamma 90.000000
_cell_volume 3064.092911
_symmetry_space_group_name_H-M "P B A N"
_symmetry_group_IT_number 50
_space_group.IT_coordinate_system_code '2'
_symmetry_cell_setting 'orthorhombic'
loop_
_space_group_symop_operation_xyz
x,y,z
1/2-x,1/2-y,z
x,1/2-y,-z
1/2-x,y,-z
-x,-y,-z
1/2+x,1/2+y,-z
-x,1/2+y,z
1/2+x,-y,z
loop_
_atom_site_type_symbol
_atom_site_label
_atom_site_fract_x
_atom_site_fract_y
_atom_site_fract_z
Si Si1 0.930172 0.870948 0.357346
Si Si2 0.896490 0.542244 0.347795
Si Si3 0.569320 0.321153 0.058490
Si Si4 0.480556 0.556554 0.130879
Si Si5 0.662729 0.932947 0.216188
Si Si6 0.635142 0.603593 0.225935
Si Si7 0.735726 0.915464 0.566484
Si Si8 0.750000 0.250000 0.000000
O O1 0.932250 0.701575 0.356894
O O2 0.893801 0.931002 0.293910
O O3 0.867142 0.938140 0.409679
O O4 0.030441 0.929585 0.371430
O O5 0.877374 0.504960 0.278171
O O6 0.805733 0.514216 0.386694
O O7 0.519837 0.468954 0.073588
O O8 0.548510 0.214550 0.113453
O O9 0.521555 0.250000 0.000000
O O10 0.679787 0.340884 0.043251
O O11 0.388099 0.489915 0.157293
O O12 0.557993 0.547838 0.181424
O O13 0.650845 0.767184 0.217362
O O14 0.769682 0.976007 0.211035
O O15 0.750000 0.750000 0.564608
O O16 0.750000 0.981987 0.500000
#
# Coordination Sequence:
#
# PCOD8204930 Si02
#       8
#     8   8   8   8   8   8   8   2
#     4  10  19  34  55  80 112 147 185 235 284 332
#     4  10  19  34  55  80 112 147 185 235 284 332
#     4  10  24  42  59  84 116 151 185 230 272 334
#     4  12  21  38  62  88 111 150 188 234 278 342
#     4  10  20  34  55  84 116 146 183 233 284 336
#     4  10  20  34  55  84 116 146 183 233 284 336
#     4   9  18  34  56  79 108 155 201 225 268 345
#     4   8  24  44  60  78 118 148 180 222 282 316
#
# _framework density 18.928930000000001
#
# number of rings (size 3 to 8) (size 9 to 14) (size 15 to 20)
#    0.414    1.517    4.138    0.414    1.931    0.552 
#    0.000    0.690    0.000    2.483    0.000    0.000 
#    0.000    0.000    0.000    0.000    0.000    0.000 
#
# Total GULP energy -718898.317455 kJ/mol
# GULP energy per Si atom -12394.798577 kJ/mol
# Density = 1.888585 g / cm^3
# Si number density = 18.928930 Si / 1000 Ang^3
#
#
#
# Elastic Constant Matrix: (Units=GPa)
#
#
# Indices 1 2 3 4 5 6 
#
# 1 79.4988 18.9304 4.5787 0.0000 0.0000 0.0000
# 2 18.9304 29.3999 6.9136 0.0000 0.0000 0.0000
# 3 4.5787 6.9136 65.1554 0.0000 0.0000 0.0000
# 4 0.0000 0.0000 0.0000 15.8004 0.0000 0.0000
# 5 0.0000 0.0000 0.0000 0.0000 34.7570 0.0000
# 6 0.0000 0.0000 0.0000 0.0000 0.0000 21.0487
#
#
#
# Elastic Compliance Matrix: (Units=1/GPa)
#
#
# Indices 1 2 3 4 5 6 
#
# 1 0.014857 -0.009559 -0.000030 0.000000 0.000000 0.000000
# 2 -0.009559 0.041035 -0.003682 0.000000 0.000000 0.000000
# 3 -0.000030 -0.003682 0.015741 0.000000 0.000000 0.000000
# 4 0.000000 0.000000 0.000000 0.063290 0.000000 0.000000
# 5 0.000000 0.000000 0.000000 0.000000 0.028771 0.000000
# 6 0.000000 0.000000 0.000000 0.000000 0.000000 0.047509
#
#
# Mechanical properties :
#
#
# Convention : Reuss Voigt Hill
#
# Bulk Modulus (GPa) = 22.17802 26.09992 24.13897
# Shear Modulus (GPa) = 19.78049 23.89665 21.83857
#
# Velocity S-wave (km/s) = 3.23613 3.55694 3.40032
# Velocity P-wave (km/s) = 5.07004 5.53962 5.31002
#
# Compressibility (1/GPa) = 0.04508969
#
# Stress axis : x y z
#
# Youngs Moduli (GPa) = 67.30942 24.36959 63.52938
#
# Poissons Ratio (x) = 0.23295 0.00189
# Poissons Ratio (y) = 0.64342 0.23394
# Poissons Ratio (z) = 0.00200 0.08974
#
# Static dielectric constant tensor:
#      x y z
#    x 3.662800 0.000000 0.000000 
#    y 0.000000 3.103330 0.000000 
#    z 0.000000 0.000000 3.696300 
# 
# 
# High freq. dielectric constant tensor:
#      x y z
#    x 1.743150 0.000000 0.000000 
#    y 0.000000 1.699250 0.000000 
#    z 0.000000 0.000000 1.738910 
# 
# From -- ./inp_files/31762.got.cif
#   From: 2010.03.12/outbox.cif.g09.slc.cpg/sg50_16_cif.got.tgz:31762.got - 2010.04.16 13:23:21.
