data_PCOD8204296
_publ_section_title
;
Structure prediction by ZEFSAII (Michael W. Deem and Ramdas Pophale) SiO2 
 PCOD8204296
Probable space group: P C C M
;
_chemical_formula_sum "Si O2"
_cell_formula_units_Z 64
_cell_length_a 17.061813
_cell_length_b 12.006688
_cell_length_c 15.058999
_cell_angle_alpha 90.000000
_cell_angle_beta 90.000000
_cell_angle_gamma 90.000000
_cell_volume 3084.924272
_symmetry_space_group_name_H-M "P C C M"
_symmetry_group_IT_number 49
_symmetry_cell_setting 'orthorhombic'
loop_
_space_group_symop_operation_xyz
x,y,z
-x,-y,z
x,-y,1/2-z
-x,y,1/2-z
-x,-y,-z
x,y,-z
-x,y,1/2+z
x,-y,1/2+z
loop_
_atom_site_type_symbol
_atom_site_label
_atom_site_fract_x
_atom_site_fract_y
_atom_site_fract_z
Si Si1 0.503427 0.691110 0.395562
Si Si2 0.992002 0.130612 0.149206
Si Si3 0.178272 0.208197 0.402084
Si Si4 0.428676 0.068799 0.898342
Si Si5 0.848560 0.221171 0.596180
Si Si6 0.784754 0.366973 0.255110
Si Si7 0.255485 0.986179 0.349286
Si Si8 0.614131 0.374334 0.258390
O O1 0.520291 0.658821 0.500000
O O2 0.457121 0.805808 0.389695
O O3 0.442451 0.612874 0.344015
O O4 0.580373 0.684578 0.332131
O O5 0.908939 0.164013 0.110396
O O6 0.000000 0.171256 0.250000
O O7 0.060997 0.186512 0.093495
O O8 0.000000 0.000000 0.141076
O O9 0.188276 0.258099 0.500000
O O10 0.193729 0.312023 0.338340
O O11 0.239290 0.104894 0.395022
O O12 0.500000 0.000000 0.854845
O O13 0.347775 0.044623 0.848574
O O14 0.415736 0.032401 0.000000
O O15 0.827091 0.271397 0.500000
O O16 0.839086 0.318251 0.667949
O O17 0.793810 0.113471 0.609046
O O18 0.795810 0.500000 0.250000
O O19 0.697703 0.318714 0.278570
O O20 0.224700 0.000000 0.250000
O O21 0.639770 0.500000 0.250000
#
# Coordination Sequence:
#
# PCOD8204296 Si02
#       8
#     8   8   8   8   8   8   8   8
#     4  10  21  38  62  90 122 161 207 265 331 387
#     4  11  21  40  68 104 138 168 214 265 326 401
#     4  12  25  42  68 100 135 174 218 274 334 398
#     4  10  23  38  54  85 126 167 209 253 309 393
#     4  12  24  42  69 100 135 172 212 271 341 401
#     4  11  26  47  66  93 131 177 232 280 327 393
#     4  12  23  39  63  97 134 173 216 267 336 399
#     4  10  23  41  63  89 119 160 219 279 324 373
#
# _framework density 20.746054000000001
#
# number of rings (size 3 to 8) (size 9 to 14) (size 15 to 20)
#    0.000    1.000    3.750    3.000    1.750    5.250 
#    0.000    3.750    0.000    1.500    0.000    0.000 
#    0.000    0.000    0.000    0.000    0.000    0.000 
#
# Total GULP energy -793094.166518 kJ/mol
# GULP energy per Si atom -12392.096352 kJ/mol
# Density = 2.069883 g / cm^3
# Si number density = 20.746054 Si / 1000 Ang^3
#
#
#
# Elastic Constant Matrix: (Units=GPa)
#
#
# Indices 1 2 3 4 5 6 
#
# 1 105.1562 24.2048 13.0056 0.0000 0.0000 0.0000
# 2 24.2048 88.4718 36.8850 0.0000 0.0000 0.0000
# 3 13.0056 36.8850 141.2025 0.0000 0.0000 0.0000
# 4 0.0000 0.0000 0.0000 67.8369 0.0000 0.0000
# 5 0.0000 0.0000 0.0000 0.0000 20.2154 0.0000
# 6 0.0000 0.0000 0.0000 0.0000 0.0000 22.7314
#
#
#
# Elastic Compliance Matrix: (Units=1/GPa)
#
#
# Indices 1 2 3 4 5 6 
#
# 1 0.010156 -0.002680 -0.000235 0.000000 0.000000 0.000000
# 2 -0.002680 0.013392 -0.003251 0.000000 0.000000 0.000000
# 3 -0.000235 -0.003251 0.007953 0.000000 0.000000 0.000000
# 4 0.000000 0.000000 0.000000 0.014741 0.000000 0.000000
# 5 0.000000 0.000000 0.000000 0.000000 0.049467 0.000000
# 6 0.000000 0.000000 0.000000 0.000000 0.000000 0.043992
#
#
# Mechanical properties :
#
#
# Convention : Reuss Voigt Hill
#
# Bulk Modulus (GPa) = 52.17395 53.66903 52.92149
# Shear Modulus (GPa) = 31.56088 39.53909 35.54999
#
# Velocity S-wave (km/s) = 3.90461 4.37035 4.14403
# Velocity P-wave (km/s) = 6.74770 7.16884 6.96146
#
# Compressibility (1/GPa) = 0.01916665
#
# Stress axis : x y z
#
# Youngs Moduli (GPa) = 98.46661 74.67204 125.73853
#
# Poissons Ratio (x) = 0.20015 0.02958
# Poissons Ratio (y) = 0.26393 0.40882
# Poissons Ratio (z) = 0.02316 0.24279
#
# Static dielectric constant tensor:
#      x y z
#    x 4.567380 0.000000 0.000000 
#    y 0.000000 3.352120 0.000000 
#    z 0.000000 0.000000 3.909610 
# 
# 
# High freq. dielectric constant tensor:
#      x y z
#    x 1.824420 0.000000 0.000000 
#    y 0.000000 1.797950 0.000000 
#    z 0.000000 0.000000 1.820410 
# 
# From -- ./inp_files/14189.got.cif
#   From: 2010.03.12/outbox.cif.g09.slc.cpg/sg49_8_cif.got.tgz:14189.got - 2010.04.14 03:58:27.
