data_PCOD8204811
_publ_section_title
;
Structure prediction by ZEFSAII (Michael W. Deem and Ramdas Pophale) SiO2 
 PCOD8204811
Probable space group: P B A N
;
_chemical_formula_sum "Si O2"
_cell_formula_units_Z 64
_cell_length_a 15.332557
_cell_length_b 24.715801
_cell_length_c 9.352658
_cell_angle_alpha 90.000000
_cell_angle_beta 90.000000
_cell_angle_gamma 90.000000
_cell_volume 3544.249865
_symmetry_space_group_name_H-M "P B A N"
_symmetry_group_IT_number 50
_space_group.IT_coordinate_system_code '2'
_symmetry_cell_setting 'orthorhombic'
loop_
_space_group_symop_operation_xyz
x,y,z
1/2-x,1/2-y,z
x,1/2-y,-z
1/2-x,y,-z
-x,-y,-z
1/2+x,1/2+y,-z
-x,1/2+y,z
1/2+x,-y,z
loop_
_atom_site_type_symbol
_atom_site_label
_atom_site_fract_x
_atom_site_fract_y
_atom_site_fract_z
Si Si1 0.943795 0.888262 0.666959
Si Si2 0.247588 0.411187 0.668606
Si Si3 0.431505 0.685383 0.164236
Si Si4 0.428632 0.811100 0.168430
Si Si5 0.474908 0.507274 0.338441
Si Si6 0.435214 0.388147 0.673992
Si Si7 0.777900 0.030114 0.662156
Si Si8 0.249128 0.633552 0.167320
O O1 0.841907 0.881130 0.713667
O O2 0.951934 0.884553 0.495768
O O3 0.999369 0.841205 0.737326
O O4 0.977093 0.946692 0.728120
O O5 0.250000 0.418715 0.500000
O O6 0.333636 0.378176 0.716627
O O7 0.251819 0.472556 0.727952
O O8 0.436519 0.748168 0.202237
O O9 0.509428 0.657240 0.248421
O O10 0.338380 0.662494 0.216035
O O11 0.445940 0.675332 0.996668
O O12 0.331149 0.828313 0.211848
O O13 0.500000 0.500000 0.500000
O O14 0.540690 0.551137 0.268976
O O15 0.381349 0.534998 0.325534
O O16 0.750000 0.038939 0.500000
O O17 0.733957 0.076706 0.755455
O O18 0.250000 0.622381 0.000000
#
# Coordination Sequence:
#
# PCOD8204811 Si02
#       8
#     8   8   8   8   8   8   8   8
#     4   9  19  34  54  83 104 136 179 218 261 314
#     4   8  17  33  53  78 111 143 169 205 265 325
#     4  10  21  40  53  77 101 144 183 217 270 320
#     4  10  22  37  58  71 106 142 181 224 265 314
#     4   9  17  29  51  79 112 136 169 211 266 315
#     4  10  18  33  57  78 108 139 175 218 261 314
#     4  10  18  30  52  81 110 139 177 209 254 321
#     4  10  21  35  52  76 107 142 177 216 264 319
#
# _framework density 18.057417000000001
#
# number of rings (size 3 to 8) (size 9 to 14) (size 15 to 20)
#    0.000    2.500    1.250    2.625    5.250    2.000 
#    0.000    4.375    0.000    6.000    0.000    0.000 
#    0.000    0.000    0.000    0.000    0.000    0.000 
#
# Total GULP energy -793242.136984 kJ/mol
# GULP energy per Si atom -12394.408390 kJ/mol
# Density = 1.801632 g / cm^3
# Si number density = 18.057417 Si / 1000 Ang^3
#
#
#
# Elastic Constant Matrix: (Units=GPa)
#
#
# Indices 1 2 3 4 5 6 
#
# 1 148.2019 69.8428 43.1902 0.0000 0.0000 0.0000
# 2 69.8428 105.5902 39.2676 0.0000 0.0000 0.0000
# 3 43.1902 39.2676 34.3382 0.0000 0.0000 0.0000
# 4 0.0000 0.0000 0.0000 49.4917 0.0000 0.0000
# 5 0.0000 0.0000 0.0000 0.0000 25.9103 0.0000
# 6 0.0000 0.0000 0.0000 0.0000 0.0000 21.7836
#
#
#
# Elastic Compliance Matrix: (Units=1/GPa)
#
#
# Indices 1 2 3 4 5 6 
#
# 1 0.011496 -0.003875 -0.010029 0.000000 0.000000 0.000000
# 2 -0.003875 0.017784 -0.015464 0.000000 0.000000 0.000000
# 3 -0.010029 -0.015464 0.059420 0.000000 0.000000 0.000000
# 4 0.000000 0.000000 0.000000 0.020205 0.000000 0.000000
# 5 0.000000 0.000000 0.000000 0.000000 0.038595 0.000000
# 6 0.000000 0.000000 0.000000 0.000000 0.000000 0.045906
#
#
# Mechanical properties :
#
#
# Convention : Reuss Voigt Hill
#
# Bulk Modulus (GPa) = 33.37134 65.85903 49.61518
# Shear Modulus (GPa) = 19.07445 28.49243 23.78344
#
# Velocity S-wave (km/s) = 3.25364 3.97656 3.63313
# Velocity P-wave (km/s) = 5.71276 7.59179 6.71829
#
# Compressibility (1/GPa) = 0.02996583
#
# Stress axis : x y z
#
# Youngs Moduli (GPa) = 86.98474 56.22971 16.82923
#
# Poissons Ratio (x) = 0.21786 0.16878
# Poissons Ratio (y) = 0.33702 0.26024
# Poissons Ratio (z) = 0.87238 0.86953
#
# Static dielectric constant tensor:
#      x y z
#    x 3.642740 0.000000 0.000000 
#    y 0.000000 3.371570 0.000000 
#    z 0.000000 0.000000 2.982760 
# 
# 
# High freq. dielectric constant tensor:
#      x y z
#    x 1.715660 0.000000 0.000000 
#    y 0.000000 1.695490 0.000000 
#    z 0.000000 0.000000 1.660870 
# 
# From -- ./inp_files/13461.got.cif
#   From: 2010.03.12/outbox.cif.g09.slc.cpg/sg50_7_cif.got.tgz:13461.got - 2010.04.16 13:23:21.
