data_PCOD8204938
_publ_section_title
;
Structure prediction by ZEFSAII (Michael W. Deem and Ramdas Pophale) SiO2 
 PCOD8204938
Probable space group: P B A N
;
_chemical_formula_sum "Si O2"
_cell_formula_units_Z 58
_cell_length_a 16.804630
_cell_length_b 16.769453
_cell_length_c 9.803864
_cell_angle_alpha 90.000000
_cell_angle_beta 90.000000
_cell_angle_gamma 90.000000
_cell_volume 2762.772531
_symmetry_space_group_name_H-M "P B A N"
_symmetry_group_IT_number 50
_space_group.IT_coordinate_system_code '2'
_symmetry_cell_setting 'orthorhombic'
loop_
_space_group_symop_operation_xyz
x,y,z
1/2-x,1/2-y,z
x,1/2-y,-z
1/2-x,y,-z
-x,-y,-z
1/2+x,1/2+y,-z
-x,1/2+y,z
1/2+x,-y,z
loop_
_atom_site_type_symbol
_atom_site_label
_atom_site_fract_x
_atom_site_fract_y
_atom_site_fract_z
Si Si1 0.993819 0.401959 0.257422
Si Si2 0.975385 0.588256 0.036308
Si Si3 0.159569 0.803039 0.244092
Si Si4 0.750000 0.250000 0.000000
Si Si5 0.910259 0.362486 0.727036
Si Si6 0.376534 0.452096 0.262525
Si Si7 0.444907 0.157746 0.526145
Si Si8 0.258088 0.938569 0.347532
O O1 0.926895 0.336088 0.265530
O O2 0.955587 0.490436 0.271704
O O3 0.054031 0.388040 0.381720
O O4 0.036324 0.376098 0.114914
O O5 0.044660 0.630176 0.127936
O O6 0.891407 0.592777 0.118051
O O7 0.000000 0.500000 0.000000
O O8 0.152746 0.709722 0.276226
O O9 0.218441 0.850771 0.343886
O O10 0.195020 0.809105 0.090677
O O11 0.850676 0.438120 0.701128
O O12 0.970552 0.351788 0.601750
O O13 0.377529 0.387108 0.384154
O O14 0.294327 0.500617 0.255022
O O15 0.422570 0.250000 0.500000
O O16 0.250000 0.971324 0.500000
#
# Coordination Sequence:
#
# PCOD8204938 Si02
#       8
#     8   8   8   2   8   8   8   8
#     4  10  19  34  56  82 116 158 200 249 295 367
#     4   9  20  37  56  78 115 160 207 253 294 359
#     4  11  21  32  50  81 124 155 196 234 296 377
#     4  12  20  32  42  72 124 176 184 232 286 372
#     4  11  20  36  56  85 123 163 197 247 308 366
#     4   9  21  39  55  82 120 159 205 251 303 368
#     4  11  21  36  62  90 121 155 201 261 311 363
#     4  11  23  36  57  84 118 163 198 245 305 377
#
# _framework density 20.993402
#
# number of rings (size 3 to 8) (size 9 to 14) (size 15 to 20)
#    0.000    1.655    2.759    2.897    0.000    2.759 
#    0.000    0.000    0.000    0.414    0.000    0.000 
#    0.000    2.759    0.000    0.000    0.000    0.000 
#
# Total GULP energy -718527.626676 kJ/mol
# GULP energy per Si atom -12388.407356 kJ/mol
# Density = 2.094562 g / cm^3
# Si number density = 20.993402 Si / 1000 Ang^3
#
#
#
# Elastic Constant Matrix: (Units=GPa)
#
#
# Indices 1 2 3 4 5 6 
#
# 1 49.0563 21.4147 16.1393 0.0000 0.0000 0.0000
# 2 21.4147 70.1841 17.8993 0.0000 0.0000 0.0000
# 3 16.1393 17.8993 131.2468 0.0000 0.0000 0.0000
# 4 0.0000 0.0000 0.0000 16.8266 0.0000 0.0000
# 5 0.0000 0.0000 0.0000 0.0000 20.8200 0.0000
# 6 0.0000 0.0000 0.0000 0.0000 0.0000 12.1616
#
#
#
# Elastic Compliance Matrix: (Units=1/GPa)
#
#
# Indices 1 2 3 4 5 6 
#
# 1 0.024026 -0.006814 -0.002025 0.000000 0.000000 0.000000
# 2 -0.006814 0.016694 -0.001439 0.000000 0.000000 0.000000
# 3 -0.002025 -0.001439 0.008064 0.000000 0.000000 0.000000
# 4 0.000000 0.000000 0.000000 0.059430 0.000000 0.000000
# 5 0.000000 0.000000 0.000000 0.000000 0.048031 0.000000
# 6 0.000000 0.000000 0.000000 0.000000 0.000000 0.082226
#
#
# Mechanical properties :
#
#
# Convention : Reuss Voigt Hill
#
# Bulk Modulus (GPa) = 35.42563 40.15486 37.79025
# Shear Modulus (GPa) = 18.62635 22.96389 20.79512
#
# Velocity S-wave (km/s) = 2.98190 3.31095 3.15072
# Velocity P-wave (km/s) = 5.36348 5.81252 5.59251
#
# Compressibility (1/GPa) = 0.02822815
#
# Stress axis : x y z
#
# Youngs Moduli (GPa) = 41.62217 59.90044 124.00057
#
# Poissons Ratio (x) = 0.40818 0.25111
# Poissons Ratio (y) = 0.28362 0.17841
# Poissons Ratio (z) = 0.08429 0.08619
#
# Static dielectric constant tensor:
#      x y z
#    x 3.517850 0.000000 0.000000 
#    y 0.000000 3.823970 0.000000 
#    z 0.000000 0.000000 4.661980 
# 
# 
# High freq. dielectric constant tensor:
#      x y z
#    x 1.786540 0.000000 0.000000 
#    y 0.000000 1.804990 0.000000 
#    z 0.000000 0.000000 1.834260 
# 
# From -- ./inp_files/14483.got.cif
#   From: 2010.03.12/outbox.cif.g09.slc.cpg/sg50_8_cif.got.tgz:14483.got - 2010.04.16 13:23:21.
