data_PCOD8204832
_publ_section_title
;
Structure prediction by ZEFSAII (Michael W. Deem and Ramdas Pophale) SiO2 
 PCOD8204832
Probable space group: P B A N
;
_chemical_formula_sum "Si O2"
_cell_formula_units_Z 40
_cell_length_a 14.570632
_cell_length_b 8.953246
_cell_length_c 13.728066
_cell_angle_alpha 90.000000
_cell_angle_beta 90.000000
_cell_angle_gamma 90.000000
_cell_volume 1790.887336
_symmetry_space_group_name_H-M "P B A N"
_symmetry_group_IT_number 50
_space_group.IT_coordinate_system_code '2'
_symmetry_cell_setting 'orthorhombic'
loop_
_space_group_symop_operation_xyz
x,y,z
1/2-x,1/2-y,z
x,1/2-y,-z
1/2-x,y,-z
-x,-y,-z
1/2+x,1/2+y,-z
-x,1/2+y,z
1/2+x,-y,z
loop_
_atom_site_type_symbol
_atom_site_label
_atom_site_fract_x
_atom_site_fract_y
_atom_site_fract_z
Si Si1 0.894237 0.568904 0.101931
Si Si2 0.032120 0.231564 0.385445
Si Si3 0.418266 0.407877 0.889636
Si Si4 0.298020 0.092593 0.711098
Si Si5 0.616122 0.026724 0.690973
O O1 0.923120 0.733789 0.140329
O O2 0.821970 0.515987 0.184181
O O3 0.976932 0.453686 0.098033
O O4 0.858905 0.575086 0.989873
O O5 0.026903 0.250000 0.500000
O O6 0.112646 0.113886 0.357078
O O7 0.049782 0.393438 0.342229
O O8 0.932746 0.177742 0.344760
O O9 0.373142 0.512772 0.807909
O O10 0.250000 0.250000 0.734268
O O11 0.222128 0.989565 0.654018
#
# Coordination Sequence:
#
# PCOD8204832 Si02
#       5
#     8   8   8   8   8
#     4  10  19  33  57  89 126 163 207 246 309 364
#     4  11  23  41  63  88 120 160 205 259 317 366
#     4  10  18  33  58  88 125 165 202 249 305 374
#     4  10  20  36  59  91 121 159 208 260 303 366
#     4  11  21  39  63  88 120 161 206 254 311 367
#
# _framework density 22.335296
#
# number of rings (size 3 to 8) (size 9 to 14) (size 15 to 20)
#    0.000    1.600    6.000    0.600    0.000    4.400 
#    0.000    1.000    0.000    1.200    0.000    5.600 
#    0.000    0.000    0.000    0.000    0.000    0.000 
#
# Total GULP energy -495648.738500 kJ/mol
# GULP energy per Si atom -12391.218463 kJ/mol
# Density = 2.228446 g / cm^3
# Si number density = 22.335296 Si / 1000 Ang^3
#
#
#
# Elastic Constant Matrix: (Units=GPa)
#
#
# Indices 1 2 3 4 5 6 
#
# 1 101.4523 18.3001 33.9928 0.0000 0.0000 0.0000
# 2 18.3001 33.1279 17.7691 0.0000 0.0000 0.0000
# 3 33.9928 17.7691 131.8377 0.0000 0.0000 0.0000
# 4 0.0000 0.0000 0.0000 19.9084 0.0000 0.0000
# 5 0.0000 0.0000 0.0000 0.0000 14.2170 0.0000
# 6 0.0000 0.0000 0.0000 0.0000 0.0000 27.3976
#
#
#
# Elastic Compliance Matrix: (Units=1/GPa)
#
#
# Indices 1 2 3 4 5 6 
#
# 1 0.011552 -0.005157 -0.002284 0.000000 0.000000 0.000000
# 2 -0.005157 0.034840 -0.003366 0.000000 0.000000 0.000000
# 3 -0.002284 -0.003366 0.008628 0.000000 0.000000 0.000000
# 4 0.000000 0.000000 0.000000 0.050230 0.000000 0.000000
# 5 0.000000 0.000000 0.000000 0.000000 0.070338 0.000000
# 6 0.000000 0.000000 0.000000 0.000000 0.000000 0.036500
#
#
# Mechanical properties :
#
#
# Convention : Reuss Voigt Hill
#
# Bulk Modulus (GPa) = 29.93378 45.17131 37.55254
# Shear Modulus (GPa) = 20.42180 25.39499 22.90840
#
# Velocity S-wave (km/s) = 3.02707 3.37559 3.20607
# Velocity P-wave (km/s) = 5.06445 5.95490 5.52763
#
# Compressibility (1/GPa) = 0.03340708
#
# Stress axis : x y z
#
# Youngs Moduli (GPa) = 86.56404 28.70256 115.90753
#
# Poissons Ratio (x) = 0.14801 0.26468
# Poissons Ratio (y) = 0.44638 0.39017
# Poissons Ratio (z) = 0.19768 0.09662
#
# Static dielectric constant tensor:
#      x y z
#    x 4.199550 0.000000 0.000000 
#    y 0.000000 3.733780 0.000000 
#    z 0.000000 0.000000 4.606480 
# 
# 
# High freq. dielectric constant tensor:
#      x y z
#    x 1.872960 0.000000 0.000000 
#    y 0.000000 1.842420 0.000000 
#    z 0.000000 0.000000 1.885920 
# 
# From -- ./inp_files/24662.got.cif
#   From: 2010.03.12/outbox.cif.g09.slc.cpg/sg50_13_cif.got.tgz:24662.got - 2010.04.16 13:23:21.
