data_PCOD8204790
_publ_section_title
;
Structure prediction by ZEFSAII (Michael W. Deem and Ramdas Pophale) SiO2 
 PCOD8204790
Probable space group: P B A N
;
_chemical_formula_sum "Si O2"
_cell_formula_units_Z 42
_cell_length_a 22.057257
_cell_length_b 12.321615
_cell_length_c 8.895565
_cell_angle_alpha 90.000000
_cell_angle_beta 90.000000
_cell_angle_gamma 90.000000
_cell_volume 2417.645807
_symmetry_space_group_name_H-M "P B A N"
_symmetry_group_IT_number 50
_space_group.IT_coordinate_system_code '2'
_symmetry_cell_setting 'orthorhombic'
loop_
_space_group_symop_operation_xyz
x,y,z
1/2-x,1/2-y,z
x,1/2-y,-z
1/2-x,y,-z
-x,-y,-z
1/2+x,1/2+y,-z
-x,1/2+y,z
1/2+x,-y,z
loop_
_atom_site_type_symbol
_atom_site_label
_atom_site_fract_x
_atom_site_fract_y
_atom_site_fract_z
Si Si1 0.250000 0.750000 0.500000
Si Si2 0.446173 0.066916 0.826570
Si Si3 0.558098 0.787469 0.660146
Si Si4 0.141830 0.661598 0.329308
Si Si5 0.582889 0.512270 0.153283
Si Si6 0.577624 0.369662 0.632004
O O1 0.209964 0.670720 0.393928
O O2 0.437661 0.189929 0.777344
O O3 0.517255 0.042658 0.834248
O O4 0.414723 0.985906 0.708929
O O5 0.410742 0.053609 0.983444
O O6 0.586128 0.750000 0.500000
O O7 0.594172 0.888305 0.732010
O O8 0.490129 0.826724 0.635878
O O9 0.134577 0.578269 0.190542
O O10 0.120635 0.782815 0.282303
O O11 0.096616 0.617935 0.458890
#
# Coordination Sequence:
#
# PCOD8204790 Si02
#       6
#     2   8   8   8   8   8
#     4   8  20  32  60  70  98 116 184 222 272 272
#     4  10  19  29  41  72 103 143 161 193 242 323
#     4  11  17  28  44  69  99 139 168 197 232 315
#     4  10  17  35  48  76  89 133 167 224 250 295
#     4  10  20  28  45  67 107 135 168 199 250 298
#     4   9  17  28  47  64  98 129 169 202 240 294
#
# _framework density 17.372271000000001
#
# number of rings (size 3 to 8) (size 9 to 14) (size 15 to 20)
#    0.000    2.286    3.810    1.714    0.000    3.810 
#    0.000    0.000    0.000    9.143    0.000   16.667 
#    0.000   18.286    0.000    0.000    0.000    0.000 
#
# Total GULP energy -520615.749305 kJ/mol
# GULP energy per Si atom -12395.613079 kJ/mol
# Density = 1.733273 g / cm^3
# Si number density = 17.372271 Si / 1000 Ang^3
#
#
#
# Elastic Constant Matrix: (Units=GPa)
#
#
# Indices 1 2 3 4 5 6 
#
# 1 44.6606 10.0987 16.1506 0.0000 0.0000 0.0000
# 2 10.0987 74.4296 24.3046 0.0000 0.0000 0.0000
# 3 16.1506 24.3046 77.1259 0.0000 0.0000 0.0000
# 4 0.0000 0.0000 0.0000 30.7998 0.0000 0.0000
# 5 0.0000 0.0000 0.0000 0.0000 17.6519 0.0000
# 6 0.0000 0.0000 0.0000 0.0000 0.0000 10.9388
#
#
#
# Elastic Compliance Matrix: (Units=1/GPa)
#
#
# Indices 1 2 3 4 5 6 
#
# 1 0.024448 -0.001834 -0.004542 0.000000 0.000000 0.000000
# 2 -0.001834 0.015114 -0.004379 0.000000 0.000000 0.000000
# 3 -0.004542 -0.004379 0.015297 0.000000 0.000000 0.000000
# 4 0.000000 0.000000 0.000000 0.032468 0.000000 0.000000
# 5 0.000000 0.000000 0.000000 0.000000 0.056651 0.000000
# 6 0.000000 0.000000 0.000000 0.000000 0.000000 0.091418
#
#
# Mechanical properties :
#
#
# Convention : Reuss Voigt Hill
#
# Bulk Modulus (GPa) = 29.98497 33.03598 31.51047
# Shear Modulus (GPa) = 18.65521 21.58892 20.12206
#
# Velocity S-wave (km/s) = 3.28052 3.52905 3.40705
# Velocity P-wave (km/s) = 5.62555 5.97188 5.80130
#
# Compressibility (1/GPa) = 0.03335004
#
# Stress axis : x y z
#
# Youngs Moduli (GPa) = 40.90281 66.16272 65.37331
#
# Poissons Ratio (x) = 0.12135 0.29690
# Poissons Ratio (y) = 0.07502 0.28626
# Poissons Ratio (z) = 0.18577 0.28972
#
# Static dielectric constant tensor:
#      x y z
#    x 2.751710 0.000000 0.000000 
#    y 0.000000 3.430450 0.000000 
#    z 0.000000 0.000000 3.429240 
# 
# 
# High freq. dielectric constant tensor:
#      x y z
#    x 1.602910 0.000000 0.000000 
#    y 0.000000 1.685130 0.000000 
#    z 0.000000 0.000000 1.672220 
# 
# From -- ./inp_files/11349.got.cif
#   From: 2010.03.12/outbox.cif.g09.slc.cpg/sg50_6_cif.got.tgz:11349.got - 2010.04.16 13:23:21.
