data_PCOD8204146
_publ_section_title
;
Structure prediction by ZEFSAII (Michael W. Deem and Ramdas Pophale) SiO2 
 PCOD8204146
Probable space group: P C C M
;
_chemical_formula_sum "Si O2"
_cell_formula_units_Z 56
_cell_length_a 31.513671
_cell_length_b 5.060564
_cell_length_c 17.609057
_cell_angle_alpha 90.000000
_cell_angle_beta 90.000000
_cell_angle_gamma 90.000000
_cell_volume 2808.238685
_symmetry_space_group_name_H-M "P C C M"
_symmetry_group_IT_number 49
_symmetry_cell_setting 'orthorhombic'
loop_
_space_group_symop_operation_xyz
x,y,z
-x,-y,z
x,-y,1/2-z
-x,y,1/2-z
-x,-y,-z
x,y,-z
-x,y,1/2+z
x,-y,1/2+z
loop_
_atom_site_type_symbol
_atom_site_label
_atom_site_fract_x
_atom_site_fract_y
_atom_site_fract_z
Si Si1 0.302465 0.756045 0.800029
Si Si2 0.526922 0.751609 0.589046
Si Si3 0.089662 0.015589 0.660454
Si Si4 0.176978 0.101271 0.086067
Si Si5 0.602276 0.240624 0.800386
Si Si6 0.768050 0.411240 0.915146
Si Si7 0.049264 0.523232 0.588769
O O1 0.304700 0.500000 0.750000
O O2 0.349890 0.820586 0.829786
O O3 0.272373 0.691078 0.869871
O O4 0.284627 0.000000 0.750000
O O5 0.500000 0.500000 0.613655
O O6 0.535326 0.765306 0.500000
O O7 0.572992 0.734981 0.626265
O O8 0.500000 0.000000 0.618093
O O9 0.137268 0.923611 0.641606
O O10 0.059113 0.816604 0.616695
O O11 0.082528 0.000000 0.750000
O O12 0.078323 0.310538 0.632768
O O13 0.209643 0.323709 0.118355
O O14 0.197486 0.816002 0.085157
O O15 0.162964 0.181390 0.000000
O O16 0.600042 0.500000 0.750000
O O17 0.585353 0.000000 0.750000
O O18 0.751895 0.473886 0.000000
O O19 0.059010 0.491318 0.500000
O O20 0.000000 0.500000 0.607608
#
# Coordination Sequence:
#
# PCOD8204146 Si02
#       7
#     8   8   8   8   8   8   8
#     4  10  21  37  56  81 113 146 181 229 283 334
#     4  10  21  36  54  79 110 143 182 230 282 331
#     4  12  25  40  62  93 124 154 194 246 297 342
#     4  10  21  38  59  84 116 151 188 230 277 337
#     4  10  21  36  55  80 109 144 186 226 274 336
#     4  10  21  37  59  84 109 145 190 231 275 331
#     4  11  24  43  66  89 118 161 203 237 287 353
#
# _framework density 19.941326
#
# number of rings (size 3 to 8) (size 9 to 14) (size 15 to 20)
#    0.000    1.571    0.000    4.714    0.000    8.000 
#    0.000    0.000    0.000   10.286    0.000    0.000 
#    0.000    0.000    0.000    0.000    0.000    0.000 
#
# Total GULP energy -694501.505805 kJ/mol
# GULP energy per Si atom -12401.812604 kJ/mol
# Density = 1.989594 g / cm^3
# Si number density = 19.941326 Si / 1000 Ang^3
#
#
#
# Elastic Constant Matrix: (Units=GPa)
#
#
# Indices 1 2 3 4 5 6 
#
# 1 103.7829 17.1632 50.2912 0.0000 0.0000 0.0000
# 2 17.1632 106.4193 13.9467 0.0000 0.0000 0.0000
# 3 50.2912 13.9467 69.0863 0.0000 0.0000 0.0000
# 4 0.0000 0.0000 0.0000 686.3898 0.0000 0.0000
# 5 0.0000 0.0000 0.0000 0.0000 30.7497 0.0000
# 6 0.0000 0.0000 0.0000 0.0000 0.0000 26.3469
#
#
#
# Elastic Compliance Matrix: (Units=1/GPa)
#
#
# Indices 1 2 3 4 5 6 
#
# 1 0.014993 -0.001015 -0.010709 0.000000 0.000000 0.000000
# 2 -0.001015 0.009721 -0.001224 0.000000 0.000000 0.000000
# 3 -0.010709 -0.001224 0.022517 0.000000 0.000000 0.000000
# 4 0.000000 0.000000 0.000000 0.001457 0.000000 0.000000
# 5 0.000000 0.000000 0.000000 0.000000 0.032521 0.000000
# 6 0.000000 0.000000 0.000000 0.000000 0.000000 0.037955
#
#
# Mechanical properties :
#
#
# Convention : Reuss Voigt Hill
#
# Bulk Modulus (GPa) = 46.86929 49.12120 47.99524
# Shear Modulus (GPa) = 32.85791 161.88979 97.37385
#
# Velocity S-wave (km/s) = 4.06363 9.01994 6.99544
# Velocity P-wave (km/s) = 6.75071 11.53973 9.45350
#
# Compressibility (1/GPa) = 0.02133593
#
# Stress axis : x y z
#
# Youngs Moduli (GPa) = 66.69916 102.87214 44.41014
#
# Poissons Ratio (x) = 0.10437 0.47559
# Poissons Ratio (y) = 0.06767 0.05435
# Poissons Ratio (z) = 0.71429 0.12590
#
# Static dielectric constant tensor:
#      x y z
#    x 3.741920 0.000000 0.000000 
#    y 0.000000 3.908100 0.000000 
#    z 0.000000 0.000000 3.509010 
# 
# 
# High freq. dielectric constant tensor:
#      x y z
#    x 1.781870 0.000000 0.000000 
#    y 0.000000 1.801600 0.000000 
#    z 0.000000 0.000000 1.767350 
# 
# From -- ./inp_files/14624.got.cif
#   From: 2010.03.12/outbox.cif.g09.slc.cpg/sg49_8_cif.got.tgz:14624.got - 2010.04.14 03:58:27.
