data_PCOD8204139
_publ_section_title
;
Structure prediction by ZEFSAII (Michael W. Deem and Ramdas Pophale) SiO2 
 PCOD8204139
Probable space group: P C C M
;
_chemical_formula_sum "Si O2"
_cell_formula_units_Z 56
_cell_length_a 9.958269
_cell_length_b 18.227058
_cell_length_c 15.072564
_cell_angle_alpha 90.000000
_cell_angle_beta 90.000000
_cell_angle_gamma 90.000000
_cell_volume 2735.820287
_symmetry_space_group_name_H-M "P C C M"
_symmetry_group_IT_number 49
_symmetry_cell_setting 'orthorhombic'
loop_
_space_group_symop_operation_xyz
x,y,z
-x,-y,z
x,-y,1/2-z
-x,y,1/2-z
-x,-y,-z
x,y,-z
-x,y,1/2+z
x,-y,1/2+z
loop_
_atom_site_type_symbol
_atom_site_label
_atom_site_fract_x
_atom_site_fract_y
_atom_site_fract_z
Si Si1 0.983279 0.777466 0.149704
Si Si2 0.158944 0.584284 0.751912
Si Si3 0.498185 0.221409 0.604974
Si Si4 0.258366 0.682509 0.600350
Si Si5 0.404583 0.065060 0.894192
Si Si6 0.903055 0.065397 0.604995
Si Si7 0.238012 0.303705 0.600112
O O1 0.109192 0.748438 0.094674
O O2 0.000000 0.747813 0.250000
O O3 0.851256 0.746388 0.103701
O O4 0.972022 0.864555 0.149520
O O5 0.202521 0.500000 0.750000
O O6 0.220299 0.614893 0.661553
O O7 0.218233 0.625024 0.838309
O O8 0.000000 0.593916 0.750000
O O9 0.499466 0.213791 0.500000
O O10 0.605065 0.281818 0.636160
O O11 0.535224 0.141449 0.644644
O O12 0.355367 0.251465 0.639085
O O13 0.272277 0.653139 0.500000
O O14 0.250494 0.053473 0.861631
O O15 0.500000 0.000000 0.857398
O O16 0.407311 0.065446 0.000000
O O17 0.904441 0.075649 0.500000
O O18 0.000000 0.000000 0.635723
O O19 0.270947 0.331213 0.500000
#
# Coordination Sequence:
#
# PCOD8204139 Si02
#       7
#     8   8   8   8   8   8   8
#     4  12  22  38  60  87 121 162 212 257 297 359
#     4  11  24  42  63  96 128 154 199 249 303 372
#     4   9  20  35  59  89 120 160 207 251 299 363
#     4  11  20  40  65  89 120 163 206 246 300 361
#     4   9  17  31  51  82 121 155 197 255 307 353
#     4  10  21  35  56  86 117 159 209 254 307 363
#     4  11  22  39  62  93 126 159 202 252 303 358
#
# _framework density 20.469180999999999
#
# number of rings (size 3 to 8) (size 9 to 14) (size 15 to 20)
#    0.000    1.571    4.286    1.286    2.000    1.429 
#    0.000    2.857    0.000    2.571    0.000    0.000 
#    0.000    0.000    0.000    0.000    0.000    0.000 
#
# Total GULP energy -694436.163644 kJ/mol
# GULP energy per Si atom -12400.645779 kJ/mol
# Density = 2.042259 g / cm^3
# Si number density = 20.469181 Si / 1000 Ang^3
#
#
#
# Elastic Constant Matrix: (Units=GPa)
#
#
# Indices 1 2 3 4 5 6 
#
# 1 93.7871 52.6973 17.8514 0.0000 0.0000 0.0000
# 2 52.6973 160.7413 43.0732 0.0000 0.0000 0.0000
# 3 17.8514 43.0732 70.2161 0.0000 0.0000 0.0000
# 4 0.0000 0.0000 0.0000 166.1008 0.0000 0.0000
# 5 0.0000 0.0000 0.0000 0.0000 50.0724 0.0000
# 6 0.0000 0.0000 0.0000 0.0000 0.0000 28.6224
#
#
#
# Elastic Compliance Matrix: (Units=1/GPa)
#
#
# Indices 1 2 3 4 5 6 
#
# 1 0.013111 -0.004075 -0.000834 0.000000 0.000000 0.000000
# 2 -0.004075 0.008711 -0.004308 0.000000 0.000000 0.000000
# 3 -0.000834 -0.004308 0.017096 0.000000 0.000000 0.000000
# 4 0.000000 0.000000 0.000000 0.006020 0.000000 0.000000
# 5 0.000000 0.000000 0.000000 0.000000 0.019971 0.000000
# 6 0.000000 0.000000 0.000000 0.000000 0.000000 0.034938
#
#
# Mechanical properties :
#
#
# Convention : Reuss Voigt Hill
#
# Bulk Modulus (GPa) = 48.81434 61.33203 55.07318
# Shear Modulus (GPa) = 39.96517 63.03397 51.49957
#
# Velocity S-wave (km/s) = 4.42345 5.55531 5.02137
# Velocity P-wave (km/s) = 7.07027 8.43663 7.78349
#
# Compressibility (1/GPa) = 0.02048578
#
# Stress axis : x y z
#
# Youngs Moduli (GPa) = 76.27375 114.79143 58.49207
#
# Poissons Ratio (x) = 0.46776 0.04876
# Poissons Ratio (y) = 0.31080 0.25198
# Poissons Ratio (z) = 0.06358 0.49452
#
# Static dielectric constant tensor:
#      x y z
#    x 3.917750 0.000000 0.000000 
#    y 0.000000 3.727190 0.000000 
#    z 0.000000 0.000000 3.905840 
# 
# 
# High freq. dielectric constant tensor:
#      x y z
#    x 1.808900 0.000000 0.000000 
#    y 0.000000 1.792800 0.000000 
#    z 0.000000 0.000000 1.788240 
# 
# From -- ./inp_files/11992.got.cif
#   From: 2010.03.12/outbox.cif.g09.slc.cpg/sg49_6_cif.got.tgz:11992.got - 2010.04.14 03:58:27.
