data_PCOD8204803
_publ_section_title
;
Structure prediction by ZEFSAII (Michael W. Deem and Ramdas Pophale) SiO2 
 PCOD8204803
Probable space group: P B A N
;
_chemical_formula_sum "Si O2"
_cell_formula_units_Z 64
_cell_length_a 22.866534
_cell_length_b 10.326399
_cell_length_c 16.565097
_cell_angle_alpha 90.000000
_cell_angle_beta 90.000000
_cell_angle_gamma 90.000000
_cell_volume 3911.499025
_symmetry_space_group_name_H-M "P B A N"
_symmetry_group_IT_number 50
_space_group.IT_coordinate_system_code '2'
_symmetry_cell_setting 'orthorhombic'
loop_
_space_group_symop_operation_xyz
x,y,z
1/2-x,1/2-y,z
x,1/2-y,-z
1/2-x,y,-z
-x,-y,-z
1/2+x,1/2+y,-z
-x,1/2+y,z
1/2+x,-y,z
loop_
_atom_site_type_symbol
_atom_site_label
_atom_site_fract_x
_atom_site_fract_y
_atom_site_fract_z
Si Si1 0.570905 0.750000 0.091028
Si Si2 0.930539 0.001445 0.187484
Si Si3 0.250000 0.903440 0.409660
Si Si4 0.050838 0.896328 0.500000
Si Si5 0.127349 0.600239 0.657647
Si Si6 0.067805 0.750000 0.910378
Si Si7 0.627349 0.100239 0.657647
Si Si8 0.069461 0.998555 0.187484
O O1 0.592059 0.624557 0.140125
O O2 0.501625 0.750000 0.084715
O O3 0.592059 0.875442 0.140125
O O4 0.597272 0.750000 0.000000
O O5 0.909817 0.123275 0.135116
O O6 0.899322 0.007989 0.273873
O O7 0.000000 0.000000 0.201457
O O8 0.250000 0.750000 0.419049
O O9 0.250000 0.964189 0.500000
O O10 0.193097 0.947963 0.359968
O O11 0.306903 0.947963 0.359968
O O12 0.025044 0.750000 0.500000
O O13 0.090363 0.919387 0.422560
O O14 0.090363 0.919387 0.577441
O O15 0.000000 0.000000 0.500000
O O16 0.125470 0.750000 0.685737
O O17 0.100678 0.507989 0.726127
O O18 0.090183 0.623275 0.864884
O O19 0.094724 0.750000 0.000000
#
# Coordination Sequence:
#
# PCOD8204803 Si02
#       8
#     8   8   8   8   8   8   8   8
#     4   9  18  30  46  70  99 134 166 194 237 303
#     4  10  18  29  46  72 104 130 163 201 244 296
#     4   9  16  30  52  73  92 125 169 217 247 279
#     4  10  20  33  49  73 105 136 163 192 242 304
#     4  10  18  31  50  73  99 129 167 208 248 284
#     4   9  16  28  46  68  99 132 160 200 249 293
#     4  10  18  31  50  73  99 129 167 208 248 284
#     4  10  18  29  46  72 104 130 163 201 244 296
#
# _framework density 16.362012
#
# number of rings (size 3 to 8) (size 9 to 14) (size 15 to 20)
#    0.000    2.375    2.500    1.500    0.000    3.000 
#    2.250    0.000    0.000    0.750    0.000    7.000 
#    0.000    0.000    0.000    0.000    0.000    0.000 
#
# Total GULP energy -793538.901894 kJ/mol
# GULP energy per Si atom -12399.045342 kJ/mol
# Density = 1.632477 g / cm^3
# Si number density = 16.362012 Si / 1000 Ang^3
#
#
#
# Elastic Constant Matrix: (Units=GPa)
#
#
# Indices 1 2 3 4 5 6 
#
# 1 78.0003 39.0736 45.6999 0.0000 0.0000 0.0000
# 2 39.0736 112.2362 67.7888 0.0000 0.0000 0.0000
# 3 45.6999 67.7888 152.1204 0.0000 0.0000 0.0000
# 4 0.0000 0.0000 0.0000 29.9318 0.0000 0.0000
# 5 0.0000 0.0000 0.0000 0.0000 -18.2489 0.0000
# 6 0.0000 0.0000 0.0000 0.0000 0.0000 11.6436
#
#
#
# Elastic Compliance Matrix: (Units=1/GPa)
#
#
# Indices 1 2 3 4 5 6 
#
# 1 0.016665 -0.003801 -0.003313 0.000000 0.000000 0.000000
# 2 -0.003801 0.013058 -0.004677 0.000000 0.000000 0.000000
# 3 -0.003313 -0.004677 0.009653 0.000000 0.000000 0.000000
# 4 0.000000 0.000000 0.000000 0.033409 0.000000 0.000000
# 5 0.000000 0.000000 0.000000 0.000000 -0.054798 0.000000
# 6 0.000000 0.000000 0.000000 0.000000 0.000000 0.085884
#
#
# Mechanical properties :
#
#
# Convention : Reuss Voigt Hill
#
# Bulk Modulus (GPa) = 63.31169 71.94239 67.62704
# Shear Modulus (GPa) = 37.67365 17.31827 27.49596
#
# Velocity S-wave (km/s) = 4.80365 3.25690 4.10381
# Velocity P-wave (km/s) = 8.33937 7.62941 7.99227
#
# Compressibility (1/GPa) = 0.01579487
#
# Stress axis : x y z
#
# Youngs Moduli (GPa) = 60.00423 76.58202 103.59267
#
# Poissons Ratio (x) = 0.29109 0.34318
# Poissons Ratio (y) = 0.22807 0.48451
# Poissons Ratio (z) = 0.19878 0.35818
#
# Static dielectric constant tensor:
#      x y z
#    x 2.860160 0.000000 0.000000 
#    y 0.000000 3.026900 0.000000 
#    z 0.000000 0.000000 3.288450 
# 
# 
# High freq. dielectric constant tensor:
#      x y z
#    x 1.589050 0.000000 0.000000 
#    y 0.000000 1.614360 0.000000 
#    z 0.000000 0.000000 1.646410 
# 
# From -- ./inp_files/29862.got.cif
#   From: 2010.03.12/outbox.cif.g09.slc.cpg/sg50_15_cif.got.tgz:29862.got - 2010.04.16 13:23:21.
