data_PCOD8204422
_publ_section_title
;
Structure prediction by ZEFSAII (Michael W. Deem and Ramdas Pophale) SiO2 
 PCOD8204422
Probable space group: P C C M
;
_chemical_formula_sum "Si O2"
_cell_formula_units_Z 34
_cell_length_a 19.754414
_cell_length_b 5.171591
_cell_length_c 13.194161
_cell_angle_alpha 90.000000
_cell_angle_beta 90.000000
_cell_angle_gamma 90.000000
_cell_volume 1347.938573
_symmetry_space_group_name_H-M "P C C M"
_symmetry_group_IT_number 49
_symmetry_cell_setting 'orthorhombic'
loop_
_space_group_symop_operation_xyz
x,y,z
-x,-y,z
x,-y,1/2-z
-x,y,1/2-z
-x,-y,-z
x,y,-z
-x,y,1/2+z
x,-y,1/2+z
loop_
_atom_site_type_symbol
_atom_site_label
_atom_site_fract_x
_atom_site_fract_y
_atom_site_fract_z
Si Si1 0.431074 0.608823 0.615531
Si Si2 0.200407 0.852402 0.119912
Si Si3 0.881319 0.647766 0.120287
Si Si4 0.350026 0.905941 0.116700
Si Si5 0.000000 0.500000 0.750000
O O1 0.500000 0.500000 0.667595
O O2 0.448685 0.682349 0.500000
O O3 0.378937 0.378594 0.627617
O O4 0.397056 0.865526 0.668142
O O5 0.158901 0.605250 0.160195
O O6 0.275752 0.883316 0.166158
O O7 0.161808 0.107587 0.154808
O O8 0.206071 0.824512 0.000000
O O9 0.953476 0.672796 0.175952
O O10 0.893733 0.642524 0.000000
O O11 0.343580 0.991830 0.000000
#
# Coordination Sequence:
#
# PCOD8204422 Si02
#       5
#     8   8   8   8   2
#     4   9  15  21  32  57  94 135 179 223 268 321
#     4   9  18  34  54  76 104 143 190 234 272 324
#     4  10  22  39  59  84 113 145 186 228 273 331
#     4   9  15  24  40  60  89 135 182 220 268 318
#     4  12  26  42  64  88 116 150 176 222 284 340
#
# _framework density 25.223700999999998
#
# number of rings (size 3 to 8) (size 9 to 14) (size 15 to 20)
#    0.000    2.588    0.000    2.471    0.000   11.294 
#    0.000    3.529    0.000    0.000    0.000    0.000 
#    0.000    0.000    0.000   74.118    0.000  181.176 
#
# Total GULP energy -421451.312002 kJ/mol
# GULP energy per Si atom -12395.626824 kJ/mol
# Density = 2.516629 g / cm^3
# Si number density = 25.223701 Si / 1000 Ang^3
#
#
#
# Elastic Constant Matrix: (Units=GPa)
#
#
# Indices 1 2 3 4 5 6 
#
# 1 225.0959 84.5348 18.0780 0.0000 0.0000 0.0000
# 2 84.5348 178.6242 22.1487 0.0000 0.0000 0.0000
# 3 18.0780 22.1487 36.4071 0.0000 0.0000 0.0000
# 4 0.0000 0.0000 0.0000 11.9946 0.0000 0.0000
# 5 0.0000 0.0000 0.0000 0.0000 -682.6652 0.0000
# 6 0.0000 0.0000 0.0000 0.0000 0.0000 30.9914
#
#
#
# Elastic Compliance Matrix: (Units=1/GPa)
#
#
# Indices 1 2 3 4 5 6 
#
# 1 0.005453 -0.002428 -0.001231 0.000000 0.000000 0.000000
# 2 -0.002428 0.007136 -0.003136 0.000000 0.000000 0.000000
# 3 -0.001231 -0.003136 0.029986 0.000000 0.000000 0.000000
# 4 0.000000 0.000000 0.000000 0.083371 0.000000 0.000000
# 5 0.000000 0.000000 0.000000 0.000000 -0.001465 0.000000
# 6 0.000000 0.000000 0.000000 0.000000 0.000000 0.032267
#
#
# Mechanical properties :
#
#
# Convention : Reuss Voigt Hill
#
# Bulk Modulus (GPa) = 34.49894 76.62780 55.56337
# Shear Modulus (GPa) = 27.77779 -106.91148 -39.56685
#
# Velocity S-wave (km/s) = 3.32212 -6.51746 -3.96490
# Velocity P-wave (km/s) = 5.33125 5.11774 1.05617
#
# Compressibility (1/GPa) = 0.02898639
#
# Stress axis : x y z
#
# Youngs Moduli (GPa) = 183.37525 140.12803 33.34901
#
# Poissons Ratio (x) = 0.34026 0.04104
# Poissons Ratio (y) = 0.44527 0.10457
# Poissons Ratio (z) = 0.22566 0.43941
#
# Static dielectric constant tensor:
#      x y z
#    x 4.707790 0.000000 0.000000 
#    y 0.000000 4.456010 0.000000 
#    z 0.000000 0.000000 4.590820 
# 
# 
# High freq. dielectric constant tensor:
#      x y z
#    x 2.009000 0.000000 0.000000 
#    y 0.000000 2.006870 0.000000 
#    z 0.000000 0.000000 2.021540 
# 
# From -- ./inp_files/14287.got.cif
#   From: 2010.03.12/outbox.cif.g09.slc.cpg/sg49_8_cif.got.tgz:14287.got - 2010.04.14 03:58:27.
