data_PCOD8204448
_publ_section_title
;
Structure prediction by ZEFSAII (Michael W. Deem and Ramdas Pophale) SiO2 
 PCOD8204448
Probable space group: P C C M
;
_chemical_formula_sum "Si O2"
_cell_formula_units_Z 64
_cell_length_a 23.338635
_cell_length_b 15.128520
_cell_length_c 8.748158
_cell_angle_alpha 90.000000
_cell_angle_beta 90.000000
_cell_angle_gamma 90.000000
_cell_volume 3088.790934
_symmetry_space_group_name_H-M "P C C M"
_symmetry_group_IT_number 49
_symmetry_cell_setting 'orthorhombic'
loop_
_space_group_symop_operation_xyz
x,y,z
-x,-y,z
x,-y,1/2-z
-x,y,1/2-z
-x,-y,-z
x,y,-z
-x,y,1/2+z
x,-y,1/2+z
loop_
_atom_site_type_symbol
_atom_site_label
_atom_site_fract_x
_atom_site_fract_y
_atom_site_fract_z
Si Si1 0.794047 0.908805 0.818057
Si Si2 0.442339 0.405693 0.821637
Si Si3 0.558107 0.097179 0.317279
Si Si4 0.337485 0.343208 0.669385
Si Si5 0.937766 0.407350 0.818669
Si Si6 0.323085 0.853504 0.172374
Si Si7 0.765050 0.419194 0.670847
Si Si8 0.145437 0.269809 0.827107
O O1 0.729012 0.901722 0.757395
O O2 0.835913 0.827640 0.765836
O O3 0.820181 0.000000 0.750000
O O4 0.791938 0.912176 0.000000
O O5 0.426863 0.500000 0.750000
O O6 0.500000 0.366459 0.750000
O O7 0.392117 0.337868 0.780833
O O8 0.450684 0.415317 0.000000
O O9 0.500000 0.144086 0.250000
O O10 0.555367 0.098123 0.500000
O O11 0.616979 0.141209 0.261901
O O12 0.559263 0.000000 0.250000
O O13 0.357085 0.372290 0.500000
O O14 0.306573 0.248916 0.665739
O O15 0.293081 0.413721 0.733404
O O16 0.913037 0.500000 0.750000
O O17 0.900641 0.320347 0.777699
O O18 0.000000 0.389979 0.750000
O O19 0.940728 0.417377 0.000000
O O20 0.329287 0.892506 0.000000
O O21 0.800537 0.500000 0.750000
O O22 0.749958 0.446580 0.500000
O O23 0.797454 0.327256 0.675434
O O24 0.121096 0.263147 0.000000
#
# Coordination Sequence:
#
# PCOD8204448 Si02
#       8
#     8   8   8   8   8   8   8   8
#     4  11  23  41  64  91 124 163 209 261 317 374
#     4  11  22  38  58  77 102 136 182 234 289 353
#     4  11  22  38  59  81 108 139 180 233 297 369
#     4  11  23  38  56  79 109 144 187 238 291 353
#     4  11  22  38  64  97 138 181 223 263 309 363
#     4  11  23  39  59  83 113 149 194 246 303 368
#     4  11  22  37  57  84 119 158 198 242 299 356
#     4  10  22  40  62  91 128 167 212 261 308 361
#
# _framework density 20.720079999999999
#
# number of rings (size 3 to 8) (size 9 to 14) (size 15 to 20)
#    0.000    1.125    1.250    7.125    0.000    5.000 
#    0.000    0.000    0.000    0.375    0.000    2.625 
#    0.000    0.000    0.000    0.000    0.000    0.000 
#
# Total GULP energy -793382.243805 kJ/mol
# GULP energy per Si atom -12396.597559 kJ/mol
# Density = 2.067292 g / cm^3
# Si number density = 20.720080 Si / 1000 Ang^3
#
#
#
# Elastic Constant Matrix: (Units=GPa)
#
#
# Indices 1 2 3 4 5 6 
#
# 1 91.6145 39.3834 50.3372 0.0000 0.0000 0.0000
# 2 39.3834 119.3819 50.2142 0.0000 0.0000 0.0000
# 3 50.3372 50.2142 175.7669 0.0000 0.0000 0.0000
# 4 0.0000 0.0000 0.0000 30.0641 0.0000 0.0000
# 5 0.0000 0.0000 0.0000 0.0000 31.7546 0.0000
# 6 0.0000 0.0000 0.0000 0.0000 0.0000 24.1004
#
#
#
# Elastic Compliance Matrix: (Units=1/GPa)
#
#
# Indices 1 2 3 4 5 6 
#
# 1 0.014036 -0.003341 -0.003065 0.000000 0.000000 0.000000
# 2 -0.003341 0.010316 -0.001990 0.000000 0.000000 0.000000
# 3 -0.003065 -0.001990 0.007136 0.000000 0.000000 0.000000
# 4 0.000000 0.000000 0.000000 0.033262 0.000000 0.000000
# 5 0.000000 0.000000 0.000000 0.000000 0.031491 0.000000
# 6 0.000000 0.000000 0.000000 0.000000 0.000000 0.041493
#
#
# Mechanical properties :
#
#
# Convention : Reuss Voigt Hill
#
# Bulk Modulus (GPa) = 68.05326 74.07034 71.06180
# Shear Modulus (GPa) = 31.36271 33.63907 32.50089
#
# Velocity S-wave (km/s) = 3.89477 4.03364 3.96481
# Velocity P-wave (km/s) = 7.28979 7.58415 7.43843
#
# Compressibility (1/GPa) = 0.01469437
#
# Stress axis : x y z
#
# Youngs Moduli (GPa) = 71.24698 96.93859 140.13933
#
# Poissons Ratio (x) = 0.32388 0.42955
# Poissons Ratio (y) = 0.23804 0.27891
# Poissons Ratio (z) = 0.21838 0.19293
#
# Static dielectric constant tensor:
#      x y z
#    x 3.664300 0.000000 0.000000 
#    y 0.000000 3.828380 0.000000 
#    z 0.000000 0.000000 3.848340 
# 
# 
# High freq. dielectric constant tensor:
#      x y z
#    x 1.793120 0.000000 0.000000 
#    y 0.000000 1.809550 0.000000 
#    z 0.000000 0.000000 1.824820 
# 
# From -- ./inp_files/6542.got.cif
#   From: 2010.03.12/outbox.cif.g09.slc.cpg/sg49_4_cif.got.tgz:6542.got - 2010.04.14 03:58:27.
