data_PCOD8204306
_publ_section_title
;
Structure prediction by ZEFSAII (Michael W. Deem and Ramdas Pophale) SiO2 
 PCOD8204306
Probable space group: P C C M
;
_chemical_formula_sum "Si O2"
_cell_formula_units_Z 64
_cell_length_a 12.442315
_cell_length_b 14.042443
_cell_length_c 17.567096
_cell_angle_alpha 90.000000
_cell_angle_beta 90.000000
_cell_angle_gamma 90.000000
_cell_volume 3069.331782
_symmetry_space_group_name_H-M "P C C M"
_symmetry_group_IT_number 49
_symmetry_cell_setting 'orthorhombic'
loop_
_space_group_symop_operation_xyz
x,y,z
-x,-y,z
x,-y,1/2-z
-x,y,1/2-z
-x,-y,-z
x,y,-z
-x,y,1/2+z
x,-y,1/2+z
loop_
_atom_site_type_symbol
_atom_site_label
_atom_site_fract_x
_atom_site_fract_y
_atom_site_fract_z
Si Si1 0.866953 0.245604 0.414230
Si Si2 0.617497 0.525900 0.161332
Si Si3 0.531280 0.897256 0.410011
Si Si4 0.625477 0.269497 0.411535
Si Si5 0.760733 0.167552 0.086512
Si Si6 0.996708 0.604371 0.660656
Si Si7 0.778552 0.621085 0.414092
Si Si8 0.977790 0.110705 0.165469
O O1 0.895488 0.272593 0.500000
O O2 0.742083 0.220654 0.404377
O O3 0.899449 0.337127 0.364883
O O4 0.936391 0.154643 0.391806
O O5 0.500000 0.500000 0.129813
O O6 0.627710 0.500000 0.250000
O O7 0.629495 0.637587 0.142625
O O8 0.708368 0.463990 0.120008
O O9 0.514190 0.897223 0.500000
O O10 0.459066 0.808625 0.379096
O O11 0.655422 0.888451 0.386788
O O12 0.500000 0.000000 0.375097
O O13 0.601572 0.298049 0.500000
O O14 0.719706 0.277293 0.089537
O O15 0.856890 0.138096 0.142345
O O16 0.795046 0.141646 0.000000
O O17 0.000000 0.500000 0.623960
O O18 0.000000 0.599035 0.750000
O O19 0.885739 0.648623 0.632244
O O20 0.807105 0.591342 0.500000
O O21 0.000000 0.151923 0.250000
O O22 0.000000 0.000000 0.163105
#
# Coordination Sequence:
#
# PCOD8204306 Si02
#       8
#     8   8   8   8   8   8   8   8
#     4  11  23  40  63  94 129 165 210 263 320 385
#     4  11  25  41  62  92 125 171 221 267 327 390
#     4   9  19  37  63  96 128 162 207 259 320 383
#     4  10  22  39  62  95 132 169 209 265 328 385
#     4  10  21  38  64  94 122 157 208 262 313 377
#     4  11  24  38  60  91 125 171 209 257 318 382
#     4  11  23  39  63  92 124 166 215 266 319 384
#     4  11  25  42  62  91 123 169 211 260 327 389
#
# _framework density 20.851443
#
# number of rings (size 3 to 8) (size 9 to 14) (size 15 to 20)
#    0.000    1.500    1.250    3.000    5.250    5.000 
#    0.000    0.000    0.000    0.000    0.000    0.000 
#    0.000    0.000    0.000    0.000    0.000    0.125 
#
# Total GULP energy -793453.676067 kJ/mol
# GULP energy per Si atom -12397.713689 kJ/mol
# Density = 2.080398 g / cm^3
# Si number density = 20.851443 Si / 1000 Ang^3
#
#
#
# Elastic Constant Matrix: (Units=GPa)
#
#
# Indices 1 2 3 4 5 6 
#
# 1 132.4121 49.3062 50.1629 0.0000 0.0000 0.0000
# 2 49.3062 125.1812 39.4032 0.0000 0.0000 0.0000
# 3 50.1629 39.4032 82.8247 0.0000 0.0000 0.0000
# 4 0.0000 0.0000 0.0000 54.4571 0.0000 0.0000
# 5 0.0000 0.0000 0.0000 0.0000 22.9105 0.0000
# 6 0.0000 0.0000 0.0000 0.0000 0.0000 38.2474
#
#
#
# Elastic Compliance Matrix: (Units=1/GPa)
#
#
# Indices 1 2 3 4 5 6 
#
# 1 0.010422 -0.002491 -0.005127 0.000000 0.000000 0.000000
# 2 -0.002491 0.009991 -0.003244 0.000000 0.000000 0.000000
# 3 -0.005127 -0.003244 0.016722 0.000000 0.000000 0.000000
# 4 0.000000 0.000000 0.000000 0.018363 0.000000 0.000000
# 5 0.000000 0.000000 0.000000 0.000000 0.043648 0.000000
# 6 0.000000 0.000000 0.000000 0.000000 0.000000 0.026146
#
#
# Mechanical properties :
#
#
# Convention : Reuss Voigt Hill
#
# Bulk Modulus (GPa) = 64.89158 68.68473 66.78815
# Shear Modulus (GPa) = 32.86149 36.55938 34.71044
#
# Velocity S-wave (km/s) = 3.97417 4.19182 4.08444
# Velocity P-wave (km/s) = 7.22822 7.51265 7.37181
#
# Compressibility (1/GPa) = 0.01541032
#
# Stress axis : x y z
#
# Youngs Moduli (GPa) = 95.94955 100.09148 59.80043
#
# Poissons Ratio (x) = 0.24935 0.30660
# Poissons Ratio (y) = 0.23903 0.19401
# Poissons Ratio (z) = 0.49193 0.32472
#
# Static dielectric constant tensor:
#      x y z
#    x 3.838810 0.000000 0.000000 
#    y 0.000000 3.920660 0.000000 
#    z 0.000000 0.000000 3.703030 
# 
# 
# High freq. dielectric constant tensor:
#      x y z
#    x 1.826630 0.000000 0.000000 
#    y 0.000000 1.826540 0.000000 
#    z 0.000000 0.000000 1.801310 
# 
# From -- ./inp_files/17313.got.cif
#   From: 2010.03.12/outbox.cif.g09.slc.cpg/sg49_9_cif.got.tgz:17313.got - 2010.04.14 03:58:27.
