data_PCOD8204091
_publ_section_title
;
Structure prediction by ZEFSAII (Michael W. Deem and Ramdas Pophale) SiO2 
 PCOD8204091
Probable space group: P C C M
;
_chemical_formula_sum "Si O2"
_cell_formula_units_Z 40
_cell_length_a 8.788668
_cell_length_b 12.347538
_cell_length_c 16.211397
_cell_angle_alpha 90.000000
_cell_angle_beta 90.000000
_cell_angle_gamma 90.000000
_cell_volume 1759.235060
_symmetry_space_group_name_H-M "P C C M"
_symmetry_group_IT_number 49
_symmetry_cell_setting 'orthorhombic'
loop_
_space_group_symop_operation_xyz
x,y,z
-x,-y,z
x,-y,1/2-z
-x,y,1/2-z
-x,-y,-z
x,y,-z
-x,y,1/2+z
x,-y,1/2+z
loop_
_atom_site_type_symbol
_atom_site_label
_atom_site_fract_x
_atom_site_fract_y
_atom_site_fract_z
Si Si1 0.173511 0.022676 0.155079
Si Si2 0.908472 0.642552 0.335652
Si Si3 0.802101 0.563576 0.092947
Si Si4 0.648230 0.223023 0.402721
Si Si5 0.690782 0.184375 0.905688
O O1 0.225496 0.145379 0.138328
O O2 0.202558 0.000000 0.250000
O O3 0.275208 0.942860 0.099773
O O4 0.000000 0.000000 0.129829
O O5 0.796499 0.537761 0.343377
O O6 0.812063 0.751187 0.349277
O O7 0.000000 0.647621 0.250000
O O8 0.033077 0.623226 0.407226
O O9 0.680845 0.652993 0.123033
O O10 0.765093 0.524604 0.000000
O O11 0.661175 0.206444 0.500000
O O12 0.478814 0.199460 0.370395
O O13 0.701885 0.224848 0.000000
#
# Coordination Sequence:
#
# PCOD8204091 Si02
#       5
#     8   8   8   8   8
#     4  11  25  42  65  97 134 177 225 276 330 393
#     4  11  23  39  63  95 130 170 218 275 326 388
#     4  10  20  39  66  93 127 170 219 269 324 391
#     4  10  23  42  66  98 134 175 224 275 331 398
#     4  11  24  42  67  97 134 178 222 273 334 400
#
# _framework density 22.737154
#
# number of rings (size 3 to 8) (size 9 to 14) (size 15 to 20)
#    0.000    1.400    0.000    6.000    5.600    7.200 
#    3.600    3.000    0.000    4.800    0.000    0.000 
#    0.000    0.000    0.000    0.000    0.000    0.000 
#
# Total GULP energy -496015.032562 kJ/mol
# GULP energy per Si atom -12400.375814 kJ/mol
# Density = 2.268540 g / cm^3
# Si number density = 22.737154 Si / 1000 Ang^3
#
#
#
# Elastic Constant Matrix: (Units=GPa)
#
#
# Indices 1 2 3 4 5 6 
#
# 1 89.1828 25.9375 29.7443 0.0000 0.0000 0.0000
# 2 25.9375 92.7742 36.4058 0.0000 0.0000 0.0000
# 3 29.7443 36.4058 76.6211 0.0000 0.0000 0.0000
# 4 0.0000 0.0000 0.0000 36.1003 0.0000 0.0000
# 5 0.0000 0.0000 0.0000 0.0000 4.2854 0.0000
# 6 0.0000 0.0000 0.0000 0.0000 0.0000 47.3370
#
#
#
# Elastic Compliance Matrix: (Units=1/GPa)
#
#
# Indices 1 2 3 4 5 6 
#
# 1 0.013194 -0.002064 -0.004142 0.000000 0.000000 0.000000
# 2 -0.002064 0.013572 -0.005647 0.000000 0.000000 0.000000
# 3 -0.004142 -0.005647 0.017342 0.000000 0.000000 0.000000
# 4 0.000000 0.000000 0.000000 0.027701 0.000000 0.000000
# 5 0.000000 0.000000 0.000000 0.000000 0.233351 0.000000
# 6 0.000000 0.000000 0.000000 0.000000 0.000000 0.021125
#
#
# Mechanical properties :
#
#
# Convention : Reuss Voigt Hill
#
# Bulk Modulus (GPa) = 49.01160 49.19482 49.10321
# Shear Modulus (GPa) = 14.01378 28.64391 21.32884
#
# Velocity S-wave (km/s) = 2.48531 3.55319 3.06610
# Velocity P-wave (km/s) = 5.46244 6.20620 5.84616
#
# Compressibility (1/GPa) = 0.02040333
#
# Stress axis : x y z
#
# Youngs Moduli (GPa) = 75.78973 73.68136 57.66237
#
# Poissons Ratio (x) = 0.15205 0.23881
# Poissons Ratio (y) = 0.15640 0.32565
# Poissons Ratio (z) = 0.31389 0.41611
#
# Static dielectric constant tensor:
#      x y z
#    x 4.152740 0.000000 0.000000 
#    y 0.000000 4.205950 0.000000 
#    z 0.000000 0.000000 3.874940 
# 
# 
# High freq. dielectric constant tensor:
#      x y z
#    x 1.888630 0.000000 0.000000 
#    y 0.000000 1.906760 0.000000 
#    z 0.000000 0.000000 1.888540 
# 
# From -- ./inp_files/16023.got.cif
#   From: 2010.03.12/outbox.cif.g09.slc.cpg/sg49_9_cif.got.tgz:16023.got - 2010.04.14 03:58:27.
