data_PCOD8204223
_publ_section_title
;
Structure prediction by ZEFSAII (Michael W. Deem and Ramdas Pophale) SiO2 
 PCOD8204223
Probable space group: P C C M
;
_chemical_formula_sum "Si O2"
_cell_formula_units_Z 48
_cell_length_a 30.556431
_cell_length_b 9.380491
_cell_length_c 8.603415
_cell_angle_alpha 90.000000
_cell_angle_beta 90.000000
_cell_angle_gamma 90.000000
_cell_volume 2466.034060
_symmetry_space_group_name_H-M "P C C M"
_symmetry_group_IT_number 49
_symmetry_cell_setting 'orthorhombic'
loop_
_space_group_symop_operation_xyz
x,y,z
-x,-y,z
x,-y,1/2-z
-x,y,1/2-z
-x,-y,-z
x,y,-z
-x,y,1/2+z
x,-y,1/2+z
loop_
_atom_site_type_symbol
_atom_site_label
_atom_site_fract_x
_atom_site_fract_y
_atom_site_fract_z
Si Si1 0.953506 0.653414 0.683842
Si Si2 0.544647 0.656946 0.816074
Si Si3 0.204197 0.343241 0.819083
Si Si4 0.379038 0.844962 0.816038
Si Si5 0.286796 0.849006 0.318259
Si Si6 0.127086 0.842995 0.817094
O O1 0.939722 0.500000 0.750000
O O2 0.956600 0.640485 0.500000
O O3 0.917843 0.768712 0.737963
O O4 0.000000 0.704395 0.750000
O O5 0.549250 0.500000 0.750000
O O6 0.500000 0.728199 0.750000
O O7 0.586728 0.740927 0.761411
O O8 0.542241 0.653297 0.000000
O O9 0.205222 0.500000 0.750000
O O10 0.250601 0.269906 0.786554
O O11 0.167294 0.250721 0.738332
O O12 0.193435 0.351962 0.000000
O O13 0.330427 0.795737 0.768119
O O14 0.388786 0.000000 0.750000
O O15 0.384139 0.842702 0.000000
O O16 0.296725 0.869596 0.500000
O O17 0.270499 0.000000 0.250000
O O18 0.129982 0.000000 0.750000
O O19 0.129120 0.854456 0.000000
#
# Coordination Sequence:
#
# PCOD8204223 Si02
#       6
#     8   8   8   8   8   8
#     4  10  21  37  59  86 115 151 191 236 286 341
#     4  11  22  39  60  85 116 152 193 238 288 343
#     4  11  24  40  61  87 117 152 193 238 287 341
#     4  11  22  38  60  87 117 153 193 237 287 341
#     4  10  21  38  59  85 115 150 190 235 286 342
#     4  11  24  40  60  86 117 153 194 238 289 343
#
# _framework density 19.464451
#
# number of rings (size 3 to 8) (size 9 to 14) (size 15 to 20)
#    0.000    1.333    0.000    8.000    0.000    9.333 
#    0.000    5.000    0.000    0.000    0.000    0.000 
#    0.000    0.000    0.000    0.000    0.000    0.000 
#
# Total GULP energy -595392.619716 kJ/mol
# GULP energy per Si atom -12404.012911 kJ/mol
# Density = 1.942015 g / cm^3
# Si number density = 19.464451 Si / 1000 Ang^3
#
#
#
# Elastic Constant Matrix: (Units=GPa)
#
#
# Indices 1 2 3 4 5 6 
#
# 1 111.8631 78.0311 52.6383 0.0000 0.0000 0.0000
# 2 78.0311 124.9818 44.0951 0.0000 0.0000 0.0000
# 3 52.6383 44.0951 125.1436 0.0000 0.0000 0.0000
# 4 0.0000 0.0000 0.0000 36.6998 0.0000 0.0000
# 5 0.0000 0.0000 0.0000 0.0000 30.5492 0.0000
# 6 0.0000 0.0000 0.0000 0.0000 0.0000 39.9464
#
#
#
# Elastic Compliance Matrix: (Units=1/GPa)
#
#
# Indices 1 2 3 4 5 6 
#
# 1 0.017424 -0.009470 -0.003992 0.000000 0.000000 0.000000
# 2 -0.009470 0.014284 -0.001050 0.000000 0.000000 0.000000
# 3 -0.003992 -0.001050 0.010040 0.000000 0.000000 0.000000
# 4 0.000000 0.000000 0.000000 0.027248 0.000000 0.000000
# 5 0.000000 0.000000 0.000000 0.000000 0.032734 0.000000
# 6 0.000000 0.000000 0.000000 0.000000 0.000000 0.025034
#
#
# Mechanical properties :
#
#
# Convention : Reuss Voigt Hill
#
# Bulk Modulus (GPa) = 78.59088 79.05750 78.82419
# Shear Modulus (GPa) = 31.24443 33.92067 32.58255
#
# Velocity S-wave (km/s) = 4.01085 4.17909 4.09583
# Velocity P-wave (km/s) = 7.86851 7.99943 7.93424
#
# Compressibility (1/GPa) = 0.01272412
#
# Stress axis : x y z
#
# Youngs Moduli (GPa) = 57.39257 70.00839 99.60282
#
# Poissons Ratio (x) = 0.66298 0.39762
# Poissons Ratio (y) = 0.54350 0.10456
# Poissons Ratio (z) = 0.22912 0.07349
#
# Static dielectric constant tensor:
#      x y z
#    x 3.990360 0.000000 0.000000 
#    y 0.000000 3.595000 0.000000 
#    z 0.000000 0.000000 3.799840 
# 
# 
# High freq. dielectric constant tensor:
#      x y z
#    x 1.775320 0.000000 0.000000 
#    y 0.000000 1.758560 0.000000 
#    z 0.000000 0.000000 1.780680 
# 
# From -- ./inp_files/6885.got.cif
#   From: 2010.03.12/outbox.cif.g09.slc.cpg/sg49_4_cif.got.tgz:6885.got - 2010.04.14 03:58:27.
