data_PCOD8204010
_publ_section_title
;
Structure prediction by ZEFSAII (Michael W. Deem and Ramdas Pophale) SiO2 
 PCOD8204010
Probable space group: P C C M
;
_chemical_formula_sum "Si O2"
_cell_formula_units_Z 56
_cell_length_a 8.415855
_cell_length_b 13.766254
_cell_length_c 22.933075
_cell_angle_alpha 90.000000
_cell_angle_beta 90.000000
_cell_angle_gamma 90.000000
_cell_volume 2656.906761
_symmetry_space_group_name_H-M "P C C M"
_symmetry_group_IT_number 49
_symmetry_cell_setting 'orthorhombic'
loop_
_space_group_symop_operation_xyz
x,y,z
-x,-y,z
x,-y,1/2-z
-x,y,1/2-z
-x,-y,-z
x,y,-z
-x,y,1/2+z
x,-y,1/2+z
loop_
_atom_site_type_symbol
_atom_site_label
_atom_site_fract_x
_atom_site_fract_y
_atom_site_fract_z
Si Si1 0.666653 0.830131 0.648088
Si Si2 0.677995 0.466073 0.142610
Si Si3 0.316160 0.324939 0.259718
Si Si4 0.203039 0.310122 0.566093
Si Si5 0.300190 0.224029 0.854368
Si Si6 0.156472 0.629566 0.567550
Si Si7 0.177560 0.018238 0.181875
O O1 0.724924 0.774574 0.706300
O O2 0.778717 0.795786 0.594713
O O3 0.483751 0.802670 0.639006
O O4 0.694936 0.945111 0.652738
O O5 0.500000 0.500000 0.154457
O O6 0.747707 0.420160 0.204076
O O7 0.665470 0.377093 0.097508
O O8 0.788339 0.546727 0.112665
O O9 0.500000 0.341077 0.250000
O O10 0.252252 0.307544 0.194015
O O11 0.252187 0.300193 0.500000
O O12 0.031386 0.358169 0.574698
O O13 0.239785 0.268276 0.915585
O O14 0.210720 0.126920 0.837325
O O15 0.198140 0.603333 0.500000
O O16 0.193658 0.000000 0.250000
O O17 0.000000 0.000000 0.159658
#
# Coordination Sequence:
#
# PCOD8204010 Si02
#       7
#     8   8   8   8   8   8   8
#     4  10  20  37  61  92 120 154 207 247 303 360
#     4  11  22  37  61  89 118 157 208 253 299 368
#     4   9  19  35  57  87 121 155 191 246 307 354
#     4  10  22  41  62  85 120 161 205 258 310 360
#     4  11  22  38  64  90 123 163 202 255 298 363
#     4  11  24  41  60  86 122 164 207 254 312 362
#     4  11  22  37  61  93 128 164 199 242 298 367
#
# _framework density 21.077141000000001
#
# number of rings (size 3 to 8) (size 9 to 14) (size 15 to 20)
#    0.000    1.571    1.429    4.714    0.000    6.571 
#    0.000    0.714    0.000   14.571    0.000    0.000 
#    0.000    0.000    0.000    0.000    0.000    0.000 
#
# Total GULP energy -693847.302028 kJ/mol
# GULP energy per Si atom -12390.130393 kJ/mol
# Density = 2.102917 g / cm^3
# Si number density = 21.077141 Si / 1000 Ang^3
#
#
#
# Elastic Constant Matrix: (Units=GPa)
#
#
# Indices 1 2 3 4 5 6 
#
# 1 55.1858 38.3556 30.4428 0.0000 0.0000 0.0000
# 2 38.3556 116.0746 65.2760 0.0000 0.0000 0.0000
# 3 30.4428 65.2760 96.7771 0.0000 0.0000 0.0000
# 4 0.0000 0.0000 0.0000 22.4094 0.0000 0.0000
# 5 0.0000 0.0000 0.0000 0.0000 23.7033 0.0000
# 6 0.0000 0.0000 0.0000 0.0000 0.0000 34.1600
#
#
#
# Elastic Compliance Matrix: (Units=1/GPa)
#
#
# Indices 1 2 3 4 5 6 
#
# 1 0.024271 -0.006004 -0.003585 0.000000 0.000000 0.000000
# 2 -0.006004 0.015365 -0.008475 0.000000 0.000000 0.000000
# 3 -0.003585 -0.008475 0.017177 0.000000 0.000000 0.000000
# 4 0.000000 0.000000 0.000000 0.044624 0.000000 0.000000
# 5 0.000000 0.000000 0.000000 0.000000 0.042188 0.000000
# 6 0.000000 0.000000 0.000000 0.000000 0.000000 0.029274
#
#
# Mechanical properties :
#
#
# Convention : Reuss Voigt Hill
#
# Bulk Modulus (GPa) = 48.34414 59.57628 53.96021
# Shear Modulus (GPa) = 23.15630 24.98542 24.07086
#
# Velocity S-wave (km/s) = 3.31818 3.44674 3.38307
# Velocity P-wave (km/s) = 6.13734 6.64584 6.39665
#
# Compressibility (1/GPa) = 0.02068503
#
# Stress axis : x y z
#
# Youngs Moduli (GPa) = 41.20090 65.08204 58.21628
#
# Poissons Ratio (x) = 0.39075 0.20872
# Poissons Ratio (y) = 0.24737 0.49339
# Poissons Ratio (z) = 0.14772 0.55158
#
# Static dielectric constant tensor:
#      x y z
#    x 3.691870 0.000000 0.000000 
#    y 0.000000 4.070360 0.000000 
#    z 0.000000 0.000000 4.147490 
# 
# 
# High freq. dielectric constant tensor:
#      x y z
#    x 1.812280 0.000000 0.000000 
#    y 0.000000 1.834420 0.000000 
#    z 0.000000 0.000000 1.820670 
# 
# From -- ./inp_files/19909.got.cif
#   From: 2010.03.12/outbox.cif.g09.slc.cpg/sg49_10_cif.got.tgz:19909.got - 2010.04.14 03:58:27.
