data_PCOD8204487
_publ_section_title
;
Structure prediction by ZEFSAII (Michael W. Deem and Ramdas Pophale) SiO2 
 PCOD8204487
Probable space group: P C C M
;
_chemical_formula_sum "Si O2"
_cell_formula_units_Z 40
_cell_length_a 12.201875
_cell_length_b 8.149164
_cell_length_c 16.736339
_cell_angle_alpha 90.000000
_cell_angle_beta 90.000000
_cell_angle_gamma 90.000000
_cell_volume 1664.179215
_symmetry_space_group_name_H-M "P C C M"
_symmetry_group_IT_number 49
_symmetry_cell_setting 'orthorhombic'
loop_
_space_group_symop_operation_xyz
x,y,z
-x,-y,z
x,-y,1/2-z
-x,y,1/2-z
-x,-y,-z
x,y,-z
-x,y,1/2+z
x,-y,1/2+z
loop_
_atom_site_type_symbol
_atom_site_label
_atom_site_fract_x
_atom_site_fract_y
_atom_site_fract_z
Si Si1 0.547347 0.172914 0.907572
Si Si2 0.758320 0.667675 0.348096
Si Si3 0.016123 0.690146 0.910475
Si Si4 0.162137 0.166923 0.199912
Si Si5 0.678240 0.320266 0.592866
O O1 0.652595 0.215908 0.855338
O O2 0.452052 0.307603 0.894112
O O3 0.500000 0.000000 0.878673
O O4 0.582837 0.167240 0.000000
O O5 0.854439 0.729462 0.407327
O O6 0.807009 0.683217 0.259063
O O7 0.723269 0.483832 0.366991
O O8 0.000000 0.500000 0.888849
O O9 0.953137 0.799946 0.844746
O O10 0.973098 0.729397 0.000000
O O11 0.258032 0.165719 0.132636
O O12 0.156551 0.000000 0.250000
O O13 0.707715 0.321784 0.500000
#
# Coordination Sequence:
#
# PCOD8204487 Si02
#       5
#     8   8   8   8   8
#     4  10  22  42  69 104 148 193 242 304 369 439
#     4  12  24  42  74 109 143 192 247 302 369 437
#     4  11  24  46  78 108 144 194 251 305 361 439
#     4  12  27  46  71 109 152 192 235 301 375 439
#     4  11  23  44  74 107 146 193 247 300 358 440
#
# _framework density 24.035872999999999
#
# number of rings (size 3 to 8) (size 9 to 14) (size 15 to 20)
#    0.000    0.800    2.000    5.400    0.000    4.800 
#    0.000   10.000    0.000    0.000    0.000    0.000 
#    0.000    0.000    0.000    0.000    0.000    0.000 
#
# Total GULP energy -496005.849699 kJ/mol
# GULP energy per Si atom -12400.146242 kJ/mol
# Density = 2.398117 g / cm^3
# Si number density = 24.035873 Si / 1000 Ang^3
#
#
#
# Elastic Constant Matrix: (Units=GPa)
#
#
# Indices 1 2 3 4 5 6 
#
# 1 169.7839 63.6218 55.7444 0.0000 0.0000 0.0000
# 2 63.6218 109.5016 81.9575 0.0000 0.0000 0.0000
# 3 55.7444 81.9575 129.6548 0.0000 0.0000 0.0000
# 4 0.0000 0.0000 0.0000 39.3031 0.0000 0.0000
# 5 0.0000 0.0000 0.0000 0.0000 26.3848 0.0000
# 6 0.0000 0.0000 0.0000 0.0000 0.0000 34.3377
#
#
#
# Elastic Compliance Matrix: (Units=1/GPa)
#
#
# Indices 1 2 3 4 5 6 
#
# 1 0.007584 -0.003731 -0.000902 0.000000 0.000000 0.000000
# 2 -0.003731 0.019168 -0.010512 0.000000 0.000000 0.000000
# 3 -0.000902 -0.010512 0.014746 0.000000 0.000000 0.000000
# 4 0.000000 0.000000 0.000000 0.025443 0.000000 0.000000
# 5 0.000000 0.000000 0.000000 0.000000 0.037901 0.000000
# 6 0.000000 0.000000 0.000000 0.000000 0.000000 0.029123
#
#
# Mechanical properties :
#
#
# Convention : Reuss Voigt Hill
#
# Bulk Modulus (GPa) = 89.23354 90.17642 89.70498
# Shear Modulus (GPa) = 29.76325 33.84621 31.80473
#
# Velocity S-wave (km/s) = 3.52274 3.75661 3.64155
# Velocity P-wave (km/s) = 7.33158 7.51099 7.42183
#
# Compressibility (1/GPa) = 0.01120655
#
# Stress axis : x y z
#
# Youngs Moduli (GPa) = 131.85217 52.16922 67.81577
#
# Poissons Ratio (x) = 0.19466 0.06118
# Poissons Ratio (y) = 0.49198 0.71291
# Poissons Ratio (z) = 0.11895 0.54843
#
# Static dielectric constant tensor:
#      x y z
#    x 4.695740 0.000000 0.000000 
#    y 0.000000 4.177440 0.000000 
#    z 0.000000 0.000000 4.420900 
# 
# 
# High freq. dielectric constant tensor:
#      x y z
#    x 1.972520 0.000000 0.000000 
#    y 0.000000 1.943120 0.000000 
#    z 0.000000 0.000000 1.957580 
# 
# From -- ./inp_files/16840.got.cif
#   From: 2010.03.12/outbox.cif.g09.slc.cpg/sg49_9_cif.got.tgz:16840.got - 2010.04.14 03:58:27.
