data_PCOD8204844
_publ_section_title
;
Structure prediction by ZEFSAII (Michael W. Deem and Ramdas Pophale) SiO2 
 PCOD8204844
Probable space group: P B A N
;
_chemical_formula_sum "Si O2"
_cell_formula_units_Z 58
_cell_length_a 16.108234
_cell_length_b 32.064867
_cell_length_c 5.163155
_cell_angle_alpha 90.000000
_cell_angle_beta 90.000000
_cell_angle_gamma 90.000000
_cell_volume 2666.812829
_symmetry_space_group_name_H-M "P B A N"
_symmetry_group_IT_number 50
_space_group.IT_coordinate_system_code '2'
_symmetry_cell_setting 'orthorhombic'
loop_
_space_group_symop_operation_xyz
x,y,z
1/2-x,1/2-y,z
x,1/2-y,-z
1/2-x,y,-z
-x,-y,-z
1/2+x,1/2+y,-z
-x,1/2+y,z
1/2+x,-y,z
loop_
_atom_site_type_symbol
_atom_site_label
_atom_site_fract_x
_atom_site_fract_y
_atom_site_fract_z
Si Si1 0.566089 0.206464 0.123737
Si Si2 0.158559 0.571106 0.292245
Si Si3 0.879669 0.813359 0.144634
Si Si4 0.750000 0.750000 0.000000
Si Si5 0.090218 0.843508 0.618659
Si Si6 0.596315 0.636211 0.628429
Si Si7 0.197144 0.057513 0.242493
Si Si8 0.843049 0.035155 0.788314
O O1 0.468323 0.209088 0.187437
O O2 0.609651 0.191477 0.395319
O O3 0.597654 0.250000 0.000000
O O4 0.590203 0.173632 0.907603
O O5 0.158409 0.619835 0.373193
O O6 0.251472 0.554608 0.251498
O O7 0.110912 0.545110 0.518386
O O8 0.111417 0.559985 0.023097
O O9 0.860388 0.847719 0.364611
O O10 0.808854 0.778628 0.178065
O O11 0.877412 0.833239 0.860126
O O12 0.001303 0.864709 0.569579
O O13 0.624373 0.589666 0.692545
O O14 0.250000 0.049627 0.500000
O O15 0.157797 0.013833 0.150909
O O16 0.250000 0.075173 0.000000
#
# Coordination Sequence:
#
# PCOD8204844 Si02
#       8
#     8   8   8   2   8   8   8   8
#     4  10  19  38  56  82 110 153 187 236 275 344
#     4  10  18  35  56  86 112 144 181 241 272 350
#     4  10  23  38  55  78 111 146 194 242 285 330
#     4  12  24  38  56  82 104 154 200 244 292 326
#     4  10  21  36  59  81 117 148 190 233 293 332
#     4  10  24  39  53  81 114 149 191 237 291 344
#     4  12  21  37  58  79 108 154 191 237 283 347
#     4  10  19  35  58  85 112 138 193 228 282 334
#
# _framework density 21.748806999999999
#
# number of rings (size 3 to 8) (size 9 to 14) (size 15 to 20)
#    0.000    1.655    3.448    2.069    2.897    1.103 
#    0.000    1.379    0.000    0.000    0.000   28.966 
#    0.000    0.000    0.000    0.000    0.000    0.000 
#
# Total GULP energy -718783.433710 kJ/mol
# GULP energy per Si atom -12392.817823 kJ/mol
# Density = 2.169931 g / cm^3
# Si number density = 21.748807 Si / 1000 Ang^3
#
#
#
# Elastic Constant Matrix: (Units=GPa)
#
#
# Indices 1 2 3 4 5 6 
#
# 1 21.0058 33.0769 11.4334 0.0000 0.0000 0.0000
# 2 33.0769 129.6796 27.9634 0.0000 0.0000 0.0000
# 3 11.4334 27.9634 165.0011 0.0000 0.0000 0.0000
# 4 0.0000 0.0000 0.0000 43.0357 0.0000 0.0000
# 5 0.0000 0.0000 0.0000 0.0000 14.7987 0.0000
# 6 0.0000 0.0000 0.0000 0.0000 0.0000 28.4658
#
#
#
# Elastic Compliance Matrix: (Units=1/GPa)
#
#
# Indices 1 2 3 4 5 6 
#
# 1 0.080304 -0.020014 -0.002173 0.000000 0.000000 0.000000
# 2 -0.020014 0.012992 -0.000815 0.000000 0.000000 0.000000
# 3 -0.002173 -0.000815 0.006349 0.000000 0.000000 0.000000
# 4 0.000000 0.000000 0.000000 0.023237 0.000000 0.000000
# 5 0.000000 0.000000 0.000000 0.000000 0.067573 0.000000
# 6 0.000000 0.000000 0.000000 0.000000 0.000000 0.035130
#
#
# Mechanical properties :
#
#
# Convention : Reuss Voigt Hill
#
# Bulk Modulus (GPa) = 18.64231 51.18155 34.91193
# Shear Modulus (GPa) = 17.27300 33.47424 25.37362
#
# Velocity S-wave (km/s) = 2.82122 3.92743 3.41936
# Velocity P-wave (km/s) = 4.38208 6.64458 5.62819
#
# Compressibility (1/GPa) = 0.05364142
#
# Stress axis : x y z
#
# Youngs Moduli (GPa) = 12.45269 76.97033 157.49953
#
# Poissons Ratio (x) = 1.54051 0.34218
# Poissons Ratio (y) = 0.24923 0.12836
# Poissons Ratio (z) = 0.02705 0.06273
#
# Static dielectric constant tensor:
#      x y z
#    x 3.459490 0.000000 0.000000 
#    y 0.000000 3.882010 0.000000 
#    z 0.000000 0.000000 2.802020 
# 
# 
# High freq. dielectric constant tensor:
#      x y z
#    x 1.795690 0.000000 0.000000 
#    y 0.000000 1.857510 0.000000 
#    z 0.000000 0.000000 1.886610 
# 
# From -- ./inp_files/4693.got.cif
#   From: 2010.03.12/outbox.cif.g09.slc.cpg/sg50_3_cif.got.tgz:4693.got - 2010.04.16 13:23:21.
