data_PCOD8204520
_publ_section_title
;
Structure prediction by ZEFSAII (Michael W. Deem and Ramdas Pophale) SiO2 
 PCOD8204520
Probable space group: P C C M
;
_chemical_formula_sum "Si O2"
_cell_formula_units_Z 22
_cell_length_a 5.653020
_cell_length_b 4.977171
_cell_length_c 30.947074
_cell_angle_alpha 90.000000
_cell_angle_beta 90.000000
_cell_angle_gamma 90.000000
_cell_volume 870.728335
_symmetry_space_group_name_H-M "P C C M"
_symmetry_group_IT_number 49
_symmetry_cell_setting 'orthorhombic'
loop_
_space_group_symop_operation_xyz
x,y,z
-x,-y,z
x,-y,1/2-z
-x,y,1/2-z
-x,-y,-z
x,y,-z
-x,y,1/2+z
x,-y,1/2+z
loop_
_atom_site_type_symbol
_atom_site_label
_atom_site_fract_x
_atom_site_fract_y
_atom_site_fract_z
Si Si1 0.000000 0.500000 0.611328
Si Si2 0.659461 0.759115 0.548109
Si Si3 0.671755 0.739958 0.818185
Si Si4 0.000000 0.500000 0.750000
O O1 0.870823 0.717369 0.581416
O O2 0.823897 0.309284 0.638545
O O3 0.500000 0.500000 0.546033
O O4 0.759642 0.825254 0.500000
O O5 0.500000 0.000000 0.566064
O O6 0.500000 0.500000 0.811217
O O7 0.850830 0.717039 0.777939
O O8 0.500000 0.000000 0.819729
#
# Coordination Sequence:
#
# PCOD8204520 Si02
#       4
#     4   8   8   2
#     4  11  25  45  75 106 148 196 233 295 373 425
#     4  10  23  43  69 103 142 190 248 300 350 420
#     4  11  27  48  73 110 146 183 238 296 356 435
#     4  10  26  50  82 104 142 194 232 290 368 430
#
# _framework density 25.266202
#
# number of rings (size 3 to 8) (size 9 to 14) (size 15 to 20)
#    0.000    1.455    0.000    2.182    0.000   20.364 
#    0.000   10.909    0.000    3.273    0.000    0.000 
#    0.000    0.000    0.000    0.000    0.000    0.000 
#
# Total GULP energy -272665.329103 kJ/mol
# GULP energy per Si atom -12393.878596 kJ/mol
# Density = 2.520869 g / cm^3
# Si number density = 25.266202 Si / 1000 Ang^3
#
#
#
# Elastic Constant Matrix: (Units=GPa)
#
#
# Indices 1 2 3 4 5 6 
#
# 1 162.2700 78.9044 98.2238 0.0000 0.0000 0.0000
# 2 78.9044 179.0456 54.2704 0.0000 0.0000 0.0000
# 3 98.2238 54.2704 177.1738 0.0000 0.0000 0.0000
# 4 0.0000 0.0000 0.0000 28.5352 0.0000 0.0000
# 5 0.0000 0.0000 0.0000 0.0000 47.3349 0.0000
# 6 0.0000 0.0000 0.0000 0.0000 0.0000 62.6505
#
#
#
# Elastic Compliance Matrix: (Units=1/GPa)
#
#
# Indices 1 2 3 4 5 6 
#
# 1 0.010736 -0.003227 -0.004964 0.000000 0.000000 0.000000
# 2 -0.003227 0.007127 -0.000394 0.000000 0.000000 0.000000
# 3 -0.004964 -0.000394 0.008517 0.000000 0.000000 0.000000
# 4 0.000000 0.000000 0.000000 0.035044 0.000000 0.000000
# 5 0.000000 0.000000 0.000000 0.000000 0.021126 0.000000
# 6 0.000000 0.000000 0.000000 0.000000 0.000000 0.015962
#
#
# Mechanical properties :
#
#
# Convention : Reuss Voigt Hill
#
# Bulk Modulus (GPa) = 108.57209 109.03184 108.80196
# Shear Modulus (GPa) = 42.10499 46.84351 44.47425
#
# Velocity S-wave (km/s) = 4.08665 4.31048 4.20006
# Velocity P-wave (km/s) = 8.08283 8.24746 8.16556
#
# Compressibility (1/GPa) = 0.00921047
#
# Stress axis : x y z
#
# Youngs Moduli (GPa) = 93.14301 140.31813 117.41673
#
# Poissons Ratio (x) = 0.45279 0.58281
# Poissons Ratio (y) = 0.30056 0.04627
# Poissons Ratio (z) = 0.46233 0.05529
#
# Static dielectric constant tensor:
#      x y z
#    x 4.796120 0.000000 0.000000 
#    y 0.000000 4.224960 0.000000 
#    z 0.000000 0.000000 5.820010 
# 
# 
# High freq. dielectric constant tensor:
#      x y z
#    x 2.021970 0.000000 0.000000 
#    y 0.000000 2.012370 0.000000 
#    z 0.000000 0.000000 2.028230 
# 
# From -- ./inp_files/25330.got.cif
#   From: 2010.03.12/outbox.cif.g09.slc.cpg/sg49_13_cif.got.tgz:25330.got - 2010.04.14 03:58:27.
