data_PCOD8204138
_publ_section_title
;
Structure prediction by ZEFSAII (Michael W. Deem and Ramdas Pophale) SiO2 
 PCOD8204138
Probable space group: P C C M
;
_chemical_formula_sum "Si O2"
_cell_formula_units_Z 64
_cell_length_a 15.166324
_cell_length_b 12.085802
_cell_length_c 16.610406
_cell_angle_alpha 90.000000
_cell_angle_beta 90.000000
_cell_angle_gamma 90.000000
_cell_volume 3044.640727
_symmetry_space_group_name_H-M "P C C M"
_symmetry_group_IT_number 49
_symmetry_cell_setting 'orthorhombic'
loop_
_space_group_symop_operation_xyz
x,y,z
-x,-y,z
x,-y,1/2-z
-x,y,1/2-z
-x,-y,-z
x,y,-z
-x,y,1/2+z
x,-y,1/2+z
loop_
_atom_site_type_symbol
_atom_site_label
_atom_site_fract_x
_atom_site_fract_y
_atom_site_fract_z
Si Si1 0.182456 0.204440 0.353267
Si Si2 0.310538 0.616877 0.909099
Si Si3 0.000041 0.874209 0.591248
Si Si4 0.776077 0.395425 0.596502
Si Si5 0.546352 0.779046 0.403797
Si Si6 0.350883 0.201600 0.906578
Si Si7 0.666613 0.967053 0.338715
Si Si8 0.086975 0.298240 0.204128
O O1 0.232919 0.293805 0.406817
O O2 0.098375 0.171913 0.405286
O O3 0.240975 0.096524 0.337406
O O4 0.158656 0.258684 0.268199
O O5 0.277715 0.501941 0.869984
O O6 0.397966 0.673172 0.869307
O O7 0.334246 0.587013 0.000000
O O8 0.035834 0.863814 0.500000
O O9 0.063148 0.807893 0.650561
O O10 0.000000 0.000000 0.621101
O O11 0.793995 0.400681 0.500000
O O12 0.720960 0.288462 0.625465
O O13 0.869319 0.390069 0.644853
O O14 0.548895 0.777642 0.500000
O O15 0.447378 0.773819 0.368195
O O16 0.589091 0.894139 0.376464
O O17 0.318910 0.077749 0.890268
O O18 0.360872 0.221771 0.000000
O O19 0.636479 0.000000 0.250000
O O20 0.000000 0.346200 0.250000
#
# Coordination Sequence:
#
# PCOD8204138 Si02
#       8
#     8   8   8   8   8   8   8   8
#     4  10  22  37  58  81 111 155 194 232 286 349
#     4   9  19  38  61  83 113 151 193 237 283 345
#     4  10  22  37  58  85 114 147 186 237 291 349
#     4  10  21  38  61  87 115 149 194 248 293 337
#     4   9  19  37  57  82 116 153 191 231 285 348
#     4  10  21  35  56  86 117 149 189 239 293 342
#     4  11  22  34  54  82 116 154 192 235 283 344
#     4  10  22  40  58  82 117 153 191 241 289 351
#
# _framework density 21.020543
#
# number of rings (size 3 to 8) (size 9 to 14) (size 15 to 20)
#    0.000    2.125    0.000    2.250    3.500    6.250 
#    0.000    6.875    0.000    6.750    0.000    3.500 
#    0.000    0.000    0.000    0.000    0.000    0.000 
#
# Total GULP energy -793488.006231 kJ/mol
# GULP energy per Si atom -12398.250097 kJ/mol
# Density = 2.097270 g / cm^3
# Si number density = 21.020543 Si / 1000 Ang^3
#
#
#
# Elastic Constant Matrix: (Units=GPa)
#
#
# Indices 1 2 3 4 5 6 
#
# 1 88.2172 46.3647 14.3485 0.0000 0.0000 0.0000
# 2 46.3647 120.7912 19.7705 0.0000 0.0000 0.0000
# 3 14.3485 19.7705 45.9734 0.0000 0.0000 0.0000
# 4 0.0000 0.0000 0.0000 13.1656 0.0000 0.0000
# 5 0.0000 0.0000 0.0000 0.0000 19.1216 0.0000
# 6 0.0000 0.0000 0.0000 0.0000 0.0000 22.8527
#
#
#
# Elastic Compliance Matrix: (Units=1/GPa)
#
#
# Indices 1 2 3 4 5 6 
#
# 1 0.014419 -0.005161 -0.002281 0.000000 0.000000 0.000000
# 2 -0.005161 0.010753 -0.003013 0.000000 0.000000 0.000000
# 3 -0.002281 -0.003013 0.023759 0.000000 0.000000 0.000000
# 4 0.000000 0.000000 0.000000 0.075955 0.000000 0.000000
# 5 0.000000 0.000000 0.000000 0.000000 0.052297 0.000000
# 6 0.000000 0.000000 0.000000 0.000000 0.000000 0.043759
#
#
# Mechanical properties :
#
#
# Convention : Reuss Voigt Hill
#
# Bulk Modulus (GPa) = 35.68776 46.21659 40.95218
# Shear Modulus (GPa) = 19.90492 22.66118 21.28305
#
# Velocity S-wave (km/s) = 3.08056 3.28693 3.18541
# Velocity P-wave (km/s) = 5.44679 6.03650 5.74921
#
# Compressibility (1/GPa) = 0.02802081
#
# Stress axis : x y z
#
# Youngs Moduli (GPa) = 69.35128 92.99600 42.08859
#
# Poissons Ratio (x) = 0.47999 0.09599
# Poissons Ratio (y) = 0.35795 0.12683
# Poissons Ratio (z) = 0.15817 0.28023
#
# Static dielectric constant tensor:
#      x y z
#    x 4.017470 0.000000 0.000000 
#    y 0.000000 3.900360 0.000000 
#    z 0.000000 0.000000 3.652130 
# 
# 
# High freq. dielectric constant tensor:
#      x y z
#    x 1.828600 0.000000 0.000000 
#    y 0.000000 1.821190 0.000000 
#    z 0.000000 0.000000 1.813560 
# 
# From -- ./inp_files/17932.got.cif
#   From: 2010.03.12/outbox.cif.g09.slc.cpg/sg49_9_cif.got.tgz:17932.got - 2010.04.14 03:58:27.
