data_PCOD8204989
_publ_section_title
;
Structure prediction by ZEFSAII (Michael W. Deem and Ramdas Pophale) SiO2 
 PCOD8204989
Probable space group: P B A N
;
_chemical_formula_sum "Si O2"
_cell_formula_units_Z 48
_cell_length_a 9.023313
_cell_length_b 16.822592
_cell_length_c 14.772141
_cell_angle_alpha 90.000000
_cell_angle_beta 90.000000
_cell_angle_gamma 90.000000
_cell_volume 2242.344722
_symmetry_space_group_name_H-M "P B A N"
_symmetry_group_IT_number 50
_space_group.IT_coordinate_system_code '2'
_symmetry_cell_setting 'orthorhombic'
loop_
_space_group_symop_operation_xyz
x,y,z
1/2-x,1/2-y,z
x,1/2-y,-z
1/2-x,y,-z
-x,-y,-z
1/2+x,1/2+y,-z
-x,1/2+y,z
1/2+x,-y,z
loop_
_atom_site_type_symbol
_atom_site_label
_atom_site_fract_x
_atom_site_fract_y
_atom_site_fract_z
Si Si1 0.396315 0.059645 0.446739
Si Si2 0.250000 0.750000 0.756943
Si Si3 0.032757 0.004498 0.155331
Si Si4 0.250000 0.250000 0.667167
Si Si5 0.039280 0.779049 0.407613
Si Si6 0.785119 0.922684 0.262258
Si Si7 0.281564 0.611914 0.903498
O O1 0.250000 0.087877 0.500000
O O2 0.508374 0.128849 0.419993
O O3 0.330289 0.027191 0.352102
O O4 0.500000 0.000000 0.500000
O O5 0.116356 0.735837 0.688172
O O6 0.271713 0.673002 0.819971
O O7 0.120556 0.049220 0.235769
O O8 0.945300 0.071816 0.097564
O O9 0.154890 0.955974 0.099355
O O10 0.909207 0.942523 0.188485
O O11 0.387230 0.229129 0.601493
O O12 0.212719 0.172759 0.727082
O O13 0.122282 0.750000 0.500000
O O14 0.250000 0.655179 0.000000
#
# Coordination Sequence:
#
# PCOD8204989 Si02
#       7
#     8   4   8   4   8   8   8
#     4  11  23  37  58  88 126 169 214 264 314 374
#     4  12  26  42  64  92 126 166 210 262 322 386
#     4  10  22  38  63  91 122 157 199 259 318 380
#     4  10  19  36  60  84 119 168 209 248 300 362
#     4  11  23  40  59  86 121 162 206 253 304 363
#     4  10  20  37  57  88 124 163 209 252 307 375
#     4  11  23  43  66  93 123 160 206 261 324 392
#
# _framework density 21.406165999999999
#
# number of rings (size 3 to 8) (size 9 to 14) (size 15 to 20)
#    0.000    1.333    0.000    7.250    0.000    5.333 
#    0.000    0.000    0.000    0.000    0.000   15.167 
#    0.000    0.000    0.000    0.000    0.000    0.000 
#
# Total GULP energy -594650.440515 kJ/mol
# GULP energy per Si atom -12388.550844 kJ/mol
# Density = 2.135744 g / cm^3
# Si number density = 21.406166 Si / 1000 Ang^3
#
#
#
# Elastic Constant Matrix: (Units=GPa)
#
#
# Indices 1 2 3 4 5 6 
#
# 1 132.3040 50.2175 50.7170 0.0000 0.0000 0.0000
# 2 50.2175 93.8400 51.0470 0.0000 0.0000 0.0000
# 3 50.7170 51.0470 149.7672 0.0000 0.0000 0.0000
# 4 0.0000 0.0000 0.0000 27.5645 0.0000 0.0000
# 5 0.0000 0.0000 0.0000 0.0000 30.1772 0.0000
# 6 0.0000 0.0000 0.0000 0.0000 0.0000 29.1486
#
#
#
# Elastic Compliance Matrix: (Units=1/GPa)
#
#
# Indices 1 2 3 4 5 6 
#
# 1 0.009907 -0.004268 -0.001900 0.000000 0.000000 0.000000
# 2 -0.004268 0.014921 -0.003640 0.000000 0.000000 0.000000
# 3 -0.001900 -0.003640 0.008561 0.000000 0.000000 0.000000
# 4 0.000000 0.000000 0.000000 0.036279 0.000000 0.000000
# 5 0.000000 0.000000 0.000000 0.000000 0.033138 0.000000
# 6 0.000000 0.000000 0.000000 0.000000 0.000000 0.034307
#
#
# Mechanical properties :
#
#
# Convention : Reuss Voigt Hill
#
# Bulk Modulus (GPa) = 72.61128 75.54160 74.07644
# Shear Modulus (GPa) = 30.99453 32.30669 31.65061
#
# Velocity S-wave (km/s) = 3.80929 3.88909 3.84940
# Velocity P-wave (km/s) = 7.30356 7.45204 7.37817
#
# Compressibility (1/GPa) = 0.01377197
#
# Stress axis : x y z
#
# Youngs Moduli (GPa) = 100.94244 67.02155 116.80518
#
# Poissons Ratio (x) = 0.28604 0.22194
# Poissons Ratio (y) = 0.43080 0.42521
# Poissons Ratio (z) = 0.19180 0.24398
#
# Static dielectric constant tensor:
#      x y z
#    x 4.153740 0.000000 0.000000 
#    y 0.000000 3.703680 0.000000 
#    z 0.000000 0.000000 4.006880 
# 
# 
# High freq. dielectric constant tensor:
#      x y z
#    x 1.858490 0.000000 0.000000 
#    y 0.000000 1.827920 0.000000 
#    z 0.000000 0.000000 1.839820 
# 
# From -- ./inp_files/25058.got.cif
#   From: 2010.03.12/outbox.cif.g09.slc.cpg/sg50_13_cif.got.tgz:25058.got - 2010.04.16 13:23:21.
