data_PCOD8204305
_publ_section_title
;
Structure prediction by ZEFSAII (Michael W. Deem and Ramdas Pophale) SiO2 
 PCOD8204305
Probable space group: P C C M
;
_chemical_formula_sum "Si O2"
_cell_formula_units_Z 48
_cell_length_a 13.606184
_cell_length_b 18.584611
_cell_length_c 9.366237
_cell_angle_alpha 90.000000
_cell_angle_beta 90.000000
_cell_angle_gamma 90.000000
_cell_volume 2368.399484
_symmetry_space_group_name_H-M "P C C M"
_symmetry_group_IT_number 49
_symmetry_cell_setting 'orthorhombic'
loop_
_space_group_symop_operation_xyz
x,y,z
-x,-y,z
x,-y,1/2-z
-x,y,1/2-z
-x,-y,-z
x,y,-z
-x,y,1/2+z
x,-y,1/2+z
loop_
_atom_site_type_symbol
_atom_site_label
_atom_site_fract_x
_atom_site_fract_y
_atom_site_fract_z
Si Si1 0.411655 0.899058 0.500000
Si Si2 0.696181 0.428150 0.330388
Si Si3 0.906497 0.792436 0.834949
Si Si4 0.403664 0.701869 0.834855
Si Si5 0.637431 0.062867 0.000000
Si Si6 0.091965 0.372140 0.836377
Si Si7 0.299473 0.158461 0.258479
O O1 0.528536 0.903915 0.500000
O O2 0.378347 0.853408 0.365238
O O3 0.362170 0.977256 0.500000
O O4 0.661413 0.500000 0.250000
O O5 0.671614 0.430340 0.500000
O O6 0.638892 0.364164 0.254828
O O7 0.812215 0.419086 0.304677
O O8 0.886051 0.709921 0.790166
O O9 0.810869 0.839190 0.800350
O O10 0.000000 0.823466 0.750000
O O11 0.932116 0.799189 0.000000
O O12 0.500000 0.727140 0.750000
O O13 0.326465 0.767400 0.837332
O O14 0.425374 0.680126 0.000000
O O15 0.695400 0.090196 0.862253
O O16 0.000000 0.404482 0.750000
O O17 0.061278 0.375845 0.000000
#
# Coordination Sequence:
#
# PCOD8204305 Si02
#       7
#     4   8   8   8   4   8   8
#     4  11  24  42  67  93 142 174 216 261 325 389
#     4  11  24  43  64  90 129 169 212 267 326 383
#     4  10  21  38  63  94 127 167 215 271 326 382
#     4  12  26  42  66  96 127 168 218 267 317 381
#     4  11  24  42  63 103 132 178 216 261 321 397
#     4   9  19  36  58  87 122 162 207 261 320 378
#     4  12  23  40  67  98 132 172 217 271 325 381
#
# _framework density 20.266850000000002
#
# number of rings (size 3 to 8) (size 9 to 14) (size 15 to 20)
#    0.000    1.167    3.333    3.000    3.500    3.333 
#    0.000    3.333    0.000    3.000    0.000    0.000 
#    0.000    0.000    0.000    0.000    0.000    0.000 
#
# Total GULP energy -595362.389556 kJ/mol
# GULP energy per Si atom -12403.383116 kJ/mol
# Density = 2.022072 g / cm^3
# Si number density = 20.266850 Si / 1000 Ang^3
#
#
#
# Elastic Constant Matrix: (Units=GPa)
#
#
# Indices 1 2 3 4 5 6 
#
# 1 80.7711 23.5417 35.3358 0.0000 0.0000 0.0000
# 2 23.5417 79.4824 30.7028 0.0000 0.0000 0.0000
# 3 35.3358 30.7028 127.3697 0.0000 0.0000 0.0000
# 4 0.0000 0.0000 0.0000 31.5948 0.0000 0.0000
# 5 0.0000 0.0000 0.0000 0.0000 41.3693 0.0000
# 6 0.0000 0.0000 0.0000 0.0000 0.0000 26.1735
#
#
#
# Elastic Compliance Matrix: (Units=1/GPa)
#
#
# Indices 1 2 3 4 5 6 
#
# 1 0.014741 -0.003073 -0.003349 0.000000 0.000000 0.000000
# 2 -0.003073 0.014514 -0.002646 0.000000 0.000000 0.000000
# 3 -0.003349 -0.002646 0.009418 0.000000 0.000000 0.000000
# 4 0.000000 0.000000 0.000000 0.031651 0.000000 0.000000
# 5 0.000000 0.000000 0.000000 0.000000 0.024173 0.000000
# 6 0.000000 0.000000 0.000000 0.000000 0.000000 0.038207
#
#
# Mechanical properties :
#
#
# Convention : Reuss Voigt Hill
#
# Bulk Modulus (GPa) = 48.69093 51.86487 50.27790
# Shear Modulus (GPa) = 31.70896 33.03038 32.36967
#
# Velocity S-wave (km/s) = 3.95976 4.04143 4.00080
# Velocity P-wave (km/s) = 6.70696 6.88651 6.79733
#
# Compressibility (1/GPa) = 0.02053771
#
# Stress axis : x y z
#
# Youngs Moduli (GPa) = 67.83658 68.90086 106.17830
#
# Poissons Ratio (x) = 0.21170 0.35559
# Poissons Ratio (y) = 0.20843 0.28096
# Poissons Ratio (z) = 0.22718 0.18232
#
# Static dielectric constant tensor:
#      x y z
#    x 3.664990 0.000000 0.000000 
#    y 0.000000 3.543020 0.000000 
#    z 0.000000 0.000000 3.757240 
# 
# 
# High freq. dielectric constant tensor:
#      x y z
#    x 1.788700 0.000000 0.000000 
#    y 0.000000 1.779610 0.000000 
#    z 0.000000 0.000000 1.805910 
# 
# From -- ./inp_files/3753.got.cif
#   From: 2010.03.12/outbox.cif.g09.slc.cpg/sg49_2_cif.got.tgz:3753.got - 2010.04.14 03:58:27.
