data_PCOD8204716
_publ_section_title
;
Structure prediction by ZEFSAII (Michael W. Deem and Ramdas Pophale) SiO2 
 PCOD8204716
Probable space group: P B A N
;
_chemical_formula_sum "Si O2"
_cell_formula_units_Z 48
_cell_length_a 17.883653
_cell_length_b 5.147610
_cell_length_c 28.331592
_cell_angle_alpha 90.000000
_cell_angle_beta 90.000000
_cell_angle_gamma 90.000000
_cell_volume 2608.151708
_symmetry_space_group_name_H-M "P B A N"
_symmetry_group_IT_number 50
_space_group.IT_coordinate_system_code '2'
_symmetry_cell_setting 'orthorhombic'
loop_
_space_group_symop_operation_xyz
x,y,z
1/2-x,1/2-y,z
x,1/2-y,-z
1/2-x,y,-z
-x,-y,-z
1/2+x,1/2+y,-z
-x,1/2+y,z
1/2+x,-y,z
loop_
_atom_site_type_symbol
_atom_site_label
_atom_site_fract_x
_atom_site_fract_y
_atom_site_fract_z
Si Si1 0.046047 0.997592 0.875631
Si Si2 0.547667 0.762489 0.553997
Si Si3 0.915138 0.497354 0.979265
Si Si4 0.337029 0.252652 0.634479
Si Si5 0.550784 0.382493 0.225769
Si Si6 0.837076 0.250589 0.693224
O O1 0.093473 0.963447 0.923011
O O2 0.086912 0.909037 0.827045
O O3 0.975253 0.801837 0.876546
O O4 0.574954 0.750000 0.500000
O O5 0.485852 0.544751 0.565063
O O6 0.619351 0.709062 0.586063
O O7 0.872061 0.250000 0.000000
O O8 0.000000 0.500000 0.000000
O O9 0.873632 0.750000 0.000000
O O10 0.250000 0.250000 0.621851
O O11 0.358611 0.532166 0.655042
O O12 0.359592 0.029558 0.672135
O O13 0.508910 0.654057 0.234366
O O14 0.619694 0.324566 0.259532
O O15 0.750000 0.250000 0.706154
#
# Coordination Sequence:
#
# PCOD8204716 Si02
#       6
#     8   8   8   8   8   8
#     4  10  16  25  36  57  87 118 149 188 232 284
#     4  10  21  36  54  80 110 138 165 202 251 303
#     4  10  14  20  34  52  77 117 152 174 226 287
#     4  10  21  36  56  77  99 131 172 213 247 292
#     4  10  21  32  48  71  99 128 161 207 253 296
#     4  10  21  37  53  73 100 132 171 210 252 300
#
# _framework density 18.403835999999998
#
# number of rings (size 3 to 8) (size 9 to 14) (size 15 to 20)
#    0.000    2.000    3.333    2.000    0.000    4.333 
#    0.000    0.000    0.000    6.000    0.000    0.000 
#    0.000    0.667    0.000    9.000    0.000    0.000 
#
# Total GULP energy -594721.226900 kJ/mol
# GULP energy per Si atom -12390.025560 kJ/mol
# Density = 1.836195 g / cm^3
# Si number density = 18.403836 Si / 1000 Ang^3
#
#
#
# Elastic Constant Matrix: (Units=GPa)
#
#
# Indices 1 2 3 4 5 6 
#
# 1 40.6896 18.8794 59.1141 0.0000 0.0000 0.0000
# 2 18.8794 116.6874 30.8424 0.0000 0.0000 0.0000
# 3 59.1141 30.8424 145.4936 0.0000 0.0000 0.0000
# 4 0.0000 0.0000 0.0000 28.1241 0.0000 0.0000
# 5 0.0000 0.0000 0.0000 0.0000 4.1096 0.0000
# 6 0.0000 0.0000 0.0000 0.0000 0.0000 12.8462
#
#
#
# Elastic Compliance Matrix: (Units=1/GPa)
#
#
# Indices 1 2 3 4 5 6 
#
# 1 0.061328 -0.003534 -0.024168 0.000000 0.000000 0.000000
# 2 -0.003534 0.009282 -0.000532 0.000000 0.000000 0.000000
# 3 -0.024168 -0.000532 0.016806 0.000000 0.000000 0.000000
# 4 0.000000 0.000000 0.000000 0.035557 0.000000 0.000000
# 5 0.000000 0.000000 0.000000 0.000000 0.243335 0.000000
# 6 0.000000 0.000000 0.000000 0.000000 0.000000 0.077844
#
#
# Mechanical properties :
#
#
# Convention : Reuss Voigt Hill
#
# Bulk Modulus (GPa) = 32.31335 57.83806 45.07570
# Shear Modulus (GPa) = 9.78595 21.95163 15.86879
#
# Velocity S-wave (km/s) = 2.30844 3.45740 2.93960
# Velocity P-wave (km/s) = 4.97003 6.88720 6.00562
#
# Compressibility (1/GPa) = 0.03094696
#
# Stress axis : x y z
#
# Youngs Moduli (GPa) = 16.30568 107.73215 59.50426
#
# Poissons Ratio (x) = 0.38077 1.43813
# Poissons Ratio (y) = 0.05763 0.03164
# Poissons Ratio (z) = 0.39408 0.05728
#
# Static dielectric constant tensor:
#      x y z
#    x 2.798780 0.000000 0.000000 
#    y 0.000000 6.194290 0.000000 
#    z 0.000000 0.000000 3.697590 
# 
# 
# High freq. dielectric constant tensor:
#      x y z
#    x 1.644150 0.000000 0.000000 
#    y 0.000000 1.748440 0.000000 
#    z 0.000000 0.000000 1.727810 
# 
# From -- ./inp_files/31460.got.cif
#   From: 2010.03.12/outbox.cif.g09.slc.cpg/sg50_16_cif.got.tgz:31460.got - 2010.04.16 13:23:21.
