data_PCOD8204488
_publ_section_title
;
Structure prediction by ZEFSAII (Michael W. Deem and Ramdas Pophale) SiO2 
 PCOD8204488
Probable space group: P C C M
;
_chemical_formula_sum "Si O2"
_cell_formula_units_Z 56
_cell_length_a 20.720949
_cell_length_b 14.595387
_cell_length_c 8.702836
_cell_angle_alpha 90.000000
_cell_angle_beta 90.000000
_cell_angle_gamma 90.000000
_cell_volume 2632.001038
_symmetry_space_group_name_H-M "P C C M"
_symmetry_group_IT_number 49
_symmetry_cell_setting 'orthorhombic'
loop_
_space_group_symop_operation_xyz
x,y,z
-x,-y,z
x,-y,1/2-z
-x,y,1/2-z
-x,-y,-z
x,y,-z
-x,y,1/2+z
x,-y,1/2+z
loop_
_atom_site_type_symbol
_atom_site_label
_atom_site_fract_x
_atom_site_fract_y
_atom_site_fract_z
Si Si1 0.934625 0.726238 0.682511
Si Si2 0.118476 0.898608 0.682043
Si Si3 0.612164 0.095418 0.177091
Si Si4 0.678514 0.402561 0.680177
Si Si5 0.434380 0.287898 0.320920
Si Si6 0.174232 0.401068 0.818125
Si Si7 0.245810 0.099535 0.317955
O O1 0.936092 0.726199 0.500000
O O2 0.934340 0.829957 0.748529
O O3 0.872613 0.671201 0.740332
O O4 0.000000 0.680263 0.750000
O O5 0.113506 0.902998 0.500000
O O6 0.186634 0.849477 0.733969
O O7 0.107439 0.000000 0.750000
O O8 0.563600 0.178275 0.211640
O O9 0.682787 0.131845 0.232185
O O10 0.588544 0.000000 0.250000
O O11 0.617504 0.071535 0.000000
O O12 0.659793 0.500000 0.750000
O O13 0.669179 0.409334 0.500000
O O14 0.629388 0.328103 0.745292
O O15 0.751650 0.374375 0.724103
O O16 0.500000 0.329777 0.250000
O O17 0.432474 0.310162 0.500000
O O18 0.157804 0.500000 0.750000
O O19 0.163622 0.402526 0.000000
O O20 0.234921 0.102904 0.500000
O O21 0.237307 0.000000 0.250000
#
# Coordination Sequence:
#
# PCOD8204488 Si02
#       7
#     8   8   8   8   8   8   8
#     4  12  26  44  65  93 129 170 214 263 315 373
#     4  11  22  38  59  88 124 166 213 262 314 373
#     4   9  20  36  56  83 118 161 208 258 310 367
#     4  10  22  42  69  99 128 161 202 253 311 374
#     4  11  24  41  60  89 126 167 213 261 314 374
#     4  10  22  43  70 102 132 164 206 254 313 377
#     4   9  16  30  51  80 111 149 197 251 309 362
#
# _framework density 21.276589000000001
#
# number of rings (size 3 to 8) (size 9 to 14) (size 15 to 20)
#    0.000    1.714    0.000    5.143    2.000    4.571 
#    0.000    5.714    0.000    0.000    0.000    0.000 
#    0.000    0.000    0.000    0.000    0.000    0.000 
#
# Total GULP energy -694128.926241 kJ/mol
# GULP energy per Si atom -12395.159397 kJ/mol
# Density = 2.122816 g / cm^3
# Si number density = 21.276589 Si / 1000 Ang^3
#
#
#
# Elastic Constant Matrix: (Units=GPa)
#
#
# Indices 1 2 3 4 5 6 
#
# 1 106.2663 49.3884 53.5048 0.0000 0.0000 0.0000
# 2 49.3884 89.4796 50.8864 0.0000 0.0000 0.0000
# 3 53.5048 50.8864 143.5599 0.0000 0.0000 0.0000
# 4 0.0000 0.0000 0.0000 34.9611 0.0000 0.0000
# 5 0.0000 0.0000 0.0000 0.0000 35.3209 0.0000
# 6 0.0000 0.0000 0.0000 0.0000 0.0000 22.4489
#
#
#
# Elastic Compliance Matrix: (Units=1/GPa)
#
#
# Indices 1 2 3 4 5 6 
#
# 1 0.013630 -0.005804 -0.003022 0.000000 0.000000 0.000000
# 2 -0.005804 0.016469 -0.003674 0.000000 0.000000 0.000000
# 3 -0.003022 -0.003674 0.009395 0.000000 0.000000 0.000000
# 4 0.000000 0.000000 0.000000 0.028603 0.000000 0.000000
# 5 0.000000 0.000000 0.000000 0.000000 0.028312 0.000000
# 6 0.000000 0.000000 0.000000 0.000000 0.000000 0.044546
#
#
# Mechanical properties :
#
#
# Convention : Reuss Voigt Hill
#
# Bulk Modulus (GPa) = 69.00679 71.87389 70.44034
# Shear Modulus (GPa) = 29.27639 30.91458 30.09548
#
# Velocity S-wave (km/s) = 3.71346 3.81594 3.76505
# Velocity P-wave (km/s) = 7.13372 7.29858 7.21662
#
# Compressibility (1/GPa) = 0.01449133
#
# Stress axis : x y z
#
# Youngs Moduli (GPa) = 73.36965 60.72049 106.44362
#
# Poissons Ratio (x) = 0.35242 0.32172
# Poissons Ratio (y) = 0.42584 0.39112
# Poissons Ratio (z) = 0.22176 0.22311
#
# Static dielectric constant tensor:
#      x y z
#    x 5.134710 0.000000 0.000000 
#    y 0.000000 3.180690 0.000000 
#    z 0.000000 0.000000 3.898180 
# 
# 
# High freq. dielectric constant tensor:
#      x y z
#    x 1.845690 0.000000 0.000000 
#    y 0.000000 1.822310 0.000000 
#    z 0.000000 0.000000 1.843170 
# 
# From -- ./inp_files/5800.got.cif
#   From: 2010.03.12/outbox.cif.g09.slc.cpg/sg49_3_cif.got.tgz:5800.got - 2010.04.14 03:58:27.
