data_PCOD8204506
_publ_section_title
;
Structure prediction by ZEFSAII (Michael W. Deem and Ramdas Pophale) SiO2 
 PCOD8204506
Probable space group: P C C M
;
_chemical_formula_sum "Si O2"
_cell_formula_units_Z 56
_cell_length_a 30.173486
_cell_length_b 5.091915
_cell_length_c 16.254779
_cell_angle_alpha 90.000000
_cell_angle_beta 90.000000
_cell_angle_gamma 90.000000
_cell_volume 2497.397671
_symmetry_space_group_name_H-M "P C C M"
_symmetry_group_IT_number 49
_symmetry_cell_setting 'orthorhombic'
loop_
_space_group_symop_operation_xyz
x,y,z
-x,-y,z
x,-y,1/2-z
-x,y,1/2-z
-x,-y,-z
x,y,-z
-x,y,1/2+z
x,-y,1/2+z
loop_
_atom_site_type_symbol
_atom_site_label
_atom_site_fract_x
_atom_site_fract_y
_atom_site_fract_z
Si Si1 0.451072 0.529867 0.094478
Si Si2 0.020129 0.753400 0.157608
Si Si3 0.841235 0.431586 0.343713
Si Si4 0.888083 0.907606 0.594693
Si Si5 0.696618 0.059023 0.155248
Si Si6 0.594612 0.971830 0.155469
Si Si7 0.254943 0.572112 0.594191
O O1 0.500000 0.500000 0.134427
O O2 0.415780 0.330257 0.134384
O O3 0.436044 0.829940 0.104599
O O4 0.453608 0.452971 0.000000
O O5 0.072964 0.782347 0.151698
O O6 0.000000 0.500000 0.111675
O O7 0.000000 0.751281 0.250000
O O8 0.000000 0.000000 0.108945
O O9 0.852031 0.500000 0.250000
O O10 0.850174 0.687080 0.400070
O O11 0.789764 0.370146 0.355379
O O12 0.871356 0.183864 0.369661
O O13 0.902682 0.945563 0.500000
O O14 0.716059 0.344425 0.135441
O O15 0.706802 0.000000 0.250000
O O16 0.644796 0.050575 0.135562
O O17 0.718403 0.842711 0.096984
O O18 0.583347 0.000000 0.250000
O O19 0.244197 0.501098 0.500000
#
# Coordination Sequence:
#
# PCOD8204506 Si02
#       7
#     8   8   8   8   8   8   8
#     4  11  24  41  62  90 129 172 219 276 335 400
#     4  10  23  40  67  96 135 174 220 266 317 386
#     4  12  27  45  72  99 135 183 224 268 330 404
#     4  12  26  45  70 104 140 174 223 283 332 381
#     4  11  24  43  67  95 134 172 218 272 332 404
#     4  11  24  41  64  95 127 169 220 275 332 396
#     4  12  25  44  68  99 134 171 220 274 332 389
#
# _framework density 22.42334
#
# number of rings (size 3 to 8) (size 9 to 14) (size 15 to 20)
#    0.000    0.714    0.000    7.286    6.000    9.143 
#    0.000    0.000    0.000    0.000    0.000    0.000 
#    0.000    0.000    0.000    0.000    0.000    0.000 
#
# Total GULP energy -694465.147754 kJ/mol
# GULP energy per Si atom -12401.163353 kJ/mol
# Density = 2.237230 g / cm^3
# Si number density = 22.423340 Si / 1000 Ang^3
#
#
#
# Elastic Constant Matrix: (Units=GPa)
#
#
# Indices 1 2 3 4 5 6 
#
# 1 112.4096 39.5472 49.6285 0.0000 0.0000 0.0000
# 2 39.5472 144.6065 24.9708 0.0000 0.0000 0.0000
# 3 49.6285 24.9708 94.3525 0.0000 0.0000 0.0000
# 4 0.0000 0.0000 0.0000 29.2738 0.0000 0.0000
# 5 0.0000 0.0000 0.0000 0.0000 21.5319 0.0000
# 6 0.0000 0.0000 0.0000 0.0000 0.0000 43.3801
#
#
#
# Elastic Compliance Matrix: (Units=1/GPa)
#
#
# Indices 1 2 3 4 5 6 
#
# 1 0.012308 -0.002356 -0.005850 0.000000 0.000000 0.000000
# 2 -0.002356 0.007697 -0.000798 0.000000 0.000000 0.000000
# 3 -0.005850 -0.000798 0.013887 0.000000 0.000000 0.000000
# 4 0.000000 0.000000 0.000000 0.034160 0.000000 0.000000
# 5 0.000000 0.000000 0.000000 0.000000 0.046443 0.000000
# 6 0.000000 0.000000 0.000000 0.000000 0.000000 0.023052
#
#
# Mechanical properties :
#
#
# Convention : Reuss Voigt Hill
#
# Bulk Modulus (GPa) = 62.95674 64.40686 63.68180
# Shear Modulus (GPa) = 31.08490 34.65197 32.86844
#
# Velocity S-wave (km/s) = 3.72731 3.93536 3.83275
# Velocity P-wave (km/s) = 6.83090 7.03100 6.93167
#
# Compressibility (1/GPa) = 0.01588392
#
# Stress axis : x y z
#
# Youngs Moduli (GPa) = 81.25003 129.91451 72.01002
#
# Poissons Ratio (x) = 0.30604 0.42128
# Poissons Ratio (y) = 0.19140 0.05747
# Poissons Ratio (z) = 0.47534 0.10368
#
# Static dielectric constant tensor:
#      x y z
#    x 4.126540 0.000000 0.000000 
#    y 0.000000 2.967800 0.000000 
#    z 0.000000 0.000000 3.903870 
# 
# 
# High freq. dielectric constant tensor:
#      x y z
#    x 1.893560 0.000000 0.000000 
#    y 0.000000 1.906600 0.000000 
#    z 0.000000 0.000000 1.878770 
# 
# From -- ./inp_files/14602.got.cif
#   From: 2010.03.12/outbox.cif.g09.slc.cpg/sg49_8_cif.got.tgz:14602.got - 2010.04.14 03:58:27.
