data_PCOD8204656
_publ_section_title
;
Structure prediction by ZEFSAII (Michael W. Deem and Ramdas Pophale) SiO2 
 PCOD8204656
Probable space group: P C C M
;
_chemical_formula_sum "Si O2"
_cell_formula_units_Z 64
_cell_length_a 8.997275
_cell_length_b 22.067587
_cell_length_c 15.608846
_cell_angle_alpha 90.000000
_cell_angle_beta 90.000000
_cell_angle_gamma 90.000000
_cell_volume 3099.107479
_symmetry_space_group_name_H-M "P C C M"
_symmetry_group_IT_number 49
_symmetry_cell_setting 'orthorhombic'
loop_
_space_group_symop_operation_xyz
x,y,z
-x,-y,z
x,-y,1/2-z
-x,y,1/2-z
-x,-y,-z
x,y,-z
-x,y,1/2+z
x,-y,1/2+z
loop_
_atom_site_type_symbol
_atom_site_label
_atom_site_fract_x
_atom_site_fract_y
_atom_site_fract_z
Si Si1 0.828106 0.861594 0.403531
Si Si2 0.836702 0.500000 0.898499
Si Si3 0.328717 0.928617 0.750000
Si Si4 0.175171 0.369273 0.900532
Si Si5 0.667579 0.252543 0.847008
Si Si6 0.667579 0.747457 0.847008
Si Si7 0.175171 0.630727 0.099468
Si Si8 0.171894 0.138406 0.096469
O O1 0.807967 0.887520 0.500000
O O2 0.744435 0.904220 0.336769
O O3 0.763918 0.793547 0.403187
O O4 0.000000 0.858843 0.377432
O O5 0.760150 0.563979 0.871878
O O6 0.760150 0.436021 0.871878
O O7 0.000000 0.500000 0.857024
O O8 0.854044 0.500000 0.000000
O O9 0.500000 0.908728 0.750000
O O10 0.255565 0.904220 0.663231
O O11 0.308301 0.000000 0.750000
O O12 0.261931 0.319172 0.847166
O O13 1.000000 0.365611 0.881066
O O14 0.206912 0.357402 0.000000
O O15 0.500000 0.255242 0.883113
O O16 0.668296 0.228070 0.750000
O O17 0.738069 0.319172 0.847166
O O18 0.763918 0.793547 0.903187
O O19 0.206912 0.642598 0.000000
O O20 0.192033 0.112480 0.000000
#
# Coordination Sequence:
#
# PCOD8204656 Si02
#       8
#     8   8   8   8   8   8   8   8
#     4  11  24  42  67  97 127 164 211 260 308 358
#     4   7  12  26  48  73 102 136 180 239 300 360
#     4  11  25  45  69  99 135 172 207 246 297 359
#     4   9  17  31  53  79 105 139 188 244 303 366
#     4  11  23  37  54  80 116 157 199 247 307 368
#     4  11  23  37  54  80 116 157 199 247 307 368
#     4   9  17  31  53  79 105 139 188 244 303 366
#     4  11  24  42  67  97 127 164 211 260 308 358
#
# _framework density 20.651105999999999
#
# number of rings (size 3 to 8) (size 9 to 14) (size 15 to 20)
#    0.000    2.000    1.250    4.125    0.000    8.500 
#    0.000    3.750    0.000    6.000    0.000    0.000 
#    0.000    0.000    0.000    0.000    0.000    0.000 
#
# Total GULP energy -793321.584141 kJ/mol
# GULP energy per Si atom -12395.649752 kJ/mol
# Density = 2.060410 g / cm^3
# Si number density = 20.651106 Si / 1000 Ang^3
#
#
#
# Elastic Constant Matrix: (Units=GPa)
#
#
# Indices 1 2 3 4 5 6 
#
# 1 131.5495 64.6519 52.5398 0.0000 0.0000 0.0000
# 2 64.6519 115.8220 41.4204 0.0000 0.0000 0.0000
# 3 52.5398 41.4204 87.8364 0.0000 0.0000 0.0000
# 4 0.0000 0.0000 0.0000 28.6874 0.0000 0.0000
# 5 0.0000 0.0000 0.0000 0.0000 3.7054 0.0000
# 6 0.0000 0.0000 0.0000 0.0000 0.0000 15.0450
#
#
#
# Elastic Compliance Matrix: (Units=1/GPa)
#
#
# Indices 1 2 3 4 5 6 
#
# 1 0.011960 -0.004953 -0.004818 0.000000 0.000000 0.000000
# 2 -0.004953 0.012437 -0.002902 0.000000 0.000000 0.000000
# 3 -0.004818 -0.002902 0.015635 0.000000 0.000000 0.000000
# 4 0.000000 0.000000 0.000000 0.034859 0.000000 0.000000
# 5 0.000000 0.000000 0.000000 0.000000 0.269879 0.000000
# 6 0.000000 0.000000 0.000000 0.000000 0.000000 0.066467
#
#
# Mechanical properties :
#
#
# Convention : Reuss Voigt Hill
#
# Bulk Modulus (GPa) = 68.09471 72.49245 70.29358
# Shear Modulus (GPa) = 11.32556 21.26061 16.29308
#
# Velocity S-wave (km/s) = 2.34439 3.21209 2.81191
# Velocity P-wave (km/s) = 6.35403 6.99545 6.68244
#
# Compressibility (1/GPa) = 0.01468543
#
# Stress axis : x y z
#
# Youngs Moduli (GPa) = 83.60884 80.40812 63.95738
#
# Poissons Ratio (x) = 0.39827 0.30818
# Poissons Ratio (y) = 0.41413 0.18560
# Poissons Ratio (z) = 0.40287 0.23333
#
# Static dielectric constant tensor:
#      x y z
#    x 3.603130 0.000000 0.000000 
#    y 0.000000 3.875540 0.000000 
#    z 0.000000 0.000000 3.540410 
# 
# 
# High freq. dielectric constant tensor:
#      x y z
#    x 1.790390 0.000000 0.000000 
#    y 0.000000 1.818690 0.000000 
#    z 0.000000 0.000000 1.799980 
# 
# From -- ./inp_files/12098.got.cif
#   From: 2010.03.12/outbox.cif.g09.slc.cpg/sg49_7_cif.got.tgz:12098.got - 2010.04.14 03:58:27.
