data_PCOD8204865
_publ_section_title
;
Structure prediction by ZEFSAII (Michael W. Deem and Ramdas Pophale) SiO2 
 PCOD8204865
Probable space group: P B A N
;
_chemical_formula_sum "Si O2"
_cell_formula_units_Z 60
_cell_length_a 16.463969
_cell_length_b 22.024948
_cell_length_c 11.419090
_cell_angle_alpha 90.000000
_cell_angle_beta 90.000000
_cell_angle_gamma 90.000000
_cell_volume 4140.768275
_symmetry_space_group_name_H-M "P B A N"
_symmetry_group_IT_number 50
_space_group.IT_coordinate_system_code '2'
_symmetry_cell_setting 'orthorhombic'
loop_
_space_group_symop_operation_xyz
x,y,z
1/2-x,1/2-y,z
x,1/2-y,-z
1/2-x,y,-z
-x,-y,-z
1/2+x,1/2+y,-z
-x,1/2+y,z
1/2+x,-y,z
loop_
_atom_site_type_symbol
_atom_site_label
_atom_site_fract_x
_atom_site_fract_y
_atom_site_fract_z
Si Si1 0.512262 0.120106 0.999991
Si Si2 0.345636 0.371026 0.633034
Si Si3 0.047724 0.250000 0.000000
Si Si4 0.571752 0.956582 0.808539
Si Si5 0.928352 0.543747 0.191298
Si Si6 0.656340 0.466877 0.000209
Si Si7 0.154553 0.249997 0.769390
Si Si8 0.154433 0.129069 0.367228
O O1 0.512675 0.192723 0.000733
O O2 0.470318 0.097301 0.881534
O O3 0.603876 0.094822 0.007979
O O4 0.459695 0.097335 0.109306
O O5 0.385611 0.428749 0.695495
O O6 0.371048 0.308683 0.695207
O O7 0.377318 0.368751 0.500112
O O8 0.250031 0.380101 0.637693
O O9 0.106402 0.250646 0.889448
O O10 0.496298 0.996752 0.764932
O O11 0.635257 0.997622 0.880574
O O12 0.885489 0.571481 0.304238
O O13 0.862500 0.509770 0.110444
O O14 0.750000 0.448180 0.000000
O O15 0.250000 0.250000 0.798469
O O16 0.129233 0.308427 0.694352
#
# Coordination Sequence:
#
# PCOD8204865 Si02
#       8
#     8   8   4   8   8   8   8   8
#     4   9  18  29  45  67  87 112 141 180 224 254
#     4  10  19  30  43  62  90 120 146 175 211 250
#     4  12  17  30  49  64  86 114 140 188 215 254
#     4   9  17  30  45  65  88 114 146 176 212 256
#     4   9  17  30  45  65  88 114 146 176 212 256
#     4   9  17  30  47  65  89 114 140 177 222 264
#     4  10  20  30  43  64  89 117 145 175 215 259
#     4  10  19  30  43  62  90 120 146 175 211 250
#
# _framework density 14.490065
#
# number of rings (size 3 to 8) (size 9 to 14) (size 15 to 20)
#    0.000    2.400    2.667    3.000    0.000    2.133 
#    0.000    0.333    0.000    0.000    0.000    0.000 
#    0.000    0.000    0.000    6.933    0.000    0.000 
#
# Total GULP energy -743982.662340 kJ/mol
# GULP energy per Si atom -12399.711039 kJ/mol
# Density = 1.445709 g / cm^3
# Si number density = 14.490065 Si / 1000 Ang^3
#
#
#
# Elastic Constant Matrix: (Units=GPa)
#
#
# Indices 1 2 3 4 5 6 
#
# 1 59.1465 27.9078 33.4423 0.0000 0.0000 0.0000
# 2 27.9078 96.4656 44.5278 0.0000 0.0000 0.0000
# 3 33.4423 44.5278 109.2535 0.0000 0.0000 0.0000
# 4 0.0000 0.0000 0.0000 9.6865 0.0000 0.0000
# 5 0.0000 0.0000 0.0000 0.0000 20.7930 0.0000
# 6 0.0000 0.0000 0.0000 0.0000 0.0000 22.5464
#
#
#
# Elastic Compliance Matrix: (Units=1/GPa)
#
#
# Indices 1 2 3 4 5 6 
#
# 1 0.021595 -0.003937 -0.005006 0.000000 0.000000 0.000000
# 2 -0.003937 0.013486 -0.004291 0.000000 0.000000 0.000000
# 3 -0.005006 -0.004291 0.012434 0.000000 0.000000 0.000000
# 4 0.000000 0.000000 0.000000 0.103237 0.000000 0.000000
# 5 0.000000 0.000000 0.000000 0.000000 0.048093 0.000000
# 6 0.000000 0.000000 0.000000 0.000000 0.000000 0.044353
#
#
# Mechanical properties :
#
#
# Convention : Reuss Voigt Hill
#
# Bulk Modulus (GPa) = 47.51146 52.95793 50.23470
# Shear Modulus (GPa) = 18.07126 21.20435 19.63781
#
# Velocity S-wave (km/s) = 3.53533 3.82955 3.68538
# Velocity P-wave (km/s) = 7.03739 7.49540 7.27001
#
# Compressibility (1/GPa) = 0.02104755
#
# Stress axis : x y z
#
# Youngs Moduli (GPa) = 46.30685 74.14962 80.42283
#
# Poissons Ratio (x) = 0.29192 0.40257
# Poissons Ratio (y) = 0.18231 0.34513
# Poissons Ratio (z) = 0.23180 0.31821
#
# Static dielectric constant tensor:
#      x y z
#    x 2.619200 0.000000 0.000000 
#    y 0.000000 2.827560 0.000000 
#    z 0.000000 0.000000 2.830260 
# 
# 
# High freq. dielectric constant tensor:
#      x y z
#    x 1.534400 0.000000 0.000000 
#    y 0.000000 1.554590 0.000000 
#    z 0.000000 0.000000 1.552880 
# 
# From -- ./inp_files/21412.got.cif
#   From: 2010.03.12/outbox.cif.g09.slc.cpg/sg50_11_cif.got.tgz:21412.got - 2010.04.16 13:23:21.
