data_PCOD8204949
_publ_section_title
;
Structure prediction by ZEFSAII (Michael W. Deem and Ramdas Pophale) SiO2 
 PCOD8204949
Probable space group: P B A N
;
_chemical_formula_sum "Si O2"
_cell_formula_units_Z 60
_cell_length_a 20.027999
_cell_length_b 13.788217
_cell_length_c 10.985993
_cell_angle_alpha 90.000000
_cell_angle_beta 90.000000
_cell_angle_gamma 90.000000
_cell_volume 3033.786321
_symmetry_space_group_name_H-M "P B A N"
_symmetry_group_IT_number 50
_space_group.IT_coordinate_system_code '2'
_symmetry_cell_setting 'orthorhombic'
loop_
_space_group_symop_operation_xyz
x,y,z
1/2-x,1/2-y,z
x,1/2-y,-z
1/2-x,y,-z
-x,-y,-z
1/2+x,1/2+y,-z
-x,1/2+y,z
1/2+x,-y,z
loop_
_atom_site_type_symbol
_atom_site_label
_atom_site_fract_x
_atom_site_fract_y
_atom_site_fract_z
Si Si1 0.650669 0.265827 0.366253
Si Si2 0.588631 0.643567 0.463740
Si Si3 0.486499 0.707131 0.266151
Si Si4 0.627467 0.481824 0.309148
Si Si5 0.250000 0.750000 0.174106
Si Si6 0.477914 0.084545 0.711858
Si Si7 0.812230 0.058032 0.065851
Si Si8 0.944979 0.048862 0.912742
O O1 0.678975 0.250000 0.500000
O O2 0.576336 0.225956 0.353585
O O3 0.658034 0.380844 0.350669
O O4 0.693333 0.207661 0.265142
O O5 0.618364 0.750000 0.500000
O O6 0.536993 0.652095 0.353487
O O7 0.643103 0.568092 0.407399
O O8 0.553742 0.593113 0.578426
O O9 0.514614 0.811037 0.224308
O O10 0.472703 0.649696 0.141857
O O11 0.548077 0.471150 0.293268
O O12 0.663861 0.505741 0.180929
O O13 0.216014 0.665552 0.095397
O O14 0.429577 0.022335 0.798973
O O15 0.750000 0.002922 0.000000
O O16 0.875741 0.071890 0.978834
O O17 0.000000 0.000000 0.000000
#
# Coordination Sequence:
#
# PCOD8204949 Si02
#       8
#     8   8   8   8   4   8   8   8
#     4  10  20  33  55  86 121 159 199 247 310 395
#     4  10  19  34  58  89 122 154 194 265 337 377
#     4  10  20  33  54  87 120 158 198 256 332 370
#     4  10  19  36  57  84 124 158 201 257 313 374
#     4  10  22  38  54  80 122 173 203 234 302 384
#     4  10  20  33  56  89 120 160 204 264 320 373
#     4  11  23  40  59  84 126 177 213 251 312 387
#     4  12  23  38  58  89 129 170 224 266 304 378
#
# _framework density 19.777266000000001
#
# number of rings (size 3 to 8) (size 9 to 14) (size 15 to 20)
#    0.000    1.600    2.667    3.600    1.867    2.667 
#    0.000    0.000    0.000    0.000    0.000   19.600 
#    0.000    0.000    0.000    0.000    0.000    0.000 
#
# Total GULP energy -743530.959413 kJ/mol
# GULP energy per Si atom -12392.182657 kJ/mol
# Density = 1.973225 g / cm^3
# Si number density = 19.777266 Si / 1000 Ang^3
#
#
#
# Elastic Constant Matrix: (Units=GPa)
#
#
# Indices 1 2 3 4 5 6 
#
# 1 58.5051 34.8990 34.6610 0.0000 0.0000 0.0000
# 2 34.8990 111.0188 59.7245 0.0000 0.0000 0.0000
# 3 34.6610 59.7245 114.1379 0.0000 0.0000 0.0000
# 4 0.0000 0.0000 0.0000 32.3091 0.0000 0.0000
# 5 0.0000 0.0000 0.0000 0.0000 29.7553 0.0000
# 6 0.0000 0.0000 0.0000 0.0000 0.0000 22.7344
#
#
#
# Elastic Compliance Matrix: (Units=1/GPa)
#
#
# Indices 1 2 3 4 5 6 
#
# 1 0.022494 -0.004727 -0.004357 0.000000 0.000000 0.000000
# 2 -0.004727 0.013530 -0.005644 0.000000 0.000000 0.000000
# 3 -0.004357 -0.005644 0.013038 0.000000 0.000000 0.000000
# 4 0.000000 0.000000 0.000000 0.030951 0.000000 0.000000
# 5 0.000000 0.000000 0.000000 0.000000 0.033607 0.000000
# 6 0.000000 0.000000 0.000000 0.000000 0.000000 0.043986
#
#
# Mechanical properties :
#
#
# Convention : Reuss Voigt Hill
#
# Bulk Modulus (GPa) = 51.00865 60.24787 55.62826
# Shear Modulus (GPa) = 25.82673 27.25159 26.53916
#
# Velocity S-wave (km/s) = 3.61762 3.71607 3.66717
# Velocity P-wave (km/s) = 6.58005 6.99582 6.79112
#
# Compressibility (1/GPa) = 0.01960452
#
# Stress axis : x y z
#
# Youngs Moduli (GPa) = 44.45702 73.91094 76.69861
#
# Poissons Ratio (x) = 0.34936 0.33421
# Poissons Ratio (y) = 0.21014 0.43291
# Poissons Ratio (z) = 0.19372 0.41717
#
# Static dielectric constant tensor:
#      x y z
#    x 3.522300 0.000000 0.000000 
#    y 0.000000 3.773610 0.000000 
#    z 0.000000 0.000000 3.998320 
# 
# 
# High freq. dielectric constant tensor:
#      x y z
#    x 1.738100 0.000000 0.000000 
#    y 0.000000 1.762390 0.000000 
#    z 0.000000 0.000000 1.790350 
# 
# From -- ./inp_files/22504.got.cif
#   From: 2010.03.12/outbox.cif.g09.slc.cpg/sg50_12_cif.got.tgz:22504.got - 2010.04.16 13:23:21.
