data_PCOD8204547
_publ_section_title
;
Structure prediction by ZEFSAII (Michael W. Deem and Ramdas Pophale) SiO2 
 PCOD8204547
Probable space group: P C C M
;
_chemical_formula_sum "Si O2"
_cell_formula_units_Z 24
_cell_length_a 5.654529
_cell_length_b 19.200526
_cell_length_c 9.102330
_cell_angle_alpha 90.000000
_cell_angle_beta 90.000000
_cell_angle_gamma 90.000000
_cell_volume 988.239341
_symmetry_space_group_name_H-M "P C C M"
_symmetry_group_IT_number 49
_symmetry_cell_setting 'orthorhombic'
loop_
_space_group_symop_operation_xyz
x,y,z
-x,-y,z
x,-y,1/2-z
-x,y,1/2-z
-x,-y,-z
x,y,-z
-x,y,1/2+z
x,-y,1/2+z
loop_
_atom_site_type_symbol
_atom_site_label
_atom_site_fract_x
_atom_site_fract_y
_atom_site_fract_z
Si Si1 0.657548 0.682136 0.500000
Si Si2 0.500000 0.000000 0.250000
Si Si3 0.000000 0.500000 0.250000
Si Si4 0.263269 0.782604 0.500000
Si Si5 0.795239 0.941758 0.000000
Si Si6 0.000000 0.705746 0.750000
Si Si7 0.306072 0.558650 0.500000
O O1 0.547705 0.761876 0.500000
O O2 0.423424 0.634204 0.500000
O O3 0.819286 0.663586 0.642408
O O4 0.347837 0.050038 0.149148
O O5 0.151854 0.551684 0.352367
O O6 0.156847 0.860376 0.500000
O O7 0.162268 0.752455 0.648800
O O8 0.000000 0.000000 0.000000
O O9 0.500000 0.500000 0.500000
#
# Coordination Sequence:
#
# PCOD8204547 Si02
#       7
#     4   2   2   4   4   4   4
#     4  11  26  49  73 111 147 196 249 313 375 456
#     4  10  26  42  72 104 144 186 236 298 368 444
#     4  10  26  48  76 112 146 206 252 318 370 440
#     4  11  26  43  76 101 147 189 244 304 374 443
#     4  11  26  45  72 106 144 191 244 305 371 452
#     4  10  26  45  73 109 143 190 242 306 373 448
#     4  11  26  47  77 110 155 199 255 314 377 446
#
# _framework density 24.285616999999998
#
# number of rings (size 3 to 8) (size 9 to 14) (size 15 to 20)
#    0.000    1.333    0.000    2.000    9.333   16.000 
#    0.000    5.000    0.000    0.000    0.000    0.000 
#    0.000    0.000    0.000    0.000    0.000    0.000 
#
# Total GULP energy -297356.377637 kJ/mol
# GULP energy per Si atom -12389.849068 kJ/mol
# Density = 2.423034 g / cm^3
# Si number density = 24.285617 Si / 1000 Ang^3
#
#
#
# Elastic Constant Matrix: (Units=GPa)
#
#
# Indices 1 2 3 4 5 6 
#
# 1 153.6794 59.7139 83.8664 0.0000 0.0000 0.0000
# 2 59.7139 119.6116 50.8549 0.0000 0.0000 0.0000
# 3 83.8664 50.8549 221.8561 0.0000 0.0000 0.0000
# 4 0.0000 0.0000 0.0000 -23.4268 0.0000 0.0000
# 5 0.0000 0.0000 0.0000 0.0000 144.0244 0.0000
# 6 0.0000 0.0000 0.0000 0.0000 0.0000 39.2450
#
#
#
# Elastic Compliance Matrix: (Units=1/GPa)
#
#
# Indices 1 2 3 4 5 6 
#
# 1 0.009364 -0.003512 -0.002735 0.000000 0.000000 0.000000
# 2 -0.003512 0.010580 -0.001098 0.000000 0.000000 0.000000
# 3 -0.002735 -0.001098 0.005793 0.000000 0.000000 0.000000
# 4 0.000000 0.000000 0.000000 -0.042686 0.000000 0.000000
# 5 0.000000 0.000000 0.000000 0.000000 0.006943 0.000000
# 6 0.000000 0.000000 0.000000 0.000000 0.000000 0.025481
#
#
# Mechanical properties :
#
#
# Convention : Reuss Voigt Hill
#
# Bulk Modulus (GPa) = 90.51150 98.22417 94.36784
# Shear Modulus (GPa) = 147.72127 52.01596 99.86861
#
# Velocity S-wave (km/s) = 7.80761 4.63302 6.41964
# Velocity P-wave (km/s) = 10.89168 8.31583 9.68973
#
# Compressibility (1/GPa) = 0.01104832
#
# Stress axis : x y z
#
# Youngs Moduli (GPa) = 106.78988 94.51393 172.62682
#
# Poissons Ratio (x) = 0.33195 0.47210
# Poissons Ratio (y) = 0.37506 0.18948
# Poissons Ratio (z) = 0.29205 0.10374
#
# Static dielectric constant tensor:
#      x y z
#    x 4.876500 0.000000 0.000000 
#    y 0.000000 4.226060 0.000000 
#    z 0.000000 0.000000 4.596330 
# 
# 
# High freq. dielectric constant tensor:
#      x y z
#    x 1.976950 0.000000 0.000000 
#    y 0.000000 1.950750 0.000000 
#    z 0.000000 0.000000 2.000470 
# 
# From -- ./inp_files/828.got.cif
#   From: 2010.03.12/outbox.cif.g09.slc.cpg/sg49_1_cif.got.tgz:828.got - 2010.04.14 03:58:27.
