data_PCOD8204646
_publ_section_title
;
Structure prediction by ZEFSAII (Michael W. Deem and Ramdas Pophale) SiO2 
 PCOD8204646
Probable space group: P C C M
;
_chemical_formula_sum "Si O2"
_cell_formula_units_Z 24
_cell_length_a 8.757821
_cell_length_b 7.328136
_cell_length_c 16.802345
_cell_angle_alpha 90.000000
_cell_angle_beta 90.000000
_cell_angle_gamma 90.000000
_cell_volume 1078.349355
_symmetry_space_group_name_H-M "P C C M"
_symmetry_group_IT_number 49
_symmetry_cell_setting 'orthorhombic'
loop_
_space_group_symop_operation_xyz
x,y,z
-x,-y,z
x,-y,1/2-z
-x,y,1/2-z
-x,-y,-z
x,y,-z
-x,y,1/2+z
x,-y,1/2+z
loop_
_atom_site_type_symbol
_atom_site_label
_atom_site_fract_x
_atom_site_fract_y
_atom_site_fract_z
Si Si1 0.833480 0.543658 0.841989
Si Si2 0.389786 0.249832 0.590220
Si Si3 0.687906 0.091725 0.336491
O O1 0.821427 0.500000 0.750000
O O2 0.699761 0.434116 0.887322
O O3 0.819823 0.761360 0.850418
O O4 0.000000 0.500000 0.877826
O O5 0.448223 0.270435 0.500000
O O6 0.529819 0.204399 0.649785
O O7 0.283260 0.069961 0.599307
O O8 0.692137 0.000000 0.250000
#
# Coordination Sequence:
#
# PCOD8204646 Si02
#       3
#     8   8   8
#     4  11  25  43  64  94 132 177 219 260 317 388
#     4  11  24  42  68 101 131 165 214 273 325 376
#     4  11  22  41  69  97 128 169 220 268 317 379
#
# _framework density 22.256236999999999
#
# number of rings (size 3 to 8) (size 9 to 14) (size 15 to 20)
#    0.000    1.000    3.333    5.000    0.000    7.333 
#    0.000    1.667    0.000    0.000    0.000    0.000 
#    0.000    0.000    0.000    0.000    0.000    0.000 
#
# Total GULP energy -297444.069679 kJ/mol
# GULP energy per Si atom -12393.502903 kJ/mol
# Density = 2.220558 g / cm^3
# Si number density = 22.256237 Si / 1000 Ang^3
#
#
#
# Elastic Constant Matrix: (Units=GPa)
#
#
# Indices 1 2 3 4 5 6 
#
# 1 68.8283 43.1539 30.1207 0.0000 0.0000 0.0000
# 2 43.1539 161.2187 30.8727 0.0000 0.0000 0.0000
# 3 30.1207 30.8727 82.2708 0.0000 0.0000 0.0000
# 4 0.0000 0.0000 0.0000 24.1939 0.0000 0.0000
# 5 0.0000 0.0000 0.0000 0.0000 -9.1201 0.0000
# 6 0.0000 0.0000 0.0000 0.0000 0.0000 34.1604
#
#
#
# Elastic Compliance Matrix: (Units=1/GPa)
#
#
# Indices 1 2 3 4 5 6 
#
# 1 0.019600 -0.004172 -0.005610 0.000000 0.000000 0.000000
# 2 -0.004172 0.007571 -0.001314 0.000000 0.000000 0.000000
# 3 -0.005610 -0.001314 0.014702 0.000000 0.000000 0.000000
# 4 0.000000 0.000000 0.000000 0.041333 0.000000 0.000000
# 5 0.000000 0.000000 0.000000 0.000000 -0.109648 0.000000
# 6 0.000000 0.000000 0.000000 0.000000 0.000000 0.029274
#
#
# Mechanical properties :
#
#
# Convention : Reuss Voigt Hill
#
# Bulk Modulus (GPa) = 50.81038 57.84580 54.32809
# Shear Modulus (GPa) = 158.31141 23.72487 91.01814
#
# Velocity S-wave (km/s) = 8.44308 3.26849 6.40190
# Velocity P-wave (km/s) = 10.85941 6.34754 8.89433
#
# Compressibility (1/GPa) = 0.01968102
#
# Stress axis : x y z
#
# Youngs Moduli (GPa) = 51.02093 132.08215 68.01825
#
# Poissons Ratio (x) = 0.55105 0.38160
# Poissons Ratio (y) = 0.21286 0.08935
# Poissons Ratio (z) = 0.28624 0.17351
#
# Static dielectric constant tensor:
#      x y z
#    x 3.961220 0.000000 0.000000 
#    y 0.000000 5.160160 0.000000 
#    z 0.000000 0.000000 3.924030 
# 
# 
# High freq. dielectric constant tensor:
#      x y z
#    x 1.847470 0.000000 0.000000 
#    y 0.000000 1.905450 0.000000 
#    z 0.000000 0.000000 1.864380 
# 
# From -- ./inp_files/10984.got.cif
#   From: 2010.03.12/outbox.cif.g09.slc.cpg/sg49_6_cif.got.tgz:10984.got - 2010.04.14 03:58:27.
