data_PCOD8204961
_publ_section_title
;
Structure prediction by ZEFSAII (Michael W. Deem and Ramdas Pophale) SiO2 
 PCOD8204961
Probable space group: P B A N
;
_chemical_formula_sum "Si O2"
_cell_formula_units_Z 52
_cell_length_a 26.257957
_cell_length_b 16.523844
_cell_length_c 6.465074
_cell_angle_alpha 90.000000
_cell_angle_beta 90.000000
_cell_angle_gamma 90.000000
_cell_volume 2805.081728
_symmetry_space_group_name_H-M "P B A N"
_symmetry_group_IT_number 50
_space_group.IT_coordinate_system_code '2'
_symmetry_cell_setting 'orthorhombic'
loop_
_space_group_symop_operation_xyz
x,y,z
1/2-x,1/2-y,z
x,1/2-y,-z
1/2-x,y,-z
-x,-y,-z
1/2+x,1/2+y,-z
-x,1/2+y,z
1/2+x,-y,z
loop_
_atom_site_type_symbol
_atom_site_label
_atom_site_fract_x
_atom_site_fract_y
_atom_site_fract_z
Si Si1 0.750000 0.607268 0.500000
Si Si2 0.972395 0.573812 0.612353
Si Si3 0.924150 0.875458 0.784686
Si Si4 0.976929 0.339452 0.035449
Si Si5 0.405636 0.982663 0.063903
Si Si6 0.815925 0.824274 0.856928
Si Si7 0.204054 0.019219 0.874542
O O1 0.715499 0.666277 0.642718
O O2 0.716802 0.545865 0.359327
O O3 0.941778 0.628176 0.451406
O O4 0.930593 0.541177 0.769207
O O5 0.000000 0.500000 0.500000
O O6 0.013295 0.632108 0.727975
O O7 0.875669 0.816455 0.804562
O O8 0.969525 0.840883 0.920388
O O9 0.910476 0.968627 0.846955
O O10 0.935374 0.398685 0.936499
O O11 0.954139 0.250000 0.000000
O O12 0.346799 0.964237 0.123483
O O13 0.797542 0.750000 0.000000
O O14 0.807085 0.901320 0.995848
O O15 0.250000 0.973760 0.000000
#
# Coordination Sequence:
#
# PCOD8204961 Si02
#       7
#     4   8   8   8   8   8   8
#     4  10  20  37  52  74 100 137 188 234 274 317
#     4  11  18  34  57  79 103 153 183 213 264 321
#     4  10  19  36  54  77 109 145 186 220 258 328
#     4  11  22  34  52  82 117 140 174 224 271 327
#     4  10  19  35  55  78 108 140 182 221 268 323
#     4  10  21  34  52  77 107 143 180 227 280 319
#     4   9  20  35  54  77 101 134 182 233 272 321
#
# _framework density 18.537783999999998
#
# number of rings (size 3 to 8) (size 9 to 14) (size 15 to 20)
#    0.000    1.846    3.077    2.308    0.000    4.615 
#    0.000    1.538    0.000    5.077    0.000    0.000 
#    0.000    0.000    0.000    0.000    0.000    0.000 
#
# Total GULP energy -644583.982254 kJ/mol
# GULP energy per Si atom -12395.845813 kJ/mol
# Density = 1.849559 g / cm^3
# Si number density = 18.537784 Si / 1000 Ang^3
#
#
#
# Elastic Constant Matrix: (Units=GPa)
#
#
# Indices 1 2 3 4 5 6 
#
# 1 112.0402 16.8091 34.1096 0.0000 0.0000 0.0000
# 2 16.8091 55.8071 20.1980 0.0000 0.0000 0.0000
# 3 34.1096 20.1980 112.9269 0.0000 0.0000 0.0000
# 4 0.0000 0.0000 0.0000 20.1474 0.0000 0.0000
# 5 0.0000 0.0000 0.0000 0.0000 19.1497 0.0000
# 6 0.0000 0.0000 0.0000 0.0000 0.0000 6.2710
#
#
#
# Elastic Compliance Matrix: (Units=1/GPa)
#
#
# Indices 1 2 3 4 5 6 
#
# 1 0.010046 -0.002061 -0.002666 0.000000 0.000000 0.000000
# 2 -0.002061 0.019582 -0.002880 0.000000 0.000000 0.000000
# 3 -0.002666 -0.002880 0.010176 0.000000 0.000000 0.000000
# 4 0.000000 0.000000 0.000000 0.049634 0.000000 0.000000
# 5 0.000000 0.000000 0.000000 0.000000 0.052220 0.000000
# 6 0.000000 0.000000 0.000000 0.000000 0.000000 0.159464
#
#
# Mechanical properties :
#
#
# Convention : Reuss Voigt Hill
#
# Bulk Modulus (GPa) = 40.66658 47.00084 43.83371
# Shear Modulus (GPa) = 15.40679 23.09079 19.24879
#
# Velocity S-wave (km/s) = 2.88601 3.53314 3.22585
# Velocity P-wave (km/s) = 5.75241 6.48485 6.12958
#
# Compressibility (1/GPa) = 0.02459022
#
# Stress axis : x y z
#
# Youngs Moduli (GPa) = 99.54049 51.06741 98.27443
#
# Poissons Ratio (x) = 0.10525 0.26198
# Poissons Ratio (y) = 0.20516 0.28302
# Poissons Ratio (z) = 0.26536 0.14707
#
# Static dielectric constant tensor:
#      x y z
#    x 4.294640 0.000000 0.000000 
#    y 0.000000 3.049050 0.000000 
#    z 0.000000 0.000000 4.228780 
# 
# 
# High freq. dielectric constant tensor:
#      x y z
#    x 1.726170 0.000000 0.000000 
#    y 0.000000 1.669510 0.000000 
#    z 0.000000 0.000000 1.732320 
# 
# From -- ./inp_files/6732.got.cif
#   From: 2010.03.12/outbox.cif.g09.slc.cpg/sg50_4_cif.got.tgz:6732.got - 2010.04.16 13:23:21.
