data_PCOD8204827
_publ_section_title
;
Structure prediction by ZEFSAII (Michael W. Deem and Ramdas Pophale) SiO2 
 PCOD8204827
Probable space group: P B A N
;
_chemical_formula_sum "Si O2"
_cell_formula_units_Z 54
_cell_length_a 14.177717
_cell_length_b 18.417574
_cell_length_c 10.856999
_cell_angle_alpha 90.000000
_cell_angle_beta 90.000000
_cell_angle_gamma 90.000000
_cell_volume 2834.970372
_symmetry_space_group_name_H-M "P B A N"
_symmetry_group_IT_number 50
_space_group.IT_coordinate_system_code '2'
_symmetry_cell_setting 'orthorhombic'
loop_
_space_group_symop_operation_xyz
x,y,z
1/2-x,1/2-y,z
x,1/2-y,-z
1/2-x,y,-z
-x,-y,-z
1/2+x,1/2+y,-z
-x,1/2+y,z
1/2+x,-y,z
loop_
_atom_site_type_symbol
_atom_site_label
_atom_site_fract_x
_atom_site_fract_y
_atom_site_fract_z
Si Si1 0.517613 0.935173 0.822501
Si Si2 0.971477 0.093932 0.090951
Si Si3 0.750000 0.750000 0.500000
Si Si4 0.321012 0.134250 0.324793
Si Si5 0.783691 0.332283 0.867872
Si Si6 0.324709 0.552092 0.270346
Si Si7 0.190633 0.091048 0.126122
Si Si8 0.250000 0.481755 0.500000
O O1 0.593194 0.877917 0.770233
O O2 0.436427 0.937558 0.722089
O O3 0.560113 0.015415 0.852729
O O4 0.465182 0.905575 0.943815
O O5 0.080735 0.112637 0.118617
O O6 0.897870 0.154774 0.141212
O O7 0.678676 0.795493 0.587259
O O8 0.229542 0.141079 0.236665
O O9 0.320192 0.066151 0.417014
O O10 0.750000 0.250000 0.851195
O O11 0.733350 0.375780 0.759167
O O12 0.750000 0.362180 0.000000
O O13 0.296286 0.492058 0.168237
O O14 0.308907 0.532156 0.410982
O O15 0.250000 0.103012 0.000000
#
# Coordination Sequence:
#
# PCOD8204827 Si02
#       8
#     8   8   2   8   8   8   8   4
#     4  10  19  32  63  90 119 144 194 258 305 352
#     4  10  19  33  57  99 120 145 185 247 314 368
#     4  10  24  44  54  68 118 174 206 230 294 364
#     4  10  20  39  58  85 115 159 196 244 303 361
#     4  11  22  37  55  80 121 164 192 232 295 380
#     4  10  20  35  57  87 117 157 196 248 304 347
#     4  10  18  32  62  95 120 138 186 261 319 351
#     4   9  20  35  61  82 113 148 204 256 287 342
#
# _framework density 19.047817999999999
#
# number of rings (size 3 to 8) (size 9 to 14) (size 15 to 20)
#    0.000    1.926    2.963    2.222    2.074    0.593 
#    2.667    3.704    0.000    0.000    0.000    0.000 
#    0.000    0.000    0.000    0.000    0.000    0.000 
#
# Total GULP energy -669134.203514 kJ/mol
# GULP energy per Si atom -12391.374139 kJ/mol
# Density = 1.900446 g / cm^3
# Si number density = 19.047818 Si / 1000 Ang^3
#
#
#
# Elastic Constant Matrix: (Units=GPa)
#
#
# Indices 1 2 3 4 5 6 
#
# 1 116.6165 56.0335 49.2641 0.0000 0.0000 0.0000
# 2 56.0335 87.7791 49.6037 0.0000 0.0000 0.0000
# 3 49.2641 49.6037 108.9422 0.0000 0.0000 0.0000
# 4 0.0000 0.0000 0.0000 24.7000 0.0000 0.0000
# 5 0.0000 0.0000 0.0000 0.0000 27.2790 0.0000
# 6 0.0000 0.0000 0.0000 0.0000 0.0000 23.9988
#
#
#
# Elastic Compliance Matrix: (Units=1/GPa)
#
#
# Indices 1 2 3 4 5 6 
#
# 1 0.012984 -0.006692 -0.002824 0.000000 0.000000 0.000000
# 2 -0.006692 0.018788 -0.005528 0.000000 0.000000 0.000000
# 3 -0.002824 -0.005528 0.012974 0.000000 0.000000 0.000000
# 4 0.000000 0.000000 0.000000 0.040486 0.000000 0.000000
# 5 0.000000 0.000000 0.000000 0.000000 0.036658 0.000000
# 6 0.000000 0.000000 0.000000 0.000000 0.000000 0.041669
#
#
# Mechanical properties :
#
#
# Convention : Reuss Voigt Hill
#
# Bulk Modulus (GPa) = 68.23223 69.23783 68.73503
# Shear Modulus (GPa) = 25.18471 25.75802 25.47136
#
# Velocity S-wave (km/s) = 3.64013 3.68133 3.66079
# Velocity P-wave (km/s) = 7.31893 7.38227 7.35067
#
# Compressibility (1/GPa) = 0.01465583
#
# Stress axis : x y z
#
# Youngs Moduli (GPa) = 77.01941 53.22469 77.07998
#
# Poissons Ratio (x) = 0.35619 0.21769
# Poissons Ratio (y) = 0.51543 0.42613
# Poissons Ratio (z) = 0.21752 0.29425
#
# Static dielectric constant tensor:
#      x y z
#    x 3.563120 0.000000 0.000000 
#    y 0.000000 3.224590 0.000000 
#    z 0.000000 0.000000 3.539770 
# 
# 
# High freq. dielectric constant tensor:
#      x y z
#    x 1.742310 0.000000 0.000000 
#    y 0.000000 1.708950 0.000000 
#    z 0.000000 0.000000 1.740390 
# 
# From -- ./inp_files/21285.got.cif
#   From: 2010.03.12/outbox.cif.g09.slc.cpg/sg50_11_cif.got.tgz:21285.got - 2010.04.16 13:23:21.
