data_PCOD8204923
_publ_section_title
;
Structure prediction by ZEFSAII (Michael W. Deem and Ramdas Pophale) SiO2 
 PCOD8204923
Probable space group: P B A N
;
_chemical_formula_sum "Si O2"
_cell_formula_units_Z 48
_cell_length_a 14.767295
_cell_length_b 20.325909
_cell_length_c 8.703287
_cell_angle_alpha 90.000000
_cell_angle_beta 90.000000
_cell_angle_gamma 90.000000
_cell_volume 2612.367262
_symmetry_space_group_name_H-M "P B A N"
_symmetry_group_IT_number 50
_space_group.IT_coordinate_system_code '2'
_symmetry_cell_setting 'orthorhombic'
loop_
_space_group_symop_operation_xyz
x,y,z
1/2-x,1/2-y,z
x,1/2-y,-z
1/2-x,y,-z
-x,-y,-z
1/2+x,1/2+y,-z
-x,1/2+y,z
1/2+x,-y,z
loop_
_atom_site_type_symbol
_atom_site_label
_atom_site_fract_x
_atom_site_fract_y
_atom_site_fract_z
Si Si1 0.836666 0.171478 0.392288
Si Si2 0.640012 0.426829 0.856786
Si Si3 0.471388 0.453327 0.638937
Si Si4 0.338404 0.544343 0.800730
Si Si5 0.887661 0.278771 0.167494
Si Si6 0.485632 0.309243 0.587031
O O1 0.750000 0.166409 0.500000
O O2 0.861307 0.103639 0.311729
O O3 0.826209 0.228919 0.266126
O O4 0.917972 0.186197 0.505202
O O5 0.557405 0.448633 0.751007
O O6 0.730242 0.466772 0.809348
O O7 0.663178 0.349334 0.837559
O O8 0.616977 0.441741 0.033560
O O9 0.500000 0.500000 0.500000
O O10 0.384882 0.479889 0.730509
O O11 0.438690 0.380818 0.580993
O O12 0.989316 0.288132 0.238197
O O13 0.901505 0.250000 0.000000
O O14 0.429574 0.250000 0.500000
#
# Coordination Sequence:
#
# PCOD8204923 Si02
#       6
#     8   8   8   8   8   8
#     4  11  20  33  48  75 113 151 182 221 269 337
#     4  10  23  38  52  83 114 151 193 230 273 341
#     4  11  21  37  58  81 112 148 186 232 287 337
#     4  11  22  36  55  75 114 151 191 229 274 335
#     4  10  19  34  51  75 112 154 183 216 271 337
#     4   9  20  34  50  77 109 138 185 230 278 335
#
# _framework density 18.374139
#
# number of rings (size 3 to 8) (size 9 to 14) (size 15 to 20)
#    0.000    1.667    3.333    2.500    0.000    7.667 
#    0.000    0.000    0.000    0.000    0.000    2.333 
#    0.000    2.667    0.000    0.000    0.000    0.000 
#
# Total GULP energy -594980.133162 kJ/mol
# GULP energy per Si atom -12395.419441 kJ/mol
# Density = 1.833232 g / cm^3
# Si number density = 18.374139 Si / 1000 Ang^3
#
#
#
# Elastic Constant Matrix: (Units=GPa)
#
#
# Indices 1 2 3 4 5 6 
#
# 1 49.1194 50.7469 33.4863 0.0000 0.0000 0.0000
# 2 50.7469 156.2057 63.7346 0.0000 0.0000 0.0000
# 3 33.4863 63.7346 116.3940 0.0000 0.0000 0.0000
# 4 0.0000 0.0000 0.0000 40.6371 0.0000 0.0000
# 5 0.0000 0.0000 0.0000 0.0000 15.9438 0.0000
# 6 0.0000 0.0000 0.0000 0.0000 0.0000 27.0493
#
#
#
# Elastic Compliance Matrix: (Units=1/GPa)
#
#
# Indices 1 2 3 4 5 6 
#
# 1 0.032440 -0.008667 -0.004587 0.000000 0.000000 0.000000
# 2 -0.008667 0.010559 -0.003288 0.000000 0.000000 0.000000
# 3 -0.004587 -0.003288 0.011712 0.000000 0.000000 0.000000
# 4 0.000000 0.000000 0.000000 0.024608 0.000000 0.000000
# 5 0.000000 0.000000 0.000000 0.000000 0.062720 0.000000
# 6 0.000000 0.000000 0.000000 0.000000 0.000000 0.036969
#
#
# Mechanical properties :
#
#
# Convention : Reuss Voigt Hill
#
# Bulk Modulus (GPa) = 46.24101 68.62831 57.43466
# Shear Modulus (GPa) = 22.79949 28.30946 25.55447
#
# Velocity S-wave (km/s) = 3.52639 3.92946 3.73337
# Velocity P-wave (km/s) = 6.46541 7.61703 7.06472
#
# Compressibility (1/GPa) = 0.02162583
#
# Stress axis : x y z
#
# Youngs Moduli (GPa) = 30.82605 94.70280 85.38364
#
# Poissons Ratio (x) = 0.82082 0.39165
# Poissons Ratio (y) = 0.26718 0.28078
# Poissons Ratio (z) = 0.14140 0.31143
#
# Static dielectric constant tensor:
#      x y z
#    x 2.941150 0.000000 0.000000 
#    y 0.000000 4.179600 0.000000 
#    z 0.000000 0.000000 3.822130 
# 
# 
# High freq. dielectric constant tensor:
#      x y z
#    x 1.656260 0.000000 0.000000 
#    y 0.000000 1.717590 0.000000 
#    z 0.000000 0.000000 1.738590 
# 
# From -- ./inp_files/13141.got.cif
#   From: 2010.03.12/outbox.cif.g09.slc.cpg/sg50_7_cif.got.tgz:13141.got - 2010.04.16 13:23:21.
