data_PCOD8204798
_publ_section_title
;
Structure prediction by ZEFSAII (Michael W. Deem and Ramdas Pophale) SiO2 
 PCOD8204798
Probable space group: P B A N
;
_chemical_formula_sum "Si O2"
_cell_formula_units_Z 40
_cell_length_a 9.811022
_cell_length_b 21.859968
_cell_length_c 10.429338
_cell_angle_alpha 90.000000
_cell_angle_beta 90.000000
_cell_angle_gamma 90.000000
_cell_volume 2236.765801
_symmetry_space_group_name_H-M "P B A N"
_symmetry_group_IT_number 50
_space_group.IT_coordinate_system_code '2'
_symmetry_cell_setting 'orthorhombic'
loop_
_space_group_symop_operation_xyz
x,y,z
1/2-x,1/2-y,z
x,1/2-y,-z
1/2-x,y,-z
-x,-y,-z
1/2+x,1/2+y,-z
-x,1/2+y,z
1/2+x,-y,z
loop_
_atom_site_type_symbol
_atom_site_label
_atom_site_fract_x
_atom_site_fract_y
_atom_site_fract_z
Si Si1 0.032908 0.515241 0.294639
Si Si2 0.405444 0.407428 0.512647
Si Si3 0.750000 0.250000 0.194955
Si Si4 0.805163 0.063739 0.795893
Si Si5 0.859347 0.165228 0.606130
Si Si6 0.750000 0.346728 0.000000
O O1 0.092647 0.461307 0.382658
O O2 0.150592 0.538904 0.198627
O O3 0.971363 0.569634 0.380096
O O4 0.912886 0.491031 0.202802
O O5 0.250000 0.386236 0.500000
O O6 0.489003 0.346092 0.551989
O O7 0.864079 0.282341 0.283899
O O8 0.676223 0.301613 0.104329
O O9 0.812476 0.099842 0.661568
O O10 0.844419 0.108048 0.915644
O O11 0.750000 0.185809 0.500000
#
# Coordination Sequence:
#
# PCOD8204798 Si02
#       6
#     8   8   4   8   8   4
#     4  10  18  28  47  76 117 146 162 200 247 321
#     4  10  18  28  47  80 118 144 158 195 266 331
#     4   9  19  36  54  74  95 125 180 250 266 277
#     4  10  19  31  49  77 108 143 173 202 256 316
#     4  10  18  30  53  81 101 130 174 216 268 315
#     4   9  20  36  52  72  96 132 188 229 258 294
#
# _framework density 17.882963
#
# number of rings (size 3 to 8) (size 9 to 14) (size 15 to 20)
#    0.000    2.200    4.000    0.300    0.000    0.800 
#    0.000    0.000    0.000    2.400    0.000    0.000 
#    6.000    0.000    0.000    0.000    0.000    0.000 
#
# Total GULP energy -495538.022254 kJ/mol
# GULP energy per Si atom -12388.450556 kJ/mol
# Density = 1.784226 g / cm^3
# Si number density = 17.882963 Si / 1000 Ang^3
#
#
#
# Elastic Constant Matrix: (Units=GPa)
#
#
# Indices 1 2 3 4 5 6 
#
# 1 134.9704 51.9430 46.0616 0.0000 0.0000 0.0000
# 2 51.9430 84.2757 50.8971 0.0000 0.0000 0.0000
# 3 46.0616 50.8971 86.5429 0.0000 0.0000 0.0000
# 4 0.0000 0.0000 0.0000 29.8678 0.0000 0.0000
# 5 0.0000 0.0000 0.0000 0.0000 10.7331 0.0000
# 6 0.0000 0.0000 0.0000 0.0000 0.0000 11.9763
#
#
#
# Elastic Compliance Matrix: (Units=1/GPa)
#
#
# Indices 1 2 3 4 5 6 
#
# 1 0.010092 -0.004616 -0.002657 0.000000 0.000000 0.000000
# 2 -0.004616 0.020513 -0.009607 0.000000 0.000000 0.000000
# 3 -0.002657 -0.009607 0.018619 0.000000 0.000000 0.000000
# 4 0.000000 0.000000 0.000000 0.033481 0.000000 0.000000
# 5 0.000000 0.000000 0.000000 0.000000 0.093170 0.000000
# 6 0.000000 0.000000 0.000000 0.000000 0.000000 0.083498
#
#
# Mechanical properties :
#
#
# Convention : Reuss Voigt Hill
#
# Bulk Modulus (GPa) = 64.66394 67.06583 65.86488
# Shear Modulus (GPa) = 16.76237 20.97460 18.86848
#
# Velocity S-wave (km/s) = 3.06492 3.42845 3.25177
# Velocity P-wave (km/s) = 6.98305 7.29770 7.14211
#
# Compressibility (1/GPa) = 0.01546457
#
# Stress axis : x y z
#
# Youngs Moduli (GPa) = 99.08780 48.75005 53.70793
#
# Poissons Ratio (x) = 0.22501 0.14270
# Poissons Ratio (y) = 0.45735 0.51599
# Poissons Ratio (z) = 0.26326 0.46835
#
# Static dielectric constant tensor:
#      x y z
#    x 3.074750 0.000000 0.000000 
#    y 0.000000 3.374510 0.000000 
#    z 0.000000 0.000000 3.386780 
# 
# 
# High freq. dielectric constant tensor:
#      x y z
#    x 1.651640 0.000000 0.000000 
#    y 0.000000 1.690010 0.000000 
#    z 0.000000 0.000000 1.690930 
# 
# From -- ./inp_files/18982.got.cif
#   From: 2010.03.12/outbox.cif.g09.slc.cpg/sg50_10_cif.got.tgz:18982.got - 2010.04.16 13:23:21.
