data_PCOD8204582
_publ_section_title
;
Structure prediction by ZEFSAII (Michael W. Deem and Ramdas Pophale) SiO2 
 PCOD8204582
Probable space group: P C C M
;
_chemical_formula_sum "Si O2"
_cell_formula_units_Z 48
_cell_length_a 9.109917
_cell_length_b 31.197932
_cell_length_c 8.485003
_cell_angle_alpha 90.000000
_cell_angle_beta 90.000000
_cell_angle_gamma 90.000000
_cell_volume 2411.527548
_symmetry_space_group_name_H-M "P C C M"
_symmetry_group_IT_number 49
_symmetry_cell_setting 'orthorhombic'
loop_
_space_group_symop_operation_xyz
x,y,z
-x,-y,z
x,-y,1/2-z
-x,y,1/2-z
-x,-y,-z
x,y,-z
-x,y,1/2+z
x,-y,1/2+z
loop_
_atom_site_type_symbol
_atom_site_label
_atom_site_fract_x
_atom_site_fract_y
_atom_site_fract_z
Si Si1 0.340598 0.122013 0.185022
Si Si2 0.335433 0.721243 0.685463
Si Si3 0.662886 0.457820 0.183484
Si Si4 0.662949 0.365346 0.185639
Si Si5 0.838809 0.799969 0.314908
Si Si6 0.156462 0.046649 0.685471
O O1 0.500000 0.133977 0.250000
O O2 0.231534 0.160339 0.224395
O O3 0.285116 0.078423 0.264188
O O4 0.348512 0.115047 0.000000
O O5 0.500000 0.721030 0.750000
O O6 0.330048 0.730792 0.500000
O O7 0.260866 0.674842 0.724844
O O8 0.250046 0.757129 0.780702
O O9 0.749017 0.500000 0.250000
O O10 0.500000 0.457526 0.250000
O O11 0.740450 0.411639 0.222899
O O12 0.651513 0.463520 0.000000
O O13 0.500000 0.369305 0.250000
O O14 0.660668 0.355603 0.000000
O O15 0.840023 0.809795 0.500000
O O16 0.000000 0.792906 0.250000
O O17 0.145132 0.044287 0.500000
O O18 0.000000 0.063163 0.750000
O O19 0.196275 0.000000 0.750000
#
# Coordination Sequence:
#
# PCOD8204582 Si02
#       6
#     8   8   8   8   8   8
#     4  12  25  43  64  91 122 156 195 239 286 337
#     4  11  21  35  55  80 108 143 182 226 276 331
#     4   9  15  21  32  51  81 120 164 208 257 312
#     4   9  16  26  40  62  91 128 170 216 265 320
#     4  12  25  43  63  86 114 147 185 230 279 335
#     4  11  22  40  64  93 125 163 203 244 289 338
#
# _framework density 19.904395999999998
#
# number of rings (size 3 to 8) (size 9 to 14) (size 15 to 20)
#    0.000    1.333    0.000   10.000    0.000    2.333 
#    0.000    1.667    0.000    0.000    0.000    0.000 
#    0.000    0.667    0.000    7.000    0.000    6.333 
#
# Total GULP energy -594994.142809 kJ/mol
# GULP energy per Si atom -12395.711309 kJ/mol
# Density = 1.985909 g / cm^3
# Si number density = 19.904396 Si / 1000 Ang^3
#
#
#
# Elastic Constant Matrix: (Units=GPa)
#
#
# Indices 1 2 3 4 5 6 
#
# 1 48.6396 30.0537 17.2798 0.0000 0.0000 0.0000
# 2 30.0537 136.5706 30.7714 0.0000 0.0000 0.0000
# 3 17.2798 30.7714 125.2283 0.0000 0.0000 0.0000
# 4 0.0000 0.0000 0.0000 95.8274 0.0000 0.0000
# 5 0.0000 0.0000 0.0000 0.0000 23.3986 0.0000
# 6 0.0000 0.0000 0.0000 0.0000 0.0000 -2.2392
#
#
#
# Elastic Compliance Matrix: (Units=1/GPa)
#
#
# Indices 1 2 3 4 5 6 
#
# 1 0.024335 -0.004868 -0.002162 0.000000 0.000000 0.000000
# 2 -0.004868 0.008725 -0.001472 0.000000 0.000000 0.000000
# 3 -0.002162 -0.001472 0.008645 0.000000 0.000000 0.000000
# 4 0.000000 0.000000 0.000000 0.010435 0.000000 0.000000
# 5 0.000000 0.000000 0.000000 0.000000 0.042738 0.000000
# 6 0.000000 0.000000 0.000000 0.000000 0.000000 -0.446593
#
#
# Mechanical properties :
#
#
# Convention : Reuss Voigt Hill
#
# Bulk Modulus (GPa) = 40.48291 51.84977 46.16634
# Shear Modulus (GPa) = -15.31507 38.88627 11.78560
#
# Velocity S-wave (km/s) = -2.77687 4.42481 2.43597
# Velocity P-wave (km/s) = 3.17828 7.22573 5.58179
#
# Compressibility (1/GPa) = 0.02470178
#
# Stress axis : x y z
#
# Youngs Moduli (GPa) = 41.09250 114.61026 115.66751
#
# Poissons Ratio (x) = 0.55794 0.25004
# Poissons Ratio (y) = 0.20004 0.17029
# Poissons Ratio (z) = 0.08883 0.16873
#
# Static dielectric constant tensor:
#      x y z
#    x 3.163260 0.000000 0.000000 
#    y 0.000000 4.589620 0.000000 
#    z 0.000000 0.000000 3.844720 
# 
# 
# High freq. dielectric constant tensor:
#      x y z
#    x 1.720730 0.000000 0.000000 
#    y 0.000000 1.810730 0.000000 
#    z 0.000000 0.000000 1.799030 
# 
# From -- ./inp_files/2108.got.cif
#   From: 2010.03.12/outbox.cif.g09.slc.cpg/sg49_2_cif.got.tgz:2108.got - 2010.04.14 03:58:27.
