data_PCOD8204761
_publ_section_title
;
Structure prediction by ZEFSAII (Michael W. Deem and Ramdas Pophale) SiO2 
 PCOD8204761
Probable space group: P B A N
;
_chemical_formula_sum "Si O2"
_cell_formula_units_Z 48
_cell_length_a 14.112989
_cell_length_b 24.451376
_cell_length_c 8.677927
_cell_angle_alpha 90.000000
_cell_angle_beta 90.000000
_cell_angle_gamma 90.000000
_cell_volume 2994.596410
_symmetry_space_group_name_H-M "P B A N"
_symmetry_group_IT_number 50
_space_group.IT_coordinate_system_code '2'
_symmetry_cell_setting 'orthorhombic'
loop_
_space_group_symop_operation_xyz
x,y,z
1/2-x,1/2-y,z
x,1/2-y,-z
1/2-x,y,-z
-x,-y,-z
1/2+x,1/2+y,-z
-x,1/2+y,z
1/2+x,-y,z
loop_
_atom_site_type_symbol
_atom_site_label
_atom_site_fract_x
_atom_site_fract_y
_atom_site_fract_z
Si Si1 0.613258 0.121285 0.110409
Si Si2 0.679172 0.089448 0.799782
Si Si3 0.851006 0.227118 0.730460
Si Si4 0.852404 0.499162 0.568623
Si Si5 0.603776 0.329037 0.430449
Si Si6 0.489592 0.918316 0.603494
O O1 0.713404 0.093241 0.146780
O O2 0.611734 0.187678 0.132594
O O3 0.531612 0.095682 0.217436
O O4 0.600729 0.106590 0.929772
O O5 0.673256 0.131059 0.658951
O O6 0.655827 0.028947 0.736904
O O7 0.750000 0.250000 0.784317
O O8 0.836367 0.190600 0.578154
O O9 0.922188 0.277350 0.682432
O O10 0.750000 0.512191 0.500000
O O11 0.910191 0.461281 0.450571
O O12 0.905879 0.556742 0.591476
O O13 0.513459 0.363529 0.495493
#
# Coordination Sequence:
#
# PCOD8204761 Si02
#       6
#     8   8   8   8   8   8
#     4  10  19  29  40  67  95 123 155 184 229 296
#     4  10  19  28  42  61  98 125 148 191 228 279
#     4  10  17  25  43  63  90 127 154 179 229 287
#     4  10  18  32  50  65  85 122 159 200 242 276
#     4   9  17  27  42  62  86 121 155 187 223 271
#     4   9  19  30  48  67  85 119 164 195 234 287
#
# _framework density 16.028870999999999
#
# number of rings (size 3 to 8) (size 9 to 14) (size 15 to 20)
#    0.000    2.333    3.333    1.000    2.333    1.333 
#    0.000    0.000    0.000    0.000    0.000    9.333 
#    0.000    0.000    0.000   27.000    0.000    0.000 
#
# Total GULP energy -594664.391421 kJ/mol
# GULP energy per Si atom -12388.841488 kJ/mol
# Density = 1.599239 g / cm^3
# Si number density = 16.028871 Si / 1000 Ang^3
#
#
#
# Elastic Constant Matrix: (Units=GPa)
#
#
# Indices 1 2 3 4 5 6 
#
# 1 63.3584 42.9933 24.1134 0.0000 0.0000 0.0000
# 2 42.9933 96.7470 35.0076 0.0000 0.0000 0.0000
# 3 24.1134 35.0076 64.9746 0.0000 0.0000 0.0000
# 4 0.0000 0.0000 0.0000 19.0490 0.0000 0.0000
# 5 0.0000 0.0000 0.0000 0.0000 13.8167 0.0000
# 6 0.0000 0.0000 0.0000 0.0000 0.0000 28.1014
#
#
#
# Elastic Compliance Matrix: (Units=1/GPa)
#
#
# Indices 1 2 3 4 5 6 
#
# 1 0.023336 -0.008989 -0.003817 0.000000 0.000000 0.000000
# 2 -0.008989 0.016302 -0.005447 0.000000 0.000000 0.000000
# 3 -0.003817 -0.005447 0.019742 0.000000 0.000000 0.000000
# 4 0.000000 0.000000 0.000000 0.052496 0.000000 0.000000
# 5 0.000000 0.000000 0.000000 0.000000 0.072376 0.000000
# 6 0.000000 0.000000 0.000000 0.000000 0.000000 0.035585
#
#
# Mechanical properties :
#
#
# Convention : Reuss Voigt Hill
#
# Bulk Modulus (GPa) = 43.71978 47.70094 45.71036
# Shear Modulus (GPa) = 18.94165 20.39114 19.66640
#
# Velocity S-wave (km/s) = 3.44135 3.57059 3.50656
# Velocity P-wave (km/s) = 6.56699 6.84272 6.70627
#
# Compressibility (1/GPa) = 0.02287294
#
# Stress axis : x y z
#
# Youngs Moduli (GPa) = 42.85296 61.34260 50.65280
#
# Poissons Ratio (x) = 0.55140 0.19335
# Poissons Ratio (y) = 0.38520 0.27592
# Poissons Ratio (z) = 0.16358 0.33415
#
# Static dielectric constant tensor:
#      x y z
#    x 2.569520 0.000000 0.000000 
#    y 0.000000 3.357000 0.000000 
#    z 0.000000 0.000000 3.345460 
# 
# 
# High freq. dielectric constant tensor:
#      x y z
#    x 1.546940 0.000000 0.000000 
#    y 0.000000 1.619160 0.000000 
#    z 0.000000 0.000000 1.622600 
# 
# From -- ./inp_files/11623.got.cif
#   From: 2010.03.12/outbox.cif.g09.slc.cpg/sg50_6_cif.got.tgz:11623.got - 2010.04.16 13:23:21.
