data_PCOD8204742
_publ_section_title
;
Structure prediction by ZEFSAII (Michael W. Deem and Ramdas Pophale) SiO2 
 PCOD8204742
Probable space group: P B A N
;
_chemical_formula_sum "Si O2"
_cell_formula_units_Z 40
_cell_length_a 16.932736
_cell_length_b 5.207269
_cell_length_c 21.670321
_cell_angle_alpha 90.000000
_cell_angle_beta 90.000000
_cell_angle_gamma 90.000000
_cell_volume 1910.743959
_symmetry_space_group_name_H-M "P B A N"
_symmetry_group_IT_number 50
_space_group.IT_coordinate_system_code '2'
_symmetry_cell_setting 'orthorhombic'
loop_
_space_group_symop_operation_xyz
x,y,z
1/2-x,1/2-y,z
x,1/2-y,-z
1/2-x,y,-z
-x,-y,-z
1/2+x,1/2+y,-z
-x,1/2+y,z
1/2+x,-y,z
loop_
_atom_site_type_symbol
_atom_site_label
_atom_site_fract_x
_atom_site_fract_y
_atom_site_fract_z
Si Si1 0.201717 0.499932 0.395656
Si Si2 0.298575 0.496878 0.749045
Si Si3 0.948657 0.025428 0.167281
Si Si4 0.033393 0.838116 0.568677
Si Si5 0.588417 0.499666 0.026998
O O1 0.250000 0.750000 0.413150
O O2 0.184134 0.481341 0.323361
O O3 0.119626 0.535298 0.431300
O O4 0.250000 0.250000 0.419024
O O5 0.250000 0.250000 0.771734
O O6 0.382598 0.496363 0.781361
O O7 0.250000 0.750000 0.767079
O O8 0.987139 0.303487 0.175959
O O9 0.909187 0.000645 0.100434
O O10 0.005554 0.750000 0.500000
O O11 0.023913 0.556086 0.601316
O O12 0.632888 0.750000 0.000000
O O13 0.500000 0.500000 0.000000
O O14 0.633138 0.250000 0.000000
#
# Coordination Sequence:
#
# PCOD8204742 Si02
#       5
#     8   8   8   8   8
#     4  10  21  39  61  82 112 159 202 232 276 343
#     4  10  23  41  56  79 120 156 182 235 302 341
#     4  12  21  33  59  89 104 141 198 240 277 342
#     4  10  21  37  58  87 122 152 181 235 297 331
#     4  10  16  30  49  78 106 136 171 236 285 329
#
# _framework density 20.934252999999998
#
# number of rings (size 3 to 8) (size 9 to 14) (size 15 to 20)
#    0.000    1.600    4.000    2.400    0.000    2.000 
#    0.000    1.000    0.000    3.600    0.000    0.000 
#    0.000    0.000    0.000    0.000    0.000    0.000 
#
# Total GULP energy -495746.545615 kJ/mol
# GULP energy per Si atom -12393.663640 kJ/mol
# Density = 2.088661 g / cm^3
# Si number density = 20.934253 Si / 1000 Ang^3
#
#
#
# Elastic Constant Matrix: (Units=GPa)
#
#
# Indices 1 2 3 4 5 6 
#
# 1 80.0619 48.4262 21.2958 0.0000 0.0000 0.0000
# 2 48.4262 210.5462 21.9878 0.0000 0.0000 0.0000
# 3 21.2958 21.9878 24.7039 0.0000 0.0000 0.0000
# 4 0.0000 0.0000 0.0000 2.2352 0.0000 0.0000
# 5 0.0000 0.0000 0.0000 0.0000 63.4104 0.0000
# 6 0.0000 0.0000 0.0000 0.0000 0.0000 17.2280
#
#
#
# Elastic Compliance Matrix: (Units=1/GPa)
#
#
# Indices 1 2 3 4 5 6 
#
# 1 0.017496 -0.002700 -0.012679 0.000000 0.000000 0.000000
# 2 -0.002700 0.005653 -0.002704 0.000000 0.000000 0.000000
# 3 -0.012679 -0.002704 0.053816 0.000000 0.000000 0.000000
# 4 0.000000 0.000000 0.000000 0.447389 0.000000 0.000000
# 5 0.000000 0.000000 0.000000 0.000000 0.015770 0.000000
# 6 0.000000 0.000000 0.000000 0.000000 0.000000 0.058045
#
#
# Mechanical properties :
#
#
# Convention : Reuss Voigt Hill
#
# Bulk Modulus (GPa) = 24.51048 55.41462 39.96255
# Shear Modulus (GPa) = 7.71683 31.48154 19.59918
#
# Velocity S-wave (km/s) = 1.92204 3.88213 3.06310
# Velocity P-wave (km/s) = 4.08159 6.82809 5.62504
#
# Compressibility (1/GPa) = 0.04079888
#
# Stress axis : x y z
#
# Youngs Moduli (GPa) = 57.15585 176.89923 18.58181
#
# Poissons Ratio (x) = 0.47763 0.23560
# Poissons Ratio (y) = 0.15432 0.05024
# Poissons Ratio (z) = 0.72469 0.47831
#
# Static dielectric constant tensor:
#      x y z
#    x 3.594780 0.000000 0.000000 
#    y 0.000000 3.772020 0.000000 
#    z 0.000000 0.000000 3.601180 
# 
# 
# High freq. dielectric constant tensor:
#      x y z
#    x 1.787230 0.000000 0.000000 
#    y 0.000000 1.862870 0.000000 
#    z 0.000000 0.000000 1.802020 
# 
# From -- ./inp_files/29606.got.cif
#   From: 2010.03.12/outbox.cif.g09.slc.cpg/sg50_15_cif.got.tgz:29606.got - 2010.04.16 13:23:21.
