data_PCOD8204061
_publ_section_title
;
Structure prediction by ZEFSAII (Michael W. Deem and Ramdas Pophale) SiO2 
 PCOD8204061
Probable space group: P C C M
;
_chemical_formula_sum "Si O2"
_cell_formula_units_Z 48
_cell_length_a 12.558640
_cell_length_b 10.450593
_cell_length_c 17.572092
_cell_angle_alpha 90.000000
_cell_angle_beta 90.000000
_cell_angle_gamma 90.000000
_cell_volume 2306.253349
_symmetry_space_group_name_H-M "P C C M"
_symmetry_group_IT_number 49
_symmetry_cell_setting 'orthorhombic'
loop_
_space_group_symop_operation_xyz
x,y,z
-x,-y,z
x,-y,1/2-z
-x,y,1/2-z
-x,-y,-z
x,y,-z
-x,y,1/2+z
x,-y,1/2+z
loop_
_atom_site_type_symbol
_atom_site_label
_atom_site_fract_x
_atom_site_fract_y
_atom_site_fract_z
Si Si1 0.447305 0.872226 0.830144
Si Si2 0.054894 0.782447 0.915276
Si Si3 0.202701 0.119408 0.297599
Si Si4 0.190063 0.530879 0.914360
Si Si5 0.573596 0.612604 0.589002
Si Si6 0.097389 0.321841 0.803262
O O1 0.500000 0.842250 0.750000
O O2 0.324143 0.900095 0.818303
O O3 0.467017 0.749389 0.882069
O O4 0.500000 0.000000 0.867142
O O5 0.138280 0.878773 0.876766
O O6 0.101572 0.639503 0.917649
O O7 0.947148 0.777978 0.865894
O O8 0.029866 0.832235 0.000000
O O9 0.182769 0.250020 0.250128
O O10 0.159365 0.000000 0.250000
O O11 0.303265 0.590196 0.889575
O O12 0.157217 0.434196 0.847861
O O13 0.197785 0.468537 0.000000
O O14 0.500000 0.500000 0.624421
O O15 0.557104 0.615978 0.500000
O O16 0.000000 0.372197 0.750000
#
# Coordination Sequence:
#
# PCOD8204061 Si02
#       6
#     8   8   8   8   8   8
#     4  11  23  42  66  91 122 166 217 257 310 389
#     4  10  21  40  64  88 122 168 212 250 308 377
#     4  11  23  42  62  88 126 163 207 267 314 360
#     4  10  20  38  63  90 128 166 204 254 313 377
#     4  10  23  42  64  96 132 163 205 268 329 377
#     4  10  23  37  59  94 129 167 210 255 311 375
#
# _framework density 20.812977
#
# number of rings (size 3 to 8) (size 9 to 14) (size 15 to 20)
#    0.000    1.667    3.333    1.000    2.333    9.667 
#    0.000    2.500    0.000    0.000    0.000    0.000 
#    0.000    0.000    0.000    0.000    0.000    0.000 
#
# Total GULP energy -595148.753925 kJ/mol
# GULP energy per Si atom -12398.932373 kJ/mol
# Density = 2.076561 g / cm^3
# Si number density = 20.812977 Si / 1000 Ang^3
#
#
#
# Elastic Constant Matrix: (Units=GPa)
#
#
# Indices 1 2 3 4 5 6 
#
# 1 83.6001 36.0951 24.4237 0.0000 0.0000 0.0000
# 2 36.0951 120.8393 42.1384 0.0000 0.0000 0.0000
# 3 24.4237 42.1384 106.0021 0.0000 0.0000 0.0000
# 4 0.0000 0.0000 0.0000 31.8215 0.0000 0.0000
# 5 0.0000 0.0000 0.0000 0.0000 22.9581 0.0000
# 6 0.0000 0.0000 0.0000 0.0000 0.0000 26.9830
#
#
#
# Elastic Compliance Matrix: (Units=1/GPa)
#
#
# Indices 1 2 3 4 5 6 
#
# 1 0.014028 -0.003556 -0.001819 0.000000 0.000000 0.000000
# 2 -0.003556 0.010509 -0.003358 0.000000 0.000000 0.000000
# 3 -0.001819 -0.003358 0.011188 0.000000 0.000000 0.000000
# 4 0.000000 0.000000 0.000000 0.031425 0.000000 0.000000
# 5 0.000000 0.000000 0.000000 0.000000 0.043558 0.000000
# 6 0.000000 0.000000 0.000000 0.000000 0.000000 0.037060
#
#
# Mechanical properties :
#
#
# Convention : Reuss Voigt Hill
#
# Bulk Modulus (GPa) = 54.76712 57.30622 56.03667
# Shear Modulus (GPa) = 29.18512 30.20481 29.69496
#
# Velocity S-wave (km/s) = 3.74873 3.81366 3.78134
# Velocity P-wave (km/s) = 6.71628 6.85461 6.78580
#
# Compressibility (1/GPa) = 0.01825913
#
# Stress axis : x y z
#
# Youngs Moduli (GPa) = 71.28388 95.15913 89.38372
#
# Poissons Ratio (x) = 0.33840 0.16255
# Poissons Ratio (y) = 0.25350 0.30016
# Poissons Ratio (z) = 0.12964 0.31955
#
# Static dielectric constant tensor:
#      x y z
#    x 4.007970 0.000000 0.000000 
#    y 0.000000 3.720700 0.000000 
#    z 0.000000 0.000000 3.943780 
# 
# 
# High freq. dielectric constant tensor:
#      x y z
#    x 1.814180 0.000000 0.000000 
#    y 0.000000 1.804350 0.000000 
#    z 0.000000 0.000000 1.821760 
# 
# From -- ./inp_files/17073.got.cif
#   From: 2010.03.12/outbox.cif.g09.slc.cpg/sg49_9_cif.got.tgz:17073.got - 2010.04.14 03:58:27.
