data_PCOD8204203
_publ_section_title
;
Structure prediction by ZEFSAII (Michael W. Deem and Ramdas Pophale) SiO2 
 PCOD8204203
Probable space group: P C C M
;
_chemical_formula_sum "Si O2"
_cell_formula_units_Z 34
_cell_length_a 12.270146
_cell_length_b 13.745229
_cell_length_c 9.063748
_cell_angle_alpha 90.000000
_cell_angle_beta 90.000000
_cell_angle_gamma 90.000000
_cell_volume 1528.655180
_symmetry_space_group_name_H-M "P C C M"
_symmetry_group_IT_number 49
_symmetry_cell_setting 'orthorhombic'
loop_
_space_group_symop_operation_xyz
x,y,z
-x,-y,z
x,-y,1/2-z
-x,y,1/2-z
-x,-y,-z
x,y,-z
-x,y,1/2+z
x,-y,1/2+z
loop_
_atom_site_type_symbol
_atom_site_label
_atom_site_fract_x
_atom_site_fract_y
_atom_site_fract_z
Si Si1 0.395866 0.693472 0.831638
Si Si2 0.156659 0.661359 0.835303
Si Si3 0.107491 0.149339 0.175562
Si Si4 0.325408 0.092263 0.673719
Si Si5 0.000000 0.500000 0.250000
O O1 0.500000 0.647257 0.750000
O O2 0.282738 0.638199 0.790786
O O3 0.387193 0.807828 0.790123
O O4 0.424123 0.679506 0.000000
O O5 0.109444 0.735555 0.715289
O O6 0.081567 0.565882 0.846473
O O7 0.159091 0.709780 0.000000
O O8 0.207975 0.094916 0.248743
O O9 0.000000 0.103392 0.250000
O O10 0.106530 0.136625 0.000000
O O11 0.313226 0.075109 0.500000
O O12 0.386886 0.000000 0.750000
#
# Coordination Sequence:
#
# PCOD8204203 Si02
#       5
#     8   8   8   8   2
#     4   9  20  39  61  84 118 159 201 249 296 353
#     4  10  22  39  59  90 124 154 196 248 300 356
#     4  11  21  35  56  81 116 160 200 243 298 359
#     4  10  21  37  56  84 119 154 201 254 298 348
#     4  12  22  36  70  94 124 156 194 242 310 356
#
# _framework density 22.241771
#
# number of rings (size 3 to 8) (size 9 to 14) (size 15 to 20)
#    0.000    1.882    1.176    4.588    0.000    6.588 
#    0.000    5.294    0.000    2.824    0.000    0.000 
#    0.000    0.000    0.000    0.000    0.000    0.000 
#
# Total GULP energy -421389.069627 kJ/mol
# GULP energy per Si atom -12393.796166 kJ/mol
# Density = 2.219115 g / cm^3
# Si number density = 22.241771 Si / 1000 Ang^3
#
#
#
# Elastic Constant Matrix: (Units=GPa)
#
#
# Indices 1 2 3 4 5 6 
#
# 1 143.2726 20.4914 46.4073 0.0000 0.0000 0.0000
# 2 20.4914 69.4555 14.1547 0.0000 0.0000 0.0000
# 3 46.4073 14.1547 114.9047 0.0000 0.0000 0.0000
# 4 0.0000 0.0000 0.0000 7.7327 0.0000 0.0000
# 5 0.0000 0.0000 0.0000 0.0000 29.1597 0.0000
# 6 0.0000 0.0000 0.0000 0.0000 0.0000 9.7553
#
#
#
# Elastic Compliance Matrix: (Units=1/GPa)
#
#
# Indices 1 2 3 4 5 6 
#
# 1 0.008244 -0.001799 -0.003108 0.000000 0.000000 0.000000
# 2 -0.001799 0.015161 -0.001141 0.000000 0.000000 0.000000
# 3 -0.003108 -0.001141 0.010099 0.000000 0.000000 0.000000
# 4 0.000000 0.000000 0.000000 0.129322 0.000000 0.000000
# 5 0.000000 0.000000 0.000000 0.000000 0.034294 0.000000
# 6 0.000000 0.000000 0.000000 0.000000 0.000000 0.102509
#
#
# Mechanical properties :
#
#
# Convention : Reuss Voigt Hill
#
# Bulk Modulus (GPa) = 46.71209 54.41551 50.56380
# Shear Modulus (GPa) = 15.68091 25.76815 20.72453
#
# Velocity S-wave (km/s) = 2.65810 3.40744 3.05583
# Velocity P-wave (km/s) = 5.51980 6.32451 5.93581
#
# Compressibility (1/GPa) = 0.02140774
#
# Stress axis : x y z
#
# Youngs Moduli (GPa) = 121.30605 65.95895 99.02348
#
# Poissons Ratio (x) = 0.11864 0.30775
# Poissons Ratio (y) = 0.21820 0.11300
# Poissons Ratio (z) = 0.37700 0.07527
#
# Static dielectric constant tensor:
#      x y z
#    x 4.102950 0.000000 0.000000 
#    y 0.000000 3.836250 0.000000 
#    z 0.000000 0.000000 3.808300 
# 
# 
# High freq. dielectric constant tensor:
#      x y z
#    x 1.888640 0.000000 0.000000 
#    y 0.000000 1.850890 0.000000 
#    z 0.000000 0.000000 1.869790 
# 
# From -- ./inp_files/3346.got.cif
#   From: 2010.03.12/outbox.cif.g09.slc.cpg/sg49_2_cif.got.tgz:3346.got - 2010.04.14 03:58:27.
