data_PCOD8204820
_publ_section_title
;
Structure prediction by ZEFSAII (Michael W. Deem and Ramdas Pophale) SiO2 
 PCOD8204820
Probable space group: P B A N
;
_chemical_formula_sum "Si O2"
_cell_formula_units_Z 44
_cell_length_a 18.893331
_cell_length_b 11.406554
_cell_length_c 11.200951
_cell_angle_alpha 90.000000
_cell_angle_beta 90.000000
_cell_angle_gamma 90.000000
_cell_volume 2413.892311
_symmetry_space_group_name_H-M "P B A N"
_symmetry_group_IT_number 50
_space_group.IT_coordinate_system_code '2'
_symmetry_cell_setting 'orthorhombic'
loop_
_space_group_symop_operation_xyz
x,y,z
1/2-x,1/2-y,z
x,1/2-y,-z
1/2-x,y,-z
-x,-y,-z
1/2+x,1/2+y,-z
-x,1/2+y,z
1/2+x,-y,z
loop_
_atom_site_type_symbol
_atom_site_label
_atom_site_fract_x
_atom_site_fract_y
_atom_site_fract_z
Si Si1 0.612636 0.503682 0.447537
Si Si2 0.506314 0.384888 0.703464
Si Si3 0.375924 0.442621 0.288002
Si Si4 0.396583 0.280773 0.862523
Si Si5 0.429276 0.750000 0.500000
Si Si6 0.275505 0.123998 0.283089
O O1 0.539538 0.525737 0.377602
O O2 0.614220 0.576391 0.570511
O O3 0.619207 0.364400 0.473647
O O4 0.680152 0.549347 0.376531
O O5 0.579285 0.443197 0.749479
O O6 0.464277 0.357162 0.824729
O O7 0.523246 0.274007 0.618097
O O8 0.406568 0.332218 0.219144
O O9 0.292978 0.455086 0.251238
O O10 0.323218 0.349068 0.834233
O O11 0.399284 0.250000 0.000000
O O12 0.250000 0.250000 0.336883
#
# Coordination Sequence:
#
# PCOD8204820 Si02
#       6
#     8   8   8   8   4   8
#     4  10  19  32  52  80 108 140 174 214 271 328
#     4  10  19  33  53  77 105 138 174 216 268 324
#     4  10  19  32  51  75 103 133 170 214 264 318
#     4  10  21  35  53  75 102 137 179 227 270 309
#     4  10  18  32  53  78 113 140 172 218 266 330
#     4   9  20  34  52  76 104 137 177 222 269 324
#
# _framework density 18.227822
#
# number of rings (size 3 to 8) (size 9 to 14) (size 15 to 20)
#    0.000    2.182    0.000    4.909    0.000   12.000 
#    0.000    7.273    0.000    0.000    0.000    0.000 
#    0.000    0.000    0.000    0.000    0.000    0.000 
#
# Total GULP energy -545276.396256 kJ/mol
# GULP energy per Si atom -12392.645369 kJ/mol
# Density = 1.818633 g / cm^3
# Si number density = 18.227822 Si / 1000 Ang^3
#
#
#
# Elastic Constant Matrix: (Units=GPa)
#
#
# Indices 1 2 3 4 5 6 
#
# 1 137.5396 59.0809 64.1789 0.0000 0.0000 0.0000
# 2 59.0809 88.7635 55.5242 0.0000 0.0000 0.0000
# 3 64.1789 55.5242 126.8406 0.0000 0.0000 0.0000
# 4 0.0000 0.0000 0.0000 18.6260 0.0000 0.0000
# 5 0.0000 0.0000 0.0000 0.0000 12.8675 0.0000
# 6 0.0000 0.0000 0.0000 0.0000 0.0000 30.6677
#
#
#
# Elastic Compliance Matrix: (Units=1/GPa)
#
#
# Indices 1 2 3 4 5 6 
#
# 1 0.011090 -0.005331 -0.003278 0.000000 0.000000 0.000000
# 2 -0.005331 0.018077 -0.005216 0.000000 0.000000 0.000000
# 3 -0.003278 -0.005216 0.011825 0.000000 0.000000 0.000000
# 4 0.000000 0.000000 0.000000 0.053689 0.000000 0.000000
# 5 0.000000 0.000000 0.000000 0.000000 0.077715 0.000000
# 6 0.000000 0.000000 0.000000 0.000000 0.000000 0.032608
#
#
# Mechanical properties :
#
#
# Convention : Reuss Voigt Hill
#
# Bulk Modulus (GPa) = 74.94326 78.96794 76.95560
# Shear Modulus (GPa) = 21.08810 24.05622 22.57216
#
# Velocity S-wave (km/s) = 3.40504 3.63678 3.52282
# Velocity P-wave (km/s) = 7.52749 7.81356 7.67186
#
# Compressibility (1/GPa) = 0.01334343
#
# Stress axis : x y z
#
# Youngs Moduli (GPa) = 90.17012 55.31918 84.56355
#
# Poissons Ratio (x) = 0.29493 0.27717
# Poissons Ratio (y) = 0.48073 0.44105
# Poissons Ratio (z) = 0.29554 0.28852
#
# Static dielectric constant tensor:
#      x y z
#    x 3.612980 0.000000 0.000000 
#    y 0.000000 3.303830 0.000000 
#    z 0.000000 0.000000 3.223070 
# 
# 
# High freq. dielectric constant tensor:
#      x y z
#    x 1.717640 0.000000 0.000000 
#    y 0.000000 1.692850 0.000000 
#    z 0.000000 0.000000 1.679600 
# 
# From -- ./inp_files/21750.got.cif
#   From: 2010.03.12/outbox.cif.g09.slc.cpg/sg50_11_cif.got.tgz:21750.got - 2010.04.16 13:23:21.
