data_PCOD8204167
_publ_section_title
;
Structure prediction by ZEFSAII (Michael W. Deem and Ramdas Pophale) SiO2 
 PCOD8204167
Probable space group: P C C M
;
_chemical_formula_sum "Si O2"
_cell_formula_units_Z 32
_cell_length_a 13.764775
_cell_length_b 14.414402
_cell_length_c 8.414779
_cell_angle_alpha 90.000000
_cell_angle_beta 90.000000
_cell_angle_gamma 90.000000
_cell_volume 1669.584719
_symmetry_space_group_name_H-M "P C C M"
_symmetry_group_IT_number 49
_symmetry_cell_setting 'orthorhombic'
loop_
_space_group_symop_operation_xyz
x,y,z
-x,-y,z
x,-y,1/2-z
-x,y,1/2-z
-x,-y,-z
x,y,-z
-x,y,1/2+z
x,-y,1/2+z
loop_
_atom_site_type_symbol
_atom_site_label
_atom_site_fract_x
_atom_site_fract_y
_atom_site_fract_z
Si Si1 0.393453 0.101471 0.188768
Si Si2 0.231887 0.756178 0.316944
Si Si3 0.103807 0.397733 0.686122
Si Si4 0.893380 0.908205 0.311339
O O1 0.500000 0.126201 0.250000
O O2 0.324306 0.185572 0.252640
O O3 0.360180 0.000000 0.250000
O O4 0.391320 0.098393 0.000000
O O5 0.249154 0.733060 0.500000
O O6 0.200897 0.660863 0.231056
O O7 0.140248 0.820817 0.288420
O O8 0.122517 0.500000 0.750000
O O9 0.093829 0.400490 0.500000
O O10 0.000000 0.357963 0.750000
O O11 0.883470 0.893630 0.500000
O O12 0.000000 0.923063 0.250000
O O13 0.834791 0.000000 0.250000
#
# Coordination Sequence:
#
# PCOD8204167 Si02
#       4
#     8   8   8   8
#     4  10  21  36  57  81 111 145 182 226 272 323
#     4  11  22  36  54  79 107 140 180 223 269 322
#     4  11  22  38  59  83 112 146 182 226 272 324
#     4  11  21  33  48  70 102 140 176 215 260 314
#
# _framework density 19.166443999999998
#
# number of rings (size 3 to 8) (size 9 to 14) (size 15 to 20)
#    0.000    1.250    0.000    9.750    0.000    6.000 
#    0.000    0.000    0.000    0.750    0.000    5.250 
#    0.000    0.000    0.000    0.000    0.000    0.000 
#
# Total GULP energy -396446.517127 kJ/mol
# GULP energy per Si atom -12388.953660 kJ/mol
# Density = 1.912282 g / cm^3
# Si number density = 19.166444 Si / 1000 Ang^3
#
#
#
# Elastic Constant Matrix: (Units=GPa)
#
#
# Indices 1 2 3 4 5 6 
#
# 1 108.8190 63.7783 37.2059 0.0000 0.0000 0.0000
# 2 63.7783 115.4165 32.7229 0.0000 0.0000 0.0000
# 3 37.2059 32.7229 102.2073 0.0000 0.0000 0.0000
# 4 0.0000 0.0000 0.0000 30.0367 0.0000 0.0000
# 5 0.0000 0.0000 0.0000 0.0000 0.7407 0.0000
# 6 0.0000 0.0000 0.0000 0.0000 0.0000 34.9359
#
#
#
# Elastic Compliance Matrix: (Units=1/GPa)
#
#
# Indices 1 2 3 4 5 6 
#
# 1 0.014360 -0.007097 -0.002955 0.000000 0.000000 0.000000
# 2 -0.007097 0.013037 -0.001590 0.000000 0.000000 0.000000
# 3 -0.002955 -0.001590 0.011369 0.000000 0.000000 0.000000
# 4 0.000000 0.000000 0.000000 0.033293 0.000000 0.000000
# 5 0.000000 0.000000 0.000000 0.000000 1.350058 0.000000
# 6 0.000000 0.000000 0.000000 0.000000 0.000000 0.028624
#
#
# Mechanical properties :
#
#
# Convention : Reuss Voigt Hill
#
# Bulk Modulus (GPa) = 64.59804 65.98411 65.29108
# Shear Modulus (GPa) = 3.38024 25.99171 14.68597
#
# Velocity S-wave (km/s) = 1.32946 3.68653 2.77110
# Velocity P-wave (km/s) = 6.01111 7.25412 6.66167
#
# Compressibility (1/GPa) = 0.01548034
#
# Stress axis : x y z
#
# Youngs Moduli (GPa) = 69.64021 76.70451 87.95918
#
# Poissons Ratio (x) = 0.54439 0.25992
# Poissons Ratio (y) = 0.49425 0.13989
# Poissons Ratio (z) = 0.20578 0.12199
#
# Static dielectric constant tensor:
#      x y z
#    x 3.690060 0.000000 0.000000 
#    y 0.000000 3.026800 0.000000 
#    z 0.000000 0.000000 4.544090 
# 
# 
# High freq. dielectric constant tensor:
#      x y z
#    x 1.730550 0.000000 0.000000 
#    y 0.000000 1.744060 0.000000 
#    z 0.000000 0.000000 1.756830 
# 
# From -- ./inp_files/3333.got.cif
#   From: 2010.03.12/outbox.cif.g09.slc.cpg/sg49_2_cif.got.tgz:3333.got - 2010.04.14 03:58:27.
