data_PCOD8204034
_publ_section_title
;
Structure prediction by ZEFSAII (Michael W. Deem and Ramdas Pophale) SiO2 
 PCOD8204034
Probable space group: P C C M
;
_chemical_formula_sum "Si O2"
_cell_formula_units_Z 64
_cell_length_a 17.637558
_cell_length_b 11.367408
_cell_length_c 14.603670
_cell_angle_alpha 90.000000
_cell_angle_beta 90.000000
_cell_angle_gamma 90.000000
_cell_volume 2927.938252
_symmetry_space_group_name_H-M "P C C M"
_symmetry_group_IT_number 49
_symmetry_cell_setting 'orthorhombic'
loop_
_space_group_symop_operation_xyz
x,y,z
-x,-y,z
x,-y,1/2-z
-x,y,1/2-z
-x,-y,-z
x,y,-z
-x,y,1/2+z
x,-y,1/2+z
loop_
_atom_site_type_symbol
_atom_site_label
_atom_site_fract_x
_atom_site_fract_y
_atom_site_fract_z
Si Si1 0.521956 0.873959 0.354536
Si Si2 0.334929 0.768094 0.207565
Si Si3 0.332050 0.463505 0.395227
Si Si4 0.177475 0.133297 0.737995
Si Si5 0.924416 0.248359 0.893929
Si Si6 0.101290 0.727736 0.393413
Si Si7 0.391615 0.283970 0.100720
Si Si8 0.157492 0.519365 0.106761
O O1 0.500000 0.873460 0.250000
O O2 0.612824 0.854292 0.354934
O O3 0.478005 0.765376 0.403211
O O4 0.500000 0.000000 0.400295
O O5 0.357611 0.637381 0.174688
O O6 0.247498 0.797044 0.191502
O O7 0.348819 0.782855 0.317024
O O8 0.335696 0.417940 0.500000
O O9 0.387100 0.575694 0.381403
O O10 0.245645 0.494186 0.368403
O O11 0.108827 0.140892 0.665293
O O12 0.152848 0.182341 0.836738
O O13 0.203087 0.000000 0.750000
O O14 0.883935 0.365463 0.852328
O O15 0.013368 0.248702 0.876870
O O16 0.904773 0.228574 0.000000
O O17 0.123761 0.740931 0.500000
O O18 0.117161 0.597082 0.355191
O O19 0.354297 0.259390 0.000000
O O20 0.142788 0.526772 0.000000
#
# Coordination Sequence:
#
# PCOD8204034 Si02
#       8
#     8   8   8   8   8   8   8   8
#     4   9  21  41  65  87 121 165 216 260 308 365
#     4  11  23  41  67  90 124 170 208 257 324 381
#     4  10  20  37  63  96 133 166 205 260 323 386
#     4  12  27  41  62  92 126 168 222 267 315 378
#     4  10  21  41  65  91 127 170 214 264 320 378
#     4  10  22  40  64  92 128 170 212 263 320 377
#     4  10  22  39  63  96 129 163 203 257 315 379
#     4   9  17  35  62  94 127 162 207 260 322 384
#
# _framework density 21.858384000000001
#
# number of rings (size 3 to 8) (size 9 to 14) (size 15 to 20)
#    0.000    1.875    1.250    1.875    3.500    6.250 
#    0.000    5.625    0.000    0.000    0.000    0.000 
#    0.000    0.000    0.000    0.000    0.000    0.000 
#
# Total GULP energy -793340.081181 kJ/mol
# GULP energy per Si atom -12395.938768 kJ/mol
# Density = 2.180863 g / cm^3
# Si number density = 21.858384 Si / 1000 Ang^3
#
#
#
# Elastic Constant Matrix: (Units=GPa)
#
#
# Indices 1 2 3 4 5 6 
#
# 1 111.6147 49.8221 32.7885 0.0000 0.0000 0.0000
# 2 49.8221 117.6035 26.1748 0.0000 0.0000 0.0000
# 3 32.7885 26.1748 71.3701 0.0000 0.0000 0.0000
# 4 0.0000 0.0000 0.0000 8.0148 0.0000 0.0000
# 5 0.0000 0.0000 0.0000 0.0000 19.2387 0.0000
# 6 0.0000 0.0000 0.0000 0.0000 0.0000 32.3873
#
#
#
# Elastic Compliance Matrix: (Units=1/GPa)
#
#
# Indices 1 2 3 4 5 6 
#
# 1 0.012001 -0.004200 -0.003973 0.000000 0.000000 0.000000
# 2 -0.004200 0.010729 -0.002005 0.000000 0.000000 0.000000
# 3 -0.003973 -0.002005 0.016572 0.000000 0.000000 0.000000
# 4 0.000000 0.000000 0.000000 0.124769 0.000000 0.000000
# 5 0.000000 0.000000 0.000000 0.000000 0.051979 0.000000
# 6 0.000000 0.000000 0.000000 0.000000 0.000000 0.030876
#
#
# Mechanical properties :
#
#
# Convention : Reuss Voigt Hill
#
# Bulk Modulus (GPa) = 52.78316 57.57324 55.17820
# Shear Modulus (GPa) = 18.27496 24.71501 21.49499
#
# Velocity S-wave (km/s) = 2.89461 3.36622 3.13928
# Velocity P-wave (km/s) = 5.94743 6.44243 6.19987
#
# Compressibility (1/GPa) = 0.01894544
#
# Stress axis : x y z
#
# Youngs Moduli (GPa) = 83.32369 93.20755 60.34180
#
# Poissons Ratio (x) = 0.39147 0.23976
# Poissons Ratio (y) = 0.34996 0.12100
# Poissons Ratio (z) = 0.33107 0.18690
#
# Static dielectric constant tensor:
#      x y z
#    x 3.957950 0.000000 0.000000 
#    y 0.000000 4.026330 0.000000 
#    z 0.000000 0.000000 3.947310 
# 
# 
# High freq. dielectric constant tensor:
#      x y z
#    x 1.854160 0.000000 0.000000 
#    y 0.000000 1.845290 0.000000 
#    z 0.000000 0.000000 1.861230 
# 
# From -- ./inp_files/14179.got.cif
#   From: 2010.03.12/outbox.cif.g09.slc.cpg/sg49_8_cif.got.tgz:14179.got - 2010.04.14 03:58:27.
