data_PCOD8204263
_publ_section_title
;
Structure prediction by ZEFSAII (Michael W. Deem and Ramdas Pophale) SiO2 
 PCOD8204263
Probable space group: P C C M
;
_chemical_formula_sum "Si O2"
_cell_formula_units_Z 44
_cell_length_a 9.509522
_cell_length_b 17.767035
_cell_length_c 14.197927
_cell_angle_alpha 90.000000
_cell_angle_beta 90.000000
_cell_angle_gamma 90.000000
_cell_volume 2398.825099
_symmetry_space_group_name_H-M "P C C M"
_symmetry_group_IT_number 49
_symmetry_cell_setting 'orthorhombic'
loop_
_space_group_symop_operation_xyz
x,y,z
-x,-y,z
x,-y,1/2-z
-x,y,1/2-z
-x,-y,-z
x,y,-z
-x,y,1/2+z
x,-y,1/2+z
loop_
_atom_site_type_symbol
_atom_site_label
_atom_site_fract_x
_atom_site_fract_y
_atom_site_fract_z
Si Si1 0.088060 0.924467 0.500000
Si Si2 0.992467 0.359105 0.361004
Si Si3 0.781137 0.571045 0.000000
Si Si4 0.229102 0.397050 0.500000
Si Si5 0.413379 0.075326 0.000000
Si Si6 0.585553 0.804312 0.845661
Si Si7 0.473974 0.682866 0.500000
Si Si8 0.912562 0.806948 0.841625
O O1 0.250602 0.946558 0.500000
O O2 0.049112 0.874443 0.589430
O O3 0.000000 0.000000 0.500000
O O4 0.873403 0.411701 0.407023
O O5 0.956602 0.272851 0.385705
O O6 0.000000 0.374577 0.250000
O O7 0.143287 0.376820 0.405821
O O8 0.735927 0.484837 0.000000
O O9 0.637490 0.616319 0.000000
O O10 0.370602 0.349714 0.500000
O O11 0.452211 0.122294 0.093210
O O12 0.500000 0.000000 0.000000
O O13 0.500000 0.805454 0.750000
O O14 0.748407 0.803747 0.818075
O O15 0.548254 0.730830 0.905696
O O16 0.000000 0.825426 0.750000
#
# Coordination Sequence:
#
# PCOD8204263 Si02
#       8
#     4   8   4   4   4   8   4   8
#     4  10  21  38  58  85 123 151 184 238 289 334
#     4  10  21  39  62  86 115 152 198 241 288 345
#     4  11  21  41  59  82 122 154 186 245 299 342
#     4  11  25  35  59  90 114 153 196 238 294 358
#     4   9  21  41  59  87 120 157 190 231 290 345
#     4  10  22  40  62  85 117 157 197 240 284 343
#     4  11  23  39  58  84 120 152 200 238 293 341
#     4  10  21  38  62  86 114 152 196 237 288 337
#
# _framework density 18.342313999999998
#
# number of rings (size 3 to 8) (size 9 to 14) (size 15 to 20)
#    0.000    1.818    1.818    3.000    5.091    3.636 
#    3.273    3.636    0.000    3.273    0.000    0.000 
#    0.000    0.000    0.000    0.000    0.000    0.000 
#
# Total GULP energy -545699.930036 kJ/mol
# GULP energy per Si atom -12402.271137 kJ/mol
# Density = 1.830057 g / cm^3
# Si number density = 18.342314 Si / 1000 Ang^3
#
#
#
# Elastic Constant Matrix: (Units=GPa)
#
#
# Indices 1 2 3 4 5 6 
#
# 1 131.0109 67.5971 77.1566 0.0000 0.0000 0.0000
# 2 67.5971 138.4488 64.1633 0.0000 0.0000 0.0000
# 3 77.1566 64.1633 152.0712 0.0000 0.0000 0.0000
# 4 0.0000 0.0000 0.0000 8.8825 0.0000 0.0000
# 5 0.0000 0.0000 0.0000 0.0000 16.5501 0.0000
# 6 0.0000 0.0000 0.0000 0.0000 0.0000 30.0526
#
#
#
# Elastic Compliance Matrix: (Units=1/GPa)
#
#
# Indices 1 2 3 4 5 6 
#
# 1 0.012370 -0.003892 -0.004634 0.000000 0.000000 0.000000
# 2 -0.003892 0.010203 -0.002330 0.000000 0.000000 0.000000
# 3 -0.004634 -0.002330 0.009910 0.000000 0.000000 0.000000
# 4 0.000000 0.000000 0.000000 0.112581 0.000000 0.000000
# 5 0.000000 0.000000 0.000000 0.000000 0.060423 0.000000
# 6 0.000000 0.000000 0.000000 0.000000 0.000000 0.033275
#
#
# Mechanical properties :
#
#
# Convention : Reuss Voigt Hill
#
# Bulk Modulus (GPa) = 92.84415 93.26279 93.05347
# Shear Modulus (GPa) = 18.93469 25.27132 22.10300
#
# Velocity S-wave (km/s) = 3.21642 3.71585 3.47512
# Velocity P-wave (km/s) = 8.03251 8.32863 8.18191
#
# Compressibility (1/GPa) = 0.01077074
#
# Stress axis : x y z
#
# Youngs Moduli (GPa) = 80.83839 98.00912 100.90491
#
# Poissons Ratio (x) = 0.38146 0.46761
# Poissons Ratio (y) = 0.31463 0.23513
# Poissons Ratio (z) = 0.37462 0.22839
#
# Static dielectric constant tensor:
#      x y z
#    x 3.400090 0.000000 0.000000 
#    y 0.000000 3.425760 0.000000 
#    z 0.000000 0.000000 3.370120 
# 
# 
# High freq. dielectric constant tensor:
#      x y z
#    x 1.717020 0.000000 0.000000 
#    y 0.000000 1.719520 0.000000 
#    z 0.000000 0.000000 1.717520 
# 
# From -- ./inp_files/11737.got.cif
#   From: 2010.03.12/outbox.cif.g09.slc.cpg/sg49_6_cif.got.tgz:11737.got - 2010.04.14 03:58:27.
