data_PCOD8204481
_publ_section_title
;
Structure prediction by ZEFSAII (Michael W. Deem and Ramdas Pophale) SiO2 
 PCOD8204481
Probable space group: P C C M
;
_chemical_formula_sum "Si O2"
_cell_formula_units_Z 56
_cell_length_a 13.979944
_cell_length_b 10.640528
_cell_length_c 16.658119
_cell_angle_alpha 90.000000
_cell_angle_beta 90.000000
_cell_angle_gamma 90.000000
_cell_volume 2477.961593
_symmetry_space_group_name_H-M "P C C M"
_symmetry_group_IT_number 49
_symmetry_cell_setting 'orthorhombic'
loop_
_space_group_symop_operation_xyz
x,y,z
-x,-y,z
x,-y,1/2-z
-x,y,1/2-z
-x,-y,-z
x,y,-z
-x,y,1/2+z
x,-y,1/2+z
loop_
_atom_site_type_symbol
_atom_site_label
_atom_site_fract_x
_atom_site_fract_y
_atom_site_fract_z
Si Si1 0.647943 0.108327 0.907344
Si Si2 0.190143 0.735228 0.133311
Si Si3 0.351056 0.173150 0.908112
Si Si4 0.202146 0.306676 0.819894
Si Si5 0.477206 0.322100 0.658106
Si Si6 0.317245 0.482777 0.589345
Si Si7 0.013260 0.644631 0.592068
O O1 0.761452 0.128326 0.885714
O O2 0.590324 0.200346 0.848603
O O3 0.611003 0.966987 0.890046
O O4 0.625687 0.142340 0.000000
O O5 0.199327 0.693482 0.224933
O O6 0.252844 0.640835 0.079937
O O7 0.080628 0.729328 0.105502
O O8 0.257628 0.185385 0.852865
O O9 0.425622 0.286991 0.889813
O O10 0.319529 0.183364 0.000000
O O11 0.260913 0.426718 0.850684
O O12 0.094760 0.299495 0.851888
O O13 0.500000 0.348345 0.750000
O O14 0.422673 0.445896 0.623664
O O15 0.327674 0.541832 0.500000
O O16 0.046279 0.652297 0.500000
O O17 0.000000 0.500000 0.617732
#
# Coordination Sequence:
#
# PCOD8204481 Si02
#       7
#     8   8   8   8   8   8   8
#     4  10  22  42  67  91 119 163 215 261 309 375
#     4  11  22  38  64  94 125 160 206 260 314 365
#     4  11  23  41  63  89 125 167 210 258 312 371
#     4  12  25  39  61  95 130 162 203 259 316 373
#     4  11  23  39  63  92 123 163 212 263 311 365
#     4  11  22  40  62  88 124 164 207 250 306 375
#     4  11  22  39  65  93 124 166 208 253 306 373
#
# _framework density 22.599219000000002
#
# number of rings (size 3 to 8) (size 9 to 14) (size 15 to 20)
#    0.000    1.000    1.429    7.714    0.000    5.143 
#    0.000    4.286    0.000    4.286    0.000    0.000 
#    0.000    0.000    0.000    0.000    0.000    0.000 
#
# Total GULP energy -694410.502061 kJ/mol
# GULP energy per Si atom -12400.187537 kJ/mol
# Density = 2.254778 g / cm^3
# Si number density = 22.599219 Si / 1000 Ang^3
#
#
#
# Elastic Constant Matrix: (Units=GPa)
#
#
# Indices 1 2 3 4 5 6 
#
# 1 110.1750 -9.4383 14.6146 0.0000 0.0000 0.0000
# 2 -9.4383 16.8351 10.3465 0.0000 0.0000 0.0000
# 3 14.6146 10.3465 113.5546 0.0000 0.0000 0.0000
# 4 0.0000 0.0000 0.0000 23.4180 0.0000 0.0000
# 5 0.0000 0.0000 0.0000 0.0000 39.2452 0.0000
# 6 0.0000 0.0000 0.0000 0.0000 0.0000 27.4708
#
#
#
# Elastic Compliance Matrix: (Units=1/GPa)
#
#
# Indices 1 2 3 4 5 6 
#
# 1 0.009901 0.006710 -0.001886 0.000000 0.000000 0.000000
# 2 0.006710 0.067470 -0.007011 0.000000 0.000000 0.000000
# 3 -0.001886 -0.007011 0.009688 0.000000 0.000000 0.000000
# 4 0.000000 0.000000 0.000000 0.042702 0.000000 0.000000
# 5 0.000000 0.000000 0.000000 0.000000 0.025481 0.000000
# 6 0.000000 0.000000 0.000000 0.000000 0.000000 0.036402
#
#
# Mechanical properties :
#
#
# Convention : Reuss Voigt Hill
#
# Bulk Modulus (GPa) = 12.09396 30.17893 21.13644
# Shear Modulus (GPa) = 22.36330 33.02960 27.69645
#
# Velocity S-wave (km/s) = 3.14914 3.82715 3.50458
# Velocity P-wave (km/s) = 4.31114 5.73694 5.07436
#
# Compressibility (1/GPa) = 0.08268593
#
# Stress axis : x y z
#
# Youngs Moduli (GPa) = 100.99555 14.82132 103.22211
#
# Poissons Ratio (x) = -0.09945 0.19465
# Poissons Ratio (y) = -0.67768 0.72370
# Poissons Ratio (z) = 0.19045 0.10391
#
# Static dielectric constant tensor:
#      x y z
#    x 4.376590 0.000000 0.000000 
#    y 0.000000 4.125910 0.000000 
#    z 0.000000 0.000000 3.988100 
# 
# 
# High freq. dielectric constant tensor:
#      x y z
#    x 1.897770 0.000000 0.000000 
#    y 0.000000 1.878090 0.000000 
#    z 0.000000 0.000000 1.901540 
# 
# From -- ./inp_files/12859.got.cif
#   From: 2010.03.12/outbox.cif.g09.slc.cpg/sg49_7_cif.got.tgz:12859.got - 2010.04.14 03:58:27.
