data_PCOD8204707
_publ_section_title
;
Structure prediction by ZEFSAII (Michael W. Deem and Ramdas Pophale) SiO2 
 PCOD8204707
Probable space group: P C C M
;
_chemical_formula_sum "Si O2"
_cell_formula_units_Z 56
_cell_length_a 10.424561
_cell_length_b 18.602523
_cell_length_c 15.216747
_cell_angle_alpha 90.000000
_cell_angle_beta 90.000000
_cell_angle_gamma 90.000000
_cell_volume 2950.879294
_symmetry_space_group_name_H-M "P C C M"
_symmetry_group_IT_number 49
_symmetry_cell_setting 'orthorhombic'
loop_
_space_group_symop_operation_xyz
x,y,z
-x,-y,z
x,-y,1/2-z
-x,y,1/2-z
-x,-y,-z
x,y,-z
-x,y,1/2+z
x,-y,1/2+z
loop_
_atom_site_type_symbol
_atom_site_label
_atom_site_fract_x
_atom_site_fract_y
_atom_site_fract_z
Si Si1 0.500000 0.919087 0.104940
Si Si2 0.651600 0.420317 0.250000
Si Si3 0.649959 0.686709 0.100633
Si Si4 0.252560 0.160336 0.896253
Si Si5 0.252559 0.160337 0.603748
Si Si6 1.000000 0.082370 0.395118
Si Si7 0.350040 0.686709 0.899367
O O1 0.625812 0.880994 0.144237
O O2 0.374187 0.880995 0.144237
O O3 0.500000 0.000000 0.138892
O O4 0.500000 0.914357 0.000000
O O5 0.713947 0.500000 0.250000
O O6 0.500000 0.427386 0.250000
O O7 0.695691 0.378453 0.337614
O O8 0.695691 0.378453 0.162385
O O9 0.735317 0.755549 0.127614
O O10 0.500000 0.705935 0.114578
O O11 0.675091 0.663833 0.000000
O O12 0.123408 0.124974 0.857409
O O13 0.253331 0.150449 0.000000
O O14 0.253330 0.150450 0.500000
O O15 0.123408 0.124974 0.642591
O O16 0.264683 0.244451 0.627614
O O17 1.000000 0.082944 0.500000
O O18 0.000000 0.000000 0.360903
O O19 0.324908 0.663833 0.000000
#
# Coordination Sequence:
#
# PCOD8204707 Si02
#       7
#     8   8   8   8   8   8   8
#     4   9  14  20  34  57  85 118 159 201 240 284
#     4   9  18  30  46  73 102 125 153 191 243 299
#     4   9  16  28  46  68  96 128 161 198 237 284
#     4   9  15  24  38  60  90 126 163 198 240 286
#     4   9  15  24  38  60  90 126 163 198 240 286
#     4   9  16  24  36  61  97 128 161 209 248 278
#     4   9  16  28  46  68  96 128 161 198 237 284
#
# _framework density 18.977395000000001
#
# number of rings (size 3 to 8) (size 9 to 14) (size 15 to 20)
#    0.000    3.000    1.429    0.857    0.000    4.000 
#    0.000    2.857    0.000    0.857    0.000    8.000 
#    0.000    5.714    0.000    0.000    0.000    0.000 
#
# Total GULP energy -694155.879900 kJ/mol
# GULP energy per Si atom -12395.640712 kJ/mol
# Density = 1.893420 g / cm^3
# Si number density = 18.977395 Si / 1000 Ang^3
#
#
#
# Elastic Constant Matrix: (Units=GPa)
#
#
# Indices 1 2 3 4 5 6 
#
# 1 119.0598 75.7480 19.3976 0.0000 0.0000 0.0000
# 2 75.7480 185.0369 57.5889 0.0000 0.0000 0.0000
# 3 19.3976 57.5889 64.0043 0.0000 0.0000 0.0000
# 4 0.0000 0.0000 0.0000 -22.4462 0.0000 0.0000
# 5 0.0000 0.0000 0.0000 0.0000 0.9790 0.0000
# 6 0.0000 0.0000 0.0000 0.0000 0.0000 22.5884
#
#
#
# Elastic Compliance Matrix: (Units=1/GPa)
#
#
# Indices 1 2 3 4 5 6 
#
# 1 0.011406 -0.004991 0.001034 0.000000 0.000000 0.000000
# 2 -0.004991 0.009690 -0.007206 0.000000 0.000000 0.000000
# 3 0.001034 -0.007206 0.021795 0.000000 0.000000 0.000000
# 4 0.000000 0.000000 0.000000 -0.044551 0.000000 0.000000
# 5 0.000000 0.000000 0.000000 0.000000 1.021483 0.000000
# 6 0.000000 0.000000 0.000000 0.000000 0.000000 0.044271
#
#
# Mechanical properties :
#
#
# Convention : Reuss Voigt Hill
#
# Bulk Modulus (GPa) = 48.62842 74.84112 61.73477
# Shear Modulus (GPa) = 4.57341 14.58199 9.57770
#
# Velocity S-wave (km/s) = 1.55408 2.77499 2.24897
# Velocity P-wave (km/s) = 5.37589 7.05620 6.27257
#
# Compressibility (1/GPa) = 0.02056410
#
# Stress axis : x y z
#
# Youngs Moduli (GPa) = 87.67232 103.19524 45.88278
#
# Poissons Ratio (x) = 0.51506 -0.04744
# Poissons Ratio (y) = 0.43758 0.33065
# Poissons Ratio (z) = -0.09065 0.74367
#
# Static dielectric constant tensor:
#      x y z
#    x 3.457280 0.000000 0.000000 
#    y 0.000000 3.602340 0.000000 
#    z 0.000000 0.000000 3.115310 
# 
# 
# High freq. dielectric constant tensor:
#      x y z
#    x 1.703010 0.000000 0.000000 
#    y 0.000000 1.735080 0.000000 
#    z 0.000000 0.000000 1.713080 
# 
# From -- ./inp_files/12035.got.cif
#   From: 2010.03.12/outbox.cif.g09.slc.cpg/sg49_7_cif.got.tgz:12035.got - 2010.04.14 03:58:27.
