data_PCOD8204967
_publ_section_title
;
Structure prediction by ZEFSAII (Michael W. Deem and Ramdas Pophale) SiO2 
 PCOD8204967
Probable space group: P B A N
;
_chemical_formula_sum "Si O2"
_cell_formula_units_Z 64
_cell_length_a 14.498669
_cell_length_b 17.741036
_cell_length_c 12.650421
_cell_angle_alpha 90.000000
_cell_angle_beta 90.000000
_cell_angle_gamma 90.000000
_cell_volume 3253.959110
_symmetry_space_group_name_H-M "P B A N"
_symmetry_group_IT_number 50
_space_group.IT_coordinate_system_code '2'
_symmetry_cell_setting 'orthorhombic'
loop_
_space_group_symop_operation_xyz
x,y,z
1/2-x,1/2-y,z
x,1/2-y,-z
1/2-x,y,-z
-x,-y,-z
1/2+x,1/2+y,-z
-x,1/2+y,z
1/2+x,-y,z
loop_
_atom_site_type_symbol
_atom_site_label
_atom_site_fract_x
_atom_site_fract_y
_atom_site_fract_z
Si Si1 0.560768 0.338872 0.386497
Si Si2 0.084851 0.333628 0.197188
Si Si3 0.754410 0.161786 0.692924
Si Si4 0.478179 0.915431 0.971800
Si Si5 0.954610 0.160841 0.616385
Si Si6 0.216649 0.931709 0.111685
Si Si7 0.036832 0.340483 0.825223
Si Si8 0.263344 0.106100 0.879102
O O1 0.669860 0.358813 0.384688
O O2 0.521964 0.370798 0.498457
O O3 0.547307 0.250093 0.385419
O O4 0.506311 0.371218 0.285080
O O5 0.051332 0.249080 0.175672
O O6 0.195621 0.346504 0.200372
O O7 0.062485 0.383013 0.094549
O O8 0.034556 0.365945 0.302567
O O9 0.750000 0.250000 0.717543
O O10 0.852161 0.132873 0.647863
O O11 0.734979 0.119292 0.801522
O O12 0.392448 0.916195 0.891683
O O13 0.468554 0.865325 0.078992
O O14 0.500000 0.000000 0.000000
O O15 0.251217 0.016739 0.130732
O O16 0.250000 0.901669 0.000000
O O17 0.134115 0.379984 0.839399
O O18 0.250000 0.133759 0.000000
#
# Coordination Sequence:
#
# PCOD8204967 Si02
#       8
#     8   8   8   8   8   8   8   8
#     4   9  19  34  58  87 117 148 190 244 303 350
#     4  11  22  37  61  88 115 151 205 248 286 342
#     4  10  19  35  57  86 115 151 196 244 289 356
#     4  12  21  37  58  82 120 157 185 238 301 353
#     4   9  18  36  58  85 116 152 192 239 298 356
#     4  11  22  37  54  81 120 158 194 230 301 364
#     4  11  22  37  60  91 116 149 203 252 289 345
#     4  11  22  39  58  81 116 163 198 239 290 357
#
# _framework density 19.668348999999999
#
# number of rings (size 3 to 8) (size 9 to 14) (size 15 to 20)
#    0.000    1.500    3.750    2.625    0.000    2.250 
#    2.250    0.625    0.000   11.250    0.000    0.000 
#    0.000    0.000    0.000    0.000    0.000    0.000 
#
# Total GULP energy -793248.188679 kJ/mol
# GULP energy per Si atom -12394.502948 kJ/mol
# Density = 1.962358 g / cm^3
# Si number density = 19.668349 Si / 1000 Ang^3
#
#
#
# Elastic Constant Matrix: (Units=GPa)
#
#
# Indices 1 2 3 4 5 6 
#
# 1 87.1847 10.4945 41.5371 0.0000 0.0000 0.0000
# 2 10.4945 45.0028 33.2316 0.0000 0.0000 0.0000
# 3 41.5371 33.2316 147.0141 0.0000 0.0000 0.0000
# 4 0.0000 0.0000 0.0000 9.5673 0.0000 0.0000
# 5 0.0000 0.0000 0.0000 0.0000 30.7958 0.0000
# 6 0.0000 0.0000 0.0000 0.0000 0.0000 23.4292
#
#
#
# Elastic Compliance Matrix: (Units=1/GPa)
#
#
# Indices 1 2 3 4 5 6 
#
# 1 0.013260 -0.000391 -0.003658 0.000000 0.000000 0.000000
# 2 -0.000391 0.026685 -0.005921 0.000000 0.000000 0.000000
# 3 -0.003658 -0.005921 0.009174 0.000000 0.000000 0.000000
# 4 0.000000 0.000000 0.000000 0.104523 0.000000 0.000000
# 5 0.000000 0.000000 0.000000 0.000000 0.032472 0.000000
# 6 0.000000 0.000000 0.000000 0.000000 0.000000 0.042682
#
#
# Mechanical properties :
#
#
# Convention : Reuss Voigt Hill
#
# Bulk Modulus (GPa) = 34.27275 49.96977 42.12126
# Shear Modulus (GPa) = 19.34525 25.68768 22.51647
#
# Velocity S-wave (km/s) = 3.13960 3.61784 3.38717
# Velocity P-wave (km/s) = 5.53226 6.55080 6.06296
#
# Compressibility (1/GPa) = 0.02917770
#
# Stress axis : x y z
#
# Youngs Moduli (GPa) = 75.41631 37.47481 109.00255
#
# Poissons Ratio (x) = 0.01465 0.39873
# Poissons Ratio (y) = 0.02948 0.64545
# Poissons Ratio (z) = 0.27587 0.22190
#
# Static dielectric constant tensor:
#      x y z
#    x 3.687190 0.000000 0.000000 
#    y 0.000000 3.256900 0.000000 
#    z 0.000000 0.000000 3.639600 
# 
# 
# High freq. dielectric constant tensor:
#      x y z
#    x 1.773550 0.000000 0.000000 
#    y 0.000000 1.738350 0.000000 
#    z 0.000000 0.000000 1.765450 
# 
# From -- ./inp_files/21363.got.cif
#   From: 2010.03.12/outbox.cif.g09.slc.cpg/sg50_11_cif.got.tgz:21363.got - 2010.04.16 13:23:21.
