data_PCOD8204116
_publ_section_title
;
Structure prediction by ZEFSAII (Michael W. Deem and Ramdas Pophale) SiO2 
 PCOD8204116
Probable space group: P C C M
;
_chemical_formula_sum "Si O2"
_cell_formula_units_Z 40
_cell_length_a 5.839152
_cell_length_b 17.565616
_cell_length_c 18.934084
_cell_angle_alpha 90.000000
_cell_angle_beta 90.000000
_cell_angle_gamma 90.000000
_cell_volume 1942.036842
_symmetry_space_group_name_H-M "P C C M"
_symmetry_group_IT_number 49
_symmetry_cell_setting 'orthorhombic'
loop_
_space_group_symop_operation_xyz
x,y,z
-x,-y,z
x,-y,1/2-z
-x,y,1/2-z
-x,-y,-z
x,y,-z
-x,y,1/2+z
x,-y,1/2+z
loop_
_atom_site_type_symbol
_atom_site_label
_atom_site_fract_x
_atom_site_fract_y
_atom_site_fract_z
Si Si1 0.089025 0.831322 0.676445
Si Si2 0.245819 0.472928 0.830378
Si Si3 0.386655 0.311448 0.178196
Si Si4 0.613641 0.922152 0.920731
Si Si5 0.301725 0.225236 0.420077
O O1 0.271690 0.768225 0.698678
O O2 0.181802 0.903173 0.632618
O O3 0.000000 0.865894 0.750000
O O4 0.918961 0.784430 0.627534
O O5 0.500000 0.500000 0.861843
O O6 0.239801 0.500000 0.750000
O O7 0.224666 0.381718 0.842447
O O8 0.000000 0.500000 0.865731
O O9 0.500000 0.341180 0.250000
O O10 0.555495 0.295065 0.112523
O O11 0.433984 0.854292 0.918919
O O12 0.500000 0.000000 0.894036
O O13 0.712831 0.932646 0.000000
O O14 0.232518 0.246863 0.500000
#
# Coordination Sequence:
#
# PCOD8204116 Si02
#       5
#     8   8   8   8   8
#     4  11  22  34  61  89 119 156 207 262 320 372
#     4  10  21  33  57  93 127 161 209 266 319 379
#     4  11  21  37  61  90 122 161 201 264 318 376
#     4   9  20  40  61  82 118 162 205 252 311 384
#     4  10  22  39  61  89 120 160 207 253 313 384
#
# _framework density 20.596931999999999
#
# number of rings (size 3 to 8) (size 9 to 14) (size 15 to 20)
#    0.000    1.800    4.000    0.600    5.600    1.600 
#    0.000    6.000    0.000    1.200    0.000    0.000 
#    0.000    0.000    0.000    0.000    0.000    0.000 
#
# Total GULP energy -495575.370543 kJ/mol
# GULP energy per Si atom -12389.384264 kJ/mol
# Density = 2.055005 g / cm^3
# Si number density = 20.596932 Si / 1000 Ang^3
#
#
#
# Elastic Constant Matrix: (Units=GPa)
#
#
# Indices 1 2 3 4 5 6 
#
# 1 110.6698 35.0384 41.7365 0.0000 0.0000 0.0000
# 2 35.0384 121.4944 39.6913 0.0000 0.0000 0.0000
# 3 41.7365 39.6913 115.2594 0.0000 0.0000 0.0000
# 4 0.0000 0.0000 0.0000 19.4241 0.0000 0.0000
# 5 0.0000 0.0000 0.0000 0.0000 25.3427 0.0000
# 6 0.0000 0.0000 0.0000 0.0000 0.0000 18.6520
#
#
#
# Elastic Compliance Matrix: (Units=1/GPa)
#
#
# Indices 1 2 3 4 5 6 
#
# 1 0.010918 -0.002092 -0.003233 0.000000 0.000000 0.000000
# 2 -0.002092 0.009675 -0.002574 0.000000 0.000000 0.000000
# 3 -0.003233 -0.002574 0.010733 0.000000 0.000000 0.000000
# 4 0.000000 0.000000 0.000000 0.051482 0.000000 0.000000
# 5 0.000000 0.000000 0.000000 0.000000 0.039459 0.000000
# 6 0.000000 0.000000 0.000000 0.000000 0.000000 0.053613
#
#
# Mechanical properties :
#
#
# Convention : Reuss Voigt Hill
#
# Bulk Modulus (GPa) = 64.40298 64.48397 64.44348
# Shear Modulus (GPa) = 25.39937 28.08093 26.74015
#
# Velocity S-wave (km/s) = 3.51545 3.69637 3.60704
# Velocity P-wave (km/s) = 6.91477 7.04223 6.97879
#
# Compressibility (1/GPa) = 0.01552723
#
# Stress axis : x y z
#
# Youngs Moduli (GPa) = 91.59580 103.35680 93.16937
#
# Poissons Ratio (x) = 0.21627 0.30120
# Poissons Ratio (y) = 0.19166 0.23983
# Poissons Ratio (z) = 0.29611 0.26605
#
# Static dielectric constant tensor:
#      x y z
#    x 3.973650 0.000000 0.000000 
#    y 0.000000 3.639060 0.000000 
#    z 0.000000 0.000000 3.597340 
# 
# 
# High freq. dielectric constant tensor:
#      x y z
#    x 1.806890 0.000000 0.000000 
#    y 0.000000 1.805980 0.000000 
#    z 0.000000 0.000000 1.780230 
# 
# From -- ./inp_files/15254.got.cif
#   From: 2010.03.12/outbox.cif.g09.slc.cpg/sg49_8_cif.got.tgz:15254.got - 2010.04.14 03:58:27.
