data_PCOD8204360
_publ_section_title
;
Structure prediction by ZEFSAII (Michael W. Deem and Ramdas Pophale) SiO2 
 PCOD8204360
Probable space group: P C C M
;
_chemical_formula_sum "Si O2"
_cell_formula_units_Z 56
_cell_length_a 14.967724
_cell_length_b 9.700687
_cell_length_c 18.600328
_cell_angle_alpha 90.000000
_cell_angle_beta 90.000000
_cell_angle_gamma 90.000000
_cell_volume 2700.715649
_symmetry_space_group_name_H-M "P C C M"
_symmetry_group_IT_number 49
_symmetry_cell_setting 'orthorhombic'
loop_
_space_group_symop_operation_xyz
x,y,z
-x,-y,z
x,-y,1/2-z
-x,y,1/2-z
-x,-y,-z
x,y,-z
-x,y,1/2+z
x,-y,1/2+z
loop_
_atom_site_type_symbol
_atom_site_label
_atom_site_fract_x
_atom_site_fract_y
_atom_site_fract_z
Si Si1 0.636537 0.309595 0.083996
Si Si2 0.774734 0.136827 0.161696
Si Si3 0.515417 0.153965 0.665843
Si Si4 0.739624 0.419170 0.419784
Si Si5 0.936007 0.388042 0.419275
Si Si6 0.019290 0.847897 0.166410
Si Si7 0.719259 0.170055 0.678409
O O1 0.715579 0.201276 0.098390
O O2 0.546366 0.267085 0.126060
O O3 0.671921 0.461746 0.108102
O O4 0.614204 0.309320 0.000000
O O5 0.876316 0.186843 0.152985
O O6 0.730724 0.189872 0.236263
O O7 0.767361 0.971655 0.156094
O O8 0.500000 0.161593 0.750000
O O9 0.617931 0.182634 0.651697
O O10 0.500000 0.000000 0.635951
O O11 0.708978 0.370785 0.500000
O O12 0.841600 0.468761 0.422406
O O13 0.759114 0.295998 0.364761
O O14 0.966066 0.348317 0.500000
O O15 0.000000 0.500000 0.383234
O O16 0.948152 0.250279 0.372508
O O17 0.000000 0.838531 0.250000
O O18 0.000000 0.000000 0.136876
#
# Coordination Sequence:
#
# PCOD8204360 Si02
#       7
#     8   8   8   8   8   8   8
#     4  11  24  41  62  93 127 162 207 259 310 370
#     4  11  21  39  63  91 123 162 207 265 310 370
#     4  11  20  42  67  93 125 159 205 256 306 371
#     4  10  23  41  59  88 127 162 202 253 310 370
#     4  10  21  40  62  83 118 168 209 248 305 371
#     4  11  22  37  60  92 126 157 206 264 320 367
#     4  11  21  39  66  88 122 162 207 250 318 375
#
# _framework density 20.735244999999999
#
# number of rings (size 3 to 8) (size 9 to 14) (size 15 to 20)
#    0.000    1.286    2.857    5.143    0.000    4.857 
#    0.000    5.000    0.000    0.000    0.000    0.000 
#    0.000    0.000    0.000    0.000    0.000    0.000 
#
# Total GULP energy -694021.077908 kJ/mol
# GULP energy per Si atom -12393.233534 kJ/mol
# Density = 2.068805 g / cm^3
# Si number density = 20.735245 Si / 1000 Ang^3
#
#
#
# Elastic Constant Matrix: (Units=GPa)
#
#
# Indices 1 2 3 4 5 6 
#
# 1 114.0635 14.9445 14.2349 0.0000 0.0000 0.0000
# 2 14.9445 108.7957 51.6536 0.0000 0.0000 0.0000
# 3 14.2349 51.6536 62.9022 0.0000 0.0000 0.0000
# 4 0.0000 0.0000 0.0000 24.7036 0.0000 0.0000
# 5 0.0000 0.0000 0.0000 0.0000 27.5231 0.0000
# 6 0.0000 0.0000 0.0000 0.0000 0.0000 39.2370
#
#
#
# Elastic Compliance Matrix: (Units=1/GPa)
#
#
# Indices 1 2 3 4 5 6 
#
# 1 0.009035 -0.000443 -0.001681 0.000000 0.000000 0.000000
# 2 -0.000443 0.015087 -0.012289 0.000000 0.000000 0.000000
# 3 -0.001681 -0.012289 0.026369 0.000000 0.000000 0.000000
# 4 0.000000 0.000000 0.000000 0.040480 0.000000 0.000000
# 5 0.000000 0.000000 0.000000 0.000000 0.036333 0.000000
# 6 0.000000 0.000000 0.000000 0.000000 0.000000 0.025486
#
#
# Mechanical properties :
#
#
# Convention : Reuss Voigt Hill
#
# Bulk Modulus (GPa) = 46.15547 49.71414 47.93480
# Shear Modulus (GPa) = 26.47793 31.95463 29.21628
#
# Velocity S-wave (km/s) = 3.57732 3.92992 3.75776
# Velocity P-wave (km/s) = 6.27461 6.67982 6.48039
#
# Compressibility (1/GPa) = 0.02166590
#
# Stress axis : x y z
#
# Youngs Moduli (GPa) = 110.68245 66.28358 37.92321
#
# Poissons Ratio (x) = 0.02937 0.06374
# Poissons Ratio (y) = 0.04904 0.46602
# Poissons Ratio (z) = 0.18603 0.81453
#
# Static dielectric constant tensor:
#      x y z
#    x 3.405490 0.000000 0.000000 
#    y 0.000000 3.951580 0.000000 
#    z 0.000000 0.000000 3.636570 
# 
# 
# High freq. dielectric constant tensor:
#      x y z
#    x 1.831340 0.000000 0.000000 
#    y 0.000000 1.805400 0.000000 
#    z 0.000000 0.000000 1.798680 
# 
# From -- ./inp_files/20887.got.cif
#   From: 2010.03.12/outbox.cif.g09.slc.cpg/sg49_11_cif.got.tgz:20887.got - 2010.04.14 03:58:27.
