data_PCOD8204668
_publ_section_title
;
Structure prediction by ZEFSAII (Michael W. Deem and Ramdas Pophale) SiO2 
 PCOD8204668
Probable space group: P C C M
;
_chemical_formula_sum "Si O2"
_cell_formula_units_Z 64
_cell_length_a 9.631571
_cell_length_b 18.702633
_cell_length_c 17.124401
_cell_angle_alpha 90.000000
_cell_angle_beta 90.000000
_cell_angle_gamma 90.000000
_cell_volume 3084.716606
_symmetry_space_group_name_H-M "P C C M"
_symmetry_group_IT_number 49
_symmetry_cell_setting 'orthorhombic'
loop_
_space_group_symop_operation_xyz
x,y,z
-x,-y,z
x,-y,1/2-z
-x,y,1/2-z
-x,-y,-z
x,y,-z
-x,y,1/2+z
x,-y,1/2+z
loop_
_atom_site_type_symbol
_atom_site_label
_atom_site_fract_x
_atom_site_fract_y
_atom_site_fract_z
Si Si1 0.159409 0.582401 0.659873
Si Si2 0.338077 0.297319 0.590684
Si Si3 0.720692 0.845492 0.839658
Si Si4 0.223793 0.155210 0.340466
Si Si5 0.842201 0.582824 0.340736
Si Si6 0.657631 0.701049 0.909186
Si Si7 0.973100 0.080810 0.590941
Si Si8 0.471281 0.919864 0.090633
O O1 0.186424 0.499765 0.640635
O O2 0.188307 0.598886 0.750338
O O3 0.265499 0.626799 0.607263
O O4 0.001050 0.602664 0.638830
O O5 0.329338 0.276903 0.500000
O O6 0.260344 0.236675 0.640042
O O7 0.260961 0.371830 0.605735
O O8 0.497560 0.304631 0.617826
O O9 0.753817 0.859103 0.750167
O O10 0.738907 0.762376 0.861438
O O11 0.562063 0.865660 0.858150
O O12 0.814822 0.897363 0.892665
O O13 0.065072 0.137735 0.361070
O O14 0.312621 0.099665 0.392118
O O15 0.666619 0.719806 0.000000
O O16 0.007343 0.087500 0.500000
O O17 0.000000 0.000000 0.620206
O O18 0.500000 0.000000 0.118075
O O19 0.505867 0.908973 0.000000
#
# Coordination Sequence:
#
# PCOD8204668 Si02
#       8
#     8   8   8   8   8   8   8   8
#     4   9  20  40  65  93 126 163 205 255 311 370
#     4  11  24  41  62  89 126 168 210 257 310 371
#     4  12  25  41  64  93 125 163 210 262 311 368
#     4  12  25  41  64  93 125 163 210 262 311 368
#     4   9  20  40  65  93 126 163 205 255 311 370
#     4  11  24  41  62  89 126 168 210 257 310 371
#     4  11  25  45  67  91 124 165 206 255 319 383
#     4  11  23  41  65  91 124 165 206 253 313 375
#
# _framework density 20.747450000000001
#
# number of rings (size 3 to 8) (size 9 to 14) (size 15 to 20)
#    0.000    1.250    1.250    5.250    1.750    8.000 
#    0.000    3.750    0.000    0.000    0.000    0.000 
#    0.000    0.000    0.000    0.000    0.000    0.000 
#
# Total GULP energy -794080.881365 kJ/mol
# GULP energy per Si atom -12407.513771 kJ/mol
# Density = 2.070023 g / cm^3
# Si number density = 20.747450 Si / 1000 Ang^3
#
#
#
# Elastic Constant Matrix: (Units=GPa)
#
#
# Indices 1 2 3 4 5 6 
#
# 1 84.0781 40.8868 21.5904 0.0000 0.0000 0.0000
# 2 40.8868 108.5275 26.5031 0.0000 0.0000 0.0000
# 3 21.5904 26.5031 75.8187 0.0000 0.0000 0.0000
# 4 0.0000 0.0000 0.0000 34.0144 0.0000 0.0000
# 5 0.0000 0.0000 0.0000 0.0000 34.9914 0.0000
# 6 0.0000 0.0000 0.0000 0.0000 0.0000 43.6980
#
#
#
# Elastic Compliance Matrix: (Units=1/GPa)
#
#
# Indices 1 2 3 4 5 6 
#
# 1 0.014985 -0.005033 -0.002508 0.000000 0.000000 0.000000
# 2 -0.005033 0.011765 -0.002679 0.000000 0.000000 0.000000
# 3 -0.002508 -0.002679 0.014840 0.000000 0.000000 0.000000
# 4 0.000000 0.000000 0.000000 0.029399 0.000000 0.000000
# 5 0.000000 0.000000 0.000000 0.000000 0.028578 0.000000
# 6 0.000000 0.000000 0.000000 0.000000 0.000000 0.022884
#
#
# Mechanical properties :
#
#
# Convention : Reuss Voigt Hill
#
# Bulk Modulus (GPa) = 47.28222 49.59833 48.44028
# Shear Modulus (GPa) = 33.34612 34.50370 33.92491
#
# Velocity S-wave (km/s) = 4.01339 4.08245 4.04807
# Velocity P-wave (km/s) = 6.65697 6.79555 6.72662
#
# Compressibility (1/GPa) = 0.02114960
#
# Stress axis : x y z
#
# Youngs Moduli (GPa) = 66.73207 84.99981 67.38519
#
# Poissons Ratio (x) = 0.42782 0.16899
# Poissons Ratio (y) = 0.33587 0.18054
# Poissons Ratio (z) = 0.16736 0.22773
#
# Static dielectric constant tensor:
#      x y z
#    x 3.732940 0.000000 0.000000 
#    y 0.000000 3.704680 0.000000 
#    z 0.000000 0.000000 3.591130 
# 
# 
# High freq. dielectric constant tensor:
#      x y z
#    x 1.817350 0.000000 0.000000 
#    y 0.000000 1.819060 0.000000 
#    z 0.000000 0.000000 1.811130 
# 
# From -- ./inp_files/16531.got.cif
#   From: 2010.03.12/outbox.cif.g09.slc.cpg/sg49_9_cif.got.tgz:16531.got - 2010.04.14 03:58:27.
