data_PCOD8204031
_publ_section_title
;
Structure prediction by ZEFSAII (Michael W. Deem and Ramdas Pophale) SiO2 
 PCOD8204031
Probable space group: P C C M
;
_chemical_formula_sum "Si O2"
_cell_formula_units_Z 64
_cell_length_a 8.682624
_cell_length_b 24.001102
_cell_length_c 15.122818
_cell_angle_alpha 90.000000
_cell_angle_beta 90.000000
_cell_angle_gamma 90.000000
_cell_volume 3151.482519
_symmetry_space_group_name_H-M "P C C M"
_symmetry_group_IT_number 49
_symmetry_cell_setting 'orthorhombic'
loop_
_space_group_symop_operation_xyz
x,y,z
-x,-y,z
x,-y,1/2-z
-x,y,1/2-z
-x,-y,-z
x,y,-z
-x,y,1/2+z
x,-y,1/2+z
loop_
_atom_site_type_symbol
_atom_site_label
_atom_site_fract_x
_atom_site_fract_y
_atom_site_fract_z
Si Si1 0.678108 0.620054 0.599449
Si Si2 0.818284 0.885790 0.101507
Si Si3 0.682155 0.500000 0.848403
Si Si4 0.672793 1.000000 0.895154
Si Si5 0.680551 0.811180 0.250000
Si Si6 0.181716 0.114209 0.601507
Si Si7 0.179032 0.308319 0.750000
Si Si8 0.678107 0.620054 0.099449
O O1 0.697777 0.642575 0.500000
O O2 0.736692 0.555952 0.602049
O O3 0.783647 0.656639 0.662688
O O4 0.500001 0.624205 0.630309
O O5 0.749869 0.837008 0.160875
O O6 1.000000 0.885190 0.109643
O O7 0.758972 0.944934 0.139064
O O8 0.765353 0.876192 0.000000
O O9 0.500000 0.500000 0.845001
O O10 0.752355 0.500000 0.750000
O O11 0.736692 0.555952 0.897950
O O12 0.758974 0.055066 0.860936
O O13 0.500000 0.000000 0.857162
O O14 0.674207 1.000000 0.000000
O O15 0.500000 0.821200 0.250000
O O16 0.749868 0.837009 0.339125
O O17 0.717144 0.746298 0.250001
O O18 0.234647 0.123807 0.500000
O O19 0.216355 0.343360 0.837312
O O20 0.000000 0.292003 0.750000
O O21 0.697776 0.642575 0.000000
#
# Coordination Sequence:
#
# PCOD8204031 Si02
#       8
#     8   8   8   8   8   8   8   8
#     4  10  20  37  63  92 120 154 198 245 293 347
#     4  10  21  39  63  91 124 159 195 241 300 360
#     4   9  15  29  59  93 125 154 189 240 293 346
#     4   9  17  32  57  90 126 161 199 242 289 346
#     4  12  26  43  64  87 114 152 203 254 299 352
#     4  10  21  39  63  91 124 159 195 241 300 360
#     4  12  26  43  60  81 117 158 199 246 298 354
#     4  10  20  37  63  92 120 154 198 245 293 347
#
# _framework density 20.307903
#
# number of rings (size 3 to 8) (size 9 to 14) (size 15 to 20)
#    0.000    1.750    1.250    3.750    0.000    6.500 
#    0.000    3.750    0.000    1.500    0.000    0.000 
#    0.000    0.000    0.000    0.000    0.000    0.000 
#
# Total GULP energy -793717.380503 kJ/mol
# GULP energy per Si atom -12401.834070 kJ/mol
# Density = 2.026168 g / cm^3
# Si number density = 20.307903 Si / 1000 Ang^3
#
#
#
# Elastic Constant Matrix: (Units=GPa)
#
#
# Indices 1 2 3 4 5 6 
#
# 1 80.1173 24.5967 31.7769 0.0000 0.0000 0.0000
# 2 24.5967 120.8515 43.5729 0.0000 0.0000 0.0000
# 3 31.7769 43.5729 106.1921 0.0000 0.0000 0.0000
# 4 0.0000 0.0000 0.0000 -68.0635 0.0000 0.0000
# 5 0.0000 0.0000 0.0000 0.0000 27.1033 0.0000
# 6 0.0000 0.0000 0.0000 0.0000 0.0000 17.2261
#
#
#
# Elastic Compliance Matrix: (Units=1/GPa)
#
#
# Indices 1 2 3 4 5 6 
#
# 1 0.014428 -0.001619 -0.003653 0.000000 0.000000 0.000000
# 2 -0.001619 0.009893 -0.003575 0.000000 0.000000 0.000000
# 3 -0.003653 -0.003575 0.011977 0.000000 0.000000 0.000000
# 4 0.000000 0.000000 0.000000 -0.014692 0.000000 0.000000
# 5 0.000000 0.000000 0.000000 0.000000 0.036896 0.000000
# 6 0.000000 0.000000 0.000000 0.000000 0.000000 0.058052
#
#
# Mechanical properties :
#
#
# Convention : Reuss Voigt Hill
#
# Bulk Modulus (GPa) = 53.75330 56.33932 55.04631
# Shear Modulus (GPa) = 35.60036 9.06746 22.33391
#
# Velocity S-wave (km/s) = 4.19146 2.11535 3.31987
# Velocity P-wave (km/s) = 7.06761 5.81111 6.46993
#
# Compressibility (1/GPa) = 0.01860351
#
# Stress axis : x y z
#
# Youngs Moduli (GPa) = 69.31112 101.08065 83.49488
#
# Poissons Ratio (x) = 0.16369 0.30500
# Poissons Ratio (y) = 0.11224 0.29847
# Poissons Ratio (z) = 0.25318 0.36134
#
# Static dielectric constant tensor:
#      x y z
#    x 3.535410 0.000000 0.000000 
#    y 0.000000 3.776940 0.000000 
#    z 0.000000 0.000000 3.710740 
# 
# 
# High freq. dielectric constant tensor:
#      x y z
#    x 1.778710 0.000000 0.000000 
#    y 0.000000 1.795110 0.000000 
#    z 0.000000 0.000000 1.798490 
# 
# From -- ./inp_files/12105.got.cif
#   From: 2010.03.12/outbox.cif.g09.slc.cpg/sg49_7_cif.got.tgz:12105.got - 2010.04.14 03:58:27.
