data_PCOD8204688
_publ_section_title
;
Structure prediction by ZEFSAII (Michael W. Deem and Ramdas Pophale) SiO2 
 PCOD8204688
Probable space group: P C C M
;
_chemical_formula_sum "Si O2"
_cell_formula_units_Z 30
_cell_length_a 10.953768
_cell_length_b 9.028650
_cell_length_c 13.862497
_cell_angle_alpha 90.000000
_cell_angle_beta 90.000000
_cell_angle_gamma 90.000000
_cell_volume 1370.969589
_symmetry_space_group_name_H-M "P C C M"
_symmetry_group_IT_number 49
_symmetry_cell_setting 'orthorhombic'
loop_
_space_group_symop_operation_xyz
x,y,z
-x,-y,z
x,-y,1/2-z
-x,y,1/2-z
-x,-y,-z
x,y,-z
-x,y,1/2+z
x,-y,1/2+z
loop_
_atom_site_type_symbol
_atom_site_label
_atom_site_fract_x
_atom_site_fract_y
_atom_site_fract_z
Si Si1 0.298702 0.305679 0.154063
Si Si2 0.147847 0.478359 0.000000
Si Si3 0.122365 0.163310 0.709862
Si Si4 0.500000 0.500000 0.250000
Si Si5 0.819404 0.808068 0.500000
Si Si6 0.367878 0.065976 0.000000
O O1 0.194642 0.392682 0.094617
O O2 0.239095 0.258225 0.256121
O O3 0.417000 0.402598 0.178468
O O4 0.341849 0.161583 0.095356
O O5 0.217004 0.635618 0.000000
O O6 0.000000 0.500000 0.000000
O O7 0.102692 0.158696 0.595299
O O8 0.000000 0.238926 0.750000
O O9 0.137721 0.000000 0.750000
O O10 0.705154 0.914206 0.500000
O O11 0.500000 0.000000 0.000000
#
# Coordination Sequence:
#
# PCOD8204688 Si02
#       6
#     8   4   8   2   4   4
#     4  11  26  47  68 108 142 188 246 293 370 430
#     4  11  25  46  77 107 148 190 240 304 366 443
#     4  11  24  43  73 106 141 181 232 300 357 426
#     4  12  28  42  72  96 152 198 238 308 360 460
#     4  12  24  45  72 107 140 189 240 287 368 417
#     4  11  27  44  72 100 142 188 246 302 351 441
#
# _framework density 21.882321999999998
#
# number of rings (size 3 to 8) (size 9 to 14) (size 15 to 20)
#    0.000    0.800    2.667    3.200    7.467    4.267 
#    0.000    2.667    0.000    0.000    0.000    0.000 
#    0.000    0.000    0.000    0.000    0.000    0.000 
#
# Total GULP energy -371956.092409 kJ/mol
# GULP energy per Si atom -12398.536414 kJ/mol
# Density = 2.183252 g / cm^3
# Si number density = 21.882322 Si / 1000 Ang^3
#
#
#
# Elastic Constant Matrix: (Units=GPa)
#
#
# Indices 1 2 3 4 5 6 
#
# 1 169.3971 64.4132 68.0722 0.0000 0.0000 0.0000
# 2 64.4132 132.8988 46.8420 0.0000 0.0000 0.0000
# 3 68.0722 46.8420 182.0628 0.0000 0.0000 0.0000
# 4 0.0000 0.0000 0.0000 19.0054 0.0000 0.0000
# 5 0.0000 0.0000 0.0000 0.0000 21.6402 0.0000
# 6 0.0000 0.0000 0.0000 0.0000 0.0000 38.0477
#
#
#
# Elastic Compliance Matrix: (Units=1/GPa)
#
#
# Indices 1 2 3 4 5 6 
#
# 1 0.007953 -0.003086 -0.002179 0.000000 0.000000 0.000000
# 2 -0.003086 0.009473 -0.001283 0.000000 0.000000 0.000000
# 3 -0.002179 -0.001283 0.006638 0.000000 0.000000 0.000000
# 4 0.000000 0.000000 0.000000 0.052617 0.000000 0.000000
# 5 0.000000 0.000000 0.000000 0.000000 0.046210 0.000000
# 6 0.000000 0.000000 0.000000 0.000000 0.000000 0.026283
#
#
# Mechanical properties :
#
#
# Convention : Reuss Voigt Hill
#
# Bulk Modulus (GPa) = 91.19844 93.66816 92.43330
# Shear Modulus (GPa) = 30.13400 36.07408 33.10404
#
# Velocity S-wave (km/s) = 3.71495 4.06464 3.89372
# Velocity P-wave (km/s) = 7.75683 8.05771 7.90870
#
# Compressibility (1/GPa) = 0.01096510
#
# Stress axis : x y z
#
# Youngs Moduli (GPa) = 125.74431 105.56671 150.65635
#
# Poissons Ratio (x) = 0.32581 0.32834
# Poissons Ratio (y) = 0.38809 0.19333
# Poissons Ratio (z) = 0.27404 0.13547
#
# Static dielectric constant tensor:
#      x y z
#    x 3.898260 0.000000 0.000000 
#    y 0.000000 4.427150 0.000000 
#    z 0.000000 0.000000 4.072920 
# 
# 
# High freq. dielectric constant tensor:
#      x y z
#    x 1.859780 0.000000 0.000000 
#    y 0.000000 1.876360 0.000000 
#    z 0.000000 0.000000 1.872700 
# 
# From -- ./inp_files/12407.got.cif
#   From: 2010.03.12/outbox.cif.g09.slc.cpg/sg49_7_cif.got.tgz:12407.got - 2010.04.14 03:58:27.
