data_PCOD8204240
_publ_section_title
;
Structure prediction by ZEFSAII (Michael W. Deem and Ramdas Pophale) SiO2 
 PCOD8204240
Probable space group: P C C M
;
_chemical_formula_sum "Si O2"
_cell_formula_units_Z 64
_cell_length_a 17.261357
_cell_length_b 11.916629
_cell_length_c 15.070600
_cell_angle_alpha 90.000000
_cell_angle_beta 90.000000
_cell_angle_gamma 90.000000
_cell_volume 3099.980033
_symmetry_space_group_name_H-M "P C C M"
_symmetry_group_IT_number 49
_symmetry_cell_setting 'orthorhombic'
loop_
_space_group_symop_operation_xyz
x,y,z
-x,-y,z
x,-y,1/2-z
-x,y,1/2-z
-x,-y,-z
x,y,-z
-x,y,1/2+z
x,-y,1/2+z
loop_
_atom_site_type_symbol
_atom_site_label
_atom_site_fract_x
_atom_site_fract_y
_atom_site_fract_z
Si Si1 0.316822 0.985095 0.604096
Si Si2 0.170722 0.628882 0.742388
Si Si3 0.649721 0.627940 0.757023
Si Si4 0.604643 0.214998 0.898042
Si Si5 0.145743 0.990833 0.650351
Si Si6 0.926795 0.236440 0.600249
Si Si7 0.895679 0.235001 0.900201
Si Si8 0.575489 0.218716 0.601743
O O1 0.301536 0.982319 0.500000
O O2 0.350150 0.104638 0.633869
O O3 0.236542 0.960514 0.653350
O O4 0.377490 0.890382 0.632925
O O5 0.144340 0.500000 0.750000
O O6 0.260433 0.639512 0.717637
O O7 0.123370 0.686306 0.663999
O O8 0.156559 0.690594 0.835583
O O9 0.624032 0.500000 0.750000
O O10 0.632528 0.682932 0.662126
O O11 0.598674 0.678704 0.835877
O O12 0.514199 0.190463 0.885738
O O13 0.623978 0.245231 0.000000
O O14 0.131989 0.106523 0.599406
O O15 0.114127 0.000000 0.750000
O O16 0.098962 0.892788 0.602167
O O17 0.916894 0.281109 0.500000
O O18 0.015641 0.243867 0.631024
O O19 0.884844 0.281159 0.000000
O O20 0.594278 0.250937 0.500000
#
# Coordination Sequence:
#
# PCOD8204240 Si02
#       8
#     8   8   8   8   8   8   8   8
#     4  10  21  37  60  91 126 160 199 245 299 365
#     4  11  25  44  65  90 123 161 207 257 306 361
#     4  11  25  42  61  88 119 159 207 251 298 359
#     4  10  22  40  63  91 123 159 200 249 303 358
#     4  12  23  36  61  95 129 163 201 247 305 367
#     4  11  24  42  65  93 125 162 204 251 306 366
#     4  11  24  42  65  93 125 162 204 251 306 366
#     4  10  22  40  63  91 123 159 200 249 303 358
#
# _framework density 20.645295000000001
#
# number of rings (size 3 to 8) (size 9 to 14) (size 15 to 20)
#    0.000    1.250    1.250    4.125    1.750    9.000 
#    0.000    6.250    0.000    0.000    0.000    0.000 
#    0.000    0.000    0.000    0.000    0.000    0.000 
#
# Total GULP energy -794025.416966 kJ/mol
# GULP energy per Si atom -12406.647140 kJ/mol
# Density = 2.059831 g / cm^3
# Si number density = 20.645295 Si / 1000 Ang^3
#
#
#
# Elastic Constant Matrix: (Units=GPa)
#
#
# Indices 1 2 3 4 5 6 
#
# 1 44.3994 -5.8716 5.6265 0.0000 0.0000 0.0000
# 2 -5.8716 98.3395 27.2770 0.0000 0.0000 0.0000
# 3 5.6265 27.2770 80.7630 0.0000 0.0000 0.0000
# 4 0.0000 0.0000 0.0000 20.8202 0.0000 0.0000
# 5 0.0000 0.0000 0.0000 0.0000 34.3596 0.0000
# 6 0.0000 0.0000 0.0000 0.0000 0.0000 12.3120
#
#
#
# Elastic Compliance Matrix: (Units=1/GPa)
#
#
# Indices 1 2 3 4 5 6 
#
# 1 0.023079 0.002012 -0.002288 0.000000 0.000000 0.000000
# 2 0.002012 0.011395 -0.003989 0.000000 0.000000 0.000000
# 3 -0.002288 -0.003989 0.013888 0.000000 0.000000 0.000000
# 4 0.000000 0.000000 0.000000 0.048030 0.000000 0.000000
# 5 0.000000 0.000000 0.000000 0.000000 0.029104 0.000000
# 6 0.000000 0.000000 0.000000 0.000000 0.000000 0.081221
#
#
# Mechanical properties :
#
#
# Convention : Reuss Voigt Hill
#
# Bulk Modulus (GPa) = 25.10364 30.84065 27.97214
# Shear Modulus (GPa) = 21.87948 26.59637 24.23792
#
# Velocity S-wave (km/s) = 3.25896 3.59312 3.43011
# Velocity P-wave (km/s) = 5.13293 5.67316 5.40979
#
# Compressibility (1/GPa) = 0.03983486
#
# Stress axis : x y z
#
# Youngs Moduli (GPa) = 43.32968 87.75437 72.00204
#
# Poissons Ratio (x) = -0.17660 0.16471
# Poissons Ratio (y) = -0.08720 0.28721
# Poissons Ratio (z) = 0.09912 0.35004
#
# Static dielectric constant tensor:
#      x y z
#    x 3.847750 0.000000 0.000000 
#    y 0.000000 3.701070 0.000000 
#    z 0.000000 0.000000 3.746320 
# 
# 
# High freq. dielectric constant tensor:
#      x y z
#    x 1.822080 0.000000 0.000000 
#    y 0.000000 1.800300 0.000000 
#    z 0.000000 0.000000 1.818620 
# 
# From -- ./inp_files/13058.got.cif
#   From: 2010.03.12/outbox.cif.g09.slc.cpg/sg49_7_cif.got.tgz:13058.got - 2010.04.14 03:58:27.
