data_PCOD8204897
_publ_section_title
;
Structure prediction by ZEFSAII (Michael W. Deem and Ramdas Pophale) SiO2 
 PCOD8204897
Probable space group: P B A N
;
_chemical_formula_sum "Si O2"
_cell_formula_units_Z 58
_cell_length_a 24.120759
_cell_length_b 14.604070
_cell_length_c 8.990120
_cell_angle_alpha 90.000000
_cell_angle_beta 90.000000
_cell_angle_gamma 90.000000
_cell_volume 3166.870935
_symmetry_space_group_name_H-M "P B A N"
_symmetry_group_IT_number 50
_space_group.IT_coordinate_system_code '2'
_symmetry_cell_setting 'orthorhombic'
loop_
_space_group_symop_operation_xyz
x,y,z
1/2-x,1/2-y,z
x,1/2-y,-z
1/2-x,y,-z
-x,-y,-z
1/2+x,1/2+y,-z
-x,1/2+y,z
1/2+x,-y,z
loop_
_atom_site_type_symbol
_atom_site_label
_atom_site_fract_x
_atom_site_fract_y
_atom_site_fract_z
Si Si1 0.639656 0.522115 0.816032
Si Si2 0.540630 0.651914 0.823035
Si Si3 0.534557 0.637657 0.165090
Si Si4 0.630131 0.503250 0.168359
Si Si5 0.921607 0.136838 0.670599
Si Si6 0.573183 0.348408 0.326085
Si Si7 0.250000 0.250000 0.000000
Si Si8 0.259114 0.425711 0.842976
O O1 0.594010 0.596542 0.766133
O O2 0.627727 0.424865 0.737758
O O3 0.699498 0.563021 0.760804
O O4 0.636143 0.508638 0.991897
O O5 0.554098 0.758957 0.806034
O O6 0.489266 0.627212 0.719097
O O7 0.523333 0.623761 0.990072
O O8 0.583156 0.572760 0.225051
O O9 0.479552 0.608459 0.253604
O O10 0.616191 0.401991 0.222487
O O11 0.689454 0.529446 0.244561
O O12 0.922206 0.120178 0.495365
O O13 0.910822 0.243313 0.703400
O O14 0.280271 0.320837 0.885669
O O15 0.250000 0.478851 0.000000
#
# Coordination Sequence:
#
# PCOD8204897 Si02
#       8
#     8   8   8   8   8   8   2   8
#     4  10  19  32  52  78 105 131 169 210 252 300
#     4   9  18  30  50  78 106 133 165 206 255 307
#     4   9  18  30  50  78 106 133 165 206 255 307
#     4  10  19  32  52  78 105 131 169 210 252 300
#     4  10  21  36  51  70  99 138 176 212 257 305
#     4  10  21  36  51  70  99 138 176 212 257 305
#     4   8  16  32  56  80 112 140 160 204 246 302
#     4   8  18  30  52  80 108 130 165 198 247 296
#
# _framework density 18.314608
#
# number of rings (size 3 to 8) (size 9 to 14) (size 15 to 20)
#    0.414    2.207    0.000    1.655    1.931    6.069 
#    0.000    1.379    0.000    4.138    0.000    0.966 
#    0.000    0.000    0.000    0.000    0.000    0.000 
#
# Total GULP energy -718598.056133 kJ/mol
# GULP energy per Si atom -12389.621657 kJ/mol
# Density = 1.827292 g / cm^3
# Si number density = 18.314608 Si / 1000 Ang^3
#
#
#
# Elastic Constant Matrix: (Units=GPa)
#
#
# Indices 1 2 3 4 5 6 
#
# 1 116.0112 69.7757 26.5967 0.0000 0.0000 0.0000
# 2 69.7757 95.3746 31.2896 0.0000 0.0000 0.0000
# 3 26.5967 31.2896 30.3798 0.0000 0.0000 0.0000
# 4 0.0000 0.0000 0.0000 22.5978 0.0000 0.0000
# 5 0.0000 0.0000 0.0000 0.0000 2.5709 0.0000
# 6 0.0000 0.0000 0.0000 0.0000 0.0000 20.0463
#
#
#
# Elastic Compliance Matrix: (Units=1/GPa)
#
#
# Indices 1 2 3 4 5 6 
#
# 1 0.015557 -0.010441 -0.002866 0.000000 0.000000 0.000000
# 2 -0.010441 0.022843 -0.014387 0.000000 0.000000 0.000000
# 3 -0.002866 -0.014387 0.050243 0.000000 0.000000 0.000000
# 4 0.000000 0.000000 0.000000 0.044252 0.000000 0.000000
# 5 0.000000 0.000000 0.000000 0.000000 0.388971 0.000000
# 6 0.000000 0.000000 0.000000 0.000000 0.000000 0.049885
#
#
# Mechanical properties :
#
#
# Convention : Reuss Voigt Hill
#
# Bulk Modulus (GPa) = 30.06958 55.23218 42.65088
# Shear Modulus (GPa) = 7.83424 16.64990 12.24207
#
# Velocity S-wave (km/s) = 2.07048 3.01841 2.58821
# Velocity P-wave (km/s) = 4.70849 6.50927 5.68069
#
# Compressibility (1/GPa) = 0.03325620
#
# Stress axis : x y z
#
# Youngs Moduli (GPa) = 64.28104 43.77616 19.90324
#
# Poissons Ratio (x) = 0.45707 0.05704
# Poissons Ratio (y) = 0.67116 0.28634
# Poissons Ratio (z) = 0.18421 0.62980
#
# Static dielectric constant tensor:
#      x y z
#    x 3.475180 0.000000 0.000000 
#    y 0.000000 3.432790 0.000000 
#    z 0.000000 0.000000 3.096920 
# 
# 
# High freq. dielectric constant tensor:
#      x y z
#    x 1.700680 0.000000 0.000000 
#    y 0.000000 1.715510 0.000000 
#    z 0.000000 0.000000 1.677930 
# 
# From -- ./inp_files/16107.got.cif
#   From: 2010.03.12/outbox.cif.g09.slc.cpg/sg50_9_cif.got.tgz:16107.got - 2010.04.16 13:23:21.
