data_PCOD8204727
_publ_section_title
;
Structure prediction by ZEFSAII (Michael W. Deem and Ramdas Pophale) SiO2 
 PCOD8204727
Probable space group: P B A N
;
_chemical_formula_sum "Si O2"
_cell_formula_units_Z 64
_cell_length_a 15.166564
_cell_length_b 5.264442
_cell_length_c 37.026459
_cell_angle_alpha 90.000000
_cell_angle_beta 90.000000
_cell_angle_gamma 90.000000
_cell_volume 2956.321950
_symmetry_space_group_name_H-M "P B A N"
_symmetry_group_IT_number 50
_space_group.IT_coordinate_system_code '2'
_symmetry_cell_setting 'orthorhombic'
loop_
_space_group_symop_operation_xyz
x,y,z
1/2-x,1/2-y,z
x,1/2-y,-z
1/2-x,y,-z
-x,-y,-z
1/2+x,1/2+y,-z
-x,1/2+y,z
1/2+x,-y,z
loop_
_atom_site_type_symbol
_atom_site_label
_atom_site_fract_x
_atom_site_fract_y
_atom_site_fract_z
Si Si1 0.349536 0.997227 0.484583
Si Si2 0.353678 0.236010 0.772775
Si Si3 0.443928 0.596357 0.584403
Si Si4 0.102016 0.221190 0.072771
Si Si5 0.054072 0.901966 0.666090
Si Si6 0.852785 0.232852 0.264439
Si Si7 0.558530 0.718984 0.847614
Si Si8 0.906112 0.223143 0.042306
O O1 0.399773 0.750000 0.500000
O O2 0.250000 0.997766 0.500000
O O3 0.359676 0.969910 0.441194
O O4 0.396836 0.250000 0.500000
O O5 0.250000 0.250000 0.766565
O O6 0.395690 0.499014 0.758050
O O7 0.373070 0.208690 0.814920
O O8 0.394617 0.997886 0.750057
O O9 0.515893 0.375631 0.577044
O O10 0.408364 0.601905 0.625377
O O11 0.115427 0.229622 0.115710
O O12 0.146062 0.465898 0.053195
O O13 0.998899 0.201583 0.062878
O O14 0.147982 0.966603 0.056972
O O15 0.131758 0.825134 0.693352
O O16 0.978704 0.689606 0.672673
O O17 0.750000 0.250000 0.257124
O O18 0.500838 0.467259 0.845847
O O19 0.922402 0.250000 0.000000
#
# Coordination Sequence:
#
# PCOD8204727 Si02
#       8
#     8   8   8   8   8   8   8   8
#     4  10  21  37  56  81 117 152 191 242 276 323
#     4  10  23  39  57  78 113 146 186 223 267 340
#     4  10  21  37  58  86 116 152 191 229 287 339
#     4  10  16  27  38  63  98 129 159 216 256 318
#     4  10  21  37  61  87 119 145 181 237 280 334
#     4  10  21  40  59  82 109 146 184 226 275 325
#     4  12  21  34  52  78 108 140 175 226 277 313
#     4  10  16  25  41  61  97 139 163 202 274 327
#
# _framework density 21.648520999999999
#
# number of rings (size 3 to 8) (size 9 to 14) (size 15 to 20)
#    0.000    1.750    2.500    4.125    0.000    4.500 
#    2.250    0.000    5.500    0.000    0.000    0.000 
#    0.000    5.500    0.000    0.000    0.000    0.000 
#
# Total GULP energy -793045.756731 kJ/mol
# GULP energy per Si atom -12391.339949 kJ/mol
# Density = 2.159925 g / cm^3
# Si number density = 21.648521 Si / 1000 Ang^3
#
#
#
# Elastic Constant Matrix: (Units=GPa)
#
#
# Indices 1 2 3 4 5 6 
#
# 1 16.7231 8.1794 18.4262 0.0000 0.0000 0.0000
# 2 8.1794 210.6899 50.8203 0.0000 0.0000 0.0000
# 3 18.4262 50.8203 171.3367 0.0000 0.0000 0.0000
# 4 0.0000 0.0000 0.0000 40.7441 0.0000 0.0000
# 5 0.0000 0.0000 0.0000 0.0000 4.3204 0.0000
# 6 0.0000 0.0000 0.0000 0.0000 0.0000 2.4825
#
#
#
# Elastic Compliance Matrix: (Units=1/GPa)
#
#
# Indices 1 2 3 4 5 6 
#
# 1 0.068009 -0.000944 -0.007034 0.000000 0.000000 0.000000
# 2 -0.000944 0.005125 -0.001419 0.000000 0.000000 0.000000
# 3 -0.007034 -0.001419 0.007014 0.000000 0.000000 0.000000
# 4 0.000000 0.000000 0.000000 0.024543 0.000000 0.000000
# 5 0.000000 0.000000 0.000000 0.000000 0.231462 0.000000
# 6 0.000000 0.000000 0.000000 0.000000 0.000000 0.402817
#
#
# Mechanical properties :
#
#
# Convention : Reuss Voigt Hill
#
# Bulk Modulus (GPa) = 16.29845 61.51128 38.90487
# Shear Modulus (GPa) = 6.42496 30.93099 18.67797
#
# Velocity S-wave (km/s) = 1.72461 3.78402 2.94050
# Velocity P-wave (km/s) = 3.39275 6.89689 5.43497
#
# Compressibility (1/GPa) = 0.06135551
#
# Stress axis : x y z
#
# Youngs Moduli (GPa) = 14.70385 195.11633 142.57742
#
# Poissons Ratio (x) = 0.18411 1.00290
# Poissons Ratio (y) = 0.01387 0.20227
# Poissons Ratio (z) = 0.10343 0.27681
#
# Static dielectric constant tensor:
#      x y z
#    x 3.102590 0.000000 0.000000 
#    y 0.000000 6.356510 0.000000 
#    z 0.000000 0.000000 4.090260 
# 
# 
# High freq. dielectric constant tensor:
#      x y z
#    x 1.782500 0.000000 0.000000 
#    y 0.000000 1.893860 0.000000 
#    z 0.000000 0.000000 1.862380 
# 
# From -- ./inp_files/32567.got.cif
#   From: 2010.03.12/outbox.cif.g09.slc.cpg/sg50_17_cif.got.tgz:32567.got - 2010.04.16 13:23:21.
