data_PCOD8204539
_publ_section_title
;
Structure prediction by ZEFSAII (Michael W. Deem and Ramdas Pophale) SiO2 
 PCOD8204539
Probable space group: P C C M
;
_chemical_formula_sum "Si O2"
_cell_formula_units_Z 24
_cell_length_a 13.039479
_cell_length_b 7.500474
_cell_length_c 10.352062
_cell_angle_alpha 90.000000
_cell_angle_beta 90.000000
_cell_angle_gamma 90.000000
_cell_volume 1012.455196
_symmetry_space_group_name_H-M "P C C M"
_symmetry_group_IT_number 49
_symmetry_cell_setting 'orthorhombic'
loop_
_space_group_symop_operation_xyz
x,y,z
-x,-y,z
x,-y,1/2-z
-x,y,1/2-z
-x,-y,-z
x,y,-z
-x,y,1/2+z
x,-y,1/2+z
loop_
_atom_site_type_symbol
_atom_site_label
_atom_site_fract_x
_atom_site_fract_y
_atom_site_fract_z
Si Si1 0.267001 0.800977 0.765484
Si Si2 0.365792 0.681304 0.500000
Si Si3 0.058973 0.310732 0.360841
Si Si4 0.593461 0.734221 0.500000
O O1 0.302272 0.726644 0.627848
O O2 0.178343 0.671596 0.821683
O O3 0.358846 0.813811 0.869018
O O4 0.222334 0.000000 0.750000
O O5 0.473470 0.787429 0.500000
O O6 0.390239 0.475100 0.500000
O O7 0.051173 0.215104 0.500000
O O8 0.000000 0.500000 0.369165
O O9 0.000000 0.196753 0.250000
#
# Coordination Sequence:
#
# PCOD8204539 Si02
#       4
#     8   4   8   4
#     4  12  26  45  73 109 148 185 235 300 363 425
#     4  11  27  43  77 106 141 196 238 287 353 429
#     4  10  24  43  70 101 132 185 233 291 352 428
#     4  11  25  49  69 106 147 190 246 287 341 441
#
# _framework density 23.704751000000002
#
# number of rings (size 3 to 8) (size 9 to 14) (size 15 to 20)
#    0.000    1.000    1.667    3.000   11.667    7.333 
#    0.000    1.667    0.000    0.000    0.000    0.000 
#    0.000    0.000    0.000    0.000    0.000    0.000 
#
# Total GULP energy -297438.022530 kJ/mol
# GULP energy per Si atom -12393.250939 kJ/mol
# Density = 2.365080 g / cm^3
# Si number density = 23.704751 Si / 1000 Ang^3
#
#
#
# Elastic Constant Matrix: (Units=GPa)
#
#
# Indices 1 2 3 4 5 6 
#
# 1 158.0602 19.1186 87.7789 0.0000 0.0000 0.0000
# 2 19.1186 64.6440 4.1844 0.0000 0.0000 0.0000
# 3 87.7789 4.1844 278.6717 0.0000 0.0000 0.0000
# 4 0.0000 0.0000 0.0000 15.5371 0.0000 0.0000
# 5 0.0000 0.0000 0.0000 0.0000 51.3488 0.0000
# 6 0.0000 0.0000 0.0000 0.0000 0.0000 20.0819
#
#
#
# Elastic Compliance Matrix: (Units=1/GPa)
#
#
# Indices 1 2 3 4 5 6 
#
# 1 0.007968 -0.002196 -0.002477 0.000000 0.000000 0.000000
# 2 -0.002196 0.016090 0.000450 0.000000 0.000000 0.000000
# 3 -0.002477 0.000450 0.004362 0.000000 0.000000 0.000000
# 4 0.000000 0.000000 0.000000 0.064362 0.000000 0.000000
# 5 0.000000 0.000000 0.000000 0.000000 0.019475 0.000000
# 6 0.000000 0.000000 0.000000 0.000000 0.000000 0.049796
#
#
# Mechanical properties :
#
#
# Convention : Reuss Voigt Hill
#
# Bulk Modulus (GPa) = 50.06558 80.39328 65.22943
# Shear Modulus (GPa) = 28.22370 43.41316 35.81843
#
# Velocity S-wave (km/s) = 3.45430 4.28414 3.89141
# Velocity P-wave (km/s) = 6.08900 7.64591 6.91143
#
# Compressibility (1/GPa) = 0.01997380
#
# Stress axis : x y z
#
# Youngs Moduli (GPa) = 125.50431 62.15148 229.25968
#
# Poissons Ratio (x) = 0.13650 0.56783
# Poissons Ratio (y) = 0.27563 -0.10321
# Poissons Ratio (z) = 0.31085 -0.02798
#
# Static dielectric constant tensor:
#      x y z
#    x 4.538550 0.000000 0.000000 
#    y 0.000000 3.949340 0.000000 
#    z 0.000000 0.000000 5.722520 
# 
# 
# High freq. dielectric constant tensor:
#      x y z
#    x 1.948060 0.000000 0.000000 
#    y 0.000000 1.913430 0.000000 
#    z 0.000000 0.000000 1.973290 
# 
# From -- ./inp_files/7828.got.cif
#   From: 2010.03.12/outbox.cif.g09.slc.cpg/sg49_4_cif.got.tgz:7828.got - 2010.04.14 03:58:27.
