data_PCOD8204619
_publ_section_title
;
Structure prediction by ZEFSAII (Michael W. Deem and Ramdas Pophale) SiO2 
 PCOD8204619
Probable space group: P C C M
;
_chemical_formula_sum "Si O2"
_cell_formula_units_Z 64
_cell_length_a 23.391935
_cell_length_b 15.239976
_cell_length_c 8.576617
_cell_angle_alpha 90.000000
_cell_angle_beta 90.000000
_cell_angle_gamma 90.000000
_cell_volume 3057.499876
_symmetry_space_group_name_H-M "P C C M"
_symmetry_group_IT_number 49
_symmetry_cell_setting 'orthorhombic'
loop_
_space_group_symop_operation_xyz
x,y,z
-x,-y,z
x,-y,1/2-z
-x,y,1/2-z
-x,-y,-z
x,y,-z
-x,y,1/2+z
x,-y,1/2+z
loop_
_atom_site_type_symbol
_atom_site_label
_atom_site_fract_x
_atom_site_fract_y
_atom_site_fract_z
Si Si1 0.377068 0.594650 0.183107
Si Si2 0.741766 0.347095 0.681446
Si Si3 0.363527 0.092085 0.320986
Si Si4 0.143225 0.410811 0.683928
Si Si5 0.937695 0.264987 0.318233
Si Si6 0.439258 0.757610 0.683236
Si Si7 0.759477 0.162031 0.821883
Si Si8 0.872370 0.910545 0.181554
O O1 0.392362 0.500000 0.250000
O O2 0.312876 0.622414 0.222778
O O3 0.422236 0.663100 0.251124
O O4 0.384300 0.592924 0.000000
O O5 0.729858 0.363066 0.500000
O O6 0.795162 0.404416 0.735547
O O7 0.754881 0.245307 0.709640
O O8 0.382965 0.097006 0.500000
O O9 0.392141 0.171127 0.228388
O O10 0.295483 0.100335 0.303001
O O11 0.383878 0.000000 0.250000
O O12 0.114421 0.500000 0.750000
O O13 0.150156 0.415322 0.500000
O O14 0.105047 0.328080 0.727735
O O15 0.936717 0.288947 0.500000
O O16 0.918229 0.165610 0.287459
O O17 0.000000 0.279145 0.250000
O O18 0.500000 0.787556 0.750000
O O19 0.442986 0.750931 0.500000
O O20 0.813937 0.105782 0.773710
O O21 0.765835 0.195037 0.000000
O O22 0.899412 0.000000 0.250000
O O23 0.858306 0.919830 0.000000
#
# Coordination Sequence:
#
# PCOD8204619 Si02
#       8
#     8   8   8   8   8   8   8   8
#     4  12  25  44  68  99 134 172 218 266 323 385
#     4  12  23  39  65  98 135 173 214 261 322 387
#     4  11  24  42  66  98 134 172 218 268 322 388
#     4  12  25  43  68  97 132 171 214 266 323 385
#     4  11  25  45  67  94 127 169 219 271 324 382
#     4  12  26  46  70  96 129 171 219 272 326 384
#     4  11  22  38  65  97 133 172 214 261 323 386
#     4  11  24  41  65  95 132 170 216 267 322 386
#
# _framework density 20.932136
#
# number of rings (size 3 to 8) (size 9 to 14) (size 15 to 20)
#    0.000    0.500    2.500    6.750    0.000    5.000 
#    0.000    5.000    0.000    0.000    0.000    0.000 
#    0.000    0.000    0.000    0.000    0.000    0.000 
#
# Total GULP energy -794143.249397 kJ/mol
# GULP energy per Si atom -12408.488272 kJ/mol
# Density = 2.088449 g / cm^3
# Si number density = 20.932136 Si / 1000 Ang^3
#
#
#
# Elastic Constant Matrix: (Units=GPa)
#
#
# Indices 1 2 3 4 5 6 
#
# 1 65.7448 -5.1507 26.2952 0.0000 0.0000 0.0000
# 2 -5.1507 106.7713 36.9446 0.0000 0.0000 0.0000
# 3 26.2952 36.9446 146.7586 0.0000 0.0000 0.0000
# 4 0.0000 0.0000 0.0000 37.8602 0.0000 0.0000
# 5 0.0000 0.0000 0.0000 0.0000 -30.5811 0.0000
# 6 0.0000 0.0000 0.0000 0.0000 0.0000 2.6601
#
#
#
# Elastic Compliance Matrix: (Units=1/GPa)
#
#
# Indices 1 2 3 4 5 6 
#
# 1 0.016775 0.002026 -0.003516 0.000000 0.000000 0.000000
# 2 0.002026 0.010504 -0.003007 0.000000 0.000000 0.000000
# 3 -0.003516 -0.003007 0.008201 0.000000 0.000000 0.000000
# 4 0.000000 0.000000 0.000000 0.026413 0.000000 0.000000
# 5 0.000000 0.000000 0.000000 0.000000 -0.032700 0.000000
# 6 0.000000 0.000000 0.000000 0.000000 0.000000 0.375925
#
#
# Mechanical properties :
#
#
# Convention : Reuss Voigt Hill
#
# Bulk Modulus (GPa) = 37.75605 48.38366 43.06985
# Shear Modulus (GPa) = 11.82200 19.40022 15.61111
#
# Velocity S-wave (km/s) = 2.37908 3.04767 2.73389
# Velocity P-wave (km/s) = 5.06194 5.96230 5.53048
#
# Compressibility (1/GPa) = 0.02648582
#
# Stress axis : x y z
#
# Youngs Moduli (GPa) = 59.61202 95.20104 121.93863
#
# Poissons Ratio (x) = -0.19285 0.42869
# Poissons Ratio (y) = -0.12076 0.36670
# Poissons Ratio (z) = 0.20957 0.28629
#
# Static dielectric constant tensor:
#      x y z
#    x 3.707480 0.000000 0.000000 
#    y 0.000000 3.975860 0.000000 
#    z 0.000000 0.000000 3.947560 
# 
# 
# High freq. dielectric constant tensor:
#      x y z
#    x 1.814780 0.000000 0.000000 
#    y 0.000000 1.834660 0.000000 
#    z 0.000000 0.000000 1.839550 
# 
# From -- ./inp_files/6501.got.cif
#   From: 2010.03.12/outbox.cif.g09.slc.cpg/sg49_4_cif.got.tgz:6501.got - 2010.04.14 03:58:27.
