data_PCOD8204374
_publ_section_title
;
Structure prediction by ZEFSAII (Michael W. Deem and Ramdas Pophale) SiO2 
 PCOD8204374
Probable space group: P C C M
;
_chemical_formula_sum "Si O2"
_cell_formula_units_Z 58
_cell_length_a 16.979704
_cell_length_b 17.879398
_cell_length_c 8.848601
_cell_angle_alpha 90.000000
_cell_angle_beta 90.000000
_cell_angle_gamma 90.000000
_cell_volume 2686.319221
_symmetry_space_group_name_H-M "P C C M"
_symmetry_group_IT_number 49
_symmetry_cell_setting 'orthorhombic'
loop_
_space_group_symop_operation_xyz
x,y,z
-x,-y,z
x,-y,1/2-z
-x,y,1/2-z
-x,-y,-z
x,y,-z
-x,y,1/2+z
x,-y,1/2+z
loop_
_atom_site_type_symbol
_atom_site_label
_atom_site_fract_x
_atom_site_fract_y
_atom_site_fract_z
Si Si1 0.772948 0.573509 0.669675
Si Si2 0.080682 0.918555 0.318534
Si Si3 0.606242 0.638706 0.663064
Si Si4 0.585867 0.924246 0.680980
Si Si5 0.500000 0.500000 0.750000
Si Si6 0.654394 0.776675 0.178439
Si Si7 0.815362 0.200030 0.824216
Si Si8 0.081813 0.338756 0.672205
O O1 0.744895 0.500000 0.750000
O O2 0.795350 0.553661 0.500000
O O3 0.698910 0.627510 0.676842
O O4 0.849595 0.610289 0.747557
O O5 0.076477 0.919838 0.500000
O O6 0.157840 0.874549 0.262076
O O7 0.000000 0.883361 0.250000
O O8 0.090926 0.000000 0.250000
O O9 0.585331 0.672611 0.500000
O O10 0.557996 0.559890 0.669894
O O11 0.593812 0.706625 0.783194
O O12 0.500000 0.916301 0.750000
O O13 0.583305 0.929104 0.500000
O O14 0.633177 0.851979 0.733351
O O15 0.625076 0.000000 0.750000
O O16 0.742909 0.760979 0.236335
O O17 0.651045 0.789144 0.000000
O O18 0.891068 0.253544 0.812969
O O19 0.793111 0.184917 0.000000
O O20 0.070585 0.361551 0.500000
O O21 0.000000 0.354492 0.750000
#
# Coordination Sequence:
#
# PCOD8204374 Si02
#       8
#     8   8   8   8   2   8   8   8
#     4  10  21  41  64  89 124 169 209 260 328 389
#     4  11  22  38  59  89 126 171 221 274 332 394
#     4  11  24  45  68  97 138 177 220 277 340 402
#     4  11  23  44  71 100 136 176 221 274 332 396
#     4  12  26  44  76 110 134 172 236 278 338 408
#     4  12  26  43  67  99 133 176 225 272 331 402
#     4  11  22  41  64  90 125 167 212 271 334 392
#     4  10  22  39  61  88 121 162 210 261 321 387
#
# _framework density 21.590881
#
# number of rings (size 3 to 8) (size 9 to 14) (size 15 to 20)
#    0.000    1.103    2.069    5.586    0.966    5.241 
#    0.000    4.138    0.000    0.000    0.000    0.000 
#    0.000    0.000    0.000    0.000    0.000    0.000 
#
# Total GULP energy -718540.457420 kJ/mol
# GULP energy per Si atom -12388.628576 kJ/mol
# Density = 2.154174 g / cm^3
# Si number density = 21.590881 Si / 1000 Ang^3
#
#
#
# Elastic Constant Matrix: (Units=GPa)
#
#
# Indices 1 2 3 4 5 6 
#
# 1 83.5040 23.1532 39.0639 0.0000 0.0000 0.0000
# 2 23.1532 103.2301 53.0191 0.0000 0.0000 0.0000
# 3 39.0639 53.0191 159.5059 0.0000 0.0000 0.0000
# 4 0.0000 0.0000 0.0000 28.7812 0.0000 0.0000
# 5 0.0000 0.0000 0.0000 0.0000 59.8057 0.0000
# 6 0.0000 0.0000 0.0000 0.0000 0.0000 34.7648
#
#
#
# Elastic Compliance Matrix: (Units=1/GPa)
#
#
# Indices 1 2 3 4 5 6 
#
# 1 0.013750 -0.001633 -0.002824 0.000000 0.000000 0.000000
# 2 -0.001633 0.011875 -0.003547 0.000000 0.000000 0.000000
# 3 -0.002824 -0.003547 0.008140 0.000000 0.000000 0.000000
# 4 0.000000 0.000000 0.000000 0.034745 0.000000 0.000000
# 5 0.000000 0.000000 0.000000 0.000000 0.016721 0.000000
# 6 0.000000 0.000000 0.000000 0.000000 0.000000 0.028765
#
#
# Mechanical properties :
#
#
# Convention : Reuss Voigt Hill
#
# Bulk Modulus (GPa) = 56.32179 64.07916 60.20047
# Shear Modulus (GPa) = 36.78525 40.07059 38.42792
#
# Velocity S-wave (km/s) = 4.13212 4.31269 4.22337
# Velocity P-wave (km/s) = 6.99345 7.38528 7.19203
#
# Compressibility (1/GPa) = 0.01775512
#
# Stress axis : x y z
#
# Youngs Moduli (GPa) = 72.72924 84.20832 122.84698
#
# Poissons Ratio (x) = 0.13753 0.34698
# Poissons Ratio (y) = 0.11878 0.43578
# Poissons Ratio (z) = 0.20542 0.29871
#
# Static dielectric constant tensor:
#      x y z
#    x 4.007910 0.000000 0.000000 
#    y 0.000000 3.827160 0.000000 
#    z 0.000000 0.000000 5.389650 
# 
# 
# High freq. dielectric constant tensor:
#      x y z
#    x 1.851270 0.000000 0.000000 
#    y 0.000000 1.857670 0.000000 
#    z 0.000000 0.000000 1.845740 
# 
# From -- ./inp_files/5089.got.cif
#   From: 2010.03.12/outbox.cif.g09.slc.cpg/sg49_3_cif.got.tgz:5089.got - 2010.04.14 03:58:27.
