data_PCOD8204202
_publ_section_title
;
Structure prediction by ZEFSAII (Michael W. Deem and Ramdas Pophale) SiO2 
 PCOD8204202
Probable space group: P C C M
;
_chemical_formula_sum "Si O2"
_cell_formula_units_Z 32
_cell_length_a 15.546754
_cell_length_b 17.214458
_cell_length_c 5.302885
_cell_angle_alpha 90.000000
_cell_angle_beta 90.000000
_cell_angle_gamma 90.000000
_cell_volume 1419.205511
_symmetry_space_group_name_H-M "P C C M"
_symmetry_group_IT_number 49
_symmetry_cell_setting 'orthorhombic'
loop_
_space_group_symop_operation_xyz
x,y,z
-x,-y,z
x,-y,1/2-z
-x,y,1/2-z
-x,-y,-z
x,y,-z
-x,y,1/2+z
x,-y,1/2+z
loop_
_atom_site_type_symbol
_atom_site_label
_atom_site_fract_x
_atom_site_fract_y
_atom_site_fract_z
Si Si1 0.126496 0.970911 0.500000
Si Si2 0.102610 0.789492 0.500000
Si Si3 0.450829 0.658845 0.000000
Si Si4 0.103600 0.548587 0.000000
Si Si5 0.681852 0.963357 0.500000
Si Si6 0.085598 0.723627 0.000000
Si Si7 0.696808 0.453635 0.000000
Si Si8 0.449470 0.159199 0.500000
O O1 0.135204 0.878158 0.500000
O O2 0.075974 0.000000 0.250000
O O3 0.215529 0.021332 0.500000
O O4 0.139867 0.746396 0.749590
O O5 0.999351 0.778276 0.500000
O O6 0.500000 0.629641 0.250000
O O7 0.354978 0.625829 0.000000
O O8 0.438260 0.749678 0.000000
O O9 0.076734 0.500000 0.250000
O O10 0.203550 0.568394 0.000000
O O11 0.057545 0.632882 0.000000
O O12 0.648414 0.874529 0.500000
O O13 0.640554 0.000000 0.750000
O O14 0.671581 0.500000 0.250000
O O15 0.500000 0.131578 0.250000
#
# Coordination Sequence:
#
# PCOD8204202 Si02
#       8
#     4   4   4   4   4   4   4   4
#     4  10  21  40  61  85 122 157 198 257 296 363
#     4  10  21  40  61  91 124 152 198 249 303 360
#     4  10  21  37  56  84 118 153 196 242 297 349
#     4  10  21  40  63  88 124 163 203 248 297 353
#     4  10  21  37  57  84 113 147 202 240 294 352
#     4  10  21  40  63  91 124 156 200 243 300 368
#     4  10  21  37  58  86 118 155 200 242 291 348
#     4  10  21  37  57  81 117 154 193 246 297 349
#
# _framework density 22.547825
#
# number of rings (size 3 to 8) (size 9 to 14) (size 15 to 20)
#    0.000    2.000    0.000    3.000    0.000    3.000 
#    9.000   15.000    0.000    0.000    0.000    0.000 
#    0.000    0.000    0.000    0.000    0.000    0.000 
#
# Total GULP energy -396497.898741 kJ/mol
# GULP energy per Si atom -12390.559336 kJ/mol
# Density = 2.249651 g / cm^3
# Si number density = 22.547825 Si / 1000 Ang^3
#
#
#
# Elastic Constant Matrix: (Units=GPa)
#
#
# Indices 1 2 3 4 5 6 
#
# 1 88.5819 34.5152 7.9035 0.0000 0.0000 0.0000
# 2 34.5152 94.6684 48.8297 0.0000 0.0000 0.0000
# 3 7.9035 48.8297 250.7254 0.0000 0.0000 0.0000
# 4 0.0000 0.0000 0.0000 29.3252 0.0000 0.0000
# 5 0.0000 0.0000 0.0000 0.0000 122.6607 0.0000
# 6 0.0000 0.0000 0.0000 0.0000 0.0000 32.9552
#
#
#
# Elastic Compliance Matrix: (Units=1/GPa)
#
#
# Indices 1 2 3 4 5 6 
#
# 1 0.013234 -0.005125 0.000581 0.000000 0.000000 0.000000
# 2 -0.005125 0.013727 -0.002512 0.000000 0.000000 0.000000
# 3 0.000581 -0.002512 0.004459 0.000000 0.000000 0.000000
# 4 0.000000 0.000000 0.000000 0.034100 0.000000 0.000000
# 5 0.000000 0.000000 0.000000 0.000000 0.008153 0.000000
# 6 0.000000 0.000000 0.000000 0.000000 0.000000 0.030344
#
#
# Mechanical properties :
#
#
# Convention : Reuss Voigt Hill
#
# Bulk Modulus (GPa) = 57.77263 68.49695 63.13479
# Shear Modulus (GPa) = 40.35561 59.83669 50.09615
#
# Velocity S-wave (km/s) = 4.23517 5.15706 4.71868
# Velocity P-wave (km/s) = 7.04226 8.11818 7.59928
#
# Compressibility (1/GPa) = 0.01730923
#
# Stress axis : x y z
#
# Youngs Moduli (GPa) = 75.56348 72.84822 224.24970
#
# Poissons Ratio (x) = 0.37332 -0.13026
# Poissons Ratio (y) = 0.38723 0.56329
# Poissons Ratio (z) = -0.04389 0.18299
#
# Static dielectric constant tensor:
#      x y z
#    x 3.583080 0.000000 0.000000 
#    y 0.000000 3.836260 0.000000 
#    z 0.000000 0.000000 5.434250 
# 
# 
# High freq. dielectric constant tensor:
#      x y z
#    x 1.852630 0.000000 0.000000 
#    y 0.000000 1.882930 0.000000 
#    z 0.000000 0.000000 1.931890 
# 
# From -- ./inp_files/545.got.cif
#   From: 2010.03.12/outbox.cif.g09.slc.cpg/sg49_1_cif.got.tgz:545.got - 2010.04.14 03:58:27.
