data_PCOD8204962
_publ_section_title
;
Structure prediction by ZEFSAII (Michael W. Deem and Ramdas Pophale) SiO2 
 PCOD8204962
Probable space group: P B A N
;
_chemical_formula_sum "Si O2"
_cell_formula_units_Z 64
_cell_length_a 17.529361
_cell_length_b 21.833788
_cell_length_c 9.025796
_cell_angle_alpha 90.000000
_cell_angle_beta 90.000000
_cell_angle_gamma 90.000000
_cell_volume 3454.464130
_symmetry_space_group_name_H-M "P B A N"
_symmetry_group_IT_number 50
_space_group.IT_coordinate_system_code '2'
_symmetry_cell_setting 'orthorhombic'
loop_
_space_group_symop_operation_xyz
x,y,z
1/2-x,1/2-y,z
x,1/2-y,-z
1/2-x,y,-z
-x,-y,-z
1/2+x,1/2+y,-z
-x,1/2+y,z
1/2+x,-y,z
loop_
_atom_site_type_symbol
_atom_site_label
_atom_site_fract_x
_atom_site_fract_y
_atom_site_fract_z
Si Si1 0.030306 0.888170 0.674562
Si Si2 0.481057 0.258351 0.327865
Si Si3 0.563706 0.534016 0.899030
Si Si4 0.167896 0.229531 0.830934
Si Si5 0.167166 0.974882 0.653259
Si Si6 0.115299 0.408089 0.177999
Si Si7 0.162413 0.956279 0.318812
Si Si8 0.469488 0.628028 0.336486
O O1 0.032723 0.816399 0.720470
O O2 0.109894 0.921758 0.705508
O O3 0.003775 0.886823 0.503782
O O4 0.969361 0.924372 0.769846
O O5 0.465355 0.250000 0.500000
O O6 0.398708 0.265549 0.252781
O O7 0.526765 0.197786 0.279414
O O8 0.624519 0.490825 0.818586
O O9 0.500000 0.500000 0.000000
O O10 0.613966 0.577166 0.004423
O O11 0.250000 0.250000 0.765833
O O12 0.157120 0.156878 0.802515
O O13 0.162439 0.250000 0.000000
O O14 0.153734 0.989187 0.479218
O O15 0.247963 0.945981 0.701373
O O16 0.160646 0.039390 0.735694
O O17 0.027827 0.410453 0.235718
O O18 0.118616 0.891289 0.320818
#
# Coordination Sequence:
#
# PCOD8204962 Si02
#       8
#     8   8   8   8   8   8   8   8
#     4  10  19  35  55  79 111 138 184 224 275 329
#     4   9  19  35  58  80 100 139 186 229 268 317
#     4  12  21  33  55  84 108 143 183 227 276 335
#     4  10  22  38  53  74 109 147 177 220 276 327
#     4  10  21  36  54  81 108 149 173 227 283 331
#     4  11  21  36  55  80 109 140 189 221 274 330
#     4  10  21  36  54  77 114 141 182 220 282 333
#     4   9  18  36  57  76 105 146 181 229 265 331
#
# _framework density 18.526751000000001
#
# number of rings (size 3 to 8) (size 9 to 14) (size 15 to 20)
#    0.000    1.875    2.500    1.500    0.000    5.750 
#    0.000    3.125    0.000    3.750    0.000    0.000 
#    0.000    0.000    0.000    0.000    0.000    0.000 
#
# Total GULP energy -793139.208868 kJ/mol
# GULP energy per Si atom -12392.800139 kJ/mol
# Density = 1.848458 g / cm^3
# Si number density = 18.526751 Si / 1000 Ang^3
#
#
#
# Elastic Constant Matrix: (Units=GPa)
#
#
# Indices 1 2 3 4 5 6 
#
# 1 108.9224 58.4574 36.3983 0.0000 0.0000 0.0000
# 2 58.4574 110.1711 34.8323 0.0000 0.0000 0.0000
# 3 36.3983 34.8323 57.3889 0.0000 0.0000 0.0000
# 4 0.0000 0.0000 0.0000 26.7233 0.0000 0.0000
# 5 0.0000 0.0000 0.0000 0.0000 25.1258 0.0000
# 6 0.0000 0.0000 0.0000 0.0000 0.0000 25.0575
#
#
#
# Elastic Compliance Matrix: (Units=1/GPa)
#
#
# Indices 1 2 3 4 5 6 
#
# 1 0.014088 -0.005754 -0.005442 0.000000 0.000000 0.000000
# 2 -0.005754 0.013583 -0.004594 0.000000 0.000000 0.000000
# 3 -0.005442 -0.004594 0.023665 0.000000 0.000000 0.000000
# 4 0.000000 0.000000 0.000000 0.037420 0.000000 0.000000
# 5 0.000000 0.000000 0.000000 0.000000 0.039800 0.000000
# 6 0.000000 0.000000 0.000000 0.000000 0.000000 0.039908
#
#
# Mechanical properties :
#
#
# Convention : Reuss Voigt Hill
#
# Bulk Modulus (GPa) = 50.62399 59.53983 55.08191
# Shear Modulus (GPa) = 24.19771 25.16762 24.68266
#
# Velocity S-wave (km/s) = 3.61791 3.68971 3.65399
# Velocity P-wave (km/s) = 6.69601 7.09640 6.89911
#
# Compressibility (1/GPa) = 0.01975348
#
# Stress axis : x y z
#
# Youngs Moduli (GPa) = 70.98310 73.62320 42.25589
#
# Poissons Ratio (x) = 0.42366 0.22998
# Poissons Ratio (y) = 0.40846 0.19414
# Poissons Ratio (z) = 0.38632 0.33825
#
# Static dielectric constant tensor:
#      x y z
#    x 3.413830 0.000000 0.000000 
#    y 0.000000 3.619320 0.000000 
#    z 0.000000 0.000000 3.534450 
# 
# 
# High freq. dielectric constant tensor:
#      x y z
#    x 1.708470 0.000000 0.000000 
#    y 0.000000 1.719330 0.000000 
#    z 0.000000 0.000000 1.723880 
# 
# From -- ./inp_files/13480.got.cif
#   From: 2010.03.12/outbox.cif.g09.slc.cpg/sg50_7_cif.got.tgz:13480.got - 2010.04.16 13:23:21.
