data_PCOD8204058
_publ_section_title
;
Structure prediction by ZEFSAII (Michael W. Deem and Ramdas Pophale) SiO2 
 PCOD8204058
Probable space group: P C C M
;
_chemical_formula_sum "Si O2"
_cell_formula_units_Z 48
_cell_length_a 14.550615
_cell_length_b 9.540402
_cell_length_c 16.984360
_cell_angle_alpha 90.000000
_cell_angle_beta 90.000000
_cell_angle_gamma 90.000000
_cell_volume 2357.747055
_symmetry_space_group_name_H-M "P C C M"
_symmetry_group_IT_number 49
_symmetry_cell_setting 'orthorhombic'
loop_
_space_group_symop_operation_xyz
x,y,z
-x,-y,z
x,-y,1/2-z
-x,y,1/2-z
-x,-y,-z
x,y,-z
-x,y,1/2+z
x,-y,1/2+z
loop_
_atom_site_type_symbol
_atom_site_label
_atom_site_fract_x
_atom_site_fract_y
_atom_site_fract_z
Si Si1 0.860153 0.520283 0.588277
Si Si2 0.603058 0.665322 0.258962
Si Si3 0.078246 0.753862 0.814080
Si Si4 0.216029 0.257268 0.181625
Si Si5 0.167240 0.021953 0.410371
Si Si6 0.305012 0.736407 0.084637
O O1 0.894943 0.484349 0.500000
O O2 0.938713 0.610652 0.635251
O O3 0.831021 0.380896 0.632939
O O4 0.773423 0.620522 0.585219
O O5 0.608923 0.500000 0.250000
O O6 0.500000 0.722660 0.250000
O O7 0.673738 0.729793 0.194002
O O8 0.622738 0.710659 0.347592
O O9 0.176200 0.739795 0.769974
O O10 0.083362 0.889844 0.870813
O O11 0.000000 0.776085 0.750000
O O12 0.187497 0.116918 0.138145
O O13 0.139007 0.985474 0.500000
O O14 0.260308 0.110713 0.407508
O O15 0.356616 0.727391 0.000000
#
# Coordination Sequence:
#
# PCOD8204058 Si02
#       6
#     8   8   8   8   8   8
#     4  10  20  38  63  88 124 165 204 258 317 368
#     4  11  21  37  61  96 129 165 212 267 317 378
#     4  11  23  40  64  90 117 163 214 254 312 384
#     4  12  21  38  61  94 125 161 212 266 309 373
#     4  10  22  40  63  88 125 167 206 259 322 379
#     4   9  18  37  60  83 116 166 207 247 312 373
#
# _framework density 20.358419000000001
#
# number of rings (size 3 to 8) (size 9 to 14) (size 15 to 20)
#    0.000    1.500    5.000    3.000    0.000    2.667 
#    0.000   10.000    0.000    2.000    0.000    0.000 
#    0.000    0.000    0.000    0.000    0.000    0.000 
#
# Total GULP energy -595043.643208 kJ/mol
# GULP energy per Si atom -12396.742567 kJ/mol
# Density = 2.031208 g / cm^3
# Si number density = 20.358419 Si / 1000 Ang^3
#
#
#
# Elastic Constant Matrix: (Units=GPa)
#
#
# Indices 1 2 3 4 5 6 
#
# 1 65.7831 5.4616 22.1805 0.0000 0.0000 0.0000
# 2 5.4616 121.0952 45.5937 0.0000 0.0000 0.0000
# 3 22.1805 45.5937 148.2092 0.0000 0.0000 0.0000
# 4 0.0000 0.0000 0.0000 25.8252 0.0000 0.0000
# 5 0.0000 0.0000 0.0000 0.0000 43.6648 0.0000
# 6 0.0000 0.0000 0.0000 0.0000 0.0000 18.6728
#
#
#
# Elastic Compliance Matrix: (Units=1/GPa)
#
#
# Indices 1 2 3 4 5 6 
#
# 1 0.016014 0.000204 -0.002459 0.000000 0.000000 0.000000
# 2 0.000204 0.009342 -0.002904 0.000000 0.000000 0.000000
# 3 -0.002459 -0.002904 0.008009 0.000000 0.000000 0.000000
# 4 0.000000 0.000000 0.000000 0.038722 0.000000 0.000000
# 5 0.000000 0.000000 0.000000 0.000000 0.022902 0.000000
# 6 0.000000 0.000000 0.000000 0.000000 0.000000 0.053554
#
#
# Mechanical properties :
#
#
# Convention : Reuss Voigt Hill
#
# Bulk Modulus (GPa) = 43.39370 53.50656 48.45013
# Shear Modulus (GPa) = 30.02210 35.08933 32.55571
#
# Velocity S-wave (km/s) = 3.84432 4.15610 4.00325
# Velocity P-wave (km/s) = 6.40829 7.02640 6.72445
#
# Compressibility (1/GPa) = 0.02304482
#
# Stress axis : x y z
#
# Youngs Moduli (GPa) = 62.44634 107.03945 124.86320
#
# Poissons Ratio (x) = -0.02180 0.30707
# Poissons Ratio (y) = -0.01272 0.36266
# Poissons Ratio (z) = 0.15357 0.31089
#
# Static dielectric constant tensor:
#      x y z
#    x 3.587180 0.000000 0.000000 
#    y 0.000000 3.779220 0.000000 
#    z 0.000000 0.000000 4.156220 
# 
# 
# High freq. dielectric constant tensor:
#      x y z
#    x 1.764840 0.000000 0.000000 
#    y 0.000000 1.800120 0.000000 
#    z 0.000000 0.000000 1.819720 
# 
# From -- ./inp_files/17742.got.cif
#   From: 2010.03.12/outbox.cif.g09.slc.cpg/sg49_9_cif.got.tgz:17742.got - 2010.04.14 03:58:27.
