data_PCOD8204596
_publ_section_title
;
Structure prediction by ZEFSAII (Michael W. Deem and Ramdas Pophale) SiO2 
 PCOD8204596
Probable space group: P C C M
;
_chemical_formula_sum "Si O2"
_cell_formula_units_Z 64
_cell_length_a 9.657678
_cell_length_b 18.661900
_cell_length_c 17.977573
_cell_angle_alpha 90.000000
_cell_angle_beta 90.000000
_cell_angle_gamma 90.000000
_cell_volume 3240.109147
_symmetry_space_group_name_H-M "P C C M"
_symmetry_group_IT_number 49
_symmetry_cell_setting 'orthorhombic'
loop_
_space_group_symop_operation_xyz
x,y,z
-x,-y,z
x,-y,1/2-z
-x,y,1/2-z
-x,-y,-z
x,y,-z
-x,y,1/2+z
x,-y,1/2+z
loop_
_atom_site_type_symbol
_atom_site_label
_atom_site_fract_x
_atom_site_fract_y
_atom_site_fract_z
Si Si1 0.142182 0.581995 0.656215
Si Si2 0.405551 0.311276 0.675943
Si Si3 0.752529 0.845954 0.857100
Si Si4 0.296409 0.155860 0.311773
Si Si5 0.834814 0.582344 0.330207
Si Si6 0.671863 0.698520 0.913342
Si Si7 0.021580 0.080393 0.662776
Si Si8 0.504141 0.917967 0.083223
O O1 0.181528 0.499282 0.643387
O O2 0.159255 0.595837 0.742784
O O3 0.251175 0.625407 0.607367
O O4 0.984097 0.604789 0.634282
O O5 0.500000 0.327537 0.750000
O O6 0.306483 0.242101 0.686191
O O7 0.301667 0.373457 0.647108
O O8 0.510364 0.302701 0.607569
O O9 0.705495 0.868314 0.773872
O O10 0.745897 0.761101 0.867273
O O11 0.660495 0.889207 0.916202
O O12 0.908786 0.868421 0.874297
O O13 0.167463 0.119023 0.355003
O O14 0.430087 0.127828 0.353841
O O15 0.684377 0.713818 0.000000
O O16 0.000000 0.077487 0.750000
O O17 0.000000 0.000000 0.629941
O O18 0.500000 0.000000 0.107268
O O19 0.442527 0.907551 0.000000
#
# Coordination Sequence:
#
# PCOD8204596 Si02
#       8
#     8   8   8   8   8   8   8   8
#     4   9  19  39  63  96 121 161 201 255 305 359
#     4  12  21  38  60  95 123 162 209 253 303 359
#     4  11  21  38  61  88 115 157 204 248 304 361
#     4  11  21  37  62  90 118 154 204 253 299 362
#     4   9  19  37  67  94 124 152 211 258 296 352
#     4  12  25  41  60  89 131 166 201 254 319 377
#     4   9  20  36  58  91 122 148 193 258 312 354
#     4  11  23  38  58  84 119 160 196 242 306 368
#
# _framework density 19.752420999999998
#
# number of rings (size 3 to 8) (size 9 to 14) (size 15 to 20)
#    0.000    1.500    3.750    2.250    1.750    2.500 
#    0.000    4.375    0.000    3.375    0.000    0.000 
#    0.000    0.000    0.000    0.000    0.000    0.000 
#
# Total GULP energy -793206.599715 kJ/mol
# GULP energy per Si atom -12393.853121 kJ/mol
# Density = 1.970746 g / cm^3
# Si number density = 19.752421 Si / 1000 Ang^3
#
#
#
# Elastic Constant Matrix: (Units=GPa)
#
#
# Indices 1 2 3 4 5 6 
#
# 1 124.8414 64.7003 17.9361 0.0000 0.0000 0.0000
# 2 64.7003 108.3417 20.7693 0.0000 0.0000 0.0000
# 3 17.9361 20.7693 56.9893 0.0000 0.0000 0.0000
# 4 0.0000 0.0000 0.0000 13.6326 0.0000 0.0000
# 5 0.0000 0.0000 0.0000 0.0000 12.9393 0.0000
# 6 0.0000 0.0000 0.0000 0.0000 0.0000 44.9582
#
#
#
# Elastic Compliance Matrix: (Units=1/GPa)
#
#
# Indices 1 2 3 4 5 6 
#
# 1 0.011679 -0.006741 -0.001219 0.000000 0.000000 0.000000
# 2 -0.006741 0.013814 -0.002913 0.000000 0.000000 0.000000
# 3 -0.001219 -0.002913 0.018992 0.000000 0.000000 0.000000
# 4 0.000000 0.000000 0.000000 0.073354 0.000000 0.000000
# 5 0.000000 0.000000 0.000000 0.000000 0.077284 0.000000
# 6 0.000000 0.000000 0.000000 0.000000 0.000000 0.022243
#
#
# Mechanical properties :
#
#
# Convention : Reuss Voigt Hill
#
# Bulk Modulus (GPa) = 43.97572 55.22043 49.59807
# Shear Modulus (GPa) = 20.26826 26.75710 23.51268
#
# Velocity S-wave (km/s) = 3.20678 3.68451 3.45392
# Velocity P-wave (km/s) = 6.00192 6.79101 6.40862
#
# Compressibility (1/GPa) = 0.02273982
#
# Stress axis : x y z
#
# Youngs Moduli (GPa) = 85.62566 72.39065 52.65261
#
# Poissons Ratio (x) = 0.48796 0.06418
# Poissons Ratio (y) = 0.57718 0.15337
# Poissons Ratio (z) = 0.10438 0.21087
#
# Static dielectric constant tensor:
#      x y z
#    x 3.420730 0.000000 0.000000 
#    y 0.000000 3.722870 0.000000 
#    z 0.000000 0.000000 3.262290 
# 
# 
# High freq. dielectric constant tensor:
#      x y z
#    x 1.778540 0.000000 0.000000 
#    y 0.000000 1.776190 0.000000 
#    z 0.000000 0.000000 1.736920 
# 
# From -- ./inp_files/16533.got.cif
#   From: 2010.03.12/outbox.cif.g09.slc.cpg/sg49_9_cif.got.tgz:16533.got - 2010.04.14 03:58:27.
