data_PCOD8204431
_publ_section_title
;
Structure prediction by ZEFSAII (Michael W. Deem and Ramdas Pophale) SiO2 
 PCOD8204431
Probable space group: P C C M
;
_chemical_formula_sum "Si O2"
_cell_formula_units_Z 48
_cell_length_a 16.884700
_cell_length_b 9.184576
_cell_length_c 16.524009
_cell_angle_alpha 90.000000
_cell_angle_beta 90.000000
_cell_angle_gamma 90.000000
_cell_volume 2562.523659
_symmetry_space_group_name_H-M "P C C M"
_symmetry_group_IT_number 49
_symmetry_cell_setting 'orthorhombic'
loop_
_space_group_symop_operation_xyz
x,y,z
-x,-y,z
x,-y,1/2-z
-x,y,1/2-z
-x,-y,-z
x,y,-z
-x,y,1/2+z
x,-y,1/2+z
loop_
_atom_site_type_symbol
_atom_site_label
_atom_site_fract_x
_atom_site_fract_y
_atom_site_fract_z
Si Si1 0.907164 0.665074 0.736869
Si Si2 0.350319 0.174314 0.407388
Si Si3 0.827162 0.819498 0.405772
Si Si4 0.193217 0.102913 0.175067
Si Si5 0.500299 0.664701 0.096545
Si Si6 0.650432 0.160622 0.593018
O O1 0.876776 0.500000 0.750000
O O2 0.885379 0.717416 0.646091
O O3 0.869663 0.773663 0.802511
O O4 0.000000 0.674130 0.750000
O O5 0.345853 0.221084 0.500000
O O6 0.262799 0.209138 0.372770
O O7 0.420728 0.264896 0.365012
O O8 0.374054 0.006755 0.398299
O O9 0.839078 0.781949 0.500000
O O10 0.843367 0.993097 0.392789
O O11 0.270074 0.189524 0.143622
O O12 0.216460 0.000000 0.250000
O O13 0.500000 0.500000 0.126102
O O14 0.579119 0.743439 0.129835
O O15 0.499542 0.681110 0.000000
O O16 0.667420 0.202347 0.500000
#
# Coordination Sequence:
#
# PCOD8204431 Si02
#       6
#     8   8   8   8   8   8
#     4  10  22  40  57  77 110 147 172 202 266 338
#     4   8  14  26  45  69  97 130 168 214 261 298
#     4   9  18  35  59  84 106 134 181 229 262 302
#     4   9  18  33  55  78 101 133 173 219 268 315
#     4   9  16  24  38  66 102 135 168 207 251 299
#     4   9  16  28  47  72 100 130 169 213 256 303
#
# _framework density 18.731532999999999
#
# number of rings (size 3 to 8) (size 9 to 14) (size 15 to 20)
#    0.000    3.000    0.000    2.000    0.000    6.333 
#    0.000    7.500    0.000   17.000    0.000   11.667 
#    0.000    0.000    0.000    0.000    0.000    0.000 
#
# Total GULP energy -594903.672056 kJ/mol
# GULP energy per Si atom -12393.826501 kJ/mol
# Density = 1.868890 g / cm^3
# Si number density = 18.731533 Si / 1000 Ang^3
#
#
#
# Elastic Constant Matrix: (Units=GPa)
#
#
# Indices 1 2 3 4 5 6 
#
# 1 112.1929 71.8644 42.9616 0.0000 0.0000 0.0000
# 2 71.8644 109.1753 37.3230 0.0000 0.0000 0.0000
# 3 42.9616 37.3230 56.5418 0.0000 0.0000 0.0000
# 4 0.0000 0.0000 0.0000 16.1882 0.0000 0.0000
# 5 0.0000 0.0000 0.0000 0.0000 26.3668 0.0000
# 6 0.0000 0.0000 0.0000 0.0000 0.0000 26.7231
#
#
#
# Elastic Compliance Matrix: (Units=1/GPa)
#
#
# Indices 1 2 3 4 5 6 
#
# 1 0.017495 -0.009003 -0.007350 0.000000 0.000000 0.000000
# 2 -0.009003 0.016462 -0.004026 0.000000 0.000000 0.000000
# 3 -0.007350 -0.004026 0.025928 0.000000 0.000000 0.000000
# 4 0.000000 0.000000 0.000000 0.061773 0.000000 0.000000
# 5 0.000000 0.000000 0.000000 0.000000 0.037927 0.000000
# 6 0.000000 0.000000 0.000000 0.000000 0.000000 0.037421
#
#
# Mechanical properties :
#
#
# Convention : Reuss Voigt Hill
#
# Bulk Modulus (GPa) = 52.28160 64.68979 58.48570
# Shear Modulus (GPa) = 20.48018 22.23968 21.35993
#
# Velocity S-wave (km/s) = 3.31018 3.44944 3.38052
# Velocity P-wave (km/s) = 6.52543 7.10458 6.82116
#
# Compressibility (1/GPa) = 0.01912719
#
# Stress axis : x y z
#
# Youngs Moduli (GPa) = 57.16072 60.74543 38.56829
#
# Poissons Ratio (x) = 0.54690 0.28347
# Poissons Ratio (y) = 0.51462 0.15527
# Poissons Ratio (z) = 0.42012 0.24455
#
# Static dielectric constant tensor:
#      x y z
#    x 3.503260 0.000000 0.000000 
#    y 0.000000 3.507190 0.000000 
#    z 0.000000 0.000000 3.238880 
# 
# 
# High freq. dielectric constant tensor:
#      x y z
#    x 1.726110 0.000000 0.000000 
#    y 0.000000 1.719100 0.000000 
#    z 0.000000 0.000000 1.700950 
# 
# From -- ./inp_files/14038.got.cif
#   From: 2010.03.12/outbox.cif.g09.slc.cpg/sg49_8_cif.got.tgz:14038.got - 2010.04.14 03:58:27.
