data_PCOD8204029
_publ_section_title
;
Structure prediction by ZEFSAII (Michael W. Deem and Ramdas Pophale) SiO2 
 PCOD8204029
Probable space group: P C C M
;
_chemical_formula_sum "Si O2"
_cell_formula_units_Z 24
_cell_length_a 7.522967
_cell_length_b 8.793528
_cell_length_c 15.622894
_cell_angle_alpha 90.000000
_cell_angle_beta 90.000000
_cell_angle_gamma 90.000000
_cell_volume 1033.507883
_symmetry_space_group_name_H-M "P C C M"
_symmetry_group_IT_number 49
_symmetry_cell_setting 'orthorhombic'
loop_
_space_group_symop_operation_xyz
x,y,z
-x,-y,z
x,-y,1/2-z
-x,y,1/2-z
-x,-y,-z
x,y,-z
-x,y,1/2+z
x,-y,1/2+z
loop_
_atom_site_type_symbol
_atom_site_label
_atom_site_fract_x
_atom_site_fract_y
_atom_site_fract_z
Si Si1 0.231249 0.396474 0.334340
Si Si2 0.114782 0.688321 0.594909
Si Si3 0.474258 0.172136 0.899003
O O1 0.250726 0.500000 0.250000
O O2 0.951212 0.296721 0.162171
O O3 0.400314 0.288619 0.347154
O O4 0.200639 0.518242 0.410635
O O5 0.051947 0.736862 0.500000
O O6 0.271237 0.797740 0.627612
O O7 0.500000 0.000000 0.869137
O O8 0.508790 0.194424 0.000000
#
# Coordination Sequence:
#
# PCOD8204029 Si02
#       3
#     8   8   8
#     4  11  22  37  60  90 125 166 211 263 321 381
#     4  10  20  37  63  90 120 163 215 266 310 369
#     4  10  22  40  64  95 128 165 211 263 321 385
#
# _framework density 23.221882999999998
#
# number of rings (size 3 to 8) (size 9 to 14) (size 15 to 20)
#    0.000    1.667    0.000    7.000    0.000    8.000 
#    0.000    8.333    0.000    8.000    0.000    0.000 
#    0.000    0.000    0.000    0.000    0.000    0.000 
#
# Total GULP energy -297377.693648 kJ/mol
# GULP energy per Si atom -12390.737235 kJ/mol
# Density = 2.316903 g / cm^3
# Si number density = 23.221883 Si / 1000 Ang^3
#
#
#
# Elastic Constant Matrix: (Units=GPa)
#
#
# Indices 1 2 3 4 5 6 
#
# 1 124.0322 49.4048 66.0272 0.0000 0.0000 0.0000
# 2 49.4048 75.9210 34.3920 0.0000 0.0000 0.0000
# 3 66.0272 34.3920 100.1596 0.0000 0.0000 0.0000
# 4 0.0000 0.0000 0.0000 23.2065 0.0000 0.0000
# 5 0.0000 0.0000 0.0000 0.0000 27.5174 0.0000
# 6 0.0000 0.0000 0.0000 0.0000 0.0000 41.1300
#
#
#
# Elastic Compliance Matrix: (Units=1/GPa)
#
#
# Indices 1 2 3 4 5 6 
#
# 1 0.014418 -0.006012 -0.007440 0.000000 0.000000 0.000000
# 2 -0.006012 0.018105 -0.002253 0.000000 0.000000 0.000000
# 3 -0.007440 -0.002253 0.015663 0.000000 0.000000 0.000000
# 4 0.000000 0.000000 0.000000 0.043091 0.000000 0.000000
# 5 0.000000 0.000000 0.000000 0.000000 0.036341 0.000000
# 6 0.000000 0.000000 0.000000 0.000000 0.000000 0.024313
#
#
# Mechanical properties :
#
#
# Convention : Reuss Voigt Hill
#
# Bulk Modulus (GPa) = 59.61645 66.64009 63.12827
# Shear Modulus (GPa) = 26.46450 28.39004 27.42727
#
# Velocity S-wave (km/s) = 3.37951 3.50030 3.44044
# Velocity P-wave (km/s) = 6.39972 6.71532 6.55942
#
# Compressibility (1/GPa) = 0.01677389
#
# Stress axis : x y z
#
# Youngs Moduli (GPa) = 69.35874 55.23476 63.84646
#
# Poissons Ratio (x) = 0.33206 0.47503
# Poissons Ratio (y) = 0.41697 0.14388
# Poissons Ratio (z) = 0.51604 0.12447
#
# Static dielectric constant tensor:
#      x y z
#    x 4.406120 0.000000 0.000000 
#    y 0.000000 4.092160 0.000000 
#    z 0.000000 0.000000 4.110890 
# 
# 
# High freq. dielectric constant tensor:
#      x y z
#    x 1.931150 0.000000 0.000000 
#    y 0.000000 1.890410 0.000000 
#    z 0.000000 0.000000 1.912300 
# 
# From -- ./inp_files/10987.got.cif
#   From: 2010.03.12/outbox.cif.g09.slc.cpg/sg49_6_cif.got.tgz:10987.got - 2010.04.14 03:58:27.
