data_PCOD8204290
_publ_section_title
;
Structure prediction by ZEFSAII (Michael W. Deem and Ramdas Pophale) SiO2 
 PCOD8204290
Probable space group: P C C M
;
_chemical_formula_sum "Si O2"
_cell_formula_units_Z 48
_cell_length_a 9.546733
_cell_length_b 13.204075
_cell_length_c 18.614568
_cell_angle_alpha 90.000000
_cell_angle_beta 90.000000
_cell_angle_gamma 90.000000
_cell_volume 2346.473861
_symmetry_space_group_name_H-M "P C C M"
_symmetry_group_IT_number 49
_symmetry_cell_setting 'orthorhombic'
loop_
_space_group_symop_operation_xyz
x,y,z
-x,-y,z
x,-y,1/2-z
-x,y,1/2-z
-x,-y,-z
x,y,-z
-x,y,1/2+z
x,-y,1/2+z
loop_
_atom_site_type_symbol
_atom_site_label
_atom_site_fract_x
_atom_site_fract_y
_atom_site_fract_z
Si Si1 0.660687 0.970752 0.327890
Si Si2 0.704776 0.734087 0.661438
Si Si3 0.983410 0.731150 0.828952
Si Si4 0.437948 0.323561 0.917477
Si Si5 0.733094 0.397011 0.706087
Si Si6 0.773903 0.856157 0.082311
O O1 0.685581 0.853449 0.340449
O O2 0.500000 0.000000 0.335065
O O3 0.719385 0.000000 0.250000
O O4 0.745362 0.032683 0.387438
O O5 0.600797 0.685955 0.602949
O O6 0.673846 0.692141 0.741873
O O7 0.863552 0.702835 0.639648
O O8 0.890195 0.629132 0.820694
O O9 0.910930 0.811172 0.880518
O O10 0.000000 0.781659 0.750000
O O11 0.366424 0.405443 0.864018
O O12 0.360313 0.216235 0.905577
O O13 0.424574 0.360500 0.000000
O O14 0.732813 0.500000 0.750000
O O15 0.811773 0.868269 0.000000
#
# Coordination Sequence:
#
# PCOD8204290 Si02
#       6
#     8   8   8   8   8   8
#     4  11  21  33  58  88 120 166 209 255 300 367
#     4  11  22  36  59  91 123 154 209 260 306 358
#     4   9  20  38  61  88 121 159 206 264 305 368
#     4  10  21  38  61  90 125 159 200 254 311 368
#     4  10  22  42  66  90 117 161 207 256 319 377
#     4  10  21  39  60  86 125 171 208 249 313 376
#
# _framework density 20.456226999999998
#
# number of rings (size 3 to 8) (size 9 to 14) (size 15 to 20)
#    0.000    1.833    1.667    3.500    2.333    6.667 
#    0.000    5.833    0.000    1.000    0.000   25.667 
#    0.000    0.000    0.000    0.000    0.000    0.000 
#
# Total GULP energy -595188.157130 kJ/mol
# GULP energy per Si atom -12399.753274 kJ/mol
# Density = 2.040967 g / cm^3
# Si number density = 20.456227 Si / 1000 Ang^3
#
#
#
# Elastic Constant Matrix: (Units=GPa)
#
#
# Indices 1 2 3 4 5 6 
#
# 1 148.4160 46.5329 77.9437 0.0000 0.0000 0.0000
# 2 46.5329 116.3168 59.8375 0.0000 0.0000 0.0000
# 3 77.9437 59.8375 154.4127 0.0000 0.0000 0.0000
# 4 0.0000 0.0000 0.0000 10.2815 0.0000 0.0000
# 5 0.0000 0.0000 0.0000 0.0000 31.5329 0.0000
# 6 0.0000 0.0000 0.0000 0.0000 0.0000 46.9617
#
#
#
# Elastic Compliance Matrix: (Units=1/GPa)
#
#
# Indices 1 2 3 4 5 6 
#
# 1 0.009415 -0.001651 -0.004113 0.000000 0.000000 0.000000
# 2 -0.001651 0.011027 -0.003440 0.000000 0.000000 0.000000
# 3 -0.004113 -0.003440 0.009885 0.000000 0.000000 0.000000
# 4 0.000000 0.000000 0.000000 0.097262 0.000000 0.000000
# 5 0.000000 0.000000 0.000000 0.000000 0.031713 0.000000
# 6 0.000000 0.000000 0.000000 0.000000 0.000000 0.021294
#
#
# Mechanical properties :
#
#
# Convention : Reuss Voigt Hill
#
# Bulk Modulus (GPa) = 83.88886 87.53041 85.70964
# Shear Modulus (GPa) = 24.63320 33.41063 29.02191
#
# Velocity S-wave (km/s) = 3.47391 4.04576 3.77069
# Velocity P-wave (km/s) = 7.56232 8.04402 7.80689
#
# Compressibility (1/GPa) = 0.01192053
#
# Stress axis : x y z
#
# Youngs Moduli (GPa) = 106.20902 90.68431 101.16032
#
# Poissons Ratio (x) = 0.14970 0.41607
# Poissons Ratio (y) = 0.17533 0.34799
# Poissons Ratio (z) = 0.43683 0.31195
#
# Static dielectric constant tensor:
#      x y z
#    x 3.952060 0.000000 0.000000 
#    y 0.000000 3.380920 0.000000 
#    z 0.000000 0.000000 3.876430 
# 
# 
# High freq. dielectric constant tensor:
#      x y z
#    x 1.806510 0.000000 0.000000 
#    y 0.000000 1.781150 0.000000 
#    z 0.000000 0.000000 1.794340 
# 
# From -- ./inp_files/16317.got.cif
#   From: 2010.03.12/outbox.cif.g09.slc.cpg/sg49_9_cif.got.tgz:16317.got - 2010.04.14 03:58:27.
