data_PCOD8204092
_publ_section_title
;
Structure prediction by ZEFSAII (Michael W. Deem and Ramdas Pophale) SiO2 
 PCOD8204092
Probable space group: P C C M
;
_chemical_formula_sum "Si O2"
_cell_formula_units_Z 64
_cell_length_a 15.505498
_cell_length_b 9.482246
_cell_length_c 21.494985
_cell_angle_alpha 90.000000
_cell_angle_beta 90.000000
_cell_angle_gamma 90.000000
_cell_volume 3160.342007
_symmetry_space_group_name_H-M "P C C M"
_symmetry_group_IT_number 49
_symmetry_cell_setting 'orthorhombic'
loop_
_space_group_symop_operation_xyz
x,y,z
-x,-y,z
x,-y,1/2-z
-x,y,1/2-z
-x,-y,-z
x,y,-z
-x,y,1/2+z
x,-y,1/2+z
loop_
_atom_site_type_symbol
_atom_site_label
_atom_site_fract_x
_atom_site_fract_y
_atom_site_fract_z
Si Si1 0.085363 0.590262 0.143484
Si Si2 0.168610 0.086571 0.927626
Si Si3 0.743540 0.847192 0.637740
Si Si4 0.747936 0.441128 0.073353
Si Si5 0.026342 0.845699 0.665150
Si Si6 0.594908 0.961089 0.821928
Si Si7 0.705645 0.286715 0.638595
Si Si8 0.832508 0.711347 0.750034
O O1 0.148564 0.544258 0.087387
O O2 0.140734 0.574583 0.207646
O O3 0.000000 0.500000 0.142370
O O4 0.057826 0.754942 0.144946
O O5 0.083442 0.149542 0.896697
O O6 0.248664 0.185866 0.910993
O O7 0.185649 0.928582 0.903495
O O8 0.152060 0.084438 0.000000
O O9 0.715964 0.703365 0.603986
O O10 0.782667 0.824089 0.706422
O O11 0.658641 0.940441 0.640080
O O12 0.688744 0.566000 0.102855
O O13 0.733593 0.440281 0.000000
O O14 0.079488 0.778001 0.722499
O O15 0.000000 0.000000 0.687336
O O16 0.620306 0.795728 0.835506
O O17 0.500000 0.000000 0.846656
O O18 0.602409 0.000000 0.750000
O O19 0.768078 0.329168 0.695230
#
# Coordination Sequence:
#
# PCOD8204092 Si02
#       8
#     8   8   8   8   8   8   8   8
#     4  11  24  37  53  80 114 160 203 260 315 348
#     4  10  21  36  54  76 108 158 210 251 298 351
#     4  10  21  37  62  88 119 158 196 247 296 362
#     4  11  24  41  60  84 117 165 215 251 291 347
#     4  11  23  33  50  76 109 150 199 264 315 350
#     4  10  20  39  67 100 130 148 175 233 304 371
#     4  10  21  37  63  87 116 155 193 240 288 363
#     4  10  21  36  54  80 113 146 197 239 299 361
#
# _framework density 20.250973999999999
#
# number of rings (size 3 to 8) (size 9 to 14) (size 15 to 20)
#    0.000    1.625    1.250    4.125    0.000   12.000 
#    0.000    0.625    0.000   15.750    0.000    0.000 
#    0.000    0.000    0.000    0.000    0.000    0.000 
#
# Total GULP energy -793277.639029 kJ/mol
# GULP energy per Si atom -12394.963110 kJ/mol
# Density = 2.020488 g / cm^3
# Si number density = 20.250974 Si / 1000 Ang^3
#
#
#
# Elastic Constant Matrix: (Units=GPa)
#
#
# Indices 1 2 3 4 5 6 
#
# 1 69.3945 10.6145 12.6893 0.0000 0.0000 0.0000
# 2 10.6145 91.0859 25.6943 0.0000 0.0000 0.0000
# 3 12.6893 25.6943 115.1609 0.0000 0.0000 0.0000
# 4 0.0000 0.0000 0.0000 27.3071 0.0000 0.0000
# 5 0.0000 0.0000 0.0000 0.0000 12.9079 0.0000
# 6 0.0000 0.0000 0.0000 0.0000 0.0000 26.7870
#
#
#
# Elastic Compliance Matrix: (Units=1/GPa)
#
#
# Indices 1 2 3 4 5 6 
#
# 1 0.014862 -0.001355 -0.001335 0.000000 0.000000 0.000000
# 2 -0.001355 0.011840 -0.002492 0.000000 0.000000 0.000000
# 3 -0.001335 -0.002492 0.009387 0.000000 0.000000 0.000000
# 4 0.000000 0.000000 0.000000 0.036620 0.000000 0.000000
# 5 0.000000 0.000000 0.000000 0.000000 0.077472 0.000000
# 6 0.000000 0.000000 0.000000 0.000000 0.000000 0.037332
#
#
# Mechanical properties :
#
#
# Convention : Reuss Voigt Hill
#
# Bulk Modulus (GPa) = 38.87621 41.51526 40.19574
# Shear Modulus (GPa) = 24.21870 28.50994 26.36432
#
# Velocity S-wave (km/s) = 3.46197 3.75618 3.61207
# Velocity P-wave (km/s) = 5.93458 6.27349 6.10639
#
# Compressibility (1/GPa) = 0.02572267
#
# Stress axis : x y z
#
# Youngs Moduli (GPa) = 67.28652 84.46213 106.53372
#
# Poissons Ratio (x) = 0.11447 0.14225
# Poissons Ratio (y) = 0.09119 0.26551
# Poissons Ratio (z) = 0.08984 0.21050
#
# Static dielectric constant tensor:
#      x y z
#    x 3.597520 0.000000 0.000000 
#    y 0.000000 3.943670 0.000000 
#    z 0.000000 0.000000 3.611320 
# 
# 
# High freq. dielectric constant tensor:
#      x y z
#    x 1.756980 0.000000 0.000000 
#    y 0.000000 1.805720 0.000000 
#    z 0.000000 0.000000 1.788480 
# 
# From -- ./inp_files/21068.got.cif
#   From: 2010.03.12/outbox.cif.g09.slc.cpg/sg49_11_cif.got.tgz:21068.got - 2010.04.14 03:58:27.
