data_PCOD8204980
_publ_section_title
;
Structure prediction by ZEFSAII (Michael W. Deem and Ramdas Pophale) SiO2 
 PCOD8204980
Probable space group: P B A N
;
_chemical_formula_sum "Si O2"
_cell_formula_units_Z 56
_cell_length_a 15.304948
_cell_length_b 21.162605
_cell_length_c 8.597988
_cell_angle_alpha 90.000000
_cell_angle_beta 90.000000
_cell_angle_gamma 90.000000
_cell_volume 2784.824422
_symmetry_space_group_name_H-M "P B A N"
_symmetry_group_IT_number 50
_space_group.IT_coordinate_system_code '2'
_symmetry_cell_setting 'orthorhombic'
loop_
_space_group_symop_operation_xyz
x,y,z
1/2-x,1/2-y,z
x,1/2-y,-z
1/2-x,y,-z
-x,-y,-z
1/2+x,1/2+y,-z
-x,1/2+y,z
1/2+x,-y,z
loop_
_atom_site_type_symbol
_atom_site_label
_atom_site_fract_x
_atom_site_fract_y
_atom_site_fract_z
Si Si1 0.834627 0.627805 0.103226
Si Si2 0.403392 0.891606 0.702766
Si Si3 0.110942 0.280895 0.659276
Si Si4 0.471122 0.304439 0.895874
Si Si5 0.453645 0.477662 0.156983
Si Si6 0.551571 0.370751 0.350252
Si Si7 0.235004 0.819982 0.682899
O O1 0.822281 0.667610 0.264485
O O2 0.858484 0.554920 0.133095
O O3 0.750000 0.635275 0.000000
O O4 0.921924 0.650534 0.016016
O O5 0.459766 0.841336 0.795902
O O6 0.422513 0.891165 0.521407
O O7 0.303928 0.872449 0.744321
O O8 0.429056 0.961718 0.745666
O O9 0.147654 0.250000 0.500000
O O10 0.101876 0.224367 0.781905
O O11 0.017938 0.314397 0.632801
O O12 0.517501 0.250000 0.000000
O O13 0.516904 0.430693 0.253229
O O14 0.500000 0.500000 0.000000
O O15 0.638390 0.343159 0.267977
O O16 0.250000 0.750000 0.755935
O O17 0.250000 0.814297 0.500000
#
# Coordination Sequence:
#
# PCOD8204980 Si02
#       7
#     8   8   8   8   8   8   8
#     4  10  23  42  60  84 123 164 204 263 319 363
#     4  11  20  38  62  88 124 166 210 253 306 380
#     4  10  19  35  66  92 116 159 202 250 314 390
#     4  10  20  35  61  88 122 161 199 249 318 375
#     4  11  23  40  63  83 117 169 220 251 310 378
#     4  10  21  37  62  92 124 158 210 260 309 373
#     4   9  19  34  60  96 127 157 189 254 322 373
#
# _framework density 20.108989000000001
#
# number of rings (size 3 to 8) (size 9 to 14) (size 15 to 20)
#    0.000    1.857    2.857    1.286    2.000    3.714 
#    0.000    1.429    0.000    0.000    0.000    0.000 
#    0.000    0.000    0.000    0.000    0.000    0.000 
#
# Total GULP energy -694092.174126 kJ/mol
# GULP energy per Si atom -12394.503109 kJ/mol
# Density = 2.006322 g / cm^3
# Si number density = 20.108989 Si / 1000 Ang^3
#
#
#
# Elastic Constant Matrix: (Units=GPa)
#
#
# Indices 1 2 3 4 5 6 
#
# 1 107.2527 48.0656 25.4862 0.0000 0.0000 0.0000
# 2 48.0656 126.8231 43.4954 0.0000 0.0000 0.0000
# 3 25.4862 43.4954 97.9917 0.0000 0.0000 0.0000
# 4 0.0000 0.0000 0.0000 33.7163 0.0000 0.0000
# 5 0.0000 0.0000 0.0000 0.0000 24.8713 0.0000
# 6 0.0000 0.0000 0.0000 0.0000 0.0000 9.1842
#
#
#
# Elastic Compliance Matrix: (Units=1/GPa)
#
#
# Indices 1 2 3 4 5 6 
#
# 1 0.011356 -0.003882 -0.001230 0.000000 0.000000 0.000000
# 2 -0.003882 0.010628 -0.003708 0.000000 0.000000 0.000000
# 3 -0.001230 -0.003708 0.012171 0.000000 0.000000 0.000000
# 4 0.000000 0.000000 0.000000 0.029659 0.000000 0.000000
# 5 0.000000 0.000000 0.000000 0.000000 0.040207 0.000000
# 6 0.000000 0.000000 0.000000 0.000000 0.000000 0.108882
#
#
# Mechanical properties :
#
#
# Convention : Reuss Voigt Hill
#
# Bulk Modulus (GPa) = 60.55361 62.90688 61.73024
# Shear Modulus (GPa) = 21.18216 27.88904 24.53560
#
# Velocity S-wave (km/s) = 3.24908 3.72814 3.49683
# Velocity P-wave (km/s) = 6.65233 7.06279 6.86063
#
# Compressibility (1/GPa) = 0.01651429
#
# Stress axis : x y z
#
# Youngs Moduli (GPa) = 88.06059 94.09270 82.16444
#
# Poissons Ratio (x) = 0.36525 0.10110
# Poissons Ratio (y) = 0.34184 0.30464
# Poissons Ratio (z) = 0.10835 0.34887
#
# Static dielectric constant tensor:
#      x y z
#    x 2.841050 0.000000 0.000000 
#    y 0.000000 2.587200 0.000000 
#    z 0.000000 0.000000 3.780810 
# 
# 
# High freq. dielectric constant tensor:
#      x y z
#    x 1.769400 0.000000 0.000000 
#    y 0.000000 1.795740 0.000000 
#    z 0.000000 0.000000 1.788100 
# 
# From -- ./inp_files/13297.got.cif
#   From: 2010.03.12/outbox.cif.g09.slc.cpg/sg50_7_cif.got.tgz:13297.got - 2010.04.16 13:23:21.
