data_PCOD8204349
_publ_section_title
;
Structure prediction by ZEFSAII (Michael W. Deem and Ramdas Pophale) SiO2 
 PCOD8204349
Probable space group: P C C M
;
_chemical_formula_sum "Si O2"
_cell_formula_units_Z 48
_cell_length_a 11.308183
_cell_length_b 11.252773
_cell_length_c 16.817977
_cell_angle_alpha 90.000000
_cell_angle_beta 90.000000
_cell_angle_gamma 90.000000
_cell_volume 2140.060939
_symmetry_space_group_name_H-M "P C C M"
_symmetry_group_IT_number 49
_symmetry_cell_setting 'orthorhombic'
loop_
_space_group_symop_operation_xyz
x,y,z
-x,-y,z
x,-y,1/2-z
-x,y,1/2-z
-x,-y,-z
x,y,-z
-x,y,1/2+z
x,-y,1/2+z
loop_
_atom_site_type_symbol
_atom_site_label
_atom_site_fract_x
_atom_site_fract_y
_atom_site_fract_z
Si Si1 0.926123 0.264805 0.407987
Si Si2 0.599733 0.786326 0.149325
Si Si3 0.659576 0.158842 0.824443
Si Si4 0.807249 0.661256 0.589248
Si Si5 0.780580 0.948387 0.913091
Si Si6 0.253700 0.569535 0.333065
O O1 0.892240 0.294365 0.500000
O O2 0.903378 0.122234 0.392554
O O3 0.848685 0.332270 0.341561
O O4 0.058672 0.304882 0.391191
O O5 0.465500 0.823701 0.130067
O O6 0.637815 0.850524 0.231292
O O7 0.681354 0.844096 0.081780
O O8 0.621728 0.642591 0.155409
O O9 0.730295 0.277328 0.843284
O O10 0.739594 0.048183 0.851612
O O11 0.775328 0.702886 0.500000
O O12 0.775447 0.522343 0.596200
O O13 0.791272 0.008663 0.000000
O O14 0.250033 0.500000 0.250000
#
# Coordination Sequence:
#
# PCOD8204349 Si02
#       6
#     8   8   8   8   8   8
#     4   9  21  40  62  91 128 165 206 267 327 382
#     4  10  23  41  61  87 124 164 212 269 319 381
#     4  11  22  40  61  89 122 169 210 257 325 389
#     4  11  23  39  61  93 128 165 213 264 322 387
#     4  10  21  39  64  92 122 161 210 262 320 385
#     4  11  21  40  62  89 122 169 220 263 322 382
#
# _framework density 22.429266999999999
#
# number of rings (size 3 to 8) (size 9 to 14) (size 15 to 20)
#    0.000    1.667    1.667    2.500    0.000    8.000 
#    0.000    3.333    0.000    2.000    0.000    0.000 
#    0.000    0.000    0.000    0.000    0.000    0.000 
#
# Total GULP energy -594747.197896 kJ/mol
# GULP energy per Si atom -12390.566623 kJ/mol
# Density = 2.237822 g / cm^3
# Si number density = 22.429267 Si / 1000 Ang^3
#
#
#
# Elastic Constant Matrix: (Units=GPa)
#
#
# Indices 1 2 3 4 5 6 
#
# 1 0.3448 31.8656 2.7063 0.0000 0.0000 0.0000
# 2 31.8656 124.6353 22.7806 0.0000 0.0000 0.0000
# 3 2.7063 22.7806 40.9926 0.0000 0.0000 0.0000
# 4 0.0000 0.0000 0.0000 29.4531 0.0000 0.0000
# 5 0.0000 0.0000 0.0000 0.0000 25.5053 0.0000
# 6 0.0000 0.0000 0.0000 0.0000 0.0000 30.9901
#
#
#
# Elastic Compliance Matrix: (Units=1/GPa)
#
#
# Indices 1 2 3 4 5 6 
#
# 1 -0.123972 0.033614 -0.010496 0.000000 0.000000 0.000000
# 2 0.033614 -0.000184 -0.002117 0.000000 0.000000 0.000000
# 3 -0.010496 -0.002117 0.026264 0.000000 0.000000 0.000000
# 4 0.000000 0.000000 0.000000 0.033952 0.000000 0.000000
# 5 0.000000 0.000000 0.000000 0.000000 0.039207 0.000000
# 6 0.000000 0.000000 0.000000 0.000000 0.000000 0.032268
#
#
# Mechanical properties :
#
#
# Convention : Reuss Voigt Hill
#
# Bulk Modulus (GPa) = -17.89267 31.18639 6.64686
# Shear Modulus (GPa) = -94.16779 24.43106 -34.86836
#
# Velocity S-wave (km/s) = -6.48656 3.30396 -3.94711
# Velocity P-wave (km/s) = 8.00596 5.33754 4.21936
#
# Compressibility (1/GPa) = -0.05588880
#
# Stress axis : x y z
#
# Youngs Moduli (GPa) = -8.06633 -5438.33801 38.07487
#
# Poissons Ratio (x) = 182.80680 0.39963
# Poissons Ratio (y) = 0.27115 0.08060
# Poissons Ratio (z) = -0.08466 -11.51300
#
# Static dielectric constant tensor:
#      x y z
#    x 4.095230 0.000000 0.000000 
#    y 0.000000 4.282910 0.000000 
#    z 0.000000 0.000000 3.806990 
# 
# 
# High freq. dielectric constant tensor:
#      x y z
#    x 1.872320 0.000000 0.000000 
#    y 0.000000 1.895130 0.000000 
#    z 0.000000 0.000000 1.875540 
# 
# From -- ./inp_files/17104.got.cif
#   From: 2010.03.12/outbox.cif.g09.slc.cpg/sg49_9_cif.got.tgz:17104.got - 2010.04.14 03:58:27.
