data_PCOD8204113
_publ_section_title
;
Structure prediction by ZEFSAII (Michael W. Deem and Ramdas Pophale) SiO2 
 PCOD8204113
Probable space group: P C C M
;
_chemical_formula_sum "Si O2"
_cell_formula_units_Z 44
_cell_length_a 18.214314
_cell_length_b 16.050153
_cell_length_c 8.795783
_cell_angle_alpha 90.000000
_cell_angle_beta 90.000000
_cell_angle_gamma 90.000000
_cell_volume 2571.381425
_symmetry_space_group_name_H-M "P C C M"
_symmetry_group_IT_number 49
_symmetry_cell_setting 'orthorhombic'
loop_
_space_group_symop_operation_xyz
x,y,z
-x,-y,z
x,-y,1/2-z
-x,y,1/2-z
-x,-y,-z
x,y,-z
-x,y,1/2+z
x,-y,1/2+z
loop_
_atom_site_type_symbol
_atom_site_label
_atom_site_fract_x
_atom_site_fract_y
_atom_site_fract_z
Si Si1 0.069403 0.113175 0.662775
Si Si2 0.575540 0.909406 0.681234
Si Si3 0.191610 0.000000 0.250000
Si Si4 0.837556 0.263484 0.182383
Si Si5 0.284002 0.843221 0.327397
Si Si6 0.922615 0.590018 0.182194
O O1 0.037468 0.136784 0.500000
O O2 0.100766 0.197444 0.738279
O O3 0.000000 0.075330 0.750000
O O4 0.135938 0.047823 0.637384
O O5 0.500000 0.872915 0.750000
O O6 0.570806 0.915251 0.500000
O O7 0.641393 0.849600 0.731371
O O8 0.590571 0.000000 0.750000
O O9 0.241837 0.932014 0.333371
O O10 0.760193 0.230864 0.246032
O O11 0.857200 0.350564 0.261066
O O12 0.833615 0.271099 0.000000
O O13 0.301523 0.817422 0.500000
O O14 0.904372 0.500000 0.250000
O O15 0.000000 0.622232 0.250000
O O16 0.926599 0.586767 0.000000
#
# Coordination Sequence:
#
# PCOD8204113 Si02
#       6
#     8   8   4   8   8   8
#     4  10  21  33  45  62  85 119 160 206 250 292
#     4  11  21  34  52  74 100 131 169 211 254 302
#     4  10  21  32  47  62  90 122 168 206 251 292
#     4  10  21  36  51  71  99 129 165 208 256 304
#     4  11  21  34  52  72  98 131 169 209 255 302
#     4  11  21  35  55  78 103 133 169 210 259 311
#
# _framework density 17.111425000000001
#
# number of rings (size 3 to 8) (size 9 to 14) (size 15 to 20)
#    0.000    1.455    0.909    6.818    0.000    8.000 
#    0.000    0.000    0.000    0.000    0.000    0.000 
#    0.000    0.727    0.000    7.273    0.000    4.364 
#
# Total GULP energy -545377.128329 kJ/mol
# GULP energy per Si atom -12394.934735 kJ/mol
# Density = 1.707248 g / cm^3
# Si number density = 17.111425 Si / 1000 Ang^3
#
#
#
# Elastic Constant Matrix: (Units=GPa)
#
#
# Indices 1 2 3 4 5 6 
#
# 1 126.4038 47.3444 55.7395 0.0000 0.0000 0.0000
# 2 47.3444 79.2523 37.0179 0.0000 0.0000 0.0000
# 3 55.7395 37.0179 146.1787 0.0000 0.0000 0.0000
# 4 0.0000 0.0000 0.0000 21.3017 0.0000 0.0000
# 5 0.0000 0.0000 0.0000 0.0000 27.1921 0.0000
# 6 0.0000 0.0000 0.0000 0.0000 0.0000 23.4180
#
#
#
# Elastic Compliance Matrix: (Units=1/GPa)
#
#
# Indices 1 2 3 4 5 6 
#
# 1 0.011192 -0.005322 -0.002920 0.000000 0.000000 0.000000
# 2 -0.005322 0.016842 -0.002235 0.000000 0.000000 0.000000
# 3 -0.002920 -0.002235 0.008520 0.000000 0.000000 0.000000
# 4 0.000000 0.000000 0.000000 0.046945 0.000000 0.000000
# 5 0.000000 0.000000 0.000000 0.000000 0.036775 0.000000
# 6 0.000000 0.000000 0.000000 0.000000 0.000000 0.042702
#
#
# Mechanical properties :
#
#
# Convention : Reuss Voigt Hill
#
# Bulk Modulus (GPa) = 64.10700 70.22649 67.16675
# Shear Modulus (GPa) = 26.43670 28.49791 27.46731
#
# Velocity S-wave (km/s) = 3.93488 4.08540 4.01084
# Velocity P-wave (km/s) = 7.62825 7.96139 7.79660
#
# Compressibility (1/GPa) = 0.01559892
#
# Stress axis : x y z
#
# Youngs Moduli (GPa) = 89.34831 59.37707 117.36477
#
# Poissons Ratio (x) = 0.31602 0.34269
# Poissons Ratio (y) = 0.47553 0.26237
# Poissons Ratio (z) = 0.26089 0.13274
#
# Static dielectric constant tensor:
#      x y z
#    x 3.250500 0.000000 0.000000 
#    y 0.000000 3.017700 0.000000 
#    z 0.000000 0.000000 3.235920 
# 
# 
# High freq. dielectric constant tensor:
#      x y z
#    x 1.650060 0.000000 0.000000 
#    y 0.000000 1.626840 0.000000 
#    z 0.000000 0.000000 1.677330 
# 
# From -- ./inp_files/4838.got.cif
#   From: 2010.03.12/outbox.cif.g09.slc.cpg/sg49_3_cif.got.tgz:4838.got - 2010.04.14 03:58:27.
