data_PCOD8204346
_publ_section_title
;
Structure prediction by ZEFSAII (Michael W. Deem and Ramdas Pophale) SiO2 
 PCOD8204346
Probable space group: P C C M
;
_chemical_formula_sum "Si O2"
_cell_formula_units_Z 24
_cell_length_a 4.850858
_cell_length_b 12.959086
_cell_length_c 17.039310
_cell_angle_alpha 90.000000
_cell_angle_beta 90.000000
_cell_angle_gamma 90.000000
_cell_volume 1071.136794
_symmetry_space_group_name_H-M "P C C M"
_symmetry_group_IT_number 49
_symmetry_cell_setting 'orthorhombic'
loop_
_space_group_symop_operation_xyz
x,y,z
-x,-y,z
x,-y,1/2-z
-x,y,1/2-z
-x,-y,-z
x,y,-z
-x,y,1/2+z
x,-y,1/2+z
loop_
_atom_site_type_symbol
_atom_site_label
_atom_site_fract_x
_atom_site_fract_y
_atom_site_fract_z
Si Si1 0.254958 0.069916 0.914343
Si Si2 0.586285 0.617040 0.589939
Si Si3 0.901180 0.721442 0.161877
O O1 0.129484 0.158866 0.859639
O O2 0.500000 0.000000 0.875353
O O3 0.359732 0.112883 0.000000
O O4 0.000000 0.000000 0.931835
O O5 0.500000 0.500000 0.606182
O O6 0.522018 0.645621 0.500000
O O7 0.407862 0.681783 0.651050
O O8 0.902058 0.649950 0.607170
O O9 0.000000 0.709892 0.250000
#
# Coordination Sequence:
#
# PCOD8204346 Si02
#       3
#     8   8   8
#     4  10  21  39  64  90 119 161 209 255 307 374
#     4  11  24  43  67  93 126 173 223 267 318 390
#     4  12  25  41  64  97 134 168 210 271 336 390
#
# _framework density 22.406099999999999
#
# number of rings (size 3 to 8) (size 9 to 14) (size 15 to 20)
#    0.000    1.000    0.000    7.000    0.000   10.000 
#    0.000    1.667    0.000    0.000    0.000    0.000 
#    0.000    0.000    0.000    0.000    0.000    0.000 
#
# Total GULP energy -297387.607552 kJ/mol
# GULP energy per Si atom -12391.150315 kJ/mol
# Density = 2.235510 g / cm^3
# Si number density = 22.406100 Si / 1000 Ang^3
#
#
#
# Elastic Constant Matrix: (Units=GPa)
#
#
# Indices 1 2 3 4 5 6 
#
# 1 91.2934 21.9217 0.2019 0.0000 0.0000 0.0000
# 2 21.9217 111.2309 28.9828 0.0000 0.0000 0.0000
# 3 0.2019 28.9828 100.5268 0.0000 0.0000 0.0000
# 4 0.0000 0.0000 0.0000 4.3289 0.0000 0.0000
# 5 0.0000 0.0000 0.0000 0.0000 25.3170 0.0000
# 6 0.0000 0.0000 0.0000 0.0000 0.0000 60.3011
#
#
#
# Elastic Compliance Matrix: (Units=1/GPa)
#
#
# Indices 1 2 3 4 5 6 
#
# 1 0.011541 -0.002453 0.000684 0.000000 0.000000 0.000000
# 2 -0.002453 0.010242 -0.002948 0.000000 0.000000 0.000000
# 3 0.000684 -0.002948 0.010796 0.000000 0.000000 0.000000
# 4 0.000000 0.000000 0.000000 0.231007 0.000000 0.000000
# 5 0.000000 0.000000 0.000000 0.000000 0.039499 0.000000
# 6 0.000000 0.000000 0.000000 0.000000 0.000000 0.016583
#
#
# Mechanical properties :
#
#
# Convention : Reuss Voigt Hill
#
# Bulk Modulus (GPa) = 43.20453 45.02932 44.11692
# Shear Modulus (GPa) = 14.84483 34.78568 24.81526
#
# Velocity S-wave (km/s) = 2.57677 3.94446 3.33156
# Velocity P-wave (km/s) = 5.30823 6.39418 5.87635
#
# Compressibility (1/GPa) = 0.02314572
#
# Stress axis : x y z
#
# Youngs Moduli (GPa) = 86.64642 97.63881 92.62578
#
# Poissons Ratio (x) = 0.23949 -0.06335
# Poissons Ratio (y) = 0.21252 0.27305
# Poissons Ratio (z) = -0.05926 0.28783
#
# Static dielectric constant tensor:
#      x y z
#    x 4.077200 0.000000 0.000000 
#    y 0.000000 3.794450 0.000000 
#    z 0.000000 0.000000 3.817060 
# 
# 
# High freq. dielectric constant tensor:
#      x y z
#    x 1.899830 0.000000 0.000000 
#    y 0.000000 1.889800 0.000000 
#    z 0.000000 0.000000 1.870000 
# 
# From -- ./inp_files/13140.got.cif
#   From: 2010.03.12/outbox.cif.g09.slc.cpg/sg49_7_cif.got.tgz:13140.got - 2010.04.14 03:58:27.
