data_PCOD8204723
_publ_section_title
;
Structure prediction by ZEFSAII (Michael W. Deem and Ramdas Pophale) SiO2 
 PCOD8204723
Probable space group: P B A N
;
_chemical_formula_sum "Si O2"
_cell_formula_units_Z 60
_cell_length_a 12.827244
_cell_length_b 22.030163
_cell_length_c 11.243495
_cell_angle_alpha 90.000000
_cell_angle_beta 90.000000
_cell_angle_gamma 90.000000
_cell_volume 3177.257383
_symmetry_space_group_name_H-M "P B A N"
_symmetry_group_IT_number 50
_space_group.IT_coordinate_system_code '2'
_symmetry_cell_setting 'orthorhombic'
loop_
_space_group_symop_operation_xyz
x,y,z
1/2-x,1/2-y,z
x,1/2-y,-z
1/2-x,y,-z
-x,-y,-z
1/2+x,1/2+y,-z
-x,1/2+y,z
1/2+x,-y,z
loop_
_atom_site_type_symbol
_atom_site_label
_atom_site_fract_x
_atom_site_fract_y
_atom_site_fract_z
Si Si1 0.144133 0.856015 0.563113
Si Si2 0.046683 0.711970 0.245132
Si Si3 0.669607 0.596279 0.284358
Si Si4 0.954062 0.696666 0.584095
Si Si5 0.991338 0.250000 0.000000
Si Si6 0.906483 0.597547 0.225168
Si Si7 0.057359 0.520537 0.381277
Si Si8 0.866468 0.636596 0.973189
O O1 0.250000 0.837416 0.500000
O O2 0.144540 0.816719 0.685039
O O3 0.141198 0.927235 0.589950
O O4 0.041898 0.840098 0.487335
O O5 0.009109 0.774682 0.301551
O O6 0.079932 0.726899 0.109525
O O7 0.951822 0.663966 0.253505
O O8 0.635492 0.651467 0.370626
O O9 0.794141 0.593904 0.286863
O O10 0.624219 0.534127 0.331998
O O11 0.626687 0.601114 0.150535
O O12 0.906791 0.750000 0.500000
O O13 0.063312 0.195375 0.957228
O O14 0.976191 0.544035 0.281173
O O15 0.901929 0.591686 0.081036
O O16 0.000000 0.500000 0.500000
O O17 0.750000 0.659753 0.000000
#
# Coordination Sequence:
#
# PCOD8204723 Si02
#       8
#     8   8   8   8   4   8   8   8
#     4  10  22  40  59  78 111 155 200 238 280 344
#     4   9  19  35  57  89 117 147 189 228 291 343
#     4  11  21  36  60  82 118 152 188 242 287 341
#     4  10  20  36  54  85 116 148 190 227 285 349
#     4  10  15  30  60  83 124 148 176 236 277 349
#     4   9  22  38  55  86 118 146 192 241 281 349
#     4  11  23  38  55  81 112 151 200 238 290 340
#     4   9  18  33  55  87 114 153 189 220 290 350
#
# _framework density 18.884211000000001
#
# number of rings (size 3 to 8) (size 9 to 14) (size 15 to 20)
#    0.000    2.133    2.667    0.200    1.867    3.467 
#    0.000    3.333    0.000    1.600    0.000    0.000 
#    0.000    0.000    0.000    0.000    0.000    0.000 
#
# Total GULP energy -743815.855232 kJ/mol
# GULP energy per Si atom -12396.930921 kJ/mol
# Density = 1.884123 g / cm^3
# Si number density = 18.884211 Si / 1000 Ang^3
#
#
#
# Elastic Constant Matrix: (Units=GPa)
#
#
# Indices 1 2 3 4 5 6 
#
# 1 82.3975 38.5213 54.1747 0.0000 0.0000 0.0000
# 2 38.5213 114.4454 56.1138 0.0000 0.0000 0.0000
# 3 54.1747 56.1138 139.7591 0.0000 0.0000 0.0000
# 4 0.0000 0.0000 0.0000 32.3833 0.0000 0.0000
# 5 0.0000 0.0000 0.0000 0.0000 31.4598 0.0000
# 6 0.0000 0.0000 0.0000 0.0000 0.0000 12.3080
#
#
#
# Elastic Compliance Matrix: (Units=1/GPa)
#
#
# Indices 1 2 3 4 5 6 
#
# 1 0.017141 -0.003127 -0.005389 0.000000 0.000000 0.000000
# 2 -0.003127 0.011450 -0.003385 0.000000 0.000000 0.000000
# 3 -0.005389 -0.003385 0.010603 0.000000 0.000000 0.000000
# 4 0.000000 0.000000 0.000000 0.030880 0.000000 0.000000
# 5 0.000000 0.000000 0.000000 0.000000 0.031787 0.000000
# 6 0.000000 0.000000 0.000000 0.000000 0.000000 0.081248
#
#
# Mechanical properties :
#
#
# Convention : Reuss Voigt Hill
#
# Bulk Modulus (GPa) = 64.96813 70.46908 67.71860
# Shear Modulus (GPa) = 23.58011 27.74968 25.66490
#
# Velocity S-wave (km/s) = 3.53748 3.83752 3.69055
# Velocity P-wave (km/s) = 7.15284 7.55201 7.35513
#
# Compressibility (1/GPa) = 0.01539216
#
# Stress axis : x y z
#
# Youngs Moduli (GPa) = 58.33815 87.33504 94.31179
#
# Poissons Ratio (x) = 0.27314 0.50823
# Poissons Ratio (y) = 0.18245 0.31924
# Poissons Ratio (z) = 0.31437 0.29563
#
# Static dielectric constant tensor:
#      x y z
#    x 3.177640 0.000000 0.000000 
#    y 0.000000 3.501870 0.000000 
#    z 0.000000 0.000000 3.586830 
# 
# 
# High freq. dielectric constant tensor:
#      x y z
#    x 1.706510 0.000000 0.000000 
#    y 0.000000 1.734350 0.000000 
#    z 0.000000 0.000000 1.753140 
# 
# From -- ./inp_files/20425.got.cif
#   From: 2010.03.12/outbox.cif.g09.slc.cpg/sg50_11_cif.got.tgz:20425.got - 2010.04.16 13:23:21.
