data_PCOD8204622
_publ_section_title
;
Structure prediction by ZEFSAII (Michael W. Deem and Ramdas Pophale) SiO2 
 PCOD8204622
Probable space group: P C C M
;
_chemical_formula_sum "Si O2"
_cell_formula_units_Z 40
_cell_length_a 9.588913
_cell_length_b 25.127471
_cell_length_c 8.377788
_cell_angle_alpha 90.000000
_cell_angle_beta 90.000000
_cell_angle_gamma 90.000000
_cell_volume 2018.587247
_symmetry_space_group_name_H-M "P C C M"
_symmetry_group_IT_number 49
_symmetry_cell_setting 'orthorhombic'
loop_
_space_group_symop_operation_xyz
x,y,z
-x,-y,z
x,-y,1/2-z
-x,y,1/2-z
-x,-y,-z
x,y,-z
-x,y,1/2+z
x,-y,1/2+z
loop_
_atom_site_type_symbol
_atom_site_label
_atom_site_fract_x
_atom_site_fract_y
_atom_site_fract_z
Si Si1 0.656388 0.556183 0.309998
Si Si2 0.148193 0.352830 0.812568
Si Si3 0.846925 0.762304 0.687129
Si Si4 0.149141 0.942232 0.813886
Si Si5 0.344794 0.147732 0.186282
O O1 0.719277 0.500000 0.250000
O O2 0.500000 0.561560 0.250000
O O3 0.665665 0.560256 0.500000
O O4 0.739015 0.603059 0.225946
O O5 0.189715 0.298888 0.721926
O O6 0.000000 0.373971 0.750000
O O7 0.140291 0.341079 0.000000
O O8 0.839029 0.774048 0.500000
O O9 0.734065 0.797557 0.777636
O O10 0.000000 0.777025 0.750000
O O11 0.269602 0.901367 0.770378
O O12 0.000000 0.922064 0.750000
O O13 0.190702 0.000000 0.750000
O O14 0.134291 0.946628 0.000000
O O15 0.500000 0.152855 0.250000
O O16 0.346908 0.136655 0.000000
#
# Coordination Sequence:
#
# PCOD8204622 Si02
#       5
#     8   8   8   8   8
#     4  11  22  39  60  86 117 155 196 240 290 349
#     4  11  22  39  61  89 119 153 194 243 294 347
#     4  11  22  40  63  89 118 155 196 241 291 348
#     4  11  22  40  64  92 121 157 199 244 291 346
#     4  12  25  42  61  88 121 157 197 244 295 350
#
# _framework density 19.815837999999999
#
# number of rings (size 3 to 8) (size 9 to 14) (size 15 to 20)
#    0.000    0.800    0.000   12.000    0.000    1.600 
#    0.000    8.000    0.000    0.000    0.000    0.000 
#    0.000    0.000    0.000    0.000    0.000    0.000 
#
# Total GULP energy -496244.882369 kJ/mol
# GULP energy per Si atom -12406.122059 kJ/mol
# Density = 1.977074 g / cm^3
# Si number density = 19.815838 Si / 1000 Ang^3
#
#
#
# Elastic Constant Matrix: (Units=GPa)
#
#
# Indices 1 2 3 4 5 6 
#
# 1 110.9546 66.3165 13.5063 0.0000 0.0000 0.0000
# 2 66.3165 101.4003 9.8375 0.0000 0.0000 0.0000
# 3 13.5063 9.8375 128.8339 0.0000 0.0000 0.0000
# 4 0.0000 0.0000 0.0000 38.0145 0.0000 0.0000
# 5 0.0000 0.0000 0.0000 0.0000 37.6443 0.0000
# 6 0.0000 0.0000 0.0000 0.0000 0.0000 116.4261
#
#
#
# Elastic Compliance Matrix: (Units=1/GPa)
#
#
# Indices 1 2 3 4 5 6 
#
# 1 0.014883 -0.009654 -0.000823 0.000000 0.000000 0.000000
# 2 -0.009654 0.016197 -0.000225 0.000000 0.000000 0.000000
# 3 -0.000823 -0.000225 0.007865 0.000000 0.000000 0.000000
# 4 0.000000 0.000000 0.000000 0.026306 0.000000 0.000000
# 5 0.000000 0.000000 0.000000 0.000000 0.026564 0.000000
# 6 0.000000 0.000000 0.000000 0.000000 0.000000 0.008589
#
#
# Mechanical properties :
#
#
# Convention : Reuss Voigt Hill
#
# Bulk Modulus (GPa) = 57.00445 57.83436 57.41940
# Shear Modulus (GPa) = 39.16807 55.18553 47.17680
#
# Velocity S-wave (km/s) = 4.45073 5.28296 4.88460
# Velocity P-wave (km/s) = 7.43246 8.15243 7.80076
#
# Compressibility (1/GPa) = 0.01754249
#
# Stress axis : x y z
#
# Youngs Moduli (GPa) = 67.19201 61.73908 127.13936
#
# Poissons Ratio (x) = 0.59600 0.10465
# Poissons Ratio (y) = 0.64864 0.02857
# Poissons Ratio (z) = 0.05531 0.01388
#
# Static dielectric constant tensor:
#      x y z
#    x 3.599780 0.000000 0.000000 
#    y 0.000000 3.769740 0.000000 
#    z 0.000000 0.000000 3.884990 
# 
# 
# High freq. dielectric constant tensor:
#      x y z
#    x 1.771590 0.000000 0.000000 
#    y 0.000000 1.785740 0.000000 
#    z 0.000000 0.000000 1.800900 
# 
# From -- ./inp_files/1681.got.cif
#   From: 2010.03.12/outbox.cif.g09.slc.cpg/sg49_1_cif.got.tgz:1681.got - 2010.04.14 03:58:27.
