data_PCOD8204379
_publ_section_title
;
Structure prediction by ZEFSAII (Michael W. Deem and Ramdas Pophale) SiO2 
 PCOD8204379
Probable space group: P C C M
;
_chemical_formula_sum "Si O2"
_cell_formula_units_Z 64
_cell_length_a 20.554275
_cell_length_b 8.166785
_cell_length_c 16.919672
_cell_angle_alpha 90.000000
_cell_angle_beta 90.000000
_cell_angle_gamma 90.000000
_cell_volume 2840.175814
_symmetry_space_group_name_H-M "P C C M"
_symmetry_group_IT_number 49
_symmetry_cell_setting 'orthorhombic'
loop_
_space_group_symop_operation_xyz
x,y,z
-x,-y,z
x,-y,1/2-z
-x,y,1/2-z
-x,-y,-z
x,y,-z
-x,y,1/2+z
x,-y,1/2+z
loop_
_atom_site_type_symbol
_atom_site_label
_atom_site_fract_x
_atom_site_fract_y
_atom_site_fract_z
Si Si1 0.673067 0.842098 0.356145
Si Si2 0.826907 0.614427 0.186530
Si Si3 0.933757 0.311666 0.410854
Si Si4 0.566172 0.906142 0.089936
Si Si5 0.381421 0.333239 0.792502
Si Si6 0.810159 0.139269 0.805028
Si Si7 0.921933 0.701855 0.590125
Si Si8 0.712539 0.502302 0.089871
O O1 0.642888 0.799143 0.270849
O O2 0.745578 0.920997 0.351190
O O3 0.680498 0.676964 0.407688
O O4 0.627267 0.972362 0.399132
O O5 0.866039 0.500000 0.250000
O O6 0.875785 0.749045 0.146039
O O7 0.781512 0.719622 0.245874
O O8 0.786732 0.505676 0.122696
O O9 0.923108 0.251330 0.500000
O O10 0.919550 0.506456 0.403668
O O11 0.004439 0.252381 0.381791
O O12 0.564763 0.755289 0.152384
O O13 0.500000 0.000000 0.106654
O O14 0.567949 0.838380 0.000000
O O15 0.407708 0.500000 0.750000
O O16 0.324297 0.372818 0.853678
O O17 0.868096 0.203763 0.860266
O O18 0.840536 0.000000 0.750000
O O19 0.912171 0.757514 0.500000
O O20 0.711804 0.565889 0.000000
#
# Coordination Sequence:
#
# PCOD8204379 Si02
#       8
#     8   8   8   8   8   8   8   8
#     4  11  22  41  66  94 131 176 220 273 335 398
#     4  12  20  37  59  89 127 164 217 279 334 387
#     4   9  18  35  61  88 115 158 215 269 323 385
#     4  11  25  45  69 102 141 182 228 274 326 399
#     4  10  21  41  67  96 136 172 222 275 330 393
#     4  12  24  39  59  92 133 165 211 271 333 403
#     4   9  19  37  59  87 119 159 213 267 320 387
#     4  11  21  37  63  97 132 173 222 281 342 396
#
# _framework density 22.533816999999999
#
# number of rings (size 3 to 8) (size 9 to 14) (size 15 to 20)
#    0.000    1.375    3.750    3.375    0.000    3.500 
#    0.000    6.875    0.000    8.250    0.000    0.000 
#    0.000    0.000    0.000    0.000    0.000    0.000 
#
# Total GULP energy -792869.924068 kJ/mol
# GULP energy per Si atom -12388.592564 kJ/mol
# Density = 2.248253 g / cm^3
# Si number density = 22.533817 Si / 1000 Ang^3
#
#
#
# Elastic Constant Matrix: (Units=GPa)
#
#
# Indices 1 2 3 4 5 6 
#
# 1 129.6880 35.0072 57.3553 0.0000 0.0000 0.0000
# 2 35.0072 62.3781 42.5833 0.0000 0.0000 0.0000
# 3 57.3553 42.5833 133.6664 0.0000 0.0000 0.0000
# 4 0.0000 0.0000 0.0000 30.7842 0.0000 0.0000
# 5 0.0000 0.0000 0.0000 0.0000 30.5886 0.0000
# 6 0.0000 0.0000 0.0000 0.0000 0.0000 24.4661
#
#
#
# Elastic Compliance Matrix: (Units=1/GPa)
#
#
# Indices 1 2 3 4 5 6 
#
# 1 0.010066 -0.003451 -0.003220 0.000000 0.000000 0.000000
# 2 -0.003451 0.021670 -0.005423 0.000000 0.000000 0.000000
# 3 -0.003220 -0.005423 0.010591 0.000000 0.000000 0.000000
# 4 0.000000 0.000000 0.000000 0.032484 0.000000 0.000000
# 5 0.000000 0.000000 0.000000 0.000000 0.032692 0.000000
# 6 0.000000 0.000000 0.000000 0.000000 0.000000 0.040873
#
#
# Mechanical properties :
#
#
# Convention : Reuss Voigt Hill
#
# Bulk Modulus (GPa) = 55.12923 66.18046 60.65484
# Shear Modulus (GPa) = 27.99392 29.88690 28.94041
#
# Velocity S-wave (km/s) = 3.52846 3.64581 3.58762
# Velocity P-wave (km/s) = 6.41235 6.86700 6.64357
#
# Compressibility (1/GPa) = 0.01813920
#
# Stress axis : x y z
#
# Youngs Moduli (GPa) = 99.33971 46.14669 94.42389
#
# Poissons Ratio (x) = 0.15926 0.30404
# Poissons Ratio (y) = 0.34285 0.51203
# Poissons Ratio (z) = 0.31987 0.25024
#
# Static dielectric constant tensor:
#      x y z
#    x 4.145590 0.000000 0.000000 
#    y 0.000000 3.877820 0.000000 
#    z 0.000000 0.000000 4.393640 
# 
# 
# High freq. dielectric constant tensor:
#      x y z
#    x 1.880680 0.000000 0.000000 
#    y 0.000000 1.866400 0.000000 
#    z 0.000000 0.000000 1.900220 
# 
# From -- ./inp_files/18336.got.cif
#   From: 2010.03.12/outbox.cif.g09.slc.cpg/sg49_10_cif.got.tgz:18336.got - 2010.04.14 03:58:27.
