data_PCOD8204304
_publ_section_title
;
Structure prediction by ZEFSAII (Michael W. Deem and Ramdas Pophale) SiO2 
 PCOD8204304
Probable space group: P C C M
;
_chemical_formula_sum "Si O2"
_cell_formula_units_Z 48
_cell_length_a 8.746955
_cell_length_b 17.332924
_cell_length_c 14.665432
_cell_angle_alpha 90.000000
_cell_angle_beta 90.000000
_cell_angle_gamma 90.000000
_cell_volume 2223.430637
_symmetry_space_group_name_H-M "P C C M"
_symmetry_group_IT_number 49
_symmetry_cell_setting 'orthorhombic'
loop_
_space_group_symop_operation_xyz
x,y,z
-x,-y,z
x,-y,1/2-z
-x,y,1/2-z
-x,-y,-z
x,y,-z
-x,y,1/2+z
x,-y,1/2+z
loop_
_atom_site_type_symbol
_atom_site_label
_atom_site_fract_x
_atom_site_fract_y
_atom_site_fract_z
Si Si1 0.157743 0.326690 0.599816
Si Si2 0.109560 0.567463 0.602474
Si Si3 0.684035 0.169930 0.900567
Si Si4 0.668259 0.204077 0.392910
Si Si5 0.827723 0.909051 0.239486
Si Si6 0.327073 0.355858 0.776440
O O1 0.218559 0.355132 0.500000
O O2 0.186044 0.235561 0.607453
O O3 0.244173 0.368004 0.680809
O O4 0.979408 0.349960 0.608157
O O5 0.158133 0.546635 0.500000
O O6 0.265336 0.574923 0.659953
O O7 0.000000 0.500000 0.641224
O O8 0.514665 0.202252 0.885262
O O9 0.718481 0.109034 0.823835
O O10 0.694635 0.130169 0.000000
O O11 0.716189 0.214442 0.500000
O O12 0.751038 0.126925 0.352513
O O13 0.713089 0.275610 0.328077
O O14 0.000000 0.876072 0.250000
O O15 0.832357 0.000000 0.250000
O O16 0.500000 0.367260 0.750000
#
# Coordination Sequence:
#
# PCOD8204304 Si02
#       6
#     8   8   8   8   8   8
#     4  10  21  38  63  93 128 169 212 266 319 378
#     4  10  24  45  67  96 135 177 220 265 323 393
#     4  10  21  40  64  92 126 167 217 265 320 383
#     4  11  23  41  66  97 129 168 220 274 328 390
#     4  11  25  42  62  93 131 170 214 267 329 392
#     4  12  22  38  67  99 132 170 219 274 326 388
#
# _framework density 21.588259999999998
#
# number of rings (size 3 to 8) (size 9 to 14) (size 15 to 20)
#    0.000    1.333    3.333    1.500    2.333    4.667 
#    0.000    5.000    0.000    3.000    0.000    0.000 
#    0.000    0.000    0.000    0.000    0.000    0.000 
#
# Total GULP energy -594751.162088 kJ/mol
# GULP energy per Si atom -12390.649210 kJ/mol
# Density = 2.153912 g / cm^3
# Si number density = 21.588260 Si / 1000 Ang^3
#
#
#
# Elastic Constant Matrix: (Units=GPa)
#
#
# Indices 1 2 3 4 5 6 
#
# 1 79.8360 39.0115 51.3586 0.0000 0.0000 0.0000
# 2 39.0115 68.3438 36.5908 0.0000 0.0000 0.0000
# 3 51.3586 36.5908 153.4653 0.0000 0.0000 0.0000
# 4 0.0000 0.0000 0.0000 53.0998 0.0000 0.0000
# 5 0.0000 0.0000 0.0000 0.0000 35.3529 0.0000
# 6 0.0000 0.0000 0.0000 0.0000 0.0000 30.5366
#
#
#
# Elastic Compliance Matrix: (Units=1/GPa)
#
#
# Indices 1 2 3 4 5 6 
#
# 1 0.019750 -0.008867 -0.004496 0.000000 0.000000 0.000000
# 2 -0.008867 0.020754 -0.001981 0.000000 0.000000 0.000000
# 3 -0.004496 -0.001981 0.008493 0.000000 0.000000 0.000000
# 4 0.000000 0.000000 0.000000 0.018832 0.000000 0.000000
# 5 0.000000 0.000000 0.000000 0.000000 0.028286 0.000000
# 6 0.000000 0.000000 0.000000 0.000000 0.000000 0.032748
#
#
# Mechanical properties :
#
#
# Convention : Reuss Voigt Hill
#
# Bulk Modulus (GPa) = 54.61378 61.72966 58.17172
# Shear Modulus (GPa) = 30.18346 35.44349 32.81348
#
# Velocity S-wave (km/s) = 3.74323 4.05630 3.90291
# Velocity P-wave (km/s) = 6.63590 7.11297 6.87857
#
# Compressibility (1/GPa) = 0.01831040
#
# Stress axis : x y z
#
# Youngs Moduli (GPa) = 50.63182 48.18383 117.74527
#
# Poissons Ratio (x) = 0.42724 0.52933
# Poissons Ratio (y) = 0.44895 0.23325
# Poissons Ratio (z) = 0.22762 0.09545
#
# Static dielectric constant tensor:
#      x y z
#    x 4.002270 0.000000 0.000000 
#    y 0.000000 3.665060 0.000000 
#    z 0.000000 0.000000 4.341680 
# 
# 
# High freq. dielectric constant tensor:
#      x y z
#    x 1.845350 0.000000 0.000000 
#    y 0.000000 1.823530 0.000000 
#    z 0.000000 0.000000 1.871540 
# 
# From -- ./inp_files/11841.got.cif
#   From: 2010.03.12/outbox.cif.g09.slc.cpg/sg49_6_cif.got.tgz:11841.got - 2010.04.14 03:58:27.
