data_PCOD8204272
_publ_section_title
;
Structure prediction by ZEFSAII (Michael W. Deem and Ramdas Pophale) SiO2 
 PCOD8204272
Probable space group: P C C M
;
_chemical_formula_sum "Si O2"
_cell_formula_units_Z 56
_cell_length_a 16.602884
_cell_length_b 9.274284
_cell_length_c 17.720355
_cell_angle_alpha 90.000000
_cell_angle_beta 90.000000
_cell_angle_gamma 90.000000
_cell_volume 2728.577807
_symmetry_space_group_name_H-M "P C C M"
_symmetry_group_IT_number 49
_symmetry_cell_setting 'orthorhombic'
loop_
_space_group_symop_operation_xyz
x,y,z
-x,-y,z
x,-y,1/2-z
-x,y,1/2-z
-x,-y,-z
x,y,-z
-x,y,1/2+z
x,-y,1/2+z
loop_
_atom_site_type_symbol
_atom_site_label
_atom_site_fract_x
_atom_site_fract_y
_atom_site_fract_z
Si Si1 0.264097 0.935105 0.083671
Si Si2 0.425123 0.078411 0.670455
Si Si3 0.576015 0.421865 0.169672
Si Si4 0.009446 0.834333 0.339240
Si Si5 0.252790 0.481446 0.839439
Si Si6 0.143659 0.700564 0.910476
Si Si7 0.824315 0.231497 0.414148
O O1 0.344086 0.962301 0.129375
O O2 0.210440 0.811159 0.121832
O O3 0.207362 0.071350 0.081472
O O4 0.290448 0.887955 0.000000
O O5 0.438658 0.250709 0.677033
O O6 0.500000 0.000000 0.627410
O O7 0.418946 0.000000 0.750000
O O8 0.500000 0.500000 0.126925
O O9 0.581953 0.500000 0.250000
O O10 0.662119 0.452942 0.129530
O O11 0.942773 0.734842 0.377205
O O12 0.000000 0.821889 0.250000
O O13 0.093292 0.768441 0.367050
O O14 0.000000 0.000000 0.366014
O O15 0.245456 0.500000 0.750000
O O16 0.174680 0.547889 0.880730
O O17 0.244327 0.316874 0.866718
O O18 0.137452 0.705703 0.000000
O O19 0.836850 0.290605 0.500000
#
# Coordination Sequence:
#
# PCOD8204272 Si02
#       7
#     8   8   8   8   8   8   8
#     4  10  23  40  62  89 127 165 206 256 306 372
#     4  11  23  37  65  97 123 161 213 262 309 374
#     4  10  21  38  59  90 130 164 201 255 318 366
#     4  11  23  39  64  97 128 159 205 264 317 368
#     4  11  24  40  64  93 125 165 209 261 312 369
#     4  11  22  42  65  89 125 169 207 251 314 378
#     4  11  24  42  64  92 126 167 211 254 310 382
#
# _framework density 20.523513000000001
#
# number of rings (size 3 to 8) (size 9 to 14) (size 15 to 20)
#    0.000    1.286    2.857    3.429    6.000    2.571 
#    0.000    2.857    0.000    2.143    0.000    0.000 
#    0.000    0.000    0.000    0.000    0.000    0.000 
#
# Total GULP energy -694193.103361 kJ/mol
# GULP energy per Si atom -12396.305417 kJ/mol
# Density = 2.047680 g / cm^3
# Si number density = 20.523513 Si / 1000 Ang^3
#
#
#
# Elastic Constant Matrix: (Units=GPa)
#
#
# Indices 1 2 3 4 5 6 
#
# 1 148.4964 37.4948 37.5262 0.0000 0.0000 0.0000
# 2 37.4948 77.3736 14.6693 0.0000 0.0000 0.0000
# 3 37.5262 14.6693 73.4692 0.0000 0.0000 0.0000
# 4 0.0000 0.0000 0.0000 28.7380 0.0000 0.0000
# 5 0.0000 0.0000 0.0000 0.0000 34.1504 0.0000
# 6 0.0000 0.0000 0.0000 0.0000 0.0000 39.9831
#
#
#
# Elastic Compliance Matrix: (Units=1/GPa)
#
#
# Indices 1 2 3 4 5 6 
#
# 1 0.008530 -0.003438 -0.003670 0.000000 0.000000 0.000000
# 2 -0.003438 0.014818 -0.001203 0.000000 0.000000 0.000000
# 3 -0.003670 -0.001203 0.015726 0.000000 0.000000 0.000000
# 4 0.000000 0.000000 0.000000 0.034797 0.000000 0.000000
# 5 0.000000 0.000000 0.000000 0.000000 0.029282 0.000000
# 6 0.000000 0.000000 0.000000 0.000000 0.000000 0.025011
#
#
# Mechanical properties :
#
#
# Convention : Reuss Voigt Hill
#
# Bulk Modulus (GPa) = 44.53888 53.19109 48.86498
# Shear Modulus (GPa) = 32.83652 34.55090 33.69371
#
# Velocity S-wave (km/s) = 4.00427 4.10747 4.05620
# Velocity P-wave (km/s) = 6.56715 6.96193 6.76742
#
# Compressibility (1/GPa) = 0.02245229
#
# Stress axis : x y z
#
# Youngs Moduli (GPa) = 117.23781 67.48464 63.58875
#
# Poissons Ratio (x) = 0.23198 0.23339
# Poissons Ratio (y) = 0.40301 0.07649
# Poissons Ratio (z) = 0.43031 0.08118
#
# Static dielectric constant tensor:
#      x y z
#    x 4.449880 0.000000 0.000000 
#    y 0.000000 3.805530 0.000000 
#    z 0.000000 0.000000 3.586790 
# 
# 
# High freq. dielectric constant tensor:
#      x y z
#    x 1.821370 0.000000 0.000000 
#    y 0.000000 1.813870 0.000000 
#    z 0.000000 0.000000 1.782660 
# 
# From -- ./inp_files/20891.got.cif
#   From: 2010.03.12/outbox.cif.g09.slc.cpg/sg49_11_cif.got.tgz:20891.got - 2010.04.14 03:58:27.
