data_PCOD8204581
_publ_section_title
;
Structure prediction by ZEFSAII (Michael W. Deem and Ramdas Pophale) SiO2 
 PCOD8204581
Probable space group: P C C M
;
_chemical_formula_sum "Si O2"
_cell_formula_units_Z 40
_cell_length_a 9.274996
_cell_length_b 26.131513
_cell_length_c 8.532116
_cell_angle_alpha 90.000000
_cell_angle_beta 90.000000
_cell_angle_gamma 90.000000
_cell_volume 2067.926212
_symmetry_space_group_name_H-M "P C C M"
_symmetry_group_IT_number 49
_symmetry_cell_setting 'orthorhombic'
loop_
_space_group_symop_operation_xyz
x,y,z
-x,-y,z
x,-y,1/2-z
-x,y,1/2-z
-x,-y,-z
x,y,-z
-x,y,1/2+z
x,-y,1/2+z
loop_
_atom_site_type_symbol
_atom_site_label
_atom_site_fract_x
_atom_site_fract_y
_atom_site_fract_z
Si Si1 0.159531 0.050129 0.682413
Si Si2 0.657718 0.644088 0.684578
Si Si3 0.159516 0.160616 0.684503
Si Si4 0.846788 0.555653 0.184972
Si Si5 0.161413 0.736283 0.315238
O O1 0.147343 0.042669 0.500000
O O2 0.236040 0.105318 0.719957
O O3 0.000000 0.050785 0.750000
O O4 0.244309 0.000000 0.750000
O O5 0.500000 0.653909 0.750000
O O6 0.653729 0.635885 0.500000
O O7 0.721318 0.593608 0.764223
O O8 0.752525 0.692828 0.726269
O O9 0.155746 0.172433 0.500000
O O10 0.234697 0.208518 0.773342
O O11 0.000000 0.155868 0.750000
O O12 0.808179 0.500000 0.250000
O O13 0.000000 0.575502 0.250000
O O14 0.857563 0.552928 0.000000
O O15 0.164660 0.726135 0.500000
O O16 0.000000 0.735723 0.250000
#
# Coordination Sequence:
#
# PCOD8204581 Si02
#       5
#     8   8   8   8   8
#     4   9  15  21  32  51  81 119 160 202 253 310
#     4  12  25  42  60  83 113 146 182 225 272 323
#     4   9  16  26  40  62  90 125 167 214 261 313
#     4  11  22  40  64  92 120 151 187 225 266 313
#     4  11  21  35  55  79 105 140 181 225 271 321
#
# _framework density 19.343049000000001
#
# number of rings (size 3 to 8) (size 9 to 14) (size 15 to 20)
#    0.000    1.600    0.000    9.600    0.000    2.800 
#    0.000    2.000    0.000    0.000    0.000    0.000 
#    0.000    0.800    0.000    8.400    0.000    7.600 
#
# Total GULP energy -495708.761317 kJ/mol
# GULP energy per Si atom -12392.719033 kJ/mol
# Density = 1.929902 g / cm^3
# Si number density = 19.343049 Si / 1000 Ang^3
#
#
#
# Elastic Constant Matrix: (Units=GPa)
#
#
# Indices 1 2 3 4 5 6 
#
# 1 46.9592 37.1017 18.2784 0.0000 0.0000 0.0000
# 2 37.1017 145.4022 41.9588 0.0000 0.0000 0.0000
# 3 18.2784 41.9588 135.0234 0.0000 0.0000 0.0000
# 4 0.0000 0.0000 0.0000 41.8388 0.0000 0.0000
# 5 0.0000 0.0000 0.0000 0.0000 21.8841 0.0000
# 6 0.0000 0.0000 0.0000 0.0000 0.0000 -0.7055
#
#
#
# Elastic Compliance Matrix: (Units=1/GPa)
#
#
# Indices 1 2 3 4 5 6 
#
# 1 0.027008 -0.006411 -0.001664 0.000000 0.000000 0.000000
# 2 -0.006411 0.009077 -0.001953 0.000000 0.000000 0.000000
# 3 -0.001664 -0.001953 0.008238 0.000000 0.000000 0.000000
# 4 0.000000 0.000000 0.000000 0.023901 0.000000 0.000000
# 5 0.000000 0.000000 0.000000 0.000000 0.045695 0.000000
# 6 0.000000 0.000000 0.000000 0.000000 0.000000 -1.417499
#
#
# Mechanical properties :
#
#
# Convention : Reuss Voigt Hill
#
# Bulk Modulus (GPa) = 41.20756 58.00696 49.60726
# Shear Modulus (GPa) = -3.92023 27.93988 12.00982
#
# Velocity S-wave (km/s) = -1.42516 3.80470 2.49446
# Velocity P-wave (km/s) = 4.31760 7.02529 5.83079
#
# Compressibility (1/GPa) = 0.02426739
#
# Stress axis : x y z
#
# Youngs Moduli (GPa) = 37.02570 110.16894 121.38603
#
# Poissons Ratio (x) = 0.70634 0.20196
# Poissons Ratio (y) = 0.23739 0.23704
# Poissons Ratio (z) = 0.06160 0.21513
#
# Static dielectric constant tensor:
#      x y z
#    x 3.073330 0.000000 0.000000 
#    y 0.000000 4.668630 0.000000 
#    z 0.000000 0.000000 3.771220 
# 
# 
# High freq. dielectric constant tensor:
#      x y z
#    x 1.682020 0.000000 0.000000 
#    y 0.000000 1.790620 0.000000 
#    z 0.000000 0.000000 1.776570 
# 
# From -- ./inp_files/1920.got.cif
#   From: 2010.03.12/outbox.cif.g09.slc.cpg/sg49_1_cif.got.tgz:1920.got - 2010.04.14 03:58:27.
