data_PCOD8204364
_publ_section_title
;
Structure prediction by ZEFSAII (Michael W. Deem and Ramdas Pophale) SiO2 
 PCOD8204364
Probable space group: P C C M
;
_chemical_formula_sum "Si O2"
_cell_formula_units_Z 58
_cell_length_a 17.471201
_cell_length_b 17.631802
_cell_length_c 9.245506
_cell_angle_alpha 90.000000
_cell_angle_beta 90.000000
_cell_angle_gamma 90.000000
_cell_volume 2848.066629
_symmetry_space_group_name_H-M "P C C M"
_symmetry_group_IT_number 49
_symmetry_cell_setting 'orthorhombic'
loop_
_space_group_symop_operation_xyz
x,y,z
-x,-y,z
x,-y,1/2-z
-x,y,1/2-z
-x,-y,-z
x,y,-z
-x,y,1/2+z
x,-y,1/2+z
loop_
_atom_site_type_symbol
_atom_site_label
_atom_site_fract_x
_atom_site_fract_y
_atom_site_fract_z
Si Si1 0.629315 0.074317 0.171092
Si Si2 0.802567 0.071156 0.831103
Si Si3 0.925482 0.646082 0.665410
Si Si4 0.500000 0.500000 0.250000
Si Si5 0.931408 0.824288 0.341220
Si Si6 0.428431 0.763492 0.835264
Si Si7 0.790796 0.574618 0.826135
Si Si8 0.638982 0.395632 0.160699
O O1 0.716356 0.082572 0.221906
O O2 0.594990 0.154111 0.227508
O O3 0.592439 0.000000 0.250000
O O4 0.618959 0.064112 0.000000
O O5 0.849424 0.146072 0.784512
O O6 0.840184 0.000000 0.750000
O O7 0.803457 0.054990 0.000000
O O8 0.920485 0.613109 0.500000
O O9 0.934838 0.734967 0.656804
O O10 0.847460 0.636937 0.758386
O O11 0.000000 0.611585 0.750000
O O12 0.558471 0.442742 0.167142
O O13 0.943604 0.857840 0.500000
O O14 0.000000 0.859603 0.250000
O O15 0.500000 0.732011 0.750000
O O16 0.367879 0.695318 0.818760
O O17 0.451460 0.775001 0.000000
O O18 0.824677 0.500000 0.750000
O O19 0.701353 0.581049 0.780545
O O20 0.795969 0.573589 0.000000
O O21 0.672411 0.411387 0.000000
#
# Coordination Sequence:
#
# PCOD8204364 Si02
#       8
#     8   8   8   2   8   8   8   8
#     4   9  19  36  58  81 112 151 196 242 296 356
#     4   9  18  33  52  76 106 145 191 236 288 344
#     4  10  21  40  65  91 123 161 201 249 306 362
#     4  12  22  40  72  94 130 164 210 248 314 364
#     4   9  19  34  55  80 111 150 190 236 289 349
#     4  10  22  39  60  87 118 155 197 245 299 364
#     4  12  26  43  64  93 125 159 205 251 300 362
#     4  11  24  41  64  94 128 165 205 253 312 368
#
# _framework density 20.364692000000002
#
# number of rings (size 3 to 8) (size 9 to 14) (size 15 to 20)
#    0.000    1.931    1.379    1.862    1.931    3.586 
#    0.000    4.138    0.000    0.000    0.000    0.000 
#    0.000    0.000    0.000    0.000    0.000    0.000 
#
# Total GULP energy -718538.970385 kJ/mol
# GULP energy per Si atom -12388.602938 kJ/mol
# Density = 2.031834 g / cm^3
# Si number density = 20.364692 Si / 1000 Ang^3
#
#
#
# Elastic Constant Matrix: (Units=GPa)
#
#
# Indices 1 2 3 4 5 6 
#
# 1 90.6261 11.3282 44.5456 0.0000 0.0000 0.0000
# 2 11.3282 73.8048 28.1987 0.0000 0.0000 0.0000
# 3 44.5456 28.1987 103.5084 0.0000 0.0000 0.0000
# 4 0.0000 0.0000 0.0000 25.3099 0.0000 0.0000
# 5 0.0000 0.0000 0.0000 0.0000 32.6103 0.0000
# 6 0.0000 0.0000 0.0000 0.0000 0.0000 31.9282
#
#
#
# Elastic Compliance Matrix: (Units=1/GPa)
#
#
# Indices 1 2 3 4 5 6 
#
# 1 0.013997 0.000171 -0.006070 0.000000 0.000000 0.000000
# 2 0.000171 0.015125 -0.004194 0.000000 0.000000 0.000000
# 3 -0.006070 -0.004194 0.013416 0.000000 0.000000 0.000000
# 4 0.000000 0.000000 0.000000 0.039510 0.000000 0.000000
# 5 0.000000 0.000000 0.000000 0.000000 0.030665 0.000000
# 6 0.000000 0.000000 0.000000 0.000000 0.000000 0.031320
#
#
# Mechanical properties :
#
#
# Convention : Reuss Voigt Hill
#
# Bulk Modulus (GPa) = 44.74005 48.45380 46.59693
# Shear Modulus (GPa) = 29.12548 30.22747 29.67647
#
# Velocity S-wave (km/s) = 3.78589 3.85685 3.82154
# Velocity P-wave (km/s) = 6.41309 6.60897 6.51177
#
# Compressibility (1/GPa) = 0.02235134
#
# Stress axis : x y z
#
# Youngs Moduli (GPa) = 71.44576 66.11357 74.53797
#
# Poissons Ratio (x) = -0.01130 0.45245
# Poissons Ratio (y) = -0.01221 0.31262
# Poissons Ratio (z) = 0.43368 0.27729
#
# Static dielectric constant tensor:
#      x y z
#    x 3.708280 0.000000 0.000000 
#    y 0.000000 3.878380 0.000000 
#    z 0.000000 0.000000 3.918060 
# 
# 
# High freq. dielectric constant tensor:
#      x y z
#    x 1.792720 0.000000 0.000000 
#    y 0.000000 1.800510 0.000000 
#    z 0.000000 0.000000 1.791300 
# 
# From -- ./inp_files/5094.got.cif
#   From: 2010.03.12/outbox.cif.g09.slc.cpg/sg49_3_cif.got.tgz:5094.got - 2010.04.14 03:58:27.
