data_PCOD8204388
_publ_section_title
;
Structure prediction by ZEFSAII (Michael W. Deem and Ramdas Pophale) SiO2 
 PCOD8204388
Probable space group: P C C M
;
_chemical_formula_sum "Si O2"
_cell_formula_units_Z 48
_cell_length_a 11.752128
_cell_length_b 11.937598
_cell_length_c 17.094224
_cell_angle_alpha 90.000000
_cell_angle_beta 90.000000
_cell_angle_gamma 90.000000
_cell_volume 2398.185945
_symmetry_space_group_name_H-M "P C C M"
_symmetry_group_IT_number 49
_symmetry_cell_setting 'orthorhombic'
loop_
_space_group_symop_operation_xyz
x,y,z
-x,-y,z
x,-y,1/2-z
-x,y,1/2-z
-x,-y,-z
x,y,-z
-x,y,1/2+z
x,-y,1/2+z
loop_
_atom_site_type_symbol
_atom_site_label
_atom_site_fract_x
_atom_site_fract_y
_atom_site_fract_z
Si Si1 0.899435 0.412699 0.411412
Si Si2 0.832183 0.971829 0.340648
Si Si3 0.671182 0.513195 0.840890
Si Si4 0.515451 0.681009 0.342417
Si Si5 0.406395 0.909044 0.090374
Si Si6 0.967712 0.166398 0.408095
O O1 0.856008 0.399317 0.500000
O O2 0.801366 0.467564 0.360290
O O3 0.936385 0.291215 0.378865
O O4 0.000000 0.500000 0.405296
O O5 0.705571 0.930294 0.358296
O O6 0.920300 0.872810 0.361539
O O7 0.844052 0.000000 0.250000
O O8 0.862553 0.083131 0.390355
O O9 0.651306 0.500000 0.750000
O O10 0.598476 0.618533 0.872713
O O11 0.622658 0.394689 0.871083
O O12 0.500000 0.703835 0.250000
O O13 0.531312 0.794929 0.388156
O O14 0.500000 0.000000 0.111038
O O15 0.370361 0.910816 0.000000
O O16 0.995311 0.165386 0.500000
#
# Coordination Sequence:
#
# PCOD8204388 Si02
#       6
#     8   8   8   8   8   8
#     4  10  23  39  59  89 122 160 204 250 301 359
#     4  11  24  41  64  92 123 159 210 255 309 370
#     4   9  20  41  62  91 121 159 199 249 307 365
#     4   9  21  40  65  88 122 160 201 249 310 363
#     4  11  26  41  60  91 125 162 209 256 308 367
#     4  10  21  42  66  87 126 166 202 254 308 365
#
# _framework density 20.015129999999999
#
# number of rings (size 3 to 8) (size 9 to 14) (size 15 to 20)
#    0.000    2.000    0.000    4.000    7.000    3.000 
#    3.000    1.667    0.000    0.000    0.000    0.000 
#    0.000    0.000    0.000    0.000    0.000    0.000 
#
# Total GULP energy -595140.114114 kJ/mol
# GULP energy per Si atom -12398.752377 kJ/mol
# Density = 1.996957 g / cm^3
# Si number density = 20.015130 Si / 1000 Ang^3
#
#
#
# Elastic Constant Matrix: (Units=GPa)
#
#
# Indices 1 2 3 4 5 6 
#
# 1 107.8426 55.1066 38.9250 0.0000 0.0000 0.0000
# 2 55.1066 151.3337 27.1561 0.0000 0.0000 0.0000
# 3 38.9250 27.1561 50.5730 0.0000 0.0000 0.0000
# 4 0.0000 0.0000 0.0000 21.6561 0.0000 0.0000
# 5 0.0000 0.0000 0.0000 0.0000 31.3371 0.0000
# 6 0.0000 0.0000 0.0000 0.0000 0.0000 16.9641
#
#
#
# Elastic Compliance Matrix: (Units=1/GPa)
#
#
# Indices 1 2 3 4 5 6 
#
# 1 0.014424 -0.003608 -0.009165 0.000000 0.000000 0.000000
# 2 -0.003608 0.008215 -0.001634 0.000000 0.000000 0.000000
# 3 -0.009165 -0.001634 0.027705 0.000000 0.000000 0.000000
# 4 0.000000 0.000000 0.000000 0.046176 0.000000 0.000000
# 5 0.000000 0.000000 0.000000 0.000000 0.031911 0.000000
# 6 0.000000 0.000000 0.000000 0.000000 0.000000 0.058948
#
#
# Mechanical properties :
#
#
# Convention : Reuss Voigt Hill
#
# Bulk Modulus (GPa) = 46.44613 61.34718 53.89665
# Shear Modulus (GPa) = 22.38434 26.56223 24.47329
#
# Velocity S-wave (km/s) = 3.34783 3.64690 3.50056
# Velocity P-wave (km/s) = 6.18060 6.96061 6.58217
#
# Compressibility (1/GPa) = 0.02153032
#
# Stress axis : x y z
#
# Youngs Moduli (GPa) = 69.32716 121.72935 36.09467
#
# Poissons Ratio (x) = 0.43919 0.33080
# Poissons Ratio (y) = 0.25013 0.05899
# Poissons Ratio (z) = 0.63537 0.19893
#
# Static dielectric constant tensor:
#      x y z
#    x 3.568790 0.000000 0.000000 
#    y 0.000000 3.826350 0.000000 
#    z 0.000000 0.000000 3.542400 
# 
# 
# High freq. dielectric constant tensor:
#      x y z
#    x 1.784090 0.000000 0.000000 
#    y 0.000000 1.794760 0.000000 
#    z 0.000000 0.000000 1.773420 
# 
# From -- ./inp_files/17056.got.cif
#   From: 2010.03.12/outbox.cif.g09.slc.cpg/sg49_9_cif.got.tgz:17056.got - 2010.04.14 03:58:27.
