data_PCOD8204329
_publ_section_title
;
Structure prediction by ZEFSAII (Michael W. Deem and Ramdas Pophale) SiO2 
 PCOD8204329
Probable space group: P C C M
;
_chemical_formula_sum "Si O2"
_cell_formula_units_Z 56
_cell_length_a 15.568902
_cell_length_b 10.507770
_cell_length_c 15.628291
_cell_angle_alpha 90.000000
_cell_angle_beta 90.000000
_cell_angle_gamma 90.000000
_cell_volume 2556.701536
_symmetry_space_group_name_H-M "P C C M"
_symmetry_group_IT_number 49
_symmetry_cell_setting 'orthorhombic'
loop_
_space_group_symop_operation_xyz
x,y,z
-x,-y,z
x,-y,1/2-z
-x,y,1/2-z
-x,-y,-z
x,y,-z
-x,y,1/2+z
x,-y,1/2+z
loop_
_atom_site_type_symbol
_atom_site_label
_atom_site_fract_x
_atom_site_fract_y
_atom_site_fract_z
Si Si1 0.899365 0.649016 0.750459
Si Si2 0.209321 0.254056 0.596723
Si Si3 0.362797 0.884125 0.137439
Si Si4 0.329167 0.522825 0.150701
Si Si5 0.219003 0.706603 0.403975
Si Si6 0.371340 0.835908 0.665939
Si Si7 0.515618 0.331732 0.906032
O O1 0.875670 0.500000 0.750000
O O2 0.865315 0.723623 0.666437
O O3 0.860592 0.702076 0.838621
O O4 0.000000 0.672734 0.750000
O O5 0.171700 0.269115 0.500000
O O6 0.262537 0.120822 0.605039
O O7 0.285197 0.350852 0.617047
O O8 0.361702 0.831696 0.233469
O O9 0.424833 0.793239 0.084124
O O10 0.403084 0.026319 0.133039
O O11 0.311806 0.500000 0.250000
O O12 0.283789 0.412114 0.098130
O O13 0.431394 0.544345 0.131358
O O14 0.181616 0.720803 0.500000
O O15 0.278403 0.824798 0.378239
O O16 0.432821 0.713553 0.648658
O O17 0.482621 0.368141 0.000000
#
# Coordination Sequence:
#
# PCOD8204329 Si02
#       7
#     8   8   8   8   8   8   8
#     4  11  23  41  64  96 131 160 196 250 312 378
#     4  11  20  38  66  91 120 160 206 253 309 372
#     4  10  21  39  62  86 117 163 214 257 307 362
#     4  11  20  38  59  83 123 169 210 251 304 364
#     4  12  22  38  62  88 127 168 204 250 305 373
#     4  11  23  39  59  86 122 165 210 258 307 358
#     4  11  23  37  56  88 124 161 212 264 308 358
#
# _framework density 21.903220000000001
#
# number of rings (size 3 to 8) (size 9 to 14) (size 15 to 20)
#    0.000    1.000    4.286    4.714    0.000    5.143 
#    0.000    5.714    0.000    1.714    0.000    2.000 
#    0.000    0.000    0.000    0.000    0.000    0.000 
#
# Total GULP energy -694039.307023 kJ/mol
# GULP energy per Si atom -12393.559054 kJ/mol
# Density = 2.185337 g / cm^3
# Si number density = 21.903220 Si / 1000 Ang^3
#
#
#
# Elastic Constant Matrix: (Units=GPa)
#
#
# Indices 1 2 3 4 5 6 
#
# 1 113.4666 6.9402 45.5599 0.0000 0.0000 0.0000
# 2 6.9402 38.4143 17.5170 0.0000 0.0000 0.0000
# 3 45.5599 17.5170 171.6901 0.0000 0.0000 0.0000
# 4 0.0000 0.0000 0.0000 23.3764 0.0000 0.0000
# 5 0.0000 0.0000 0.0000 0.0000 62.2391 0.0000
# 6 0.0000 0.0000 0.0000 0.0000 0.0000 51.6094
#
#
#
# Elastic Compliance Matrix: (Units=1/GPa)
#
#
# Indices 1 2 3 4 5 6 
#
# 1 0.009878 -0.000618 -0.002558 0.000000 0.000000 0.000000
# 2 -0.000618 0.027341 -0.002625 0.000000 0.000000 0.000000
# 3 -0.002558 -0.002625 0.006771 0.000000 0.000000 0.000000
# 4 0.000000 0.000000 0.000000 0.042778 0.000000 0.000000
# 5 0.000000 0.000000 0.000000 0.000000 0.016067 0.000000
# 6 0.000000 0.000000 0.000000 0.000000 0.000000 0.019376
#
#
# Mechanical properties :
#
#
# Convention : Reuss Voigt Hill
#
# Bulk Modulus (GPa) = 30.87700 51.51169 41.19435
# Shear Modulus (GPa) = 34.57556 44.34859 39.46208
#
# Velocity S-wave (km/s) = 3.97742 4.50461 4.24920
# Velocity P-wave (km/s) = 5.93471 7.11507 6.55153
#
# Compressibility (1/GPa) = 0.03238656
#
# Stress axis : x y z
#
# Youngs Moduli (GPa) = 101.23338 36.57530 147.68497
#
# Poissons Ratio (x) = 0.02261 0.37781
# Poissons Ratio (y) = 0.06257 0.38774
# Poissons Ratio (z) = 0.25898 0.09603
#
# Static dielectric constant tensor:
#      x y z
#    x 3.790910 0.000000 0.000000 
#    y 0.000000 4.993940 0.000000 
#    z 0.000000 0.000000 3.940420 
# 
# 
# High freq. dielectric constant tensor:
#      x y z
#    x 1.837590 0.000000 0.000000 
#    y 0.000000 1.860260 0.000000 
#    z 0.000000 0.000000 1.870380 
# 
# From -- ./inp_files/13547.got.cif
#   From: 2010.03.12/outbox.cif.g09.slc.cpg/sg49_7_cif.got.tgz:13547.got - 2010.04.14 03:58:27.
