data_PCOD8204021
_publ_section_title
;
Structure prediction by ZEFSAII (Michael W. Deem and Ramdas Pophale) SiO2 
 PCOD8204021
Probable space group: P C C M
;
_chemical_formula_sum "Si O2"
_cell_formula_units_Z 56
_cell_length_a 8.763757
_cell_length_b 15.633723
_cell_length_c 19.488232
_cell_angle_alpha 90.000000
_cell_angle_beta 90.000000
_cell_angle_gamma 90.000000
_cell_volume 2670.085577
_symmetry_space_group_name_H-M "P C C M"
_symmetry_group_IT_number 49
_symmetry_cell_setting 'orthorhombic'
loop_
_space_group_symop_operation_xyz
x,y,z
-x,-y,z
x,-y,1/2-z
-x,y,1/2-z
-x,-y,-z
x,y,-z
-x,y,1/2+z
x,-y,1/2+z
loop_
_atom_site_type_symbol
_atom_site_label
_atom_site_fract_x
_atom_site_fract_y
_atom_site_fract_z
Si Si1 0.114776 0.660453 0.192257
Si Si2 0.358995 0.315887 0.077093
Si Si3 0.561494 0.593820 0.677727
Si Si4 0.092911 0.849836 0.183223
Si Si5 0.941572 0.591254 0.922338
Si Si6 0.323762 0.006308 0.331119
Si Si7 0.823692 0.854979 0.082345
O O1 0.256423 0.596214 0.184140
O O2 0.161326 0.758351 0.208282
O O3 0.000000 0.623724 0.250000
O O4 0.025543 0.663873 0.120589
O O5 0.505592 0.336418 0.122888
O O6 0.239775 0.394788 0.085484
O O7 0.282989 0.226422 0.098113
O O8 0.419734 0.310635 0.000000
O O9 0.500000 0.500000 0.658298
O O10 0.500000 0.625102 0.750000
O O11 0.000000 0.888320 0.250000
O O12 0.987359 0.838807 0.116337
O O13 0.236202 0.904637 0.155587
O O14 0.000000 0.500000 0.894607
O O15 0.994191 0.604548 0.000000
O O16 0.243462 0.935554 0.377485
O O17 0.500000 0.000000 0.353528
O O18 0.307121 0.000000 0.250000
O O19 0.838580 0.870820 0.000000
#
# Coordination Sequence:
#
# PCOD8204021 Si02
#       7
#     8   8   8   8   8   8   8
#     4  11  24  40  65  96 129 173 219 273 323 392
#     4  10  22  42  65  93 133 177 219 270 335 396
#     4  11  25  41  62  97 136 174 222 278 337 399
#     4  11  23  42  67  99 129 172 226 271 321 403
#     4  10  20  37  62  90 122 164 217 268 317 384
#     4  11  25  42  67 101 134 174 219 271 332 402
#     4  11  24  44  70  98 134 174 223 283 337 396
#
# _framework density 20.973110999999999
#
# number of rings (size 3 to 8) (size 9 to 14) (size 15 to 20)
#    0.000    1.286    2.857    2.143    4.000    3.714 
#    0.000    0.000    0.000    0.000    0.000    0.000 
#    0.000    0.000    0.000    0.000    0.000    0.000 
#
# Total GULP energy -694071.342075 kJ/mol
# GULP energy per Si atom -12394.131108 kJ/mol
# Density = 2.092538 g / cm^3
# Si number density = 20.973111 Si / 1000 Ang^3
#
#
#
# Elastic Constant Matrix: (Units=GPa)
#
#
# Indices 1 2 3 4 5 6 
#
# 1 123.5596 47.0890 49.5533 0.0000 0.0000 0.0000
# 2 47.0890 98.6721 39.5364 0.0000 0.0000 0.0000
# 3 49.5533 39.5364 112.6577 0.0000 0.0000 0.0000
# 4 0.0000 0.0000 0.0000 24.7658 0.0000 0.0000
# 5 0.0000 0.0000 0.0000 0.0000 35.6250 0.0000
# 6 0.0000 0.0000 0.0000 0.0000 0.0000 29.9849
#
#
#
# Elastic Compliance Matrix: (Units=1/GPa)
#
#
# Indices 1 2 3 4 5 6 
#
# 1 0.010945 -0.003833 -0.003469 0.000000 0.000000 0.000000
# 2 -0.003833 0.013135 -0.002924 0.000000 0.000000 0.000000
# 3 -0.003469 -0.002924 0.011428 0.000000 0.000000 0.000000
# 4 0.000000 0.000000 0.000000 0.040378 0.000000 0.000000
# 5 0.000000 0.000000 0.000000 0.000000 0.028070 0.000000
# 6 0.000000 0.000000 0.000000 0.000000 0.000000 0.033350
#
#
# Mechanical properties :
#
#
# Convention : Reuss Voigt Hill
#
# Bulk Modulus (GPa) = 66.41462 67.47187 66.94325
# Shear Modulus (GPa) = 30.71644 31.32252 31.01948
#
# Velocity S-wave (km/s) = 3.83111 3.86872 3.84996
# Velocity P-wave (km/s) = 7.16277 7.22472 7.19381
#
# Compressibility (1/GPa) = 0.01505692
#
# Stress axis : x y z
#
# Youngs Moduli (GPa) = 91.36184 76.12979 87.50145
#
# Poissons Ratio (x) = 0.29184 0.30355
# Poissons Ratio (y) = 0.35023 0.25582
# Poissons Ratio (z) = 0.31695 0.22257
#
# Static dielectric constant tensor:
#      x y z
#    x 4.129550 0.000000 0.000000 
#    y 0.000000 3.803450 0.000000 
#    z 0.000000 0.000000 3.901540 
# 
# 
# High freq. dielectric constant tensor:
#      x y z
#    x 1.814040 0.000000 0.000000 
#    y 0.000000 1.822160 0.000000 
#    z 0.000000 0.000000 1.828760 
# 
# From -- ./inp_files/19911.got.cif
#   From: 2010.03.12/outbox.cif.g09.slc.cpg/sg49_10_cif.got.tgz:19911.got - 2010.04.14 03:58:27.
