data_PCOD8204513
_publ_section_title
;
Structure prediction by ZEFSAII (Michael W. Deem and Ramdas Pophale) SiO2 
 PCOD8204513
Probable space group: P C C M
;
_chemical_formula_sum "Si O2"
_cell_formula_units_Z 36
_cell_length_a 16.294030
_cell_length_b 5.221878
_cell_length_c 19.321900
_cell_angle_alpha 90.000000
_cell_angle_beta 90.000000
_cell_angle_gamma 90.000000
_cell_volume 1644.012301
_symmetry_space_group_name_H-M "P C C M"
_symmetry_group_IT_number 49
_symmetry_cell_setting 'orthorhombic'
loop_
_space_group_symop_operation_xyz
x,y,z
-x,-y,z
x,-y,1/2-z
-x,y,1/2-z
-x,-y,-z
x,y,-z
-x,y,1/2+z
x,-y,1/2+z
loop_
_atom_site_type_symbol
_atom_site_label
_atom_site_fract_x
_atom_site_fract_y
_atom_site_fract_z
Si Si1 0.309190 0.124408 0.817803
Si Si2 0.181005 0.500000 0.250000
Si Si3 0.903676 0.514376 0.385292
Si Si4 0.813458 0.008305 0.924357
Si Si5 0.553551 0.750418 0.078825
O O1 0.238536 0.295209 0.785743
O O2 0.261189 0.932808 0.870314
O O3 0.374458 0.275835 0.864611
O O4 0.353076 0.000000 0.750000
O O5 0.120046 0.389814 0.308164
O O6 0.866372 0.238205 0.402774
O O7 0.000000 0.500000 0.395432
O O8 0.869217 0.740081 0.433371
O O9 0.774669 0.954427 0.000000
O O10 0.500000 0.500000 0.089125
O O11 0.500000 0.000000 0.095721
O O12 0.587814 0.763825 0.000000
#
# Coordination Sequence:
#
# PCOD8204513 Si02
#       5
#     8   4   8   8   8
#     4  11  23  43  67  95 131 174 216 272 315 392
#     4  10  23  42  61  94 130 166 220 262 327 388
#     4  11  23  40  64  91 128 170 215 273 330 385
#     4  11  24  41  64  94 127 170 219 269 326 384
#     4  10  24  45  69  99 133 170 211 260 326 392
#
# _framework density 21.897646000000002
#
# number of rings (size 3 to 8) (size 9 to 14) (size 15 to 20)
#    0.000    1.333    2.222    2.333    3.111    3.111 
#    0.000    6.667    0.000    0.000    0.000    0.000 
#    0.000    0.000    0.000    0.000    0.000    0.000 
#
# Total GULP energy -446130.933359 kJ/mol
# GULP energy per Si atom -12392.525927 kJ/mol
# Density = 2.184781 g / cm^3
# Si number density = 21.897646 Si / 1000 Ang^3
#
#
#
# Elastic Constant Matrix: (Units=GPa)
#
#
# Indices 1 2 3 4 5 6 
#
# 1 74.1613 21.4319 57.2134 0.0000 0.0000 0.0000
# 2 21.4319 103.4944 15.4226 0.0000 0.0000 0.0000
# 3 57.2134 15.4226 169.9508 0.0000 0.0000 0.0000
# 4 0.0000 0.0000 0.0000 339.7970 0.0000 0.0000
# 5 0.0000 0.0000 0.0000 0.0000 470.4923 0.0000
# 6 0.0000 0.0000 0.0000 0.0000 0.0000 24.8627
#
#
#
# Elastic Compliance Matrix: (Units=1/GPa)
#
#
# Indices 1 2 3 4 5 6 
#
# 1 0.019114 -0.003040 -0.006159 0.000000 0.000000 0.000000
# 2 -0.003040 0.010278 0.000091 0.000000 0.000000 0.000000
# 3 -0.006159 0.000091 0.007949 0.000000 0.000000 0.000000
# 4 0.000000 0.000000 0.000000 0.002943 0.000000 0.000000
# 5 0.000000 0.000000 0.000000 0.000000 0.002125 0.000000
# 6 0.000000 0.000000 0.000000 0.000000 0.000000 0.040221
#
#
# Mechanical properties :
#
#
# Convention : Reuss Voigt Hill
#
# Bulk Modulus (GPa) = 52.28788 59.52691 55.90740
# Shear Modulus (GPa) = 46.63188 183.93297 115.28243
#
# Velocity S-wave (km/s) = 4.61970 9.17491 7.26363
# Velocity P-wave (km/s) = 7.23779 11.81025 9.79458
#
# Compressibility (1/GPa) = 0.01912489
#
# Stress axis : x y z
#
# Youngs Moduli (GPa) = 52.31734 97.29101 125.79944
#
# Poissons Ratio (x) = 0.29581 0.77477
# Poissons Ratio (y) = 0.15907 -0.01142
# Poissons Ratio (z) = 0.32221 -0.00883
#
# Static dielectric constant tensor:
#      x y z
#    x 3.750110 0.000000 0.000000 
#    y 0.000000 4.562620 0.000000 
#    z 0.000000 0.000000 4.767390 
# 
# 
# High freq. dielectric constant tensor:
#      x y z
#    x 1.846270 0.000000 0.000000 
#    y 0.000000 1.854660 0.000000 
#    z 0.000000 0.000000 1.891110 
# 
# From -- ./inp_files/20677.got.cif
#   From: 2010.03.12/outbox.cif.g09.slc.cpg/sg49_11_cif.got.tgz:20677.got - 2010.04.14 03:58:27.
