data_PCOD8204670
_publ_section_title
;
Structure prediction by ZEFSAII (Michael W. Deem and Ramdas Pophale) SiO2 
 PCOD8204670
Probable space group: P C C M
;
_chemical_formula_sum "Si O2"
_cell_formula_units_Z 40
_cell_length_a 9.023995
_cell_length_b 8.374638
_cell_length_c 22.022920
_cell_angle_alpha 90.000000
_cell_angle_beta 90.000000
_cell_angle_gamma 90.000000
_cell_volume 1664.331338
_symmetry_space_group_name_H-M "P C C M"
_symmetry_group_IT_number 49
_symmetry_cell_setting 'orthorhombic'
loop_
_space_group_symop_operation_xyz
x,y,z
-x,-y,z
x,-y,1/2-z
-x,y,1/2-z
-x,-y,-z
x,y,-z
-x,y,1/2+z
x,-y,1/2+z
loop_
_atom_site_type_symbol
_atom_site_label
_atom_site_fract_x
_atom_site_fract_y
_atom_site_fract_z
Si Si1 0.142523 0.393038 0.567024
Si Si2 0.641943 0.404019 0.645771
Si Si3 0.640084 0.888528 0.932580
Si Si4 0.322714 0.184583 0.747428
Si Si5 0.141101 0.098166 0.641438
O O1 0.216680 0.378658 0.500000
O O2 0.251926 0.468906 0.615462
O O3 0.091125 0.215907 0.587467
O O4 0.000000 0.500000 0.562159
O O5 0.500000 0.500000 0.672548
O O6 0.587055 0.280542 0.594280
O O7 0.727908 0.307398 0.699838
O O8 0.500000 0.000000 0.937159
O O9 0.753406 0.961412 0.884780
O O10 0.709252 0.864622 0.000000
O O11 0.500000 0.194335 0.750000
O O12 0.231729 0.222027 0.686076
O O13 0.271041 0.000000 0.750000
O O14 0.000000 0.000000 0.668877
#
# Coordination Sequence:
#
# PCOD8204670 Si02
#       5
#     8   8   8   8   8
#     4  11  26  47  68 102 151 193 236 295 362 425
#     4  12  25  44  74 106 142 186 238 299 362 427
#     4  11  23  42  70 106 147 195 247 298 355 429
#     4  11  24  46  75 102 142 187 235 299 362 435
#     4  12  26  46  75 107 143 195 251 299 357 432
#
# _framework density 24.033674000000001
#
# number of rings (size 3 to 8) (size 9 to 14) (size 15 to 20)
#    0.000    0.600    2.000    6.000    0.000    9.600 
#    0.000    1.000    0.000    0.000    0.000    0.000 
#    0.000    0.000    0.000    0.000    0.000    0.000 
#
# Total GULP energy -495636.355327 kJ/mol
# GULP energy per Si atom -12390.908883 kJ/mol
# Density = 2.397897 g / cm^3
# Si number density = 24.033674 Si / 1000 Ang^3
#
#
#
# Elastic Constant Matrix: (Units=GPa)
#
#
# Indices 1 2 3 4 5 6 
#
# 1 99.2787 28.6684 55.1526 0.0000 0.0000 0.0000
# 2 28.6684 129.2580 56.9966 0.0000 0.0000 0.0000
# 3 55.1526 56.9966 156.2276 0.0000 0.0000 0.0000
# 4 0.0000 0.0000 0.0000 40.4900 0.0000 0.0000
# 5 0.0000 0.0000 0.0000 0.0000 24.2333 0.0000
# 6 0.0000 0.0000 0.0000 0.0000 0.0000 33.3991
#
#
#
# Elastic Compliance Matrix: (Units=1/GPa)
#
#
# Indices 1 2 3 4 5 6 
#
# 1 0.012637 -0.000996 -0.004098 0.000000 0.000000 0.000000
# 2 -0.000996 0.009298 -0.003041 0.000000 0.000000 0.000000
# 3 -0.004098 -0.003041 0.008957 0.000000 0.000000 0.000000
# 4 0.000000 0.000000 0.000000 0.024697 0.000000 0.000000
# 5 0.000000 0.000000 0.000000 0.000000 0.041266 0.000000
# 6 0.000000 0.000000 0.000000 0.000000 0.000000 0.029941
#
#
# Mechanical properties :
#
#
# Convention : Reuss Voigt Hill
#
# Bulk Modulus (GPa) = 68.38484 74.04440 71.21462
# Shear Modulus (GPa) = 33.79781 35.88759 34.84270
#
# Velocity S-wave (km/s) = 3.75409 3.86841 3.81168
# Velocity P-wave (km/s) = 6.87797 7.12940 7.00481
#
# Compressibility (1/GPa) = 0.01462312
#
# Stress axis : x y z
#
# Youngs Moduli (GPa) = 79.13480 107.54856 111.64582
#
# Poissons Ratio (x) = 0.10709 0.45750
# Poissons Ratio (y) = 0.07880 0.33948
# Poissons Ratio (z) = 0.32428 0.32702
#
# Static dielectric constant tensor:
#      x y z
#    x 6.594640 0.000000 0.000000 
#    y 0.000000 4.497360 0.000000 
#    z 0.000000 0.000000 4.930960 
# 
# 
# High freq. dielectric constant tensor:
#      x y z
#    x 1.929450 0.000000 0.000000 
#    y 0.000000 1.976940 0.000000 
#    z 0.000000 0.000000 1.964470 
# 
# From -- ./inp_files/22207.got.cif
#   From: 2010.03.12/outbox.cif.g09.slc.cpg/sg49_12_cif.got.tgz:22207.got - 2010.04.14 03:58:27.
