data_PCOD8204024
_publ_section_title
;
Structure prediction by ZEFSAII (Michael W. Deem and Ramdas Pophale) SiO2 
 PCOD8204024
Probable space group: P C C M
;
_chemical_formula_sum "Si O2"
_cell_formula_units_Z 48
_cell_length_a 9.973817
_cell_length_b 12.289670
_cell_length_c 17.488681
_cell_angle_alpha 90.000000
_cell_angle_beta 90.000000
_cell_angle_gamma 90.000000
_cell_volume 2143.673667
_symmetry_space_group_name_H-M "P C C M"
_symmetry_group_IT_number 49
_symmetry_cell_setting 'orthorhombic'
loop_
_space_group_symop_operation_xyz
x,y,z
-x,-y,z
x,-y,1/2-z
-x,y,1/2-z
-x,-y,-z
x,y,-z
-x,y,1/2+z
x,-y,1/2+z
loop_
_atom_site_type_symbol
_atom_site_label
_atom_site_fract_x
_atom_site_fract_y
_atom_site_fract_z
Si Si1 0.366678 0.254271 0.706598
Si Si2 0.304522 0.412890 0.587641
Si Si3 0.105388 0.916771 0.411610
Si Si4 0.009368 0.321653 0.585953
Si Si5 0.792346 0.410063 0.687551
Si Si6 0.645681 0.022534 0.837755
O O1 0.500000 0.216123 0.750000
O O2 0.404426 0.346553 0.643533
O O3 0.267849 0.301839 0.772769
O O4 0.310080 0.150304 0.658633
O O5 0.354694 0.415321 0.500000
O O6 0.298595 0.536784 0.619435
O O7 0.166472 0.343738 0.596542
O O8 0.128085 0.942235 0.500000
O O9 0.039557 0.800169 0.398053
O O10 0.249067 0.937467 0.373217
O O11 0.000000 0.000000 0.374765
O O12 0.966890 0.357020 0.500000
O O13 0.935778 0.391738 0.649446
O O14 0.816088 0.500000 0.750000
O O15 0.500000 0.000000 0.876987
O O16 0.635176 0.000000 0.750000
#
# Coordination Sequence:
#
# PCOD8204024 Si02
#       6
#     8   8   8   8   8   8
#     4  11  23  41  62  87 123 166 210 263 313 372
#     4  10  22  40  63  91 124 165 206 258 316 376
#     4  10  22  40  63  93 128 165 208 263 322 382
#     4  10  20  37  62  91 127 162 204 258 315 375
#     4  10  22  37  61  90 124 164 210 255 315 374
#     4  11  22  40  65  90 126 166 211 261 317 380
#
# _framework density 22.391469000000001
#
# number of rings (size 3 to 8) (size 9 to 14) (size 15 to 20)
#    0.000    1.667    1.667    3.000    0.000   11.667 
#    0.000    7.500    0.000    0.000    0.000    0.000 
#    0.000    0.000    0.000    0.000    0.000    0.000 
#
# Total GULP energy -594771.725831 kJ/mol
# GULP energy per Si atom -12391.077621 kJ/mol
# Density = 2.234051 g / cm^3
# Si number density = 22.391469 Si / 1000 Ang^3
#
#
#
# Elastic Constant Matrix: (Units=GPa)
#
#
# Indices 1 2 3 4 5 6 
#
# 1 68.7431 22.8757 9.8870 0.0000 0.0000 0.0000
# 2 22.8757 95.3742 16.5565 0.0000 0.0000 0.0000
# 3 9.8870 16.5565 84.0151 0.0000 0.0000 0.0000
# 4 0.0000 0.0000 0.0000 22.8556 0.0000 0.0000
# 5 0.0000 0.0000 0.0000 0.0000 38.5642 0.0000
# 6 0.0000 0.0000 0.0000 0.0000 0.0000 21.3828
#
#
#
# Elastic Compliance Matrix: (Units=1/GPa)
#
#
# Indices 1 2 3 4 5 6 
#
# 1 0.015917 -0.003616 -0.001161 0.000000 0.000000 0.000000
# 2 -0.003616 0.011678 -0.001876 0.000000 0.000000 0.000000
# 3 -0.001161 -0.001876 0.012409 0.000000 0.000000 0.000000
# 4 0.000000 0.000000 0.000000 0.043753 0.000000 0.000000
# 5 0.000000 0.000000 0.000000 0.000000 0.025931 0.000000
# 6 0.000000 0.000000 0.000000 0.000000 0.000000 0.046767
#
#
# Mechanical properties :
#
#
# Convention : Reuss Voigt Hill
#
# Bulk Modulus (GPa) = 37.45475 38.53012 37.99243
# Shear Modulus (GPa) = 27.98624 29.81473 28.90048
#
# Velocity S-wave (km/s) = 3.53917 3.65296 3.59652
# Velocity P-wave (km/s) = 5.78486 5.91921 5.85242
#
# Compressibility (1/GPa) = 0.02669889
#
# Stress axis : x y z
#
# Youngs Moduli (GPa) = 62.82499 85.63096 80.58771
#
# Poissons Ratio (x) = 0.30967 0.09352
# Poissons Ratio (y) = 0.22720 0.15116
# Poissons Ratio (z) = 0.07291 0.16062
#
# Static dielectric constant tensor:
#      x y z
#    x 4.063880 0.000000 0.000000 
#    y 0.000000 4.871620 0.000000 
#    z 0.000000 0.000000 4.220890 
# 
# 
# High freq. dielectric constant tensor:
#      x y z
#    x 1.862790 0.000000 0.000000 
#    y 0.000000 1.896780 0.000000 
#    z 0.000000 0.000000 1.883230 
# 
# From -- ./inp_files/17071.got.cif
#   From: 2010.03.12/outbox.cif.g09.slc.cpg/sg49_9_cif.got.tgz:17071.got - 2010.04.14 03:58:27.
