data_PCOD8204956
_publ_section_title
;
Structure prediction by ZEFSAII (Michael W. Deem and Ramdas Pophale) SiO2 
 PCOD8204956
Probable space group: P B A N
;
_chemical_formula_sum "Si O2"
_cell_formula_units_Z 40
_cell_length_a 17.741344
_cell_length_b 14.052332
_cell_length_c 7.302487
_cell_angle_alpha 90.000000
_cell_angle_beta 90.000000
_cell_angle_gamma 90.000000
_cell_volume 1820.562996
_symmetry_space_group_name_H-M "P B A N"
_symmetry_group_IT_number 50
_space_group.IT_coordinate_system_code '2'
_symmetry_cell_setting 'orthorhombic'
loop_
_space_group_symop_operation_xyz
x,y,z
1/2-x,1/2-y,z
x,1/2-y,-z
1/2-x,y,-z
-x,-y,-z
1/2+x,1/2+y,-z
-x,1/2+y,z
1/2+x,-y,z
loop_
_atom_site_type_symbol
_atom_site_label
_atom_site_fract_x
_atom_site_fract_y
_atom_site_fract_z
Si Si1 0.177452 0.798178 0.695038
Si Si2 0.670293 0.508317 0.444811
Si Si3 0.067920 0.392989 0.158866
Si Si4 0.013309 0.720066 0.291949
Si Si5 0.064955 0.030892 0.221103
O O1 0.250000 0.750000 0.800192
O O2 0.174237 0.750000 0.500000
O O3 0.185983 0.911310 0.666251
O O4 0.097867 0.776303 0.796309
O O5 0.750000 0.554863 0.500000
O O6 0.626533 0.582483 0.317477
O O7 0.625896 0.493168 0.634696
O O8 0.046507 0.281045 0.172510
O O9 0.986312 0.440864 0.177410
O O10 0.103120 0.424843 0.963324
O O11 0.015066 0.750000 0.500000
O O12 0.988782 0.610837 0.305225
#
# Coordination Sequence:
#
# PCOD8204956 Si02
#       5
#     8   8   8   8   8
#     4  10  19  34  62 102 129 166 204 258 326 396
#     4  12  23  41  67  91 134 171 211 263 327 382
#     4  11  24  40  65  96 129 172 218 268 316 381
#     4  11  20  38  70  92 128 167 219 265 327 376
#     4  11  23  42  64  96 130 168 223 267 313 384
#
# _framework density 21.971228
#
# number of rings (size 3 to 8) (size 9 to 14) (size 15 to 20)
#    0.000    1.000    6.000    3.600    0.000    0.800 
#    0.000    2.000    0.000    6.000    0.000    0.000 
#    0.000    0.000    0.000    0.000    0.000    0.000 
#
# Total GULP energy -495759.297099 kJ/mol
# GULP energy per Si atom -12393.982427 kJ/mol
# Density = 2.192122 g / cm^3
# Si number density = 21.971228 Si / 1000 Ang^3
#
#
#
# Elastic Constant Matrix: (Units=GPa)
#
#
# Indices 1 2 3 4 5 6 
#
# 1 116.2919 22.8214 29.0770 0.0000 0.0000 0.0000
# 2 22.8214 69.7477 -7.7280 0.0000 0.0000 0.0000
# 3 29.0770 -7.7280 85.4634 0.0000 0.0000 0.0000
# 4 0.0000 0.0000 0.0000 20.5621 0.0000 0.0000
# 5 0.0000 0.0000 0.0000 0.0000 6.2250 0.0000
# 6 0.0000 0.0000 0.0000 0.0000 0.0000 30.1253
#
#
#
# Elastic Compliance Matrix: (Units=1/GPa)
#
#
# Indices 1 2 3 4 5 6 
#
# 1 0.010307 -0.003799 -0.003850 0.000000 0.000000 0.000000
# 2 -0.003799 0.015883 0.002729 0.000000 0.000000 0.000000
# 3 -0.003850 0.002729 0.013258 0.000000 0.000000 0.000000
# 4 0.000000 0.000000 0.000000 0.048633 0.000000 0.000000
# 5 0.000000 0.000000 0.000000 0.000000 0.160643 0.000000
# 6 0.000000 0.000000 0.000000 0.000000 0.000000 0.033195
#
#
# Mechanical properties :
#
#
# Convention : Reuss Voigt Hill
#
# Bulk Modulus (GPa) = 33.77659 39.98263 36.87961
# Shear Modulus (GPa) = 16.57664 26.53800 21.55732
#
# Velocity S-wave (km/s) = 2.74974 3.47919 3.13575
# Velocity P-wave (km/s) = 5.04856 5.86318 5.47105
#
# Compressibility (1/GPa) = 0.02960631
#
# Stress axis : x y z
#
# Youngs Moduli (GPa) = 97.01834 62.96109 75.42806
#
# Poissons Ratio (x) = 0.23920 0.29043
# Poissons Ratio (y) = 0.36859 -0.20583
# Poissons Ratio (z) = 0.37356 -0.17181
#
# Static dielectric constant tensor:
#      x y z
#    x 4.639870 0.000000 0.000000 
#    y 0.000000 3.903780 0.000000 
#    z 0.000000 0.000000 3.904070 
# 
# 
# High freq. dielectric constant tensor:
#      x y z
#    x 1.850880 0.000000 0.000000 
#    y 0.000000 1.865060 0.000000 
#    z 0.000000 0.000000 1.854390 
# 
# From -- ./inp_files/12575.got.cif
#   From: 2010.03.12/outbox.cif.g09.slc.cpg/sg50_7_cif.got.tgz:12575.got - 2010.04.16 13:23:21.
