data_PCOD8204405
_publ_section_title
;
Structure prediction by ZEFSAII (Michael W. Deem and Ramdas Pophale) SiO2 
 PCOD8204405
Probable space group: P C C M
;
_chemical_formula_sum "Si O2"
_cell_formula_units_Z 40
_cell_length_a 25.807897
_cell_length_b 9.270843
_cell_length_c 8.717428
_cell_angle_alpha 90.000000
_cell_angle_beta 90.000000
_cell_angle_gamma 90.000000
_cell_volume 2085.740203
_symmetry_space_group_name_H-M "P C C M"
_symmetry_group_IT_number 49
_symmetry_cell_setting 'orthorhombic'
loop_
_space_group_symop_operation_xyz
x,y,z
-x,-y,z
x,-y,1/2-z
-x,y,1/2-z
-x,-y,-z
x,y,-z
-x,y,1/2+z
x,-y,1/2+z
loop_
_atom_site_type_symbol
_atom_site_label
_atom_site_fract_x
_atom_site_fract_y
_atom_site_fract_z
Si Si1 0.836639 0.657077 0.819824
Si Si2 0.257681 0.843944 0.680065
Si Si3 0.643267 0.344020 0.318405
Si Si4 0.049806 0.657563 0.678965
Si Si5 0.556318 0.848818 0.317151
O O1 0.828794 0.500000 0.750000
O O2 0.793499 0.765282 0.752614
O O3 0.893695 0.725284 0.782290
O O4 0.829301 0.637528 0.000000
O O5 0.252645 0.861129 0.500000
O O6 0.307652 0.752314 0.726390
O O7 0.263471 0.000000 0.750000
O O8 0.654099 0.500000 0.250000
O O9 0.634184 0.351643 0.500000
O O10 0.592997 0.279769 0.236205
O O11 0.050317 0.500000 0.750000
O O12 0.040790 0.646904 0.500000
O O13 0.000000 0.743986 0.750000
O O14 0.500000 0.815434 0.250000
O O15 0.553888 0.858239 0.500000
O O16 0.577604 0.000000 0.250000
#
# Coordination Sequence:
#
# PCOD8204405 Si02
#       5
#     8   8   8   8   8
#     4   9  18  32  50  75 104 135 171 216 263 312
#     4  10  22  38  56  78 106 139 178 220 266 320
#     4  11  23  39  59  85 114 145 182 226 274 324
#     4   9  15  24  41  66  98 130 165 207 255 307
#     4  11  22  39  62  88 118 152 189 227 268 318
#
# _framework density 19.177845000000001
#
# number of rings (size 3 to 8) (size 9 to 14) (size 15 to 20)
#    0.000    2.000    0.000    5.400    0.000    5.200 
#    0.000    2.000    0.000    0.600    0.000    4.200 
#    0.000    0.000    0.000    0.000    0.000    0.000 
#
# Total GULP energy -495865.639795 kJ/mol
# GULP energy per Si atom -12396.640995 kJ/mol
# Density = 1.913420 g / cm^3
# Si number density = 19.177845 Si / 1000 Ang^3
#
#
#
# Elastic Constant Matrix: (Units=GPa)
#
#
# Indices 1 2 3 4 5 6 
#
# 1 147.3353 75.8016 60.9444 0.0000 0.0000 0.0000
# 2 75.8016 122.7035 46.4921 0.0000 0.0000 0.0000
# 3 60.9444 46.4921 95.1310 0.0000 0.0000 0.0000
# 4 0.0000 0.0000 0.0000 28.2153 0.0000 0.0000
# 5 0.0000 0.0000 0.0000 0.0000 26.9344 0.0000
# 6 0.0000 0.0000 0.0000 0.0000 0.0000 20.9613
#
#
#
# Elastic Compliance Matrix: (Units=1/GPa)
#
#
# Indices 1 2 3 4 5 6 
#
# 1 0.011479 -0.005283 -0.004772 0.000000 0.000000 0.000000
# 2 -0.005283 0.012434 -0.002692 0.000000 0.000000 0.000000
# 3 -0.004772 -0.002692 0.014884 0.000000 0.000000 0.000000
# 4 0.000000 0.000000 0.000000 0.035442 0.000000 0.000000
# 5 0.000000 0.000000 0.000000 0.000000 0.037127 0.000000
# 6 0.000000 0.000000 0.000000 0.000000 0.000000 0.047707
#
#
# Mechanical properties :
#
#
# Convention : Reuss Voigt Hill
#
# Bulk Modulus (GPa) = 75.17084 81.29398 78.23241
# Shear Modulus (GPa) = 26.45476 27.35099 26.90288
#
# Velocity S-wave (km/s) = 3.71812 3.78057 3.74947
# Velocity P-wave (km/s) = 7.59699 7.84465 7.72181
#
# Compressibility (1/GPa) = 0.01330303
#
# Stress axis : x y z
#
# Youngs Moduli (GPa) = 87.11257 80.42778 67.18436
#
# Poissons Ratio (x) = 0.42494 0.32060
# Poissons Ratio (y) = 0.46025 0.18084
# Poissons Ratio (z) = 0.41570 0.21649
#
# Static dielectric constant tensor:
#      x y z
#    x 4.374830 0.000000 0.000000 
#    y 0.000000 3.527530 0.000000 
#    z 0.000000 0.000000 3.561540 
# 
# 
# High freq. dielectric constant tensor:
#      x y z
#    x 1.773570 0.000000 0.000000 
#    y 0.000000 1.714940 0.000000 
#    z 0.000000 0.000000 1.752300 
# 
# From -- ./inp_files/1682.got.cif
#   From: 2010.03.12/outbox.cif.g09.slc.cpg/sg49_1_cif.got.tgz:1682.got - 2010.04.14 03:58:27.
