data_PCOD8204866
_publ_section_title
;
Structure prediction by ZEFSAII (Michael W. Deem and Ramdas Pophale) SiO2 
 PCOD8204866
Probable space group: P B A N
;
_chemical_formula_sum "Si O2"
_cell_formula_units_Z 44
_cell_length_a 26.220448
_cell_length_b 19.094622
_cell_length_c 5.198533
_cell_angle_alpha 90.000000
_cell_angle_beta 90.000000
_cell_angle_gamma 90.000000
_cell_volume 2602.747143
_symmetry_space_group_name_H-M "P B A N"
_symmetry_group_IT_number 50
_space_group.IT_coordinate_system_code '2'
_symmetry_cell_setting 'orthorhombic'
loop_
_space_group_symop_operation_xyz
x,y,z
1/2-x,1/2-y,z
x,1/2-y,-z
1/2-x,y,-z
-x,-y,-z
1/2+x,1/2+y,-z
-x,1/2+y,z
1/2+x,-y,z
loop_
_atom_site_type_symbol
_atom_site_label
_atom_site_fract_x
_atom_site_fract_y
_atom_site_fract_z
Si Si1 0.065323 0.814247 0.148573
Si Si2 0.443576 0.457141 0.205345
Si Si3 0.015981 0.086966 0.707275
Si Si4 0.149762 0.750000 0.500000
Si Si5 0.191572 0.605240 0.464769
Si Si6 0.366938 0.933240 0.974974
O O1 0.114039 0.780786 0.281894
O O2 0.087403 0.877153 0.967823
O O3 0.024037 0.849307 0.341289
O O4 0.038256 0.750000 0.000000
O O5 0.442109 0.414914 0.476976
O O6 0.487851 0.513070 0.258610
O O7 0.390832 0.493061 0.116428
O O8 0.456570 0.401111 0.981882
O O9 0.185314 0.687448 0.389994
O O10 0.250000 0.584236 0.500000
O O11 0.166913 0.592166 0.739638
O O12 0.165862 0.558830 0.237039
#
# Coordination Sequence:
#
# PCOD8204866 Si02
#       6
#     8   8   8   4   8   8
#     4  10  19  30  45  64  91 122 157 189 237 275
#     4   9  17  31  44  64  82 109 146 192 239 271
#     4   9  18  27  46  64  85 108 148 193 225 275
#     4  10  21  32  44  60  94 126 158 194 235 270
#     4  11  21  33  47  66  86 118 160 201 241 282
#     4  10  20  33  49  62  87 117 152 199 245 283
#
# _framework density 16.905215999999999
#
# number of rings (size 3 to 8) (size 9 to 14) (size 15 to 20)
#    0.000    2.182    1.818    1.909    2.545    4.364 
#    0.000    1.818    0.000    0.000    0.000    0.000 
#    0.000    0.000    0.000    0.000    0.000   25.455 
#
# Total GULP energy -545110.069649 kJ/mol
# GULP energy per Si atom -12388.865219 kJ/mol
# Density = 1.686674 g / cm^3
# Si number density = 16.905216 Si / 1000 Ang^3
#
#
#
# Elastic Constant Matrix: (Units=GPa)
#
#
# Indices 1 2 3 4 5 6 
#
# 1 67.8565 30.3594 30.5299 0.0000 0.0000 0.0000
# 2 30.3594 30.9983 22.6887 0.0000 0.0000 0.0000
# 3 30.5299 22.6887 107.4425 0.0000 0.0000 0.0000
# 4 0.0000 0.0000 0.0000 16.5739 0.0000 0.0000
# 5 0.0000 0.0000 0.0000 0.0000 19.3224 0.0000
# 6 0.0000 0.0000 0.0000 0.0000 0.0000 16.1349
#
#
#
# Elastic Compliance Matrix: (Units=1/GPa)
#
#
# Indices 1 2 3 4 5 6 
#
# 1 0.026765 -0.024421 -0.002448 0.000000 0.000000 0.000000
# 2 -0.024421 0.060440 -0.005824 0.000000 0.000000 0.000000
# 3 -0.002448 -0.005824 0.011233 0.000000 0.000000 0.000000
# 4 0.000000 0.000000 0.000000 0.060336 0.000000 0.000000
# 5 0.000000 0.000000 0.000000 0.000000 0.051754 0.000000
# 6 0.000000 0.000000 0.000000 0.000000 0.000000 0.061978
#
#
# Mechanical properties :
#
#
# Convention : Reuss Voigt Hill
#
# Bulk Modulus (GPa) = 30.25598 41.49482 35.87540
# Shear Modulus (GPa) = 14.33043 18.58752 16.45897
#
# Velocity S-wave (km/s) = 2.91467 3.31949 3.12365
# Velocity P-wave (km/s) = 5.40956 6.26824 5.85467
#
# Compressibility (1/GPa) = 0.03305132
#
# Stress axis : x y z
#
# Youngs Moduli (GPa) = 37.36275 16.54524 89.02498
#
# Poissons Ratio (x) = 0.40405 0.21795
# Poissons Ratio (y) = 0.91244 0.51848
# Poissons Ratio (z) = 0.09147 0.09636
#
# Static dielectric constant tensor:
#      x y z
#    x 2.960670 0.000000 0.000000 
#    y 0.000000 3.074900 0.000000 
#    z 0.000000 0.000000 3.587970 
# 
# 
# High freq. dielectric constant tensor:
#      x y z
#    x 1.614280 0.000000 0.000000 
#    y 0.000000 1.606780 0.000000 
#    z 0.000000 0.000000 1.666600 
# 
# From -- ./inp_files/5969.got.cif
#   From: 2010.03.12/outbox.cif.g09.slc.cpg/sg50_3_cif.got.tgz:5969.got - 2010.04.16 13:23:21.
