data_PCOD8204261
_publ_section_title
;
Structure prediction by ZEFSAII (Michael W. Deem and Ramdas Pophale) SiO2 
 PCOD8204261
Probable space group: P C C M
;
_chemical_formula_sum "Si O2"
_cell_formula_units_Z 56
_cell_length_a 10.308581
_cell_length_b 18.449646
_cell_length_c 14.547105
_cell_angle_alpha 90.000000
_cell_angle_beta 90.000000
_cell_angle_gamma 90.000000
_cell_volume 2766.709102
_symmetry_space_group_name_H-M "P C C M"
_symmetry_group_IT_number 49
_symmetry_cell_setting 'orthorhombic'
loop_
_space_group_symop_operation_xyz
x,y,z
-x,-y,z
x,-y,1/2-z
-x,y,1/2-z
-x,-y,-z
x,y,-z
-x,y,1/2+z
x,-y,1/2+z
loop_
_atom_site_type_symbol
_atom_site_label
_atom_site_fract_x
_atom_site_fract_y
_atom_site_fract_z
Si Si1 0.791263 0.415422 0.750256
Si Si2 0.651770 0.275633 0.750223
Si Si3 0.999401 0.584744 0.898512
Si Si4 0.004996 0.917999 0.391548
Si Si5 0.737904 0.168747 0.391556
Si Si6 0.502627 0.078840 0.893280
Si Si7 0.756005 0.169085 0.893306
O O1 0.749223 0.500000 0.750000
O O2 0.666722 0.362976 0.751454
O O3 0.873531 0.394520 0.840683
O O4 0.871949 0.394768 0.659047
O O5 0.500000 0.256966 0.750000
O O6 0.728443 0.245212 0.660882
O O7 0.723112 0.242347 0.839320
O O8 0.000000 0.500000 0.913046
O O9 0.999296 0.622750 0.000000
O O10 0.992219 0.924047 0.500000
O O11 0.885857 0.869359 0.354412
O O12 0.136697 0.877641 0.362623
O O13 0.000000 0.000000 0.350304
O O14 0.734370 0.184274 0.500000
O O15 0.613202 0.126251 0.351274
O O16 0.641888 0.112442 0.875650
O O17 0.500000 0.000000 0.846448
O O18 0.469116 0.071511 0.000000
O O19 0.769861 0.190068 0.000000
#
# Coordination Sequence:
#
# PCOD8204261 Si02
#       7
#     8   8   8   8   8   8   8
#     4   9  20  37  59  88 117 149 192 240 290 349
#     4  12  25  40  57  79 113 156 200 245 291 348
#     4   8  15  33  61  90 117 141 173 226 288 348
#     4   9  18  35  60  88 118 151 188 237 293 345
#     4  10  21  38  58  83 115 151 191 237 293 348
#     4   9  16  31  57  81 106 146 190 230 276 337
#     4  10  21  38  58  83 115 151 191 237 293 348
#
# _framework density 20.240653999999999
#
# number of rings (size 3 to 8) (size 9 to 14) (size 15 to 20)
#    0.000    2.429    1.429    1.714    0.000    7.714 
#    0.000    5.714    0.000    0.000    0.000    6.000 
#    0.000    0.000    0.000    0.000    0.000    0.000 
#
# Total GULP energy -694079.562180 kJ/mol
# GULP energy per Si atom -12394.277896 kJ/mol
# Density = 2.019459 g / cm^3
# Si number density = 20.240654 Si / 1000 Ang^3
#
#
#
# Elastic Constant Matrix: (Units=GPa)
#
#
# Indices 1 2 3 4 5 6 
#
# 1 113.1801 47.2832 27.6330 0.0000 0.0000 0.0000
# 2 47.2832 124.8581 32.7031 0.0000 0.0000 0.0000
# 3 27.6330 32.7031 108.0778 0.0000 0.0000 0.0000
# 4 0.0000 0.0000 0.0000 22.7553 0.0000 0.0000
# 5 0.0000 0.0000 0.0000 0.0000 9.1883 0.0000
# 6 0.0000 0.0000 0.0000 0.0000 0.0000 36.4019
#
#
#
# Elastic Compliance Matrix: (Units=1/GPa)
#
#
# Indices 1 2 3 4 5 6 
#
# 1 0.010760 -0.003643 -0.001649 0.000000 0.000000 0.000000
# 2 -0.003643 0.009932 -0.002074 0.000000 0.000000 0.000000
# 3 -0.001649 -0.002074 0.010302 0.000000 0.000000 0.000000
# 4 0.000000 0.000000 0.000000 0.043946 0.000000 0.000000
# 5 0.000000 0.000000 0.000000 0.000000 0.108834 0.000000
# 6 0.000000 0.000000 0.000000 0.000000 0.000000 0.027471
#
#
# Mechanical properties :
#
#
# Convention : Reuss Voigt Hill
#
# Bulk Modulus (GPa) = 61.49155 62.37273 61.93214
# Shear Modulus (GPa) = 21.60796 29.56889 25.58842
#
# Velocity S-wave (km/s) = 3.27089 3.82627 3.55943
# Velocity P-wave (km/s) = 6.68664 7.09950 6.89616
#
# Compressibility (1/GPa) = 0.01626240
#
# Stress axis : x y z
#
# Youngs Moduli (GPa) = 92.93758 100.68641 97.07164
#
# Poissons Ratio (x) = 0.36679 0.16005
# Poissons Ratio (y) = 0.33856 0.20131
# Poissons Ratio (z) = 0.15323 0.20881
#
# Static dielectric constant tensor:
#      x y z
#    x 3.596100 0.000000 0.000000 
#    y 0.000000 3.495750 0.000000 
#    z 0.000000 0.000000 4.045870 
# 
# 
# High freq. dielectric constant tensor:
#      x y z
#    x 1.784110 0.000000 0.000000 
#    y 0.000000 1.778020 0.000000 
#    z 0.000000 0.000000 1.790020 
# 
# From -- ./inp_files/11984.got.cif
#   From: 2010.03.12/outbox.cif.g09.slc.cpg/sg49_6_cif.got.tgz:11984.got - 2010.04.14 03:58:27.
