data_PCOD8204992
_publ_section_title
;
Structure prediction by ZEFSAII (Michael W. Deem and Ramdas Pophale) SiO2 
 PCOD8204992
Probable space group: P B A N
;
_chemical_formula_sum "Si O2"
_cell_formula_units_Z 42
_cell_length_a 9.151751
_cell_length_b 13.851405
_cell_length_c 16.495253
_cell_angle_alpha 90.000000
_cell_angle_beta 90.000000
_cell_angle_gamma 90.000000
_cell_volume 2091.014306
_symmetry_space_group_name_H-M "P B A N"
_symmetry_group_IT_number 50
_space_group.IT_coordinate_system_code '2'
_symmetry_cell_setting 'orthorhombic'
loop_
_space_group_symop_operation_xyz
x,y,z
1/2-x,1/2-y,z
x,1/2-y,-z
1/2-x,y,-z
-x,-y,-z
1/2+x,1/2+y,-z
-x,1/2+y,z
1/2+x,-y,z
loop_
_atom_site_type_symbol
_atom_site_label
_atom_site_fract_x
_atom_site_fract_y
_atom_site_fract_z
Si Si1 0.629607 0.822080 0.689308
Si Si2 0.118996 0.374055 0.134885
Si Si3 0.105646 0.544050 0.307683
Si Si4 0.586427 0.278463 0.414487
Si Si5 0.250000 0.250000 0.000000
Si Si6 0.147529 0.982746 0.195281
O O1 0.750000 0.750000 0.650246
O O2 0.628974 0.806897 0.785887
O O3 0.474613 0.788184 0.656512
O O4 0.649865 0.934576 0.666238
O O5 0.250881 0.451277 0.138515
O O6 0.956231 0.420518 0.135683
O O7 0.139468 0.312736 0.054014
O O8 0.077774 0.608764 0.387567
O O9 0.243021 0.581080 0.252520
O O10 0.957874 0.545568 0.254193
O O11 0.750000 0.250000 0.426463
O O12 0.506353 0.250000 0.500000
#
# Coordination Sequence:
#
# PCOD8204992 Si02
#       6
#     8   8   8   8   2   8
#     4  10  20  38  62  82 115 157 203 245 296 361
#     4  10  20  37  59  86 114 154 196 244 296 359
#     4  10  19  36  61  88 112 157 205 243 291 363
#     4  11  23  36  54  87 122 154 195 247 303 347
#     4  12  24  32  60  94 122 146 188 258 300 352
#     4   8  18  37  63  82 111 158 201 234 291 362
#
# _framework density 20.085944999999999
#
# number of rings (size 3 to 8) (size 9 to 14) (size 15 to 20)
#    0.000    2.476    0.952    4.571    0.000    1.905 
#    0.000    1.905    0.000    4.571    0.000    0.000 
#    0.000    0.000    0.000    0.000    0.000    0.000 
#
# Total GULP energy -520298.830371 kJ/mol
# GULP energy per Si atom -12388.067390 kJ/mol
# Density = 2.004023 g / cm^3
# Si number density = 20.085945 Si / 1000 Ang^3
#
#
#
# Elastic Constant Matrix: (Units=GPa)
#
#
# Indices 1 2 3 4 5 6 
#
# 1 112.7141 33.5127 40.1284 0.0000 0.0000 0.0000
# 2 33.5127 116.1190 68.5777 0.0000 0.0000 0.0000
# 3 40.1284 68.5777 123.6456 0.0000 0.0000 0.0000
# 4 0.0000 0.0000 0.0000 45.2810 0.0000 0.0000
# 5 0.0000 0.0000 0.0000 0.0000 25.3973 0.0000
# 6 0.0000 0.0000 0.0000 0.0000 0.0000 22.1900
#
#
#
# Elastic Compliance Matrix: (Units=1/GPa)
#
#
# Indices 1 2 3 4 5 6 
#
# 1 0.010197 -0.001470 -0.002494 0.000000 0.000000 0.000000
# 2 -0.001470 0.013019 -0.006743 0.000000 0.000000 0.000000
# 3 -0.002494 -0.006743 0.012637 0.000000 0.000000 0.000000
# 4 0.000000 0.000000 0.000000 0.022084 0.000000 0.000000
# 5 0.000000 0.000000 0.000000 0.000000 0.039374 0.000000
# 6 0.000000 0.000000 0.000000 0.000000 0.000000 0.045065
#
#
# Mechanical properties :
#
#
# Convention : Reuss Voigt Hill
#
# Bulk Modulus (GPa) = 69.26256 70.76848 70.01552
# Shear Modulus (GPa) = 29.65518 32.59098 31.12308
#
# Velocity S-wave (km/s) = 3.84658 4.03249 3.94063
# Velocity P-wave (km/s) = 7.36792 7.54921 7.45912
#
# Compressibility (1/GPa) = 0.01443781
#
# Stress axis : x y z
#
# Youngs Moduli (GPa) = 98.06796 76.81272 79.13133
#
# Poissons Ratio (x) = 0.11291 0.19736
# Poissons Ratio (y) = 0.14416 0.53362
# Poissons Ratio (z) = 0.24459 0.51799
#
# Static dielectric constant tensor:
#      x y z
#    x 3.815670 0.000000 0.000000 
#    y 0.000000 3.924910 0.000000 
#    z 0.000000 0.000000 3.535870 
# 
# 
# High freq. dielectric constant tensor:
#      x y z
#    x 1.799880 0.000000 0.000000 
#    y 0.000000 1.772440 0.000000 
#    z 0.000000 0.000000 1.756760 
# 
# From -- ./inp_files/24749.got.cif
#   From: 2010.03.12/outbox.cif.g09.slc.cpg/sg50_13_cif.got.tgz:24749.got - 2010.04.16 13:23:21.
