data_PCOD8204453
_publ_section_title
;
Structure prediction by ZEFSAII (Michael W. Deem and Ramdas Pophale) SiO2 
 PCOD8204453
Probable space group: P C C M
;
_chemical_formula_sum "Si O2"
_cell_formula_units_Z 48
_cell_length_a 9.640798
_cell_length_b 13.289123
_cell_length_c 17.391375
_cell_angle_alpha 90.000000
_cell_angle_beta 90.000000
_cell_angle_gamma 90.000000
_cell_volume 2228.143842
_symmetry_space_group_name_H-M "P C C M"
_symmetry_group_IT_number 49
_symmetry_cell_setting 'orthorhombic'
loop_
_space_group_symop_operation_xyz
x,y,z
-x,-y,z
x,-y,1/2-z
-x,y,1/2-z
-x,-y,-z
x,y,-z
-x,y,1/2+z
x,-y,1/2+z
loop_
_atom_site_type_symbol
_atom_site_label
_atom_site_fract_x
_atom_site_fract_y
_atom_site_fract_z
Si Si1 0.687918 0.110110 0.913027
Si Si2 0.600044 0.413906 0.409360
Si Si3 0.447697 0.788361 0.329857
Si Si4 0.908779 0.590220 0.091508
Si Si5 0.021461 0.195068 0.410520
Si Si6 0.805386 0.933058 0.826854
O O1 0.557897 0.129236 0.858168
O O2 0.812646 0.190082 0.899778
O O3 0.745140 0.999483 0.895817
O O4 0.634628 0.113815 0.000000
O O5 0.500000 0.500000 0.373515
O O6 0.601609 0.426043 0.500000
O O7 0.550317 0.301731 0.390714
O O8 0.754481 0.426302 0.375437
O O9 0.500000 0.742287 0.250000
O O10 0.298638 0.839369 0.315956
O O11 0.971471 0.696248 0.118751
O O12 0.000000 0.500000 0.126103
O O13 0.908236 0.586619 0.000000
O O14 0.980363 0.176186 0.500000
O O15 0.952987 0.110632 0.355381
O O16 0.822835 0.000000 0.750000
#
# Coordination Sequence:
#
# PCOD8204453 Si02
#       6
#     8   8   8   8   8   8
#     4  11  25  40  64  96 129 173 222 277 328 389
#     4  10  22  40  68 100 127 165 217 270 329 397
#     4  12  25  44  64  93 133 174 220 270 330 398
#     4   9  18  35  62  94 129 161 200 263 329 389
#     4  10  22  41  65  98 133 170 220 273 331 392
#     4  12  24  43  64  93 131 178 227 270 327 397
#
# _framework density 21.542596
#
# number of rings (size 3 to 8) (size 9 to 14) (size 15 to 20)
#    0.000    1.333    3.333    2.000    2.333    5.667 
#    0.000    0.000    0.000    0.000    0.000    0.000 
#    0.000    0.000    0.000    0.000    0.000    0.167 
#
# Total GULP energy -595297.633131 kJ/mol
# GULP energy per Si atom -12402.034024 kJ/mol
# Density = 2.149356 g / cm^3
# Si number density = 21.542596 Si / 1000 Ang^3
#
#
#
# Elastic Constant Matrix: (Units=GPa)
#
#
# Indices 1 2 3 4 5 6 
#
# 1 65.4659 9.1041 22.3266 0.0000 0.0000 0.0000
# 2 9.1041 102.9280 15.5576 0.0000 0.0000 0.0000
# 3 22.3266 15.5576 54.6116 0.0000 0.0000 0.0000
# 4 0.0000 0.0000 0.0000 28.0818 0.0000 0.0000
# 5 0.0000 0.0000 0.0000 0.0000 26.0016 0.0000
# 6 0.0000 0.0000 0.0000 0.0000 0.0000 37.5565
#
#
#
# Elastic Compliance Matrix: (Units=1/GPa)
#
#
# Indices 1 2 3 4 5 6 
#
# 1 0.017774 -0.000495 -0.007125 0.000000 0.000000 0.000000
# 2 -0.000495 0.010166 -0.002694 0.000000 0.000000 0.000000
# 3 -0.007125 -0.002694 0.021992 0.000000 0.000000 0.000000
# 4 0.000000 0.000000 0.000000 0.035610 0.000000 0.000000
# 5 0.000000 0.000000 0.000000 0.000000 0.038459 0.000000
# 6 0.000000 0.000000 0.000000 0.000000 0.000000 0.026627
#
#
# Mechanical properties :
#
#
# Convention : Reuss Voigt Hill
#
# Bulk Modulus (GPa) = 34.12568 35.22024 34.67296
# Shear Modulus (GPa) = 27.62055 30.06246 28.84151
#
# Velocity S-wave (km/s) = 3.58458 3.73968 3.66295
# Velocity P-wave (km/s) = 5.74523 5.91874 5.83263
#
# Compressibility (1/GPa) = 0.02930345
#
# Stress axis : x y z
#
# Youngs Moduli (GPa) = 56.26174 98.36239 45.47189
#
# Poissons Ratio (x) = 0.04870 0.32401
# Poissons Ratio (y) = 0.02786 0.12249
# Poissons Ratio (z) = 0.40089 0.26497
#
# Static dielectric constant tensor:
#      x y z
#    x 4.170350 0.000000 0.000000 
#    y 0.000000 3.861320 0.000000 
#    z 0.000000 0.000000 3.618580 
# 
# 
# High freq. dielectric constant tensor:
#      x y z
#    x 1.860060 0.000000 0.000000 
#    y 0.000000 1.845420 0.000000 
#    z 0.000000 0.000000 1.821800 
# 
# From -- ./inp_files/16341.got.cif
#   From: 2010.03.12/outbox.cif.g09.slc.cpg/sg49_9_cif.got.tgz:16341.got - 2010.04.14 03:58:27.
