data_PCOD8204286
_publ_section_title
;
Structure prediction by ZEFSAII (Michael W. Deem and Ramdas Pophale) SiO2 
 PCOD8204286
Probable space group: P C C M
;
_chemical_formula_sum "Si O2"
_cell_formula_units_Z 48
_cell_length_a 15.264916
_cell_length_b 18.146506
_cell_length_c 8.835478
_cell_angle_alpha 90.000000
_cell_angle_beta 90.000000
_cell_angle_gamma 90.000000
_cell_volume 2447.470610
_symmetry_space_group_name_H-M "P C C M"
_symmetry_group_IT_number 49
_symmetry_cell_setting 'orthorhombic'
loop_
_space_group_symop_operation_xyz
x,y,z
-x,-y,z
x,-y,1/2-z
-x,y,1/2-z
-x,-y,-z
x,y,-z
-x,y,1/2+z
x,-y,1/2+z
loop_
_atom_site_type_symbol
_atom_site_label
_atom_site_fract_x
_atom_site_fract_y
_atom_site_fract_z
Si Si1 0.408828 0.354629 0.676535
Si Si2 0.910826 0.686405 0.821575
Si Si3 0.269063 0.077435 0.820694
Si Si4 0.911246 0.853545 0.177980
Si Si5 0.759575 0.577012 0.179718
Si Si6 0.591213 0.817079 0.676496
O O1 0.500000 0.379153 0.750000
O O2 0.410578 0.373513 0.500000
O O3 0.334811 0.401819 0.757261
O O4 0.391374 0.268689 0.706141
O O5 0.894625 0.770011 0.765255
O O6 0.829562 0.637710 0.765534
O O7 0.000000 0.654738 0.750000
O O8 0.920568 0.682496 0.000000
O O9 0.170090 0.096453 0.769980
O O10 0.331220 0.140586 0.758200
O O11 0.297141 0.000000 0.750000
O O12 0.278564 0.074225 0.000000
O O13 0.000000 0.886134 0.250000
O O14 0.922683 0.855223 0.000000
O O15 0.790066 0.500000 0.250000
O O16 0.755070 0.571148 0.000000
O O17 0.500000 0.842339 0.750000
O O18 0.588889 0.836645 0.500000
#
# Coordination Sequence:
#
# PCOD8204286 Si02
#       6
#     8   8   8   8   8   8
#     4  10  21  38  61  87 113 144 184 229 277 330
#     4   9  19  36  58  82 108 142 184 230 278 328
#     4  11  23  38  56  81 115 151 188 230 278 331
#     4   9  19  36  58  82 108 142 184 230 278 328
#     4  11  23  38  56  81 115 151 188 230 278 331
#     4  10  21  38  61  87 113 144 184 229 277 330
#
# _framework density 19.612082999999998
#
# number of rings (size 3 to 8) (size 9 to 14) (size 15 to 20)
#    0.000    2.000    0.000    3.000    0.000    7.333 
#    0.000   10.000    0.000    0.000    0.000    0.000 
#    0.000    0.000    0.000    0.000    0.000    0.000 
#
# Total GULP energy -595430.360310 kJ/mol
# GULP energy per Si atom -12404.799173 kJ/mol
# Density = 1.956745 g / cm^3
# Si number density = 19.612083 Si / 1000 Ang^3
#
#
#
# Elastic Constant Matrix: (Units=GPa)
#
#
# Indices 1 2 3 4 5 6 
#
# 1 85.1046 12.2001 31.7766 0.0000 0.0000 0.0000
# 2 12.2001 41.4362 22.4083 0.0000 0.0000 0.0000
# 3 31.7766 22.4083 73.6051 0.0000 0.0000 0.0000
# 4 0.0000 0.0000 0.0000 133.5350 0.0000 0.0000
# 5 0.0000 0.0000 0.0000 0.0000 38.9873 0.0000
# 6 0.0000 0.0000 0.0000 0.0000 0.0000 12.2859
#
#
#
# Elastic Compliance Matrix: (Units=1/GPa)
#
#
# Indices 1 2 3 4 5 6 
#
# 1 0.014045 -0.001025 -0.005751 0.000000 0.000000 0.000000
# 2 -0.001025 0.028965 -0.008376 0.000000 0.000000 0.000000
# 3 -0.005751 -0.008376 0.018619 0.000000 0.000000 0.000000
# 4 0.000000 0.000000 0.000000 0.007489 0.000000 0.000000
# 5 0.000000 0.000000 0.000000 0.000000 0.025649 0.000000
# 6 0.000000 0.000000 0.000000 0.000000 0.000000 0.081394
#
#
# Mechanical properties :
#
#
# Convention : Reuss Voigt Hill
#
# Bulk Modulus (GPa) = 31.92375 36.99064 34.45719
# Shear Modulus (GPa) = 23.05151 45.87902 34.46526
#
# Velocity S-wave (km/s) = 3.43209 4.84190 4.19662
# Velocity P-wave (km/s) = 5.65850 7.08243 6.41012
#
# Compressibility (1/GPa) = 0.03132464
#
# Stress axis : x y z
#
# Youngs Moduli (GPa) = 71.20168 34.52479 53.70915
#
# Poissons Ratio (x) = 0.03538 0.30890
# Poissons Ratio (y) = 0.07298 0.44984
# Poissons Ratio (z) = 0.40950 0.28916
#
# Static dielectric constant tensor:
#      x y z
#    x 3.721210 0.000000 0.000000 
#    y 0.000000 3.597190 0.000000 
#    z 0.000000 0.000000 3.562490 
# 
# 
# High freq. dielectric constant tensor:
#      x y z
#    x 1.775480 0.000000 0.000000 
#    y 0.000000 1.759790 0.000000 
#    z 0.000000 0.000000 1.769490 
# 
# From -- ./inp_files/3692.got.cif
#   From: 2010.03.12/outbox.cif.g09.slc.cpg/sg49_2_cif.got.tgz:3692.got - 2010.04.14 03:58:27.
