data_PCOD8204888
_publ_section_title
;
Structure prediction by ZEFSAII (Michael W. Deem and Ramdas Pophale) SiO2 
 PCOD8204888
Probable space group: P B A N
;
_chemical_formula_sum "Si O2"
_cell_formula_units_Z 36
_cell_length_a 18.531515
_cell_length_b 19.498557
_cell_length_c 4.941891
_cell_angle_alpha 90.000000
_cell_angle_beta 90.000000
_cell_angle_gamma 90.000000
_cell_volume 1785.692029
_symmetry_space_group_name_H-M "P B A N"
_symmetry_group_IT_number 50
_space_group.IT_coordinate_system_code '2'
_symmetry_cell_setting 'orthorhombic'
loop_
_space_group_symop_operation_xyz
x,y,z
1/2-x,1/2-y,z
x,1/2-y,-z
1/2-x,y,-z
-x,-y,-z
1/2+x,1/2+y,-z
-x,1/2+y,z
1/2+x,-y,z
loop_
_atom_site_type_symbol
_atom_site_label
_atom_site_fract_x
_atom_site_fract_y
_atom_site_fract_z
Si Si1 0.092143 0.750000 0.000000
Si Si2 0.330850 0.883064 0.896319
Si Si3 0.896354 0.050328 0.406929
Si Si4 0.545229 0.816071 0.130937
Si Si5 0.551952 0.903619 0.610425
O O1 0.142680 0.804800 0.152930
O O2 0.037483 0.791425 0.798535
O O3 0.381964 0.921795 0.108190
O O4 0.250000 0.882666 0.000000
O O5 0.334965 0.922651 0.611584
O O6 0.973848 0.075494 0.503639
O O7 0.893717 0.967663 0.397339
O O8 0.581025 0.843442 0.408487
O O9 0.587159 0.750000 0.000000
O O10 0.545620 0.877679 0.915417
#
# Coordination Sequence:
#
# PCOD8204888 Si02
#       5
#     4   8   8   8   8
#     4  10  21  36  54  76 116 150 187 214 252 320
#     4  12  24  38  53  77 112 155 191 218 251 315
#     4  11  21  37  54  76 104 140 196 227 271 309
#     4  10  19  31  54  80 116 135 173 218 277 320
#     4  11  19  34  56  78 104 145 175 234 279 318
#
# _framework density 20.160253000000001
#
# number of rings (size 3 to 8) (size 9 to 14) (size 15 to 20)
#    0.667    0.444    4.444    3.000    0.000    6.222 
#    0.000    2.222    0.000    0.000    0.000    0.000 
#    0.000   62.222    0.000    0.000    0.000    0.000 
#
# Total GULP energy -446191.526359 kJ/mol
# GULP energy per Si atom -12394.209066 kJ/mol
# Density = 2.011437 g / cm^3
# Si number density = 20.160253 Si / 1000 Ang^3
#
#
#
# Elastic Constant Matrix: (Units=GPa)
#
#
# Indices 1 2 3 4 5 6 
#
# 1 32.7303 37.7459 11.0269 0.0000 0.0000 0.0000
# 2 37.7459 132.3142 25.1821 0.0000 0.0000 0.0000
# 3 11.0269 25.1821 78.3442 0.0000 0.0000 0.0000
# 4 0.0000 0.0000 0.0000 28.6863 0.0000 0.0000
# 5 0.0000 0.0000 0.0000 0.0000 14.2203 0.0000
# 6 0.0000 0.0000 0.0000 0.0000 0.0000 15.4619
#
#
#
# Elastic Compliance Matrix: (Units=1/GPa)
#
#
# Indices 1 2 3 4 5 6 
#
# 1 0.045953 -0.012652 -0.002401 0.000000 0.000000 0.000000
# 2 -0.012652 0.011534 -0.001926 0.000000 0.000000 0.000000
# 3 -0.002401 -0.001926 0.013721 0.000000 0.000000 0.000000
# 4 0.000000 0.000000 0.000000 0.034860 0.000000 0.000000
# 5 0.000000 0.000000 0.000000 0.000000 0.070322 0.000000
# 6 0.000000 0.000000 0.000000 0.000000 0.000000 0.064675
#
#
# Mechanical properties :
#
#
# Convention : Reuss Voigt Hill
#
# Bulk Modulus (GPa) = 26.84680 43.47759 35.16220
# Shear Modulus (GPa) = 17.39493 22.96929 20.18211
#
# Velocity S-wave (km/s) = 2.94059 3.37907 3.16742
# Velocity P-wave (km/s) = 4.98749 6.06934 5.55482
#
# Compressibility (1/GPa) = 0.03724839
#
# Stress axis : x y z
#
# Youngs Moduli (GPa) = 21.76153 86.70200 72.87901
#
# Poissons Ratio (x) = 1.09697 0.17499
# Poissons Ratio (y) = 0.27533 0.14040
# Poissons Ratio (z) = 0.05225 0.16703
#
# Static dielectric constant tensor:
#      x y z
#    x 3.117950 0.000000 0.000000 
#    y 0.000000 4.101570 0.000000 
#    z 0.000000 0.000000 3.768110 
# 
# 
# High freq. dielectric constant tensor:
#      x y z
#    x 1.717120 0.000000 0.000000 
#    y 0.000000 1.809270 0.000000 
#    z 0.000000 0.000000 1.790190 
# 
# From -- ./inp_files/5116.got.cif
#   From: 2010.03.12/outbox.cif.g09.slc.cpg/sg50_3_cif.got.tgz:5116.got - 2010.04.16 13:23:21.
