data_PCOD8204818
_publ_section_title
;
Structure prediction by ZEFSAII (Michael W. Deem and Ramdas Pophale) SiO2 
 PCOD8204818
Probable space group: P B A N
;
_chemical_formula_sum "Si O2"
_cell_formula_units_Z 48
_cell_length_a 19.249114
_cell_length_b 11.653410
_cell_length_c 11.685477
_cell_angle_alpha 90.000000
_cell_angle_beta 90.000000
_cell_angle_gamma 90.000000
_cell_volume 2621.260698
_symmetry_space_group_name_H-M "P B A N"
_symmetry_group_IT_number 50
_space_group.IT_coordinate_system_code '2'
_symmetry_cell_setting 'orthorhombic'
loop_
_space_group_symop_operation_xyz
x,y,z
1/2-x,1/2-y,z
x,1/2-y,-z
1/2-x,y,-z
-x,-y,-z
1/2+x,1/2+y,-z
-x,1/2+y,z
1/2+x,-y,z
loop_
_atom_site_type_symbol
_atom_site_label
_atom_site_fract_x
_atom_site_fract_y
_atom_site_fract_z
Si Si1 0.597782 0.406995 0.521662
Si Si2 0.459211 0.218962 0.835741
Si Si3 0.328318 0.719460 0.660306
Si Si4 0.446285 0.149492 0.574656
Si Si5 0.882783 0.167127 0.099579
Si Si6 0.069894 0.435336 0.029605
O O1 0.650786 0.391004 0.415980
O O2 0.619667 0.323650 0.626218
O O3 0.521441 0.374932 0.478120
O O4 0.601342 0.536733 0.566442
O O5 0.448272 0.189767 0.704814
O O6 0.538479 0.197864 0.869951
O O7 0.440426 0.351854 0.860551
O O8 0.410092 0.138893 0.916650
O O9 0.250000 0.750000 0.629656
O O10 0.333812 0.688519 0.792560
O O11 0.410827 0.250000 0.500000
O O12 0.874083 0.033639 0.061066
O O13 0.855427 0.250000 0.000000
O O14 0.000000 0.500000 0.000000
#
# Coordination Sequence:
#
# PCOD8204818 Si02
#       6
#     8   8   8   8   8   8
#     4  10  21  37  55  82 115 150 180 231 293 345
#     4  10  18  32  49  82 119 150 173 219 305 349
#     4  11  23  41  59  77 113 159 198 233 276 336
#     4  11  21  31  56  90 117 137 180 239 293 346
#     4  11  20  32  54  82 111 144 192 235 274 332
#     4   9  18  30  50  78 113 157 173 219 291 360
#
# _framework density 18.311800000000002
#
# number of rings (size 3 to 8) (size 9 to 14) (size 15 to 20)
#    0.000    1.667    6.667    1.000    4.667    1.667 
#    0.000    0.000    0.000    2.000    0.000    0.000 
#    0.000    0.000    0.000    0.000    0.000    0.000 
#
# Total GULP energy -594983.347271 kJ/mol
# GULP energy per Si atom -12395.486401 kJ/mol
# Density = 1.827012 g / cm^3
# Si number density = 18.311800 Si / 1000 Ang^3
#
#
#
# Elastic Constant Matrix: (Units=GPa)
#
#
# Indices 1 2 3 4 5 6 
#
# 1 42.6252 25.5094 14.9160 0.0000 0.0000 0.0000
# 2 25.5094 152.7082 67.1005 0.0000 0.0000 0.0000
# 3 14.9160 67.1005 135.0870 0.0000 0.0000 0.0000
# 4 0.0000 0.0000 0.0000 30.7160 0.0000 0.0000
# 5 0.0000 0.0000 0.0000 0.0000 5.0402 0.0000
# 6 0.0000 0.0000 0.0000 0.0000 0.0000 12.7499
#
#
#
# Elastic Compliance Matrix: (Units=1/GPa)
#
#
# Indices 1 2 3 4 5 6 
#
# 1 0.026155 -0.003966 -0.000918 0.000000 0.000000 0.000000
# 2 -0.003966 0.008978 -0.004022 0.000000 0.000000 0.000000
# 3 -0.000918 -0.004022 0.009502 0.000000 0.000000 0.000000
# 4 0.000000 0.000000 0.000000 0.032556 0.000000 0.000000
# 5 0.000000 0.000000 0.000000 0.000000 0.198405 0.000000
# 6 0.000000 0.000000 0.000000 0.000000 0.000000 0.078432
#
#
# Mechanical properties :
#
#
# Convention : Reuss Voigt Hill
#
# Bulk Modulus (GPa) = 37.28062 60.60802 48.94432
# Shear Modulus (GPa) = 13.13095 24.56086 18.84591
#
# Velocity S-wave (km/s) = 2.68073 3.66629 3.21154
# Velocity P-wave (km/s) = 5.47583 7.14786 6.36697
#
# Compressibility (1/GPa) = 0.02682359
#
# Stress axis : x y z
#
# Youngs Moduli (GPa) = 38.23383 111.38303 105.24467
#
# Poissons Ratio (x) = 0.44171 0.09663
# Poissons Ratio (y) = 0.15162 0.42326
# Poissons Ratio (z) = 0.03510 0.44795
#
# Static dielectric constant tensor:
#      x y z
#    x 2.891350 0.000000 0.000000 
#    y 0.000000 3.979100 0.000000 
#    z 0.000000 0.000000 3.210900 
# 
# 
# High freq. dielectric constant tensor:
#      x y z
#    x 1.645490 0.000000 0.000000 
#    y 0.000000 1.723300 0.000000 
#    z 0.000000 0.000000 1.725190 
# 
# From -- ./inp_files/20313.got.cif
#   From: 2010.03.12/outbox.cif.g09.slc.cpg/sg50_11_cif.got.tgz:20313.got - 2010.04.16 13:23:21.
