data_PCOD8204338
_publ_section_title
;
Structure prediction by ZEFSAII (Michael W. Deem and Ramdas Pophale) SiO2 
 PCOD8204338
Probable space group: P C C M
;
_chemical_formula_sum "Si O2"
_cell_formula_units_Z 64
_cell_length_a 9.028140
_cell_length_b 24.076683
_cell_length_c 14.664481
_cell_angle_alpha 90.000000
_cell_angle_beta 90.000000
_cell_angle_gamma 90.000000
_cell_volume 3187.583991
_symmetry_space_group_name_H-M "P C C M"
_symmetry_group_IT_number 49
_symmetry_cell_setting 'orthorhombic'
loop_
_space_group_symop_operation_xyz
x,y,z
-x,-y,z
x,-y,1/2-z
-x,y,1/2-z
-x,-y,-z
x,y,-z
-x,y,1/2+z
x,-y,1/2+z
loop_
_atom_site_type_symbol
_atom_site_label
_atom_site_fract_x
_atom_site_fract_y
_atom_site_fract_z
Si Si1 0.827269 0.861791 0.606039
Si Si2 0.328407 0.065452 0.750000
Si Si3 0.500000 0.563884 0.900395
Si Si4 0.163480 0.320872 0.750000
Si Si5 0.736328 0.435920 0.250000
Si Si6 0.326890 0.252267 0.394363
Si Si7 0.827269 0.861791 0.106039
Si Si8 0.326890 0.747733 0.605637
O O1 0.801187 0.873778 0.500000
O O2 0.751339 0.911736 0.659923
O O3 0.749544 0.804834 0.636555
O O4 1.000000 0.857967 0.630592
O O5 0.500000 0.083078 0.750000
O O6 0.248661 0.088264 0.840077
O O7 0.308930 0.000000 0.750000
O O8 0.500000 0.500000 0.922874
O O9 0.356297 0.577346 0.840976
O O10 0.643703 0.577346 0.840976
O O11 0.500000 0.595398 0.000000
O O12 0.140157 0.388049 0.750000
O O13 0.253355 0.302319 0.660758
O O14 0.253355 0.302319 0.839242
O O15 0.000000 0.294302 0.750000
O O16 0.796212 0.500000 0.250000
O O17 0.297690 0.264254 0.500000
O O18 0.500000 0.248759 0.371221
O O19 0.749544 0.804834 0.136555
O O20 0.801187 0.873778 0.000000
O O21 0.297690 0.735746 0.500000
#
# Coordination Sequence:
#
# PCOD8204338 Si02
#       8
#     8   8   8   8   8   8   8   8
#     4  10  21  39  63  88 117 153 192 239 295 350
#     4  11  24  39  57  85 121 161 202 243 285 335
#     4   8  15  31  56  81 105 136 177 229 278 321
#     4  12  25  38  56  83 119 156 188 234 290 345
#     4   9  20  36  54  81 112 146 191 232 278 345
#     4  10  22  40  63  88 114 148 193 242 289 343
#     4  10  21  39  63  88 117 153 192 239 295 350
#     4  10  22  40  63  88 114 148 193 242 289 343
#
# _framework density 20.077902000000002
#
# number of rings (size 3 to 8) (size 9 to 14) (size 15 to 20)
#    0.000    2.000    0.000    3.750    3.500    5.750 
#    0.000    2.500    0.000    0.000    0.000    5.250 
#    0.000    0.000    0.000    0.000    0.000    0.000 
#
# Total GULP energy -793420.166454 kJ/mol
# GULP energy per Si atom -12397.190101 kJ/mol
# Density = 2.003220 g / cm^3
# Si number density = 20.077902 Si / 1000 Ang^3
#
#
#
# Elastic Constant Matrix: (Units=GPa)
#
#
# Indices 1 2 3 4 5 6 
#
# 1 140.9143 60.9148 52.0335 0.0000 0.0000 0.0000
# 2 60.9148 121.9317 45.9059 0.0000 0.0000 0.0000
# 3 52.0335 45.9059 122.0006 0.0000 0.0000 0.0000
# 4 0.0000 0.0000 0.0000 3.5306 0.0000 0.0000
# 5 0.0000 0.0000 0.0000 0.0000 26.0626 0.0000
# 6 0.0000 0.0000 0.0000 0.0000 0.0000 24.9935
#
#
#
# Elastic Compliance Matrix: (Units=1/GPa)
#
#
# Indices 1 2 3 4 5 6 
#
# 1 0.009766 -0.003857 -0.002714 0.000000 0.000000 0.000000
# 2 -0.003857 0.011078 -0.002523 0.000000 0.000000 0.000000
# 3 -0.002714 -0.002523 0.010304 0.000000 0.000000 0.000000
# 4 0.000000 0.000000 0.000000 0.283240 0.000000 0.000000
# 5 0.000000 0.000000 0.000000 0.000000 0.038369 0.000000
# 6 0.000000 0.000000 0.000000 0.000000 0.000000 0.040010
#
#
# Mechanical properties :
#
#
# Convention : Reuss Voigt Hill
#
# Bulk Modulus (GPa) = 77.16598 78.06166 77.61382
# Shear Modulus (GPa) = 12.04017 25.98350 19.01183
#
# Velocity S-wave (km/s) = 2.45148 3.60131 3.08052
# Velocity P-wave (km/s) = 6.82127 7.50043 7.16889
#
# Compressibility (1/GPa) = 0.01295908
#
# Stress axis : x y z
#
# Youngs Moduli (GPa) = 102.39590 90.26639 97.05309
#
# Poissons Ratio (x) = 0.34817 0.26339
# Poissons Ratio (y) = 0.39496 0.24490
# Poissons Ratio (z) = 0.27789 0.22778
#
# Static dielectric constant tensor:
#      x y z
#    x 3.621470 0.000000 0.000000 
#    y 0.000000 3.523190 0.000000 
#    z 0.000000 0.000000 4.420060 
# 
# 
# High freq. dielectric constant tensor:
#      x y z
#    x 1.780930 0.000000 0.000000 
#    y 0.000000 1.780710 0.000000 
#    z 0.000000 0.000000 1.796900 
# 
# From -- ./inp_files/12138.got.cif
#   From: 2010.03.12/outbox.cif.g09.slc.cpg/sg49_7_cif.got.tgz:12138.got - 2010.04.14 03:58:27.
