data_PCOD8204816
_publ_section_title
;
Structure prediction by ZEFSAII (Michael W. Deem and Ramdas Pophale) SiO2 
 PCOD8204816
Probable space group: P B A N
;
_chemical_formula_sum "Si O2"
_cell_formula_units_Z 40
_cell_length_a 34.250890
_cell_length_b 5.056208
_cell_length_c 11.014435
_cell_angle_alpha 90.000000
_cell_angle_beta 90.000000
_cell_angle_gamma 90.000000
_cell_volume 1907.475712
_symmetry_space_group_name_H-M "P B A N"
_symmetry_group_IT_number 50
_space_group.IT_coordinate_system_code '2'
_symmetry_cell_setting 'orthorhombic'
loop_
_space_group_symop_operation_xyz
x,y,z
1/2-x,1/2-y,z
x,1/2-y,-z
1/2-x,y,-z
-x,-y,-z
1/2+x,1/2+y,-z
-x,1/2+y,z
1/2+x,-y,z
loop_
_atom_site_type_symbol
_atom_site_label
_atom_site_fract_x
_atom_site_fract_y
_atom_site_fract_z
Si Si1 0.910813 0.250000 0.000000
Si Si2 0.857859 0.617401 0.372572
Si Si3 0.979043 0.912486 0.256596
Si Si4 0.038809 0.250000 0.000000
Si Si5 0.267934 0.498481 0.365613
Si Si6 0.608585 0.396060 0.257262
O O1 0.884746 0.325740 0.883694
O O2 0.935087 0.504197 0.046907
O O3 0.870220 0.750000 0.500000
O O4 0.814317 0.504170 0.372573
O O5 0.884386 0.361826 0.341464
O O6 0.862062 0.859562 0.278812
O O7 0.986483 0.872464 0.110883
O O8 0.991373 0.630376 0.313017
O O9 0.934886 0.994282 0.283881
O O10 0.250000 0.750000 0.295309
O O11 0.250000 0.498650 0.500000
O O12 0.250000 0.250000 0.293614
#
# Coordination Sequence:
#
# PCOD8204816 Si02
#       6
#     4   8   8   4   8   8
#     4  10  20  39  56  84 129 160 205 244 295 382
#     4  12  23  39  62  93 128 155 192 248 312 364
#     4  11  20  34  55  81 117 156 209 265 307 350
#     4  10  18  31  56  86 112 148 200 274 334 344
#     4  10  19  34  59  90 126 140 172 238 314 362
#     4  11  24  38  59  89 123 168 203 248 307 355
#
# _framework density 20.970123000000001
#
# number of rings (size 3 to 8) (size 9 to 14) (size 15 to 20)
#    0.000    1.200    2.000    8.400    2.800    0.800 
#    0.000    0.000    0.000   12.000    0.000   10.500 
#    0.000    0.000    0.000    0.000    0.000    0.000 
#
# Total GULP energy -495611.555892 kJ/mol
# GULP energy per Si atom -12390.288897 kJ/mol
# Density = 2.092239 g / cm^3
# Si number density = 20.970123 Si / 1000 Ang^3
#
#
#
# Elastic Constant Matrix: (Units=GPa)
#
#
# Indices 1 2 3 4 5 6 
#
# 1 104.2673 66.0570 47.8076 0.0000 0.0000 0.0000
# 2 66.0570 212.0814 41.4036 0.0000 0.0000 0.0000
# 3 47.8076 41.4036 52.3775 0.0000 0.0000 0.0000
# 4 0.0000 0.0000 0.0000 21.4428 0.0000 0.0000
# 5 0.0000 0.0000 0.0000 0.0000 9.0003 0.0000
# 6 0.0000 0.0000 0.0000 0.0000 0.0000 52.9686
#
#
#
# Elastic Compliance Matrix: (Units=1/GPa)
#
#
# Indices 1 2 3 4 5 6 
#
# 1 0.017801 -0.002805 -0.014030 0.000000 0.000000 0.000000
# 2 -0.002805 0.006018 -0.002196 0.000000 0.000000 0.000000
# 3 -0.014030 -0.002196 0.033634 0.000000 0.000000 0.000000
# 4 0.000000 0.000000 0.000000 0.046636 0.000000 0.000000
# 5 0.000000 0.000000 0.000000 0.000000 0.111107 0.000000
# 6 0.000000 0.000000 0.000000 0.000000 0.000000 0.018879
#
#
# Mechanical properties :
#
#
# Convention : Reuss Voigt Hill
#
# Bulk Modulus (GPa) = 51.57493 75.47362 63.52428
# Shear Modulus (GPa) = 17.94673 30.91288 24.42980
#
# Velocity S-wave (km/s) = 2.92862 3.84362 3.41689
# Velocity P-wave (km/s) = 6.00697 7.46773 6.77682
#
# Compressibility (1/GPa) = 0.01938927
#
# Stress axis : x y z
#
# Youngs Moduli (GPa) = 56.17616 166.17512 29.73138
#
# Poissons Ratio (x) = 0.46620 0.41714
# Poissons Ratio (y) = 0.15760 0.06530
# Poissons Ratio (z) = 0.78817 0.36496
#
# Static dielectric constant tensor:
#      x y z
#    x 3.607090 0.000000 0.000000 
#    y 0.000000 3.842610 0.000000 
#    z 0.000000 0.000000 3.413450 
# 
# 
# High freq. dielectric constant tensor:
#      x y z
#    x 1.802930 0.000000 0.000000 
#    y 0.000000 1.874360 0.000000 
#    z 0.000000 0.000000 1.762300 
# 
# From -- ./inp_files/23303.got.cif
#   From: 2010.03.12/outbox.cif.g09.slc.cpg/sg50_12_cif.got.tgz:23303.got - 2010.04.16 13:23:21.
