data_PCOD8204752
_publ_section_title
;
Structure prediction by ZEFSAII (Michael W. Deem and Ramdas Pophale) SiO2 
 PCOD8204752
Probable space group: P B A N
;
_chemical_formula_sum "Si O2"
_cell_formula_units_Z 30
_cell_length_a 16.320828
_cell_length_b 5.342289
_cell_length_c 15.999081
_cell_angle_alpha 90.000000
_cell_angle_beta 90.000000
_cell_angle_gamma 90.000000
_cell_volume 1394.969150
_symmetry_space_group_name_H-M "P B A N"
_symmetry_group_IT_number 50
_space_group.IT_coordinate_system_code '2'
_symmetry_cell_setting 'orthorhombic'
loop_
_space_group_symop_operation_xyz
x,y,z
1/2-x,1/2-y,z
x,1/2-y,-z
1/2-x,y,-z
-x,-y,-z
1/2+x,1/2+y,-z
-x,1/2+y,z
1/2+x,-y,z
loop_
_atom_site_type_symbol
_atom_site_label
_atom_site_fract_x
_atom_site_fract_y
_atom_site_fract_z
Si Si1 0.447215 0.486322 0.774525
Si Si2 0.169772 0.603365 0.369155
Si Si3 0.250000 0.250000 0.500000
Si Si4 0.447756 0.750000 0.500000
Si Si5 0.091781 0.000739 0.964852
O O1 0.500714 0.238166 0.760952
O O2 0.371844 0.472325 0.710214
O O3 0.406981 0.492726 0.865418
O O4 0.250000 0.750000 0.337665
O O5 0.190946 0.406855 0.440967
O O6 0.105609 0.785040 0.415369
O O7 0.500000 0.500000 0.500000
O O8 0.137019 0.250000 0.000000
O O9 0.136490 0.750000 0.000000
O O10 0.000000 0.000000 0.000000
#
# Coordination Sequence:
#
# PCOD8204752 Si02
#       5
#     8   8   2   4   8
#     4  12  24  40  67 109 135 166 232 288 324 392
#     4  12  27  45  68  94 135 189 219 277 345 416
#     4  12  24  52  68  84 134 194 234 254 346 422
#     4  12  24  44  69  97 126 164 228 288 334 384
#     4  10  16  34  61  96 136 172 201 269 341 389
#
# _framework density 21.505852000000001
#
# number of rings (size 3 to 8) (size 9 to 14) (size 15 to 20)
#    0.000    0.533    8.000    2.400    3.733    0.000 
#    0.000    0.000    0.000    0.800    0.000    0.000 
#    0.000    0.000    0.000    0.000    0.000    0.000 
#
# Total GULP energy -371951.965453 kJ/mol
# GULP energy per Si atom -12398.398848 kJ/mol
# Density = 2.145690 g / cm^3
# Si number density = 21.505852 Si / 1000 Ang^3
#
#
#
# Elastic Constant Matrix: (Units=GPa)
#
#
# Indices 1 2 3 4 5 6 
#
# 1 88.3325 55.3297 63.7046 0.0000 0.0000 0.0000
# 2 55.3297 198.2328 60.6147 0.0000 0.0000 0.0000
# 3 63.7046 60.6147 193.1018 0.0000 0.0000 0.0000
# 4 0.0000 0.0000 0.0000 30.1457 0.0000 0.0000
# 5 0.0000 0.0000 0.0000 0.0000 12.5006 0.0000
# 6 0.0000 0.0000 0.0000 0.0000 0.0000 7.0334
#
#
#
# Elastic Compliance Matrix: (Units=1/GPa)
#
#
# Indices 1 2 3 4 5 6 
#
# 1 0.016570 -0.003267 -0.004441 0.000000 0.000000 0.000000
# 2 -0.003267 0.006224 -0.000876 0.000000 0.000000 0.000000
# 3 -0.004441 -0.000876 0.006919 0.000000 0.000000 0.000000
# 4 0.000000 0.000000 0.000000 0.033172 0.000000 0.000000
# 5 0.000000 0.000000 0.000000 0.000000 0.079996 0.000000
# 6 0.000000 0.000000 0.000000 0.000000 0.000000 0.142179
#
#
# Mechanical properties :
#
#
# Convention : Reuss Voigt Hill
#
# Bulk Modulus (GPa) = 79.71283 93.21836 86.46559
# Shear Modulus (GPa) = 16.31798 29.93714 23.12756
#
# Velocity S-wave (km/s) = 2.75757 3.73506 3.28290
# Velocity P-wave (km/s) = 6.87641 7.87658 7.39343
#
# Compressibility (1/GPa) = 0.01254503
#
# Stress axis : x y z
#
# Youngs Moduli (GPa) = 60.34991 160.66039 144.53619
#
# Poissons Ratio (x) = 0.52488 0.64188
# Poissons Ratio (y) = 0.19716 0.12662
# Poissons Ratio (z) = 0.26801 0.14074
#
# Static dielectric constant tensor:
#      x y z
#    x 3.770550 0.000000 0.000000 
#    y 0.000000 8.428970 0.000000 
#    z 0.000000 0.000000 3.896800 
# 
# 
# High freq. dielectric constant tensor:
#      x y z
#    x 1.808480 0.000000 0.000000 
#    y 0.000000 1.867120 0.000000 
#    z 0.000000 0.000000 1.856980 
# 
# From -- ./inp_files/23669.got.cif
#   From: 2010.03.12/outbox.cif.g09.slc.cpg/sg50_12_cif.got.tgz:23669.got - 2010.04.16 13:23:21.
