data_PCOD8204192
_publ_section_title
;
Structure prediction by ZEFSAII (Michael W. Deem and Ramdas Pophale) SiO2 
 PCOD8204192
Probable space group: P C C M
;
_chemical_formula_sum "Si O2"
_cell_formula_units_Z 58
_cell_length_a 19.507293
_cell_length_b 16.550287
_cell_length_c 8.984556
_cell_angle_alpha 90.000000
_cell_angle_beta 90.000000
_cell_angle_gamma 90.000000
_cell_volume 2900.675564
_symmetry_space_group_name_H-M "P C C M"
_symmetry_group_IT_number 49
_symmetry_cell_setting 'orthorhombic'
loop_
_space_group_symop_operation_xyz
x,y,z
-x,-y,z
x,-y,1/2-z
-x,y,1/2-z
-x,-y,-z
x,y,-z
-x,y,1/2+z
x,-y,1/2+z
loop_
_atom_site_type_symbol
_atom_site_label
_atom_site_fract_x
_atom_site_fract_y
_atom_site_fract_z
Si Si1 0.430213 0.301100 0.822527
Si Si2 0.739467 0.867197 0.668465
Si Si3 0.500000 0.000000 0.250000
Si Si4 0.889219 0.919576 0.327233
Si Si5 0.607936 0.125194 0.663839
Si Si6 0.069080 0.245674 0.822687
Si Si7 0.199192 0.701134 0.171482
Si Si8 0.319580 0.414074 0.326925
O O1 0.500000 0.334026 0.750000
O O2 0.419678 0.208825 0.765794
O O3 0.369221 0.354756 0.760325
O O4 0.434590 0.308517 0.000000
O O5 0.715295 0.862817 0.500000
O O6 0.806925 0.921323 0.688886
O O7 0.675185 0.907121 0.752056
O O8 0.754724 0.776527 0.727579
O O9 0.548838 0.057590 0.346686
O O10 0.911396 0.915671 0.500000
O O11 0.920454 0.844176 0.240370
O O12 0.918720 0.000000 0.250000
O O13 0.633507 0.145368 0.500000
O O14 0.131134 0.304117 0.772048
O O15 0.000000 0.281497 0.750000
O O16 0.063896 0.243943 0.000000
O O17 0.242049 0.619114 0.188375
O O18 0.177300 0.717563 0.000000
O O19 0.322899 0.500000 0.250000
O O20 0.340983 0.419986 0.500000
#
# Coordination Sequence:
#
# PCOD8204192 Si02
#       8
#     8   8   2   8   8   8   8   8
#     4  11  23  41  63  89 120 162 207 253 309 372
#     4   9  19  36  58  80 108 146 190 240 297 354
#     4  12  26  44  52  82 116 160 202 258 318 360
#     4  10  21  37  54  81 116 153 197 249 306 360
#     4  11  24  39  58  81 111 152 203 254 304 364
#     4  11  22  37  60  88 120 160 204 249 296 359
#     4   9  19  38  62  89 121 157 195 240 295 354
#     4  11  23  41  66  97 129 161 198 249 305 365
#
# _framework density 19.995342999999998
#
# number of rings (size 3 to 8) (size 9 to 14) (size 15 to 20)
#    0.000    1.655    2.069    3.517    0.966    6.069 
#    0.000    2.759    0.000    0.414    0.000    2.897 
#    0.000    0.000    0.000    0.000    0.000    0.000 
#
# Total GULP energy -719205.405712 kJ/mol
# GULP energy per Si atom -12400.093202 kJ/mol
# Density = 1.994983 g / cm^3
# Si number density = 19.995343 Si / 1000 Ang^3
#
#
#
# Elastic Constant Matrix: (Units=GPa)
#
#
# Indices 1 2 3 4 5 6 
#
# 1 117.5563 27.3630 56.8863 0.0000 0.0000 0.0000
# 2 27.3630 94.3298 34.1907 0.0000 0.0000 0.0000
# 3 56.8863 34.1907 128.4074 0.0000 0.0000 0.0000
# 4 0.0000 0.0000 0.0000 4.8468 0.0000 0.0000
# 5 0.0000 0.0000 0.0000 0.0000 33.2580 0.0000
# 6 0.0000 0.0000 0.0000 0.0000 0.0000 17.4790
#
#
#
# Elastic Compliance Matrix: (Units=1/GPa)
#
#
# Indices 1 2 3 4 5 6 
#
# 1 0.011037 -0.001582 -0.004468 0.000000 0.000000 0.000000
# 2 -0.001582 0.011960 -0.002484 0.000000 0.000000 0.000000
# 3 -0.004468 -0.002484 0.010429 0.000000 0.000000 0.000000
# 4 0.000000 0.000000 0.000000 0.206322 0.000000 0.000000
# 5 0.000000 0.000000 0.000000 0.000000 0.030068 0.000000
# 6 0.000000 0.000000 0.000000 0.000000 0.000000 0.057212
#
#
# Mechanical properties :
#
#
# Convention : Reuss Voigt Hill
#
# Bulk Modulus (GPa) = 61.13335 64.13038 62.63186
# Shear Modulus (GPa) = 14.30416 25.90700 20.10558
#
# Velocity S-wave (km/s) = 2.67755 3.60342 3.17442
# Velocity P-wave (km/s) = 6.34028 7.03243 6.69531
#
# Compressibility (1/GPa) = 0.01635768
#
# Stress axis : x y z
#
# Youngs Moduli (GPa) = 90.60383 83.61010 95.89024
#
# Poissons Ratio (x) = 0.13227 0.42847
# Poissons Ratio (y) = 0.14334 0.23817
# Poissons Ratio (z) = 0.40485 0.20767
#
# Static dielectric constant tensor:
#      x y z
#    x 3.698490 0.000000 0.000000 
#    y 0.000000 3.457830 0.000000 
#    z 0.000000 0.000000 3.596260 
# 
# 
# High freq. dielectric constant tensor:
#      x y z
#    x 1.786130 0.000000 0.000000 
#    y 0.000000 1.756200 0.000000 
#    z 0.000000 0.000000 1.784080 
# 
# From -- ./inp_files/5128.got.cif
#   From: 2010.03.12/outbox.cif.g09.slc.cpg/sg49_3_cif.got.tgz:5128.got - 2010.04.14 03:58:27.
