data_PCOD8204896
_publ_section_title
;
Structure prediction by ZEFSAII (Michael W. Deem and Ramdas Pophale) SiO2 
 PCOD8204896
Probable space group: P B A N
;
_chemical_formula_sum "Si O2"
_cell_formula_units_Z 56
_cell_length_a 17.553940
_cell_length_b 5.115456
_cell_length_c 32.141888
_cell_angle_alpha 90.000000
_cell_angle_beta 90.000000
_cell_angle_gamma 90.000000
_cell_volume 2886.226079
_symmetry_space_group_name_H-M "P B A N"
_symmetry_group_IT_number 50
_space_group.IT_coordinate_system_code '2'
_symmetry_cell_setting 'orthorhombic'
loop_
_space_group_symop_operation_xyz
x,y,z
1/2-x,1/2-y,z
x,1/2-y,-z
1/2-x,y,-z
-x,-y,-z
1/2+x,1/2+y,-z
-x,1/2+y,z
1/2+x,-y,z
loop_
_atom_site_type_symbol
_atom_site_label
_atom_site_fract_x
_atom_site_fract_y
_atom_site_fract_z
Si Si1 0.550586 0.373400 0.245889
Si Si2 0.660970 0.252061 0.827513
Si Si3 0.546429 0.320773 0.336935
Si Si4 0.215458 0.998112 0.546132
Si Si5 0.661066 0.754293 0.879416
Si Si6 0.052267 0.561667 0.425814
Si Si7 0.951089 0.730627 0.952833
O O1 0.516349 0.661548 0.238885
O O2 0.618811 0.308398 0.215182
O O3 0.587359 0.368481 0.292559
O O4 0.750000 0.250000 0.817302
O O5 0.636777 0.530279 0.846658
O O6 0.637323 0.031967 0.860588
O O7 0.472001 0.511757 0.338252
O O8 0.589448 0.414742 0.379038
O O9 0.250000 0.750000 0.570503
O O10 0.250000 0.000050 0.500000
O O11 0.123720 0.982787 0.543750
O O12 0.250000 0.250000 0.569864
O O13 0.750000 0.750000 0.889366
O O14 0.619262 0.711248 0.922883
O O15 0.994259 0.325629 0.434129
O O16 0.983168 0.442181 0.944302
O O17 0.920599 0.750000 0.000000
#
# Coordination Sequence:
#
# PCOD8204896 Si02
#       7
#     8   8   8   8   8   8   8
#     4  10  19  32  52  77 102 133 171 210 255 304
#     4  10  21  35  50  73 106 135 166 209 252 298
#     4   8  16  30  50  76 103 128 168 221 257 293
#     4  10  21  38  54  77 114 144 169 221 280 317
#     4  10  21  36  53  73 100 137 172 205 249 303
#     4  10  19  35  59  81 102 141 189 223 260 321
#     4  10  21  36  54  77 103 128 162 213 261 300
#
# _framework density 19.402497
#
# number of rings (size 3 to 8) (size 9 to 14) (size 15 to 20)
#    0.000    2.286    0.000    2.571    0.000    3.714 
#    0.000    9.286    0.000    7.714    0.000    0.000 
#    0.000    0.000    0.000    0.000    0.000    0.000 
#
# Total GULP energy -693901.741155 kJ/mol
# GULP energy per Si atom -12391.102521 kJ/mol
# Density = 1.935834 g / cm^3
# Si number density = 19.402497 Si / 1000 Ang^3
#
#
#
# Elastic Constant Matrix: (Units=GPa)
#
#
# Indices 1 2 3 4 5 6 
#
# 1 82.5855 29.2867 56.7226 0.0000 0.0000 0.0000
# 2 29.2867 119.6974 13.5070 0.0000 0.0000 0.0000
# 3 56.7226 13.5070 104.0427 0.0000 0.0000 0.0000
# 4 0.0000 0.0000 0.0000 14.8670 0.0000 0.0000
# 5 0.0000 0.0000 0.0000 0.0000 14.2744 0.0000
# 6 0.0000 0.0000 0.0000 0.0000 0.0000 22.9737
#
#
#
# Elastic Compliance Matrix: (Units=1/GPa)
#
#
# Indices 1 2 3 4 5 6 
#
# 1 0.021015 -0.003906 -0.010950 0.000000 0.000000 0.000000
# 2 -0.003906 0.009205 0.000935 0.000000 0.000000 0.000000
# 3 -0.010950 0.000935 0.015460 0.000000 0.000000 0.000000
# 4 0.000000 0.000000 0.000000 0.067263 0.000000 0.000000
# 5 0.000000 0.000000 0.000000 0.000000 0.070055 0.000000
# 6 0.000000 0.000000 0.000000 0.000000 0.000000 0.043528
#
#
# Mechanical properties :
#
#
# Convention : Reuss Voigt Hill
#
# Bulk Modulus (GPa) = 56.06497 56.15093 56.10795
# Shear Modulus (GPa) = 19.20761 24.21030 21.70895
#
# Velocity S-wave (km/s) = 3.14977 3.53624 3.34859
# Velocity P-wave (km/s) = 6.49512 6.75842 6.62808
#
# Compressibility (1/GPa) = 0.01783645
#
# Stress axis : x y z
#
# Youngs Moduli (GPa) = 47.58618 108.64075 64.68410
#
# Poissons Ratio (x) = 0.42436 0.70827
# Poissons Ratio (y) = 0.18588 -0.06045
# Poissons Ratio (z) = 0.52106 -0.10153
#
# Static dielectric constant tensor:
#      x y z
#    x 3.152850 0.000000 0.000000 
#    y 0.000000 2.680780 0.000000 
#    z 0.000000 0.000000 3.547340 
# 
# 
# High freq. dielectric constant tensor:
#      x y z
#    x 1.716190 0.000000 0.000000 
#    y 0.000000 1.787560 0.000000 
#    z 0.000000 0.000000 1.752760 
# 
# From -- ./inp_files/32507.got.cif
#   From: 2010.03.12/outbox.cif.g09.slc.cpg/sg50_17_cif.got.tgz:32507.got - 2010.04.16 13:23:21.
