data_PCOD8204952
_publ_section_title
;
Structure prediction by ZEFSAII (Michael W. Deem and Ramdas Pophale) SiO2 
 PCOD8204952
Probable space group: P B A N
;
_chemical_formula_sum "Si O2"
_cell_formula_units_Z 24
_cell_length_a 24.913004
_cell_length_b 5.118450
_cell_length_c 8.718049
_cell_angle_alpha 90.000000
_cell_angle_beta 90.000000
_cell_angle_gamma 90.000000
_cell_volume 1111.690434
_symmetry_space_group_name_H-M "P B A N"
_symmetry_group_IT_number 50
_space_group.IT_coordinate_system_code '2'
_symmetry_cell_setting 'orthorhombic'
loop_
_space_group_symop_operation_xyz
x,y,z
1/2-x,1/2-y,z
x,1/2-y,-z
1/2-x,y,-z
-x,-y,-z
1/2+x,1/2+y,-z
-x,1/2+y,z
1/2+x,-y,z
loop_
_atom_site_type_symbol
_atom_site_label
_atom_site_fract_x
_atom_site_fract_y
_atom_site_fract_z
Si Si1 0.644071 0.693609 0.330036
Si Si2 0.978257 0.926084 0.329975
Si Si3 0.687153 0.300559 0.827923
O O1 0.665943 0.750000 0.500000
O O2 0.579933 0.704690 0.327379
O O3 0.659306 0.399978 0.286848
O O4 0.670978 0.903844 0.216161
O O5 0.016733 0.708125 0.246460
O O6 0.000000 0.000000 0.500000
O O7 0.750000 0.250000 0.815844
O O8 0.666678 0.250000 0.000000
#
# Coordination Sequence:
#
# PCOD8204952 Si02
#       3
#     8   8   8
#     4  12  23  38  71 103 121 164 224 274 308 374
#     4  10  19  34  59  95 127 165 197 256 321 392
#     4  11  26  46  64  88 134 181 209 256 335 396
#
# _framework density 21.588746
#
# number of rings (size 3 to 8) (size 9 to 14) (size 15 to 20)
#    0.000    1.000    3.333    5.000    4.667    6.667 
#    0.000    0.000    0.000   20.000    0.000    0.000 
#    0.000    0.000    0.000    0.000    0.000    0.000 
#
# Total GULP energy -297405.786842 kJ/mol
# GULP energy per Si atom -12391.907785 kJ/mol
# Density = 2.153961 g / cm^3
# Si number density = 21.588746 Si / 1000 Ang^3
#
#
#
# Elastic Constant Matrix: (Units=GPa)
#
#
# Indices 1 2 3 4 5 6 
#
# 1 90.9492 25.4874 18.9635 0.0000 0.0000 0.0000
# 2 25.4874 152.7858 9.5026 0.0000 0.0000 0.0000
# 3 18.9635 9.5026 76.4297 0.0000 0.0000 0.0000
# 4 0.0000 0.0000 0.0000 34.0937 0.0000 0.0000
# 5 0.0000 0.0000 0.0000 0.0000 57.0058 0.0000
# 6 0.0000 0.0000 0.0000 0.0000 0.0000 44.3223
#
#
#
# Elastic Compliance Matrix: (Units=1/GPa)
#
#
# Indices 1 2 3 4 5 6 
#
# 1 0.012090 -0.001844 -0.002770 0.000000 0.000000 0.000000
# 2 -0.001844 0.006878 -0.000397 0.000000 0.000000 0.000000
# 3 -0.002770 -0.000397 0.013821 0.000000 0.000000 0.000000
# 4 0.000000 0.000000 0.000000 0.029331 0.000000 0.000000
# 5 0.000000 0.000000 0.000000 0.000000 0.017542 0.000000
# 6 0.000000 0.000000 0.000000 0.000000 0.000000 0.022562
#
#
# Mechanical properties :
#
#
# Convention : Reuss Voigt Hill
#
# Bulk Modulus (GPa) = 43.93017 47.56352 45.74685
# Shear Modulus (GPa) = 41.72397 44.83176 43.27786
#
# Velocity S-wave (km/s) = 4.40099 4.56195 4.48219
# Velocity P-wave (km/s) = 6.79836 7.05889 6.92985
#
# Compressibility (1/GPa) = 0.02276340
#
# Stress axis : x y z
#
# Youngs Moduli (GPa) = 82.71529 145.40121 72.35525
#
# Poissons Ratio (x) = 0.26819 0.20045
# Poissons Ratio (y) = 0.15257 0.02876
# Poissons Ratio (z) = 0.22915 0.05779
#
# Static dielectric constant tensor:
#      x y z
#    x 0.000000 0.000000 0.000000 
#    y 0.000000 0.000000 0.000000 
#    z 0.000000 0.000000 0.000000 
# 
# 
# High freq. dielectric constant tensor:
#      x y z
#    x 1.851490 0.000000 0.000000 
#    y 0.000000 1.887600 0.000000 
#    z 0.000000 0.000000 1.809200 
# 
# From -- ./inp_files/7650.got.cif
#   From: 2010.03.12/outbox.cif.g09.slc.cpg/sg50_4_cif.got.tgz:7650.got - 2010.04.16 13:23:21.
