data_PCOD8204855
_publ_section_title
;
Structure prediction by ZEFSAII (Michael W. Deem and Ramdas Pophale) SiO2 
 PCOD8204855
Probable space group: P B A N
;
_chemical_formula_sum "Si O2"
_cell_formula_units_Z 54
_cell_length_a 15.062694
_cell_length_b 10.809803
_cell_length_c 15.237905
_cell_angle_alpha 90.000000
_cell_angle_beta 90.000000
_cell_angle_gamma 90.000000
_cell_volume 2481.108145
_symmetry_space_group_name_H-M "P B A N"
_symmetry_group_IT_number 50
_space_group.IT_coordinate_system_code '2'
_symmetry_cell_setting 'orthorhombic'
loop_
_space_group_symop_operation_xyz
x,y,z
1/2-x,1/2-y,z
x,1/2-y,-z
1/2-x,y,-z
-x,-y,-z
1/2+x,1/2+y,-z
-x,1/2+y,z
1/2+x,-y,z
loop_
_atom_site_type_symbol
_atom_site_label
_atom_site_fract_x
_atom_site_fract_y
_atom_site_fract_z
Si Si1 0.465496 0.652121 0.239611
Si Si2 0.367786 0.052618 0.656404
Si Si3 0.173653 0.828152 0.834318
Si Si4 0.527346 0.321784 0.410120
Si Si5 0.215282 0.878510 0.636966
Si Si6 0.852921 0.596215 0.860005
Si Si7 0.250000 0.250000 0.731001
Si Si8 0.750000 0.750000 0.000000
O O1 0.409701 0.527047 0.262497
O O2 0.411204 0.741825 0.175929
O O3 0.483893 0.724553 0.330249
O O4 0.550672 0.623692 0.180433
O O5 0.447693 0.078774 0.588767
O O6 0.332500 0.190466 0.679439
O O7 0.286933 0.981658 0.608033
O O8 0.250000 0.750000 0.884476
O O9 0.213687 0.873138 0.741747
O O10 0.149745 0.952097 0.887296
O O11 0.529113 0.250000 0.500000
O O12 0.616956 0.403646 0.399746
O O13 0.250000 0.750000 0.596913
O O14 0.782714 0.631117 0.785051
O O15 0.821475 0.671066 0.945103
#
# Coordination Sequence:
#
# PCOD8204855 Si02
#       8
#     8   8   8   8   8   8   4   2
#     4  11  21  40  69  99 129 184 238 286 350 412
#     4  12  22  40  67  99 136 183 245 300 348 417
#     4  10  18  38  70 101 128 173 236 280 324 415
#     4  11  25  41  62 100 141 182 246 296 355 421
#     4  10  19  41  64  96 132 184 238 290 353 417
#     4  11  22  42  70  97 140 179 221 278 345 429
#     4  11  22  35  65  95 128 178 225 282 345 411
#     4  10  28  48  66 110 148 184 214 274 372 420
#
# _framework density 21.764468999999998
#
# number of rings (size 3 to 8) (size 9 to 14) (size 15 to 20)
#    0.000    1.185    7.407    1.778    0.000    0.889 
#    0.000    2.963    3.259    0.000    0.000    0.000 
#    0.000    0.000    0.000    0.000    0.000    0.000 
#
# Total GULP energy -669159.770985 kJ/mol
# GULP energy per Si atom -12391.847611 kJ/mol
# Density = 2.171493 g / cm^3
# Si number density = 21.764469 Si / 1000 Ang^3
#
#
#
# Elastic Constant Matrix: (Units=GPa)
#
#
# Indices 1 2 3 4 5 6 
#
# 1 190.0618 78.9332 54.7204 0.0000 0.0000 0.0000
# 2 78.9332 131.2332 38.0927 0.0000 0.0000 0.0000
# 3 54.7204 38.0927 65.0271 0.0000 0.0000 0.0000
# 4 0.0000 0.0000 0.0000 4.2816 0.0000 0.0000
# 5 0.0000 0.0000 0.0000 0.0000 208.1172 0.0000
# 6 0.0000 0.0000 0.0000 0.0000 0.0000 49.8674
#
#
#
# Elastic Compliance Matrix: (Units=1/GPa)
#
#
# Indices 1 2 3 4 5 6 
#
# 1 0.008075 -0.003475 -0.004759 0.000000 0.000000 0.000000
# 2 -0.003475 0.010677 -0.003330 0.000000 0.000000 0.000000
# 3 -0.004759 -0.003330 0.021334 0.000000 0.000000 0.000000
# 4 0.000000 0.000000 0.000000 0.233557 0.000000 0.000000
# 5 0.000000 0.000000 0.000000 0.000000 0.004805 0.000000
# 6 0.000000 0.000000 0.000000 0.000000 0.000000 0.020053
#
#
# Mechanical properties :
#
#
# Convention : Reuss Voigt Hill
#
# Bulk Modulus (GPa) = 58.97439 81.09054 70.03246
# Shear Modulus (GPa) = 15.27730 66.75828 41.01779
#
# Velocity S-wave (km/s) = 2.65228 5.54433 4.34593
# Velocity P-wave (km/s) = 6.04441 8.85016 7.57827
#
# Compressibility (1/GPa) = 0.01695651
#
# Stress axis : x y z
#
# Youngs Moduli (GPa) = 123.83830 93.65925 46.87398
#
# Poissons Ratio (x) = 0.32551 0.22308
# Poissons Ratio (y) = 0.43040 0.15609
# Poissons Ratio (z) = 0.58938 0.31188
#
# Static dielectric constant tensor:
#      x y z
#    x 4.232590 0.000000 0.000000 
#    y 0.000000 4.208510 0.000000 
#    z 0.000000 0.000000 3.402200 
# 
# 
# High freq. dielectric constant tensor:
#      x y z
#    x 1.879720 0.000000 0.000000 
#    y 0.000000 1.866710 0.000000 
#    z 0.000000 0.000000 1.797450 
# 
# From -- ./inp_files/26524.got.cif
#   From: 2010.03.12/outbox.cif.g09.slc.cpg/sg50_14_cif.got.tgz:26524.got - 2010.04.16 13:23:21.
