data_PCOD8204699
_publ_section_title
;
Structure prediction by ZEFSAII (Michael W. Deem and Ramdas Pophale) SiO2 
 PCOD8204699
Probable space group: P C C M
;
_chemical_formula_sum "Si O2"
_cell_formula_units_Z 34
_cell_length_a 13.633971
_cell_length_b 11.942712
_cell_length_c 10.096760
_cell_angle_alpha 90.000000
_cell_angle_beta 90.000000
_cell_angle_gamma 90.000000
_cell_volume 1644.020991
_symmetry_space_group_name_H-M "P C C M"
_symmetry_group_IT_number 49
_symmetry_cell_setting 'orthorhombic'
loop_
_space_group_symop_operation_xyz
x,y,z
-x,-y,z
x,-y,1/2-z
-x,y,1/2-z
-x,-y,-z
x,y,-z
-x,y,1/2+z
x,-y,1/2+z
loop_
_atom_site_type_symbol
_atom_site_label
_atom_site_fract_x
_atom_site_fract_y
_atom_site_fract_z
Si Si1 0.198156 0.402469 0.154194
Si Si2 0.000000 0.000000 0.750000
Si Si3 0.840085 0.161872 0.650975
Si Si4 0.366431 0.910298 0.651220
Si Si5 0.578846 0.659888 0.147307
O O1 0.158341 0.500000 0.250000
O O2 0.141858 0.288772 0.202826
O O3 0.313736 0.386648 0.179420
O O4 0.176426 0.431876 0.000000
O O5 0.066055 0.918438 0.661398
O O6 0.809716 0.179955 0.500000
O O7 0.743302 0.106889 0.713489
O O8 0.366320 0.957127 0.500000
O O9 0.423898 0.794125 0.657562
O O10 0.417039 0.000000 0.750000
O O11 0.500000 0.609073 0.250000
O O12 0.546658 0.623231 0.000000
#
# Coordination Sequence:
#
# PCOD8204699 Si02
#       5
#     8   2   8   8   8
#     4   9  19  38  58  77 107 146 182 222 267 315
#     4  12  18  32  62  86 106 136 178 214 270 324
#     4   9  19  34  53  80 112 139 172 220 272 319
#     4   9  17  32  49  70 103 143 176 214 265 318
#     4   9  19  33  50  73 106 140 178 224 268 309
#
# _framework density 20.681000000000001
#
# number of rings (size 3 to 8) (size 9 to 14) (size 15 to 20)
#    0.000    2.824    1.176    3.176    0.000    2.824 
#    0.000   11.176    0.000    2.824    0.000    0.000 
#    0.000    0.000    0.000    0.000    0.000    0.000 
#
# Total GULP energy -421323.271426 kJ/mol
# GULP energy per Si atom -12391.860924 kJ/mol
# Density = 2.063393 g / cm^3
# Si number density = 20.681000 Si / 1000 Ang^3
#
#
#
# Elastic Constant Matrix: (Units=GPa)
#
#
# Indices 1 2 3 4 5 6 
#
# 1 63.5016 15.6961 14.7310 0.0000 0.0000 0.0000
# 2 15.6961 123.5239 50.4145 0.0000 0.0000 0.0000
# 3 14.7310 50.4145 88.2879 0.0000 0.0000 0.0000
# 4 0.0000 0.0000 0.0000 22.2354 0.0000 0.0000
# 5 0.0000 0.0000 0.0000 0.0000 -38.3204 0.0000
# 6 0.0000 0.0000 0.0000 0.0000 0.0000 16.1008
#
#
#
# Elastic Compliance Matrix: (Units=1/GPa)
#
#
# Indices 1 2 3 4 5 6 
#
# 1 0.016533 -0.001271 -0.002033 0.000000 0.000000 0.000000
# 2 -0.001271 0.010653 -0.005871 0.000000 0.000000 0.000000
# 3 -0.002033 -0.005871 0.015018 0.000000 0.000000 0.000000
# 4 0.000000 0.000000 0.000000 0.044973 0.000000 0.000000
# 5 0.000000 0.000000 0.000000 0.000000 -0.026096 0.000000
# 6 0.000000 0.000000 0.000000 0.000000 0.000000 0.062109
#
#
# Mechanical properties :
#
#
# Convention : Reuss Voigt Hill
#
# Bulk Modulus (GPa) = 41.92035 48.55516 45.23776
# Shear Modulus (GPa) = 33.44627 12.96794 23.20710
#
# Velocity S-wave (km/s) = 4.02586 2.50681 3.35348
# Velocity P-wave (km/s) = 6.47488 5.64871 6.07585
#
# Compressibility (1/GPa) = 0.02385476
#
# Stress axis : x y z
#
# Youngs Moduli (GPa) = 60.48360 93.86680 66.58517
#
# Poissons Ratio (x) = 0.11933 0.13535
# Poissons Ratio (y) = 0.07689 0.39094
# Poissons Ratio (z) = 0.12295 0.55111
#
# Static dielectric constant tensor:
#      x y z
#    x 3.390660 0.000000 0.000000 
#    y 0.000000 3.782030 0.000000 
#    z 0.000000 0.000000 3.509820 
# 
# 
# High freq. dielectric constant tensor:
#      x y z
#    x 1.786830 0.000000 0.000000 
#    y 0.000000 1.818050 0.000000 
#    z 0.000000 0.000000 1.788810 
# 
# From -- ./inp_files/3348.got.cif
#   From: 2010.03.12/outbox.cif.g09.slc.cpg/sg49_2_cif.got.tgz:3348.got - 2010.04.14 03:58:27.
