data_PCOD8204440
_publ_section_title
;
Structure prediction by ZEFSAII (Michael W. Deem and Ramdas Pophale) SiO2 
 PCOD8204440
Probable space group: P C C M
;
_chemical_formula_sum "Si O2"
_cell_formula_units_Z 64
_cell_length_a 12.213348
_cell_length_b 14.349062
_cell_length_c 16.199928
_cell_angle_alpha 90.000000
_cell_angle_beta 90.000000
_cell_angle_gamma 90.000000
_cell_volume 2839.038802
_symmetry_space_group_name_H-M "P C C M"
_symmetry_group_IT_number 49
_symmetry_cell_setting 'orthorhombic'
loop_
_space_group_symop_operation_xyz
x,y,z
-x,-y,z
x,-y,1/2-z
-x,y,1/2-z
-x,-y,-z
x,y,-z
-x,y,1/2+z
x,-y,1/2+z
loop_
_atom_site_type_symbol
_atom_site_label
_atom_site_fract_x
_atom_site_fract_y
_atom_site_fract_z
Si Si1 0.947897 0.100095 0.901640
Si Si2 0.503637 0.397179 0.653063
Si Si3 0.255071 0.185585 0.327156
Si Si4 0.666751 0.763934 0.143089
Si Si5 0.118736 0.462892 0.902718
Si Si6 0.267246 0.628495 0.096498
Si Si7 0.481244 0.897667 0.152590
Si Si8 0.891929 0.740624 0.090587
O O1 0.840301 0.109749 0.843731
O O2 0.031380 0.180746 0.868982
O O3 0.922335 0.108637 0.000000
O O4 0.000000 0.000000 0.882159
O O5 0.500000 0.500000 0.612216
O O6 0.500000 0.403851 0.750000
O O7 0.613623 0.339704 0.632249
O O8 0.392508 0.350614 0.621449
O O9 0.284628 0.211396 0.233332
O O10 0.207611 0.278741 0.371022
O O11 0.362094 0.141279 0.370484
O O12 0.572624 0.832600 0.112289
O O13 0.767890 0.777864 0.082055
O O14 0.211255 0.534146 0.865551
O O15 0.120206 0.359145 0.861459
O O16 0.000000 0.500000 0.880730
O O17 0.139070 0.453927 0.000000
O O18 0.251452 0.622823 0.000000
O O19 0.500000 0.896697 0.250000
O O20 0.500000 0.000000 0.115605
O O21 0.940668 0.721387 0.000000
#
# Coordination Sequence:
#
# PCOD8204440 Si02
#       8
#     8   8   8   8   8   8   8   8
#     4  10  23  43  65  90 124 164 206 261 328 380
#     4  11  21  37  58  86 126 170 200 246 319 375
#     4  11  21  39  64  89 123 157 205 258 310 379
#     4  11  21  39  61  90 125 162 203 253 310 377
#     4   9  18  35  59  86 116 156 207 257 307 362
#     4  11  21  35  60  91 120 162 213 257 307 378
#     4   9  19  36  60  86 115 155 196 244 305 362
#     4  10  22  40  60  85 121 162 202 256 315 370
#
# _framework density 22.542840000000002
#
# number of rings (size 3 to 8) (size 9 to 14) (size 15 to 20)
#    0.000    1.750    2.500    2.250    1.750    3.250 
#    0.000    0.625    0.000    2.625    0.000    0.000 
#    0.000    0.000    0.000    0.000    0.000    0.000 
#
# Total GULP energy -792940.371275 kJ/mol
# GULP energy per Si atom -12389.693301 kJ/mol
# Density = 2.249153 g / cm^3
# Si number density = 22.542840 Si / 1000 Ang^3
#
#
#
# Elastic Constant Matrix: (Units=GPa)
#
#
# Indices 1 2 3 4 5 6 
#
# 1 142.2977 69.2650 12.0006 0.0000 0.0000 0.0000
# 2 69.2650 177.4341 22.7581 0.0000 0.0000 0.0000
# 3 12.0006 22.7581 27.5528 0.0000 0.0000 0.0000
# 4 0.0000 0.0000 0.0000 10.1103 0.0000 0.0000
# 5 0.0000 0.0000 0.0000 0.0000 27.3516 0.0000
# 6 0.0000 0.0000 0.0000 0.0000 0.0000 46.6949
#
#
#
# Elastic Compliance Matrix: (Units=1/GPa)
#
#
# Indices 1 2 3 4 5 6 
#
# 1 0.008706 -0.003257 -0.001101 0.000000 0.000000 0.000000
# 2 -0.003257 0.007522 -0.004795 0.000000 0.000000 0.000000
# 3 -0.001101 -0.004795 0.040734 0.000000 0.000000 0.000000
# 4 0.000000 0.000000 0.000000 0.098909 0.000000 0.000000
# 5 0.000000 0.000000 0.000000 0.000000 0.036561 0.000000
# 6 0.000000 0.000000 0.000000 0.000000 0.000000 0.021416
#
#
# Mechanical properties :
#
#
# Convention : Reuss Voigt Hill
#
# Bulk Modulus (GPa) = 25.86943 61.70354 43.78649
# Shear Modulus (GPa) = 20.40482 33.04876 26.72679
#
# Velocity S-wave (km/s) = 3.01185 3.83305 3.44699
# Velocity P-wave (km/s) = 4.85753 6.85717 5.94207
#
# Compressibility (1/GPa) = 0.03865566
#
# Stress axis : x y z
#
# Youngs Moduli (GPa) = 114.86448 132.93613 24.54949
#
# Poissons Ratio (x) = 0.43301 0.02704
# Poissons Ratio (y) = 0.37414 0.11771
# Poissons Ratio (z) = 0.12651 0.63739
#
# Static dielectric constant tensor:
#      x y z
#    x 4.112020 0.000000 0.000000 
#    y 0.000000 4.694390 0.000000 
#    z 0.000000 0.000000 3.408440 
# 
# 
# High freq. dielectric constant tensor:
#      x y z
#    x 1.899450 0.000000 0.000000 
#    y 0.000000 1.906390 0.000000 
#    z 0.000000 0.000000 1.838590 
# 
# From -- ./inp_files/17324.got.cif
#   From: 2010.03.12/outbox.cif.g09.slc.cpg/sg49_9_cif.got.tgz:17324.got - 2010.04.14 03:58:27.
