data_PCOD8204208
_publ_section_title
;
Structure prediction by ZEFSAII (Michael W. Deem and Ramdas Pophale) SiO2 
 PCOD8204208
Probable space group: P C C M
;
_chemical_formula_sum "Si O2"
_cell_formula_units_Z 38
_cell_length_a 11.051399
_cell_length_b 6.392611
_cell_length_c 27.968669
_cell_angle_alpha 90.000000
_cell_angle_beta 90.000000
_cell_angle_gamma 90.000000
_cell_volume 1975.910804
_symmetry_space_group_name_H-M "P C C M"
_symmetry_group_IT_number 49
_symmetry_cell_setting 'orthorhombic'
loop_
_space_group_symop_operation_xyz
x,y,z
-x,-y,z
x,-y,1/2-z
-x,y,1/2-z
-x,-y,-z
x,y,-z
-x,y,1/2+z
x,-y,1/2+z
loop_
_atom_site_type_symbol
_atom_site_label
_atom_site_fract_x
_atom_site_fract_y
_atom_site_fract_z
Si Si1 0.000000 0.500000 0.598682
Si Si2 0.796111 0.793867 0.119648
Si Si3 0.362929 0.490592 0.054888
Si Si4 0.500000 0.500000 0.250000
Si Si5 0.171440 0.174818 0.554074
Si Si6 0.618018 0.878922 0.202631
O O1 0.093910 0.632813 0.631628
O O2 0.070371 0.348780 0.562857
O O3 0.697513 0.686373 0.086495
O O4 0.731818 0.876077 0.167381
O O5 0.850313 0.989815 0.091290
O O6 0.500000 0.500000 0.072447
O O7 0.302701 0.718357 0.062020
O O8 0.353070 0.417878 0.000000
O O9 0.583542 0.641295 0.215758
O O10 0.158555 0.090054 0.500000
O O11 0.500000 0.000000 0.181101
O O12 0.661507 0.000000 0.250000
#
# Coordination Sequence:
#
# PCOD8204208 Si02
#       6
#     4   8   8   2   8   8
#     4  10  23  38  54  83 110 158 202 237 275 346
#     4  11  22  35  60  83 117 151 194 237 290 340
#     4   9  20  34  50  83 123 157 193 229 281 348
#     4   8  18  40  60  80 118 144 170 232 298 342
#     4  10  21  37  57  81 115 157 198 241 281 331
#     4   9  21  37  60  90 112 141 189 239 296 359
#
# _framework density 19.231636999999999
#
# number of rings (size 3 to 8) (size 9 to 14) (size 15 to 20)
#    0.000    2.526    0.000    1.579    4.421    8.421 
#    0.000    3.158    0.000    9.474    0.000    0.000 
#    0.000    0.000    0.000    0.000    0.000    0.000 
#
# Total GULP energy -471185.160827 kJ/mol
# GULP energy per Si atom -12399.609495 kJ/mol
# Density = 1.918786 g / cm^3
# Si number density = 19.231637 Si / 1000 Ang^3
#
#
#
# Elastic Constant Matrix: (Units=GPa)
#
#
# Indices 1 2 3 4 5 6 
#
# 1 133.3114 53.3668 51.7584 0.0000 0.0000 0.0000
# 2 53.3668 119.8614 51.8961 0.0000 0.0000 0.0000
# 3 51.7584 51.8961 94.7842 0.0000 0.0000 0.0000
# 4 0.0000 0.0000 0.0000 29.1789 0.0000 0.0000
# 5 0.0000 0.0000 0.0000 0.0000 41.9878 0.0000
# 6 0.0000 0.0000 0.0000 0.0000 0.0000 26.4303
#
#
#
# Elastic Compliance Matrix: (Units=1/GPa)
#
#
# Indices 1 2 3 4 5 6 
#
# 1 0.010184 -0.002787 -0.004035 0.000000 0.000000 0.000000
# 2 -0.002787 0.011698 -0.004883 0.000000 0.000000 0.000000
# 3 -0.004035 -0.004883 0.015427 0.000000 0.000000 0.000000
# 4 0.000000 0.000000 0.000000 0.034271 0.000000 0.000000
# 5 0.000000 0.000000 0.000000 0.000000 0.023816 0.000000
# 6 0.000000 0.000000 0.000000 0.000000 0.000000 0.037835
#
#
# Mechanical properties :
#
#
# Convention : Reuss Voigt Hill
#
# Bulk Modulus (GPa) = 71.94875 73.55552 72.75213
# Shear Modulus (GPa) = 31.00301 32.24843 31.62572
#
# Velocity S-wave (km/s) = 4.01943 4.09937 4.05960
# Velocity P-wave (km/s) = 7.68336 7.79337 7.73856
#
# Compressibility (1/GPa) = 0.01389878
#
# Stress axis : x y z
#
# Youngs Moduli (GPa) = 98.19791 85.48422 64.82096
#
# Poissons Ratio (x) = 0.23825 0.26154
# Poissons Ratio (y) = 0.27369 0.31652
# Poissons Ratio (z) = 0.39622 0.41742
#
# Static dielectric constant tensor:
#      x y z
#    x 3.633240 0.000000 0.000000 
#    y 0.000000 3.627560 0.000000 
#    z 0.000000 0.000000 3.228120 
# 
# 
# High freq. dielectric constant tensor:
#      x y z
#    x 1.750340 0.000000 0.000000 
#    y 0.000000 1.759140 0.000000 
#    z 0.000000 0.000000 1.721390 
# 
# From -- ./inp_files/23778.got.cif
#   From: 2010.03.12/outbox.cif.g09.slc.cpg/sg49_12_cif.got.tgz:23778.got - 2010.04.14 03:58:27.
