data_PCOD8204309
_publ_section_title
;
Structure prediction by ZEFSAII (Michael W. Deem and Ramdas Pophale) SiO2 
 PCOD8204309
Probable space group: P C C M
;
_chemical_formula_sum "Si O2"
_cell_formula_units_Z 48
_cell_length_a 4.956630
_cell_length_b 17.909225
_cell_length_c 26.140640
_cell_angle_alpha 90.000000
_cell_angle_beta 90.000000
_cell_angle_gamma 90.000000
_cell_volume 2320.488978
_symmetry_space_group_name_H-M "P C C M"
_symmetry_group_IT_number 49
_symmetry_cell_setting 'orthorhombic'
loop_
_space_group_symop_operation_xyz
x,y,z
-x,-y,z
x,-y,1/2-z
-x,y,1/2-z
-x,-y,-z
x,y,-z
-x,y,1/2+z
x,-y,1/2+z
loop_
_atom_site_type_symbol
_atom_site_label
_atom_site_fract_x
_atom_site_fract_y
_atom_site_fract_z
Si Si1 0.728368 0.451946 0.647523
Si Si2 0.767467 0.688194 0.216329
Si Si3 0.004724 0.173170 0.655104
Si Si4 0.517499 0.368214 0.557034
Si Si5 0.026524 0.268866 0.557832
Si Si6 0.481916 0.914988 0.689281
O O1 0.500000 0.500000 0.676922
O O2 0.723318 0.370065 0.671317
O O3 0.621478 0.438058 0.590052
O O4 0.000000 0.500000 0.648374
O O5 0.500000 0.705236 0.250000
O O6 0.896375 0.762528 0.192825
O O7 0.000000 0.650066 0.250000
O O8 0.801779 0.105638 0.663794
O O9 0.027327 0.199163 0.596332
O O10 0.298969 0.143354 0.668853
O O11 0.478542 0.399708 0.500000
O O12 0.233956 0.333439 0.577228
O O13 0.727674 0.300722 0.558119
O O14 0.107154 0.242945 0.500000
O O15 0.500000 0.910075 0.750000
O O16 0.500000 0.000000 0.670762
#
# Coordination Sequence:
#
# PCOD8204309 Si02
#       6
#     8   8   8   8   8   8
#     4  12  26  41  61  85 123 167 205 259 321 371
#     4  12  26  41  62  90 121 160 218 262 301 362
#     4  12  22  40  69  92 124 163 207 256 303 362
#     4  10  21  40  62  88 121 155 202 263 319 371
#     4  10  21  38  65  94 122 156 202 259 315 365
#     4  11  24  41  62  96 134 166 200 245 308 371
#
# _framework density 20.685296999999998
#
# number of rings (size 3 to 8) (size 9 to 14) (size 15 to 20)
#    0.000    0.833    1.667    6.500    2.333    4.000 
#    0.000    0.000    0.000    3.000    0.000    0.000 
#    0.000    0.000    0.000    0.000    0.000    0.000 
#
# Total GULP energy -595039.438950 kJ/mol
# GULP energy per Si atom -12396.654978 kJ/mol
# Density = 2.063822 g / cm^3
# Si number density = 20.685297 Si / 1000 Ang^3
#
#
#
# Elastic Constant Matrix: (Units=GPa)
#
#
# Indices 1 2 3 4 5 6 
#
# 1 61.5682 -9.7378 10.4524 0.0000 0.0000 0.0000
# 2 -9.7378 75.2454 24.2166 0.0000 0.0000 0.0000
# 3 10.4524 24.2166 81.3101 0.0000 0.0000 0.0000
# 4 0.0000 0.0000 0.0000 25.4962 0.0000 0.0000
# 5 0.0000 0.0000 0.0000 0.0000 28.0191 0.0000
# 6 0.0000 0.0000 0.0000 0.0000 0.0000 45.3947
#
#
#
# Elastic Compliance Matrix: (Units=1/GPa)
#
#
# Indices 1 2 3 4 5 6 
#
# 1 0.017302 0.003268 -0.003198 0.000000 0.000000 0.000000
# 2 0.003268 0.015316 -0.004982 0.000000 0.000000 0.000000
# 3 -0.003198 -0.004982 0.014193 0.000000 0.000000 0.000000
# 4 0.000000 0.000000 0.000000 0.039222 0.000000 0.000000
# 5 0.000000 0.000000 0.000000 0.000000 0.035690 0.000000
# 6 0.000000 0.000000 0.000000 0.000000 0.000000 0.022029
#
#
# Mechanical properties :
#
#
# Convention : Reuss Voigt Hill
#
# Bulk Modulus (GPa) = 27.03492 29.77624 28.40558
# Shear Modulus (GPa) = 30.13796 32.66148 31.39972
#
# Velocity S-wave (km/s) = 3.82117 3.97794 3.90034
# Velocity P-wave (km/s) = 5.70671 5.96027 5.83486
#
# Compressibility (1/GPa) = 0.03698919
#
# Stress axis : x y z
#
# Youngs Moduli (GPa) = 57.79714 65.29083 70.45552
#
# Poissons Ratio (x) = -0.21338 0.22528
# Poissons Ratio (y) = -0.18889 0.35099
# Poissons Ratio (z) = 0.18481 0.32526
#
# Static dielectric constant tensor:
#      x y z
#    x 3.849310 0.000000 0.000000 
#    y 0.000000 3.653490 0.000000 
#    z 0.000000 0.000000 3.922570 
# 
# 
# High freq. dielectric constant tensor:
#      x y z
#    x 1.833360 0.000000 0.000000 
#    y 0.000000 1.798860 0.000000 
#    z 0.000000 0.000000 1.806660 
# 
# From -- ./inp_files/23954.got.cif
#   From: 2010.03.12/outbox.cif.g09.slc.cpg/sg49_12_cif.got.tgz:23954.got - 2010.04.14 03:58:27.
