data_PCOD8204051
_publ_section_title
;
Structure prediction by ZEFSAII (Michael W. Deem and Ramdas Pophale) SiO2 
 PCOD8204051
Probable space group: P C C M
;
_chemical_formula_sum "Si O2"
_cell_formula_units_Z 64
_cell_length_a 16.371879
_cell_length_b 12.505504
_cell_length_c 15.549933
_cell_angle_alpha 90.000000
_cell_angle_beta 90.000000
_cell_angle_gamma 90.000000
_cell_volume 3183.671486
_symmetry_space_group_name_H-M "P C C M"
_symmetry_group_IT_number 49
_symmetry_cell_setting 'orthorhombic'
loop_
_space_group_symop_operation_xyz
x,y,z
-x,-y,z
x,-y,1/2-z
-x,y,1/2-z
-x,-y,-z
x,y,-z
-x,y,1/2+z
x,-y,1/2+z
loop_
_atom_site_type_symbol
_atom_site_label
_atom_site_fract_x
_atom_site_fract_y
_atom_site_fract_z
Si Si1 0.711033 0.695919 0.596185
Si Si2 0.946194 0.600118 0.906213
Si Si3 0.999619 0.183450 0.151753
Si Si4 0.595186 0.372367 0.752110
Si Si5 0.175717 0.880992 0.148982
Si Si6 0.692751 0.702850 0.904981
Si Si7 0.786707 0.491534 0.347046
Si Si8 0.175942 0.123910 0.150198
O O1 0.674890 0.687332 0.500000
O O2 0.636763 0.676309 0.662183
O O3 0.754742 0.810203 0.604823
O O4 0.782895 0.608375 0.610398
O O5 0.875159 0.562115 0.842677
O O6 0.000000 0.500000 0.925820
O O7 0.000038 0.688915 0.858466
O O8 0.913499 0.641015 0.000000
O O9 0.915817 0.138063 0.109580
O O10 0.000000 0.146519 0.250000
O O11 0.084552 0.139944 0.110399
O O12 0.611756 0.500000 0.750000
O O13 0.500000 0.348476 0.750000
O O14 0.626633 0.302192 0.671018
O O15 0.173643 0.850121 0.248933
O O16 0.203033 0.002671 0.132175
O O17 0.732148 0.585846 0.904604
O O18 0.759969 0.795437 0.891976
O O19 0.653123 0.719809 0.000000
O O20 0.752624 0.500000 0.250000
#
# Coordination Sequence:
#
# PCOD8204051 Si02
#       8
#     8   8   8   8   8   8   8   8
#     4  12  23  40  64  92 129 166 203 252 310 371
#     4  11  24  35  48  77 116 160 211 264 311 362
#     4  10  21  34  55  83 119 164 214 265 312 353
#     4  11  24  44  69  99 131 160 197 245 306 382
#     4  10  21  38  60  88 123 169 219 264 308 358
#     4  12  22  39  66  95 127 161 202 252 307 371
#     4  12  22  37  60  84 119 164 210 250 306 369
#     4  10  20  38  62  88 123 167 218 267 307 357
#
# _framework density 20.102578000000001
#
# number of rings (size 3 to 8) (size 9 to 14) (size 15 to 20)
#    0.000    1.000    5.000    2.250    3.500    4.000 
#    0.000    1.250    0.000    3.750    0.000    1.750 
#    0.000    0.000    0.000    0.000    0.000    0.000 
#
# Total GULP energy -793200.198764 kJ/mol
# GULP energy per Si atom -12393.753106 kJ/mol
# Density = 2.005682 g / cm^3
# Si number density = 20.102578 Si / 1000 Ang^3
#
#
#
# Elastic Constant Matrix: (Units=GPa)
#
#
# Indices 1 2 3 4 5 6 
#
# 1 114.4603 37.2008 49.9428 0.0000 0.0000 0.0000
# 2 37.2008 106.1592 33.6092 0.0000 0.0000 0.0000
# 3 49.9428 33.6092 123.6584 0.0000 0.0000 0.0000
# 4 0.0000 0.0000 0.0000 25.2966 0.0000 0.0000
# 5 0.0000 0.0000 0.0000 0.0000 9.1639 0.0000
# 6 0.0000 0.0000 0.0000 0.0000 0.0000 16.2462
#
#
#
# Elastic Compliance Matrix: (Units=1/GPa)
#
#
# Indices 1 2 3 4 5 6 
#
# 1 0.011295 -0.002750 -0.003814 0.000000 0.000000 0.000000
# 2 -0.002750 0.010976 -0.001872 0.000000 0.000000 0.000000
# 3 -0.003814 -0.001872 0.010136 0.000000 0.000000 0.000000
# 4 0.000000 0.000000 0.000000 0.039531 0.000000 0.000000
# 5 0.000000 0.000000 0.000000 0.000000 0.109124 0.000000
# 6 0.000000 0.000000 0.000000 0.000000 0.000000 0.061553
#
#
# Mechanical properties :
#
#
# Convention : Reuss Voigt Hill
#
# Bulk Modulus (GPa) = 64.37788 65.08706 64.73247
# Shear Modulus (GPa) = 18.89165 25.04301 21.96733
#
# Velocity S-wave (km/s) = 3.06888 3.53336 3.30928
# Velocity P-wave (km/s) = 6.68218 7.00671 6.84637
#
# Compressibility (1/GPa) = 0.01553329
#
# Stress axis : x y z
#
# Youngs Moduli (GPa) = 88.53605 91.10422 98.65657
#
# Poissons Ratio (x) = 0.25058 0.37629
# Poissons Ratio (y) = 0.24351 0.18473
# Poissons Ratio (z) = 0.33769 0.17059
#
# Static dielectric constant tensor:
#      x y z
#    x 3.919730 0.000000 0.000000 
#    y 0.000000 3.621050 0.000000 
#    z 0.000000 0.000000 3.861600 
# 
# 
# High freq. dielectric constant tensor:
#      x y z
#    x 1.757340 0.000000 0.000000 
#    y 0.000000 1.784040 0.000000 
#    z 0.000000 0.000000 1.784270 
# 
# From -- ./inp_files/14184.got.cif
#   From: 2010.03.12/outbox.cif.g09.slc.cpg/sg49_8_cif.got.tgz:14184.got - 2010.04.14 03:58:27.
