data_PCOD8204748
_publ_section_title
;
Structure prediction by ZEFSAII (Michael W. Deem and Ramdas Pophale) SiO2 
 PCOD8204748
Probable space group: P B A N
;
_chemical_formula_sum "Si O2"
_cell_formula_units_Z 46
_cell_length_a 13.204086
_cell_length_b 9.698605
_cell_length_c 17.099002
_cell_angle_alpha 90.000000
_cell_angle_beta 90.000000
_cell_angle_gamma 90.000000
_cell_volume 2189.718963
_symmetry_space_group_name_H-M "P B A N"
_symmetry_group_IT_number 50
_space_group.IT_coordinate_system_code '2'
_symmetry_cell_setting 'orthorhombic'
loop_
_space_group_symop_operation_xyz
x,y,z
1/2-x,1/2-y,z
x,1/2-y,-z
1/2-x,y,-z
-x,-y,-z
1/2+x,1/2+y,-z
-x,1/2+y,z
1/2+x,-y,z
loop_
_atom_site_type_symbol
_atom_site_label
_atom_site_fract_x
_atom_site_fract_y
_atom_site_fract_z
Si Si1 0.250000 0.750000 0.500000
Si Si2 0.598035 0.321574 0.624531
Si Si3 0.544769 0.924301 0.174513
Si Si4 0.428745 0.985964 0.329321
Si Si5 0.036936 0.811220 0.080714
Si Si6 0.750000 0.250000 0.866860
Si Si7 0.230205 0.529310 0.747977
O O1 0.324107 0.653166 0.447519
O O2 0.492211 0.406742 0.616653
O O3 0.571718 0.159939 0.626506
O O4 0.654650 0.367120 0.702874
O O5 0.477576 0.975440 0.245142
O O6 0.517998 0.769482 0.150945
O O7 0.523204 0.026379 0.099905
O O8 0.661321 0.918801 0.205416
O O9 0.312798 0.037066 0.311611
O O10 0.156497 0.785229 0.078150
O O11 0.990617 0.750000 0.000000
O O12 0.714306 0.121662 0.813225
#
# Coordination Sequence:
#
# PCOD8204748 Si02
#       7
#     2   8   8   8   8   4   8
#     4  12  22  44  64  96 134 176 190 226 324 384
#     4  11  23  37  68  92 127 161 201 251 301 374
#     4  10  21  34  61  84 112 160 202 263 303 353
#     4  11  19  40  63  94 114 158 217 256 293 352
#     4  11  21  35  53  84 121 159 203 254 319 377
#     4  10  16  32  58  80 106 162 210 248 284 364
#     4  10  17  36  62  85 118 153 215 250 298 350
#
# _framework density 21.007262000000001
#
# number of rings (size 3 to 8) (size 9 to 14) (size 15 to 20)
#    0.000    1.391    5.217    2.870    0.000    0.696 
#    0.000    7.826    0.000    2.087    0.000    0.000 
#    0.000    0.000    0.000    0.000    0.000    0.000 
#
# Total GULP energy -569991.035900 kJ/mol
# GULP energy per Si atom -12391.109476 kJ/mol
# Density = 2.095945 g / cm^3
# Si number density = 21.007262 Si / 1000 Ang^3
#
#
#
# Elastic Constant Matrix: (Units=GPa)
#
#
# Indices 1 2 3 4 5 6 
#
# 1 103.7822 41.5044 18.0301 0.0000 0.0000 0.0000
# 2 41.5044 61.5975 15.1814 0.0000 0.0000 0.0000
# 3 18.0301 15.1814 63.1504 0.0000 0.0000 0.0000
# 4 0.0000 0.0000 0.0000 18.6401 0.0000 0.0000
# 5 0.0000 0.0000 0.0000 0.0000 33.1726 0.0000
# 6 0.0000 0.0000 0.0000 0.0000 0.0000 29.0131
#
#
#
# Elastic Compliance Matrix: (Units=1/GPa)
#
#
# Indices 1 2 3 4 5 6 
#
# 1 0.013370 -0.008576 -0.001756 0.000000 0.000000 0.000000
# 2 -0.008576 0.022758 -0.003022 0.000000 0.000000 0.000000
# 3 -0.001756 -0.003022 0.017063 0.000000 0.000000 0.000000
# 4 0.000000 0.000000 0.000000 0.053648 0.000000 0.000000
# 5 0.000000 0.000000 0.000000 0.000000 0.030145 0.000000
# 6 0.000000 0.000000 0.000000 0.000000 0.000000 0.034467
#
#
# Mechanical properties :
#
#
# Convention : Reuss Voigt Hill
#
# Bulk Modulus (GPa) = 37.76037 41.99576 39.87806
# Shear Modulus (GPa) = 24.15595 26.41941 25.28768
#
# Velocity S-wave (km/s) = 3.39468 3.55016 3.47329
# Velocity P-wave (km/s) = 5.77746 6.06954 5.92530
#
# Compressibility (1/GPa) = 0.02648279
#
# Stress axis : x y z
#
# Youngs Moduli (GPa) = 74.79217 43.94054 58.60613
#
# Poissons Ratio (x) = 0.37685 0.10289
# Poissons Ratio (y) = 0.64144 0.17713
# Poissons Ratio (z) = 0.13131 0.13281
#
# Static dielectric constant tensor:
#      x y z
#    x 4.198130 0.000000 0.000000 
#    y 0.000000 3.643930 0.000000 
#    z 0.000000 0.000000 3.671690 
# 
# 
# High freq. dielectric constant tensor:
#      x y z
#    x 1.830080 0.000000 0.000000 
#    y 0.000000 1.792010 0.000000 
#    z 0.000000 0.000000 1.808570 
# 
# From -- ./inp_files/29179.got.cif
#   From: 2010.03.12/outbox.cif.g09.slc.cpg/sg50_15_cif.got.tgz:29179.got - 2010.04.16 13:23:21.
