data_PCOD8204002
_publ_section_title
;
Structure prediction by ZEFSAII (Michael W. Deem and Ramdas Pophale) SiO2 
 PCOD8204002
Probable space group: P C C M
;
_chemical_formula_sum "Si O2"
_cell_formula_units_Z 52
_cell_length_a 19.414070
_cell_length_b 5.163501
_cell_length_c 23.842091
_cell_angle_alpha 90.000000
_cell_angle_beta 90.000000
_cell_angle_gamma 90.000000
_cell_volume 2390.040157
_symmetry_space_group_name_H-M "P C C M"
_symmetry_group_IT_number 49
_symmetry_cell_setting 'orthorhombic'
loop_
_space_group_symop_operation_xyz
x,y,z
-x,-y,z
x,-y,1/2-z
-x,y,1/2-z
-x,-y,-z
x,y,-z
-x,y,1/2+z
x,-y,1/2+z
loop_
_atom_site_type_symbol
_atom_site_label
_atom_site_fract_x
_atom_site_fract_y
_atom_site_fract_z
Si Si1 0.248673 0.251707 0.500000
Si Si2 0.703531 0.127620 0.882246
Si Si3 0.842446 0.243647 0.500000
Si Si4 0.425956 0.901563 0.187092
Si Si5 0.635770 0.500000 0.250000
Si Si6 0.899555 0.261605 0.284569
Si Si7 0.748665 0.651488 0.175575
Si Si8 0.043918 0.751790 0.408013
O O1 0.298318 0.208938 0.553143
O O2 0.217081 0.539142 0.500000
O O3 0.187739 0.044543 0.500000
O O4 0.627564 0.036652 0.862298
O O5 0.736998 0.361548 0.847336
O O6 0.749686 0.869957 0.873147
O O7 0.886771 0.272658 0.443772
O O8 0.415127 0.595677 0.199696
O O9 0.500000 0.000000 0.166246
O O10 0.408955 0.000000 0.250000
O O11 0.687165 0.710305 0.220487
O O12 0.933044 0.500000 0.250000
O O13 0.820182 0.333519 0.292714
O O14 0.938127 0.227309 0.342974
O O15 0.909342 0.000000 0.250000
O O16 0.000000 0.500000 0.421300
O O17 0.000000 0.000000 0.427180
#
# Coordination Sequence:
#
# PCOD8204002 Si02
#       8
#     4   8   4   8   4   8   8   8
#     4  12  24  43  71  96 130 160 217 270 347 381
#     4  11  23  40  61  94 128 172 209 274 326 388
#     4  12  26  49  72 100 119 164 223 290 327 387
#     4  10  21  37  58  91 132 170 218 254 313 374
#     4  10  20  37  60  92 129 168 216 272 322 370
#     4  12  25  39  63  96 133 173 214 259 329 405
#     4  11  22  39  62  93 129 164 218 267 328 376
#     4  12  26  46  69  94 129 172 218 270 327 393
#
# _framework density 21.756955000000001
#
# number of rings (size 3 to 8) (size 9 to 14) (size 15 to 20)
#    0.000    0.769    2.308    6.000    2.154    3.077 
#    0.000    0.385    0.000    0.000    0.000    4.308 
#    0.000    0.000    0.000    0.000    0.000    0.000 
#
# Total GULP energy -644454.053212 kJ/mol
# GULP energy per Si atom -12393.347177 kJ/mol
# Density = 2.170744 g / cm^3
# Si number density = 21.756955 Si / 1000 Ang^3
#
#
#
# Elastic Constant Matrix: (Units=GPa)
#
#
# Indices 1 2 3 4 5 6 
#
# 1 84.3441 24.2318 31.4002 0.0000 0.0000 0.0000
# 2 24.2318 115.3890 18.3115 0.0000 0.0000 0.0000
# 3 31.4002 18.3115 120.4567 0.0000 0.0000 0.0000
# 4 0.0000 0.0000 0.0000 37.4300 0.0000 0.0000
# 5 0.0000 0.0000 0.0000 0.0000 23.7269 0.0000
# 6 0.0000 0.0000 0.0000 0.0000 0.0000 -6.6778
#
#
#
# Elastic Compliance Matrix: (Units=1/GPa)
#
#
# Indices 1 2 3 4 5 6 
#
# 1 0.013737 -0.002374 -0.003220 0.000000 0.000000 0.000000
# 2 -0.002374 0.009291 -0.000794 0.000000 0.000000 0.000000
# 3 -0.003220 -0.000794 0.009262 0.000000 0.000000 0.000000
# 4 0.000000 0.000000 0.000000 0.026717 0.000000 0.000000
# 5 0.000000 0.000000 0.000000 0.000000 0.042146 0.000000
# 6 0.000000 0.000000 0.000000 0.000000 0.000000 -0.149751
#
#
# Mechanical properties :
#
#
# Convention : Reuss Voigt Hill
#
# Bulk Modulus (GPa) = 51.24341 52.00854 51.62598
# Shear Modulus (GPa) = -170.53996 27.31225 -71.61386
#
# Velocity S-wave (km/s) = -8.86309 3.54691 -5.74342
# Velocity P-wave (km/s) = 9.00751 6.38203 4.49471
#
# Compressibility (1/GPa) = 0.01951470
#
# Stress axis : x y z
#
# Youngs Moduli (GPa) = 72.79638 107.63373 107.97074
#
# Poissons Ratio (x) = 0.25550 0.34767
# Poissons Ratio (y) = 0.17280 0.08568
# Poissons Ratio (z) = 0.23441 0.08541
#
# Static dielectric constant tensor:
#      x y z
#    x 3.787450 0.000000 0.000000 
#    y 0.000000 4.512950 0.000000 
#    z 0.000000 0.000000 4.087150 
# 
# 
# High freq. dielectric constant tensor:
#      x y z
#    x 1.848790 0.000000 0.000000 
#    y 0.000000 1.873970 0.000000 
#    z 0.000000 0.000000 1.847170 
# 
# From -- ./inp_files/21202.got.cif
#   From: 2010.03.12/outbox.cif.g09.slc.cpg/sg49_11_cif.got.tgz:21202.got - 2010.04.14 03:58:27.
