data_PCOD8204038
_publ_section_title
;
Structure prediction by ZEFSAII (Michael W. Deem and Ramdas Pophale) SiO2 
 PCOD8204038
Probable space group: P C C M
;
_chemical_formula_sum "Si O2"
_cell_formula_units_Z 56
_cell_length_a 12.285773
_cell_length_b 16.621778
_cell_length_c 14.090928
_cell_angle_alpha 90.000000
_cell_angle_beta 90.000000
_cell_angle_gamma 90.000000
_cell_volume 2877.528012
_symmetry_space_group_name_H-M "P C C M"
_symmetry_group_IT_number 49
_symmetry_cell_setting 'orthorhombic'
loop_
_space_group_symop_operation_xyz
x,y,z
-x,-y,z
x,-y,1/2-z
-x,y,1/2-z
-x,-y,-z
x,y,-z
-x,y,1/2+z
x,-y,1/2+z
loop_
_atom_site_type_symbol
_atom_site_label
_atom_site_fract_x
_atom_site_fract_y
_atom_site_fract_z
Si Si1 0.880243 0.636427 0.247189
Si Si2 0.405421 0.549180 0.608706
Si Si3 0.509796 0.273238 0.390942
Si Si4 0.680061 0.760895 0.252357
Si Si5 0.177528 0.094206 0.745831
Si Si6 0.828748 0.500870 0.113464
Si Si7 0.007813 0.094755 0.103332
O O1 0.783360 0.701861 0.232911
O O2 0.897046 0.574237 0.158859
O O3 0.858338 0.586133 0.343877
O O4 0.000000 0.679744 0.250000
O O5 0.500000 0.500000 0.661792
O O6 0.398528 0.521711 0.500000
O O7 0.434355 0.641002 0.620177
O O8 0.290793 0.524598 0.652532
O O9 0.495414 0.246529 0.500000
O O10 0.391570 0.271609 0.340889
O O11 0.601158 0.221341 0.337501
O O12 0.717743 0.851623 0.273420
O O13 0.119801 0.118572 0.844711
O O14 0.097127 0.120654 0.661840
O O15 0.208966 0.000000 0.750000
O O16 0.844519 0.499444 0.000000
O O17 0.007007 0.136619 0.000000
O O18 0.000000 0.000000 0.093884
#
# Coordination Sequence:
#
# PCOD8204038 Si02
#       7
#     8   8   8   8   8   8   8
#     4  11  24  37  55  86 121 155 191 235 286 351
#     4   9  16  30  56  80 100 134 186 240 283 330
#     4  10  22  41  59  84 116 149 196 252 303 345
#     4  11  23  39  61  85 117 156 194 247 301 352
#     4   9  19  35  58  86 119 157 197 241 291 352
#     4  10  20  38  57  79 115 156 195 233 281 343
#     4   8  15  31  56  86 117 149 189 238 287 340
#
# _framework density 19.461148000000001
#
# number of rings (size 3 to 8) (size 9 to 14) (size 15 to 20)
#    0.000    2.286    1.429    2.571    2.000    4.000 
#    0.000    1.429    0.000    0.857    0.000    0.000 
#    0.000    0.000    0.000    0.000    0.000    0.000 
#
# Total GULP energy -693756.892933 kJ/mol
# GULP energy per Si atom -12388.515945 kJ/mol
# Density = 1.941685 g / cm^3
# Si number density = 19.461148 Si / 1000 Ang^3
#
#
#
# Elastic Constant Matrix: (Units=GPa)
#
#
# Indices 1 2 3 4 5 6 
#
# 1 119.8525 29.9901 32.9925 0.0000 0.0000 0.0000
# 2 29.9901 54.1718 18.6791 0.0000 0.0000 0.0000
# 3 32.9925 18.6791 135.4862 0.0000 0.0000 0.0000
# 4 0.0000 0.0000 0.0000 13.4976 0.0000 0.0000
# 5 0.0000 0.0000 0.0000 0.0000 8.1706 0.0000
# 6 0.0000 0.0000 0.0000 0.0000 0.0000 34.9045
#
#
#
# Elastic Compliance Matrix: (Units=1/GPa)
#
#
# Indices 1 2 3 4 5 6 
#
# 1 0.010073 -0.004967 -0.001768 0.000000 0.000000 0.000000
# 2 -0.004967 0.021830 -0.001800 0.000000 0.000000 0.000000
# 3 -0.001768 -0.001800 0.008060 0.000000 0.000000 0.000000
# 4 0.000000 0.000000 0.000000 0.074087 0.000000 0.000000
# 5 0.000000 0.000000 0.000000 0.000000 0.122391 0.000000
# 6 0.000000 0.000000 0.000000 0.000000 0.000000 0.028650
#
#
# Mechanical properties :
#
#
# Convention : Reuss Voigt Hill
#
# Bulk Modulus (GPa) = 43.68247 52.53709 48.10978
# Shear Modulus (GPa) = 17.25379 26.50447 21.87913
#
# Velocity S-wave (km/s) = 2.98077 3.69442 3.35662
# Velocity P-wave (km/s) = 5.86015 6.72702 6.30849
#
# Compressibility (1/GPa) = 0.02289248
#
# Stress axis : x y z
#
# Youngs Moduli (GPa) = 99.27358 45.80800 124.07603
#
# Poissons Ratio (x) = 0.22753 0.21939
# Poissons Ratio (y) = 0.49309 0.22336
# Poissons Ratio (z) = 0.17553 0.08246
#
# Static dielectric constant tensor:
#      x y z
#    x 3.752080 0.000000 0.000000 
#    y 0.000000 3.237120 0.000000 
#    z 0.000000 0.000000 4.406010 
# 
# 
# High freq. dielectric constant tensor:
#      x y z
#    x 1.765850 0.000000 0.000000 
#    y 0.000000 1.727720 0.000000 
#    z 0.000000 0.000000 1.760650 
# 
# From -- ./inp_files/12879.got.cif
#   From: 2010.03.12/outbox.cif.g09.slc.cpg/sg49_7_cif.got.tgz:12879.got - 2010.04.14 03:58:27.
