data_PCOD8204519
_publ_section_title
;
Structure prediction by ZEFSAII (Michael W. Deem and Ramdas Pophale) SiO2 
 PCOD8204519
Probable space group: P C C M
;
_chemical_formula_sum "Si O2"
_cell_formula_units_Z 48
_cell_length_a 9.032874
_cell_length_b 9.670335
_cell_length_c 27.688509
_cell_angle_alpha 90.000000
_cell_angle_beta 90.000000
_cell_angle_gamma 90.000000
_cell_volume 2418.616668
_symmetry_space_group_name_H-M "P C C M"
_symmetry_group_IT_number 49
_symmetry_cell_setting 'orthorhombic'
loop_
_space_group_symop_operation_xyz
x,y,z
-x,-y,z
x,-y,1/2-z
-x,y,1/2-z
-x,-y,-z
x,y,-z
-x,y,1/2+z
x,-y,1/2+z
loop_
_atom_site_type_symbol
_atom_site_label
_atom_site_fract_x
_atom_site_fract_y
_atom_site_fract_z
Si Si1 0.655512 0.203284 0.273042
Si Si2 0.328045 0.007390 0.862408
Si Si3 0.185923 0.745400 0.819659
Si Si4 0.873154 0.112007 0.445794
Si Si5 0.067572 0.646637 0.616964
Si Si6 0.656288 0.540317 0.164396
O O1 0.500000 0.150098 0.250000
O O2 0.705206 0.101034 0.315653
O O3 0.792028 0.197573 0.234773
O O4 0.626733 0.360267 0.290022
O O5 0.258075 0.075409 0.909580
O O6 0.500000 0.000000 0.872970
O O7 0.262050 0.853838 0.856010
O O8 0.266478 0.599209 0.819506
O O9 0.016497 0.717833 0.836741
O O10 0.809743 0.125217 0.500000
O O11 0.946448 0.257014 0.429774
O O12 0.000000 0.000000 0.443080
O O13 0.240732 0.626953 0.628217
O O14 0.000000 0.500000 0.602875
O O15 0.500000 0.500000 0.139527
#
# Coordination Sequence:
#
# PCOD8204519 Si02
#       6
#     8   8   8   8   8   8
#     4  12  22  36  61  94 130 180 214 250 308 378
#     4  12  23  40  64  95 131 166 216 266 315 383
#     4  11  23  36  59  93 136 168 212 255 311 374
#     4  11  24  46  71  91 119 164 214 272 338 392
#     4  10  23  43  64  95 126 164 212 271 324 381
#     4  11  21  38  62  90 127 175 217 254 308 373
#
# _framework density 19.846053999999999
#
# number of rings (size 3 to 8) (size 9 to 14) (size 15 to 20)
#    0.000    0.833    6.667    1.000    0.000    1.333 
#    0.000    2.500    0.000    0.500    0.000    0.000 
#    0.000    0.000    0.000    0.000    0.000    0.000 
#
# Total GULP energy -595092.543271 kJ/mol
# GULP energy per Si atom -12397.761318 kJ/mol
# Density = 1.980088 g / cm^3
# Si number density = 19.846054 Si / 1000 Ang^3
#
#
#
# Elastic Constant Matrix: (Units=GPa)
#
#
# Indices 1 2 3 4 5 6 
#
# 1 114.0970 37.0602 52.3942 0.0000 0.0000 0.0000
# 2 37.0602 110.1576 56.9177 0.0000 0.0000 0.0000
# 3 52.3942 56.9177 137.7451 0.0000 0.0000 0.0000
# 4 0.0000 0.0000 0.0000 14.0216 0.0000 0.0000
# 5 0.0000 0.0000 0.0000 0.0000 16.7955 0.0000
# 6 0.0000 0.0000 0.0000 0.0000 0.0000 28.7747
#
#
#
# Elastic Compliance Matrix: (Units=1/GPa)
#
#
# Indices 1 2 3 4 5 6 
#
# 1 0.010938 -0.001945 -0.003356 0.000000 0.000000 0.000000
# 2 -0.001945 0.011888 -0.004172 0.000000 0.000000 0.000000
# 3 -0.003356 -0.004172 0.010261 0.000000 0.000000 0.000000
# 4 0.000000 0.000000 0.000000 0.071319 0.000000 0.000000
# 5 0.000000 0.000000 0.000000 0.000000 0.059540 0.000000
# 6 0.000000 0.000000 0.000000 0.000000 0.000000 0.034753
#
#
# Mechanical properties :
#
#
# Convention : Reuss Voigt Hill
#
# Bulk Modulus (GPa) = 70.73200 72.74933 71.74067
# Shear Modulus (GPa) = 22.48615 26.29351 24.38983
#
# Velocity S-wave (km/s) = 3.36970 3.64383 3.50944
# Velocity P-wave (km/s) = 7.13145 7.37833 7.25594
#
# Compressibility (1/GPa) = 0.01413787
#
# Stress axis : x y z
#
# Youngs Moduli (GPa) = 91.42674 84.11670 97.46058
#
# Poissons Ratio (x) = 0.16365 0.32713
# Poissons Ratio (y) = 0.17787 0.40664
# Poissons Ratio (z) = 0.30687 0.35096
#
# Static dielectric constant tensor:
#      x y z
#    x 3.761650 0.000000 0.000000 
#    y 0.000000 4.005830 0.000000 
#    z 0.000000 0.000000 3.514910 
# 
# 
# High freq. dielectric constant tensor:
#      x y z
#    x 1.772410 0.000000 0.000000 
#    y 0.000000 1.804040 0.000000 
#    z 0.000000 0.000000 1.737820 
# 
# From -- ./inp_files/26255.got.cif
#   From: 2010.03.12/outbox.cif.g09.slc.cpg/sg49_14_cif.got.tgz:26255.got - 2010.04.14 03:58:27.
