data_PCOD8204136
_publ_section_title
;
Structure prediction by ZEFSAII (Michael W. Deem and Ramdas Pophale) SiO2 
 PCOD8204136
Probable space group: P C C M
;
_chemical_formula_sum "Si O2"
_cell_formula_units_Z 64
_cell_length_a 23.050623
_cell_length_b 8.941858
_cell_length_c 14.638617
_cell_angle_alpha 90.000000
_cell_angle_beta 90.000000
_cell_angle_gamma 90.000000
_cell_volume 3017.244364
_symmetry_space_group_name_H-M "P C C M"
_symmetry_group_IT_number 49
_symmetry_cell_setting 'orthorhombic'
loop_
_space_group_symop_operation_xyz
x,y,z
-x,-y,z
x,-y,1/2-z
-x,y,1/2-z
-x,-y,-z
x,y,-z
-x,y,1/2+z
x,-y,1/2+z
loop_
_atom_site_type_symbol
_atom_site_label
_atom_site_fract_x
_atom_site_fract_y
_atom_site_fract_z
Si Si1 0.892021 0.329521 0.772757
Si Si2 0.357602 0.264524 0.101284
Si Si3 0.949285 0.891531 0.603838
Si Si4 0.659265 0.607693 0.394134
Si Si5 0.564940 0.676829 0.743669
Si Si6 0.219210 0.265161 0.397489
Si Si7 0.255221 0.051096 0.851286
Si Si8 0.863938 0.849696 0.895887
O O1 0.904756 0.500000 0.750000
O O2 0.942785 0.257667 0.835606
O O3 0.830937 0.306331 0.825613
O O4 0.898911 0.253384 0.673733
O O5 0.336657 0.431367 0.127032
O O6 0.407702 0.230126 0.172953
O O7 0.308562 0.138438 0.104840
O O8 0.384362 0.264023 0.000000
O O9 0.963595 0.843296 0.500000
O O10 0.888295 0.980869 0.609449
O O11 0.000000 0.000000 0.640964
O O12 0.650189 0.642872 0.500000
O O13 0.606383 0.698775 0.345177
O O14 0.721398 0.664092 0.358703
O O15 0.561006 0.500000 0.750000
O O16 0.500000 0.743097 0.750000
O O17 0.203134 0.324530 0.500000
O O18 0.233783 0.090242 0.409318
O O19 0.201045 0.163101 0.856877
O O20 0.271092 0.000000 0.750000
O O21 0.868770 0.788946 0.000000
#
# Coordination Sequence:
#
# PCOD8204136 Si02
#       8
#     8   8   8   8   8   8   8   8
#     4  12  26  40  63 101 138 172 212 273 330 385
#     4  10  21  35  55  86 118 153 199 259 319 377
#     4  10  22  46  76  99 129 175 225 271 316 377
#     4   9  20  36  55  83 121 162 203 256 321 387
#     4   9  18  33  55  82 115 157 206 261 316 384
#     4  11  22  38  59  87 127 168 209 258 321 389
#     4  12  21  36  59  85 122 162 207 261 308 376
#     4  11  23  41  62  92 129 173 219 259 310 378
#
# _framework density 21.211407000000001
#
# number of rings (size 3 to 8) (size 9 to 14) (size 15 to 20)
#    0.000    1.500    2.500    2.625    1.750    3.000 
#    0.000    3.750    0.000    5.625    0.000    5.250 
#    0.000    0.000    0.000    0.000    0.000    0.000 
#
# Total GULP energy -793064.051438 kJ/mol
# GULP energy per Si atom -12391.625804 kJ/mol
# Density = 2.116313 g / cm^3
# Si number density = 21.211407 Si / 1000 Ang^3
#
#
#
# Elastic Constant Matrix: (Units=GPa)
#
#
# Indices 1 2 3 4 5 6 
#
# 1 118.3503 36.5913 43.0234 0.0000 0.0000 0.0000
# 2 36.5913 94.3077 45.2458 0.0000 0.0000 0.0000
# 3 43.0234 45.2458 124.9899 0.0000 0.0000 0.0000
# 4 0.0000 0.0000 0.0000 19.4104 0.0000 0.0000
# 5 0.0000 0.0000 0.0000 0.0000 26.2293 0.0000
# 6 0.0000 0.0000 0.0000 0.0000 0.0000 23.9764
#
#
#
# Elastic Compliance Matrix: (Units=1/GPa)
#
#
# Indices 1 2 3 4 5 6 
#
# 1 0.010217 -0.002756 -0.002519 0.000000 0.000000 0.000000
# 2 -0.002756 0.013575 -0.003966 0.000000 0.000000 0.000000
# 3 -0.002519 -0.003966 0.010303 0.000000 0.000000 0.000000
# 4 0.000000 0.000000 0.000000 0.051519 0.000000 0.000000
# 5 0.000000 0.000000 0.000000 0.000000 0.038125 0.000000
# 6 0.000000 0.000000 0.000000 0.000000 0.000000 0.041708
#
#
# Mechanical properties :
#
#
# Convention : Reuss Voigt Hill
#
# Bulk Modulus (GPa) = 64.04228 65.26319 64.65274
# Shear Modulus (GPa) = 26.43624 28.10904 27.27264
#
# Velocity S-wave (km/s) = 3.53416 3.64426 3.58963
# Velocity P-wave (km/s) = 6.84921 6.96723 6.90847
#
# Compressibility (1/GPa) = 0.01561469
#
# Stress axis : x y z
#
# Youngs Moduli (GPa) = 97.87277 73.66287 97.05480
#
# Poissons Ratio (x) = 0.20298 0.24453
# Poissons Ratio (y) = 0.26969 0.38489
# Poissons Ratio (z) = 0.24659 0.29213
#
# Static dielectric constant tensor:
#      x y z
#    x 4.041250 0.000000 0.000000 
#    y 0.000000 3.584480 0.000000 
#    z 0.000000 0.000000 3.965500 
# 
# 
# High freq. dielectric constant tensor:
#      x y z
#    x 1.825510 0.000000 0.000000 
#    y 0.000000 1.801640 0.000000 
#    z 0.000000 0.000000 1.847700 
# 
# From -- ./inp_files/14523.got.cif
#   From: 2010.03.12/outbox.cif.g09.slc.cpg/sg49_8_cif.got.tgz:14523.got - 2010.04.14 03:58:27.
