data_PCOD8204436
_publ_section_title
;
Structure prediction by ZEFSAII (Michael W. Deem and Ramdas Pophale) SiO2 
 PCOD8204436
Probable space group: P C C M
;
_chemical_formula_sum "Si O2"
_cell_formula_units_Z 64
_cell_length_a 12.225040
_cell_length_b 14.815350
_cell_length_c 18.703403
_cell_angle_alpha 90.000000
_cell_angle_beta 90.000000
_cell_angle_gamma 90.000000
_cell_volume 3387.527552
_symmetry_space_group_name_H-M "P C C M"
_symmetry_group_IT_number 49
_symmetry_cell_setting 'orthorhombic'
loop_
_space_group_symop_operation_xyz
x,y,z
-x,-y,z
x,-y,1/2-z
-x,y,1/2-z
-x,-y,-z
x,y,-z
-x,y,1/2+z
x,-y,1/2+z
loop_
_atom_site_type_symbol
_atom_site_label
_atom_site_fract_x
_atom_site_fract_y
_atom_site_fract_z
Si Si1 0.771790 0.546287 0.172916
Si Si2 0.179462 0.007497 0.665413
Si Si3 0.391833 0.943805 0.083737
Si Si4 0.463709 0.600835 0.329104
Si Si5 0.006787 0.862718 0.665474
Si Si6 0.195723 0.383618 0.416652
Si Si7 0.017728 0.338352 0.165922
Si Si8 0.395636 0.737898 0.916611
O O1 0.791189 0.500000 0.250000
O O2 0.667182 0.611245 0.172759
O O3 0.743876 0.472498 0.112236
O O4 0.874445 0.605581 0.148124
O O5 0.294270 0.007648 0.625420
O O6 0.109770 0.095701 0.641005
O O7 0.200359 0.000000 0.750000
O O8 0.109498 0.921453 0.639088
O O9 0.405281 0.840694 0.110949
O O10 0.500000 0.000000 0.101842
O O11 0.364556 0.945456 0.000000
O O12 0.500000 0.500000 0.351905
O O13 0.500000 0.624180 0.250000
O O14 0.512632 0.676025 0.380832
O O15 0.025480 0.762893 0.634725
O O16 0.000000 0.863698 0.750000
O O17 0.169738 0.391539 0.500000
O O18 0.273179 0.298048 0.399585
O O19 0.083969 0.383816 0.372587
O O20 0.000000 0.337330 0.250000
O O21 0.420193 0.732216 0.000000
#
# Coordination Sequence:
#
# PCOD8204436 Si02
#       8
#     8   8   8   8   8   8   8   8
#     4  12  22  37  56  82 113 155 197 234 291 348
#     4   9  17  36  61  82 115 144 188 238 283 343
#     4  10  22  40  59  83 120 156 190 238 295 353
#     4  11  21  39  60  85 120 150 197 255 290 334
#     4   8  17  34  56  86 111 147 185 234 288 335
#     4  11  23  38  58  84 115 149 196 244 283 337
#     4  11  22  34  57  82 115 154 193 229 287 359
#     4  10  22  41  64  86 113 160 202 236 296 357
#
# _framework density 18.892834000000001
#
# number of rings (size 3 to 8) (size 9 to 14) (size 15 to 20)
#    0.000    1.750    3.750    1.875    0.000    3.000 
#    2.250    1.875    0.000    0.000    0.000    0.000 
#    0.000    0.000    0.000    0.000    0.000    0.000 
#
# Total GULP energy -793544.063389 kJ/mol
# GULP energy per Si atom -12399.125990 kJ/mol
# Density = 1.884983 g / cm^3
# Si number density = 18.892834 Si / 1000 Ang^3
#
#
#
# Elastic Constant Matrix: (Units=GPa)
#
#
# Indices 1 2 3 4 5 6 
#
# 1 147.9564 52.8793 48.9161 0.0000 0.0000 0.0000
# 2 52.8793 99.8493 34.6215 0.0000 0.0000 0.0000
# 3 48.9161 34.6215 60.6535 0.0000 0.0000 0.0000
# 4 0.0000 0.0000 0.0000 21.8767 0.0000 0.0000
# 5 0.0000 0.0000 0.0000 0.0000 24.4934 0.0000
# 6 0.0000 0.0000 0.0000 0.0000 0.0000 31.2994
#
#
#
# Elastic Compliance Matrix: (Units=1/GPa)
#
#
# Indices 1 2 3 4 5 6 
#
# 1 0.009928 -0.003094 -0.006241 0.000000 0.000000 0.000000
# 2 -0.003094 0.013451 -0.005183 0.000000 0.000000 0.000000
# 3 -0.006241 -0.005183 0.024478 0.000000 0.000000 0.000000
# 4 0.000000 0.000000 0.000000 0.045711 0.000000 0.000000
# 5 0.000000 0.000000 0.000000 0.000000 0.040827 0.000000
# 6 0.000000 0.000000 0.000000 0.000000 0.000000 0.031949
#
#
# Mechanical properties :
#
#
# Convention : Reuss Voigt Hill
#
# Bulk Modulus (GPa) = 53.12753 64.58810 58.85782
# Shear Modulus (GPa) = 24.79519 27.00339 25.89929
#
# Velocity S-wave (km/s) = 3.62665 3.78470 3.70652
# Velocity P-wave (km/s) = 6.76153 7.30475 7.03838
#
# Compressibility (1/GPa) = 0.01882263
#
# Stress axis : x y z
#
# Youngs Moduli (GPa) = 100.72872 74.34663 40.85253
#
# Poissons Ratio (x) = 0.23001 0.25494
# Poissons Ratio (y) = 0.31163 0.21172
# Poissons Ratio (z) = 0.62860 0.38531
#
# Static dielectric constant tensor:
#      x y z
#    x 3.466530 0.000000 0.000000 
#    y 0.000000 3.783770 0.000000 
#    z 0.000000 0.000000 3.280590 
# 
# 
# High freq. dielectric constant tensor:
#      x y z
#    x 1.742920 0.000000 0.000000 
#    y 0.000000 1.737380 0.000000 
#    z 0.000000 0.000000 1.712560 
# 
# From -- ./inp_files/17343.got.cif
#   From: 2010.03.12/outbox.cif.g09.slc.cpg/sg49_9_cif.got.tgz:17343.got - 2010.04.14 03:58:27.
