data_PCOD8204067
_publ_section_title
;
Structure prediction by ZEFSAII (Michael W. Deem and Ramdas Pophale) SiO2 
 PCOD8204067
Probable space group: P C C M
;
_chemical_formula_sum "Si O2"
_cell_formula_units_Z 64
_cell_length_a 11.573871
_cell_length_b 18.605559
_cell_length_c 14.095765
_cell_angle_alpha 90.000000
_cell_angle_beta 90.000000
_cell_angle_gamma 90.000000
_cell_volume 3035.358633
_symmetry_space_group_name_H-M "P C C M"
_symmetry_group_IT_number 49
_symmetry_cell_setting 'orthorhombic'
loop_
_space_group_symop_operation_xyz
x,y,z
-x,-y,z
x,-y,1/2-z
-x,y,1/2-z
-x,-y,-z
x,y,-z
-x,y,1/2+z
x,-y,1/2+z
loop_
_atom_site_type_symbol
_atom_site_label
_atom_site_fract_x
_atom_site_fract_y
_atom_site_fract_z
Si Si1 0.715608 0.684426 0.103821
Si Si2 0.574699 0.933725 0.611853
Si Si3 0.129967 0.763048 0.735764
Si Si4 0.167381 0.050024 0.612007
Si Si5 0.363705 0.419754 0.250140
Si Si6 0.494131 0.222357 0.857214
Si Si7 0.282811 0.699781 0.106152
Si Si8 0.925022 0.105285 0.613110
O O1 0.826865 0.702849 0.164311
O O2 0.659917 0.613899 0.147829
O O3 0.627164 0.752015 0.100381
O O4 0.758048 0.664754 0.000000
O O5 0.585792 0.942483 0.500000
O O6 0.706056 0.930506 0.654713
O O7 0.502161 0.863473 0.638600
O O8 0.500000 0.000000 0.653908
O O9 0.200902 0.755415 0.834853
O O10 0.141453 0.839007 0.680726
O O11 0.000000 0.740785 0.750000
O O12 0.171699 0.053391 0.500000
O O13 0.062619 0.104289 0.642813
O O14 0.132844 0.969708 0.642181
O O15 0.310850 0.500000 0.250000
O O16 0.500000 0.422750 0.250000
O O17 0.307154 0.373974 0.336611
O O18 0.500000 0.250950 0.750000
O O19 0.598590 0.258163 0.913630
O O20 0.231606 0.683806 0.000000
O O21 0.910392 0.121972 0.500000
#
# Coordination Sequence:
#
# PCOD8204067 Si02
#       8
#     8   8   8   8   8   8   8   8
#     4  11  22  40  65  96 132 171 208 254 316 381
#     4  10  22  35  54  84 118 162 214 265 320 389
#     4  11  25  40  60  92 121 163 221 274 315 374
#     4   8  17  34  56  84 117 156 208 268 338 403
#     4  10  20  38  65 105 144 170 204 250 302 377
#     4  12  22  40  61  88 125 167 215 264 323 385
#     4  11  23  42  65  92 132 177 213 256 319 386
#     4   9  18  36  61  84 114 158 209 275 342 391
#
# _framework density 21.084824999999999
#
# number of rings (size 3 to 8) (size 9 to 14) (size 15 to 20)
#    0.000    1.750    3.750    2.250    3.500    1.750 
#    0.000    2.500    0.000    6.000    0.000    8.750 
#    0.000    0.000    0.000    0.000    0.000    0.000 
#
# Total GULP energy -793259.969563 kJ/mol
# GULP energy per Si atom -12394.687024 kJ/mol
# Density = 2.103683 g / cm^3
# Si number density = 21.084825 Si / 1000 Ang^3
#
#
#
# Elastic Constant Matrix: (Units=GPa)
#
#
# Indices 1 2 3 4 5 6 
#
# 1 88.7055 28.8528 18.9306 0.0000 0.0000 0.0000
# 2 28.8528 119.4070 28.4528 0.0000 0.0000 0.0000
# 3 18.9306 28.4528 119.1823 0.0000 0.0000 0.0000
# 4 0.0000 0.0000 0.0000 42.1284 0.0000 0.0000
# 5 0.0000 0.0000 0.0000 0.0000 18.2774 0.0000
# 6 0.0000 0.0000 0.0000 0.0000 0.0000 13.5620
#
#
#
# Elastic Compliance Matrix: (Units=1/GPa)
#
#
# Indices 1 2 3 4 5 6 
#
# 1 0.012432 -0.002686 -0.001333 0.000000 0.000000 0.000000
# 2 -0.002686 0.009460 -0.001832 0.000000 0.000000 0.000000
# 3 -0.001333 -0.001832 0.009040 0.000000 0.000000 0.000000
# 4 0.000000 0.000000 0.000000 0.023737 0.000000 0.000000
# 5 0.000000 0.000000 0.000000 0.000000 0.054712 0.000000
# 6 0.000000 0.000000 0.000000 0.000000 0.000000 0.073736
#
#
# Mechanical properties :
#
#
# Convention : Reuss Voigt Hill
#
# Bulk Modulus (GPa) = 52.00533 53.30747 52.65640
# Shear Modulus (GPa) = 24.84736 31.53079 28.18907
#
# Velocity S-wave (km/s) = 3.43658 3.87127 3.66038
# Velocity P-wave (km/s) = 6.36122 6.73198 6.54922
#
# Compressibility (1/GPa) = 0.01922880
#
# Stress axis : x y z
#
# Youngs Moduli (GPa) = 80.44076 105.70504 110.62437
#
# Poissons Ratio (x) = 0.28394 0.14750
# Poissons Ratio (y) = 0.21608 0.20264
# Poissons Ratio (z) = 0.10725 0.19363
#
# Static dielectric constant tensor:
#      x y z
#    x 3.988390 0.000000 0.000000 
#    y 0.000000 3.897630 0.000000 
#    z 0.000000 0.000000 4.017940 
# 
# 
# High freq. dielectric constant tensor:
#      x y z
#    x 1.818150 0.000000 0.000000 
#    y 0.000000 1.804100 0.000000 
#    z 0.000000 0.000000 1.837250 
# 
# From -- ./inp_files/13122.got.cif
#   From: 2010.03.12/outbox.cif.g09.slc.cpg/sg49_7_cif.got.tgz:13122.got - 2010.04.14 03:58:27.
