data_PCOD8204662
_publ_section_title
;
Structure prediction by ZEFSAII (Michael W. Deem and Ramdas Pophale) SiO2 
 PCOD8204662
Probable space group: P C C M
;
_chemical_formula_sum "Si O2"
_cell_formula_units_Z 48
_cell_length_a 15.589134
_cell_length_b 4.964549
_cell_length_c 28.537702
_cell_angle_alpha 90.000000
_cell_angle_beta 90.000000
_cell_angle_gamma 90.000000
_cell_volume 2208.618931
_symmetry_space_group_name_H-M "P C C M"
_symmetry_group_IT_number 49
_symmetry_cell_setting 'orthorhombic'
loop_
_space_group_symop_operation_xyz
x,y,z
-x,-y,z
x,-y,1/2-z
-x,y,1/2-z
-x,-y,-z
x,y,-z
-x,y,1/2+z
x,-y,1/2+z
loop_
_atom_site_type_symbol
_atom_site_label
_atom_site_fract_x
_atom_site_fract_y
_atom_site_fract_z
Si Si1 0.662641 0.586071 0.697902
Si Si2 0.000000 0.000000 0.157202
Si Si3 0.823399 0.362834 0.946156
Si Si4 0.757378 0.862510 0.104298
Si Si5 0.180079 0.913776 0.196914
Si Si6 0.594963 0.927793 0.147791
Si Si7 0.000000 0.500000 0.406221
O O1 0.643359 0.500000 0.750000
O O2 0.615313 0.378853 0.663283
O O3 0.765886 0.635213 0.688673
O O4 0.617385 0.874468 0.690661
O O5 0.077833 0.883133 0.189044
O O6 0.969046 0.751121 0.125452
O O7 0.764541 0.562479 0.915836
O O8 0.814005 0.060989 0.927065
O O9 0.922845 0.429216 0.940474
O O10 0.795914 0.379260 0.000000
O O11 0.785832 0.865839 0.159373
O O12 0.658564 0.967022 0.103154
O O13 0.199637 0.000000 0.250000
O O14 0.500000 0.000000 0.130320
#
# Coordination Sequence:
#
# PCOD8204662 Si02
#       7
#     8   4   8   8   8   8   4
#     4  11  23  39  63  94 127 175 226 279 322 384
#     4  12  25  40  65  90 138 180 223 276 313 378
#     4  12  24  43  70  96 128 170 216 273 339 393
#     4  11  23  43  66  95 131 168 218 271 323 398
#     4  11  23  42  64  93 135 185 229 263 321 379
#     4  11  24  41  66  96 129 170 212 268 346 401
#     4  12  23  44  63  98 130 170 215 286 333 378
#
# _framework density 21.733038000000001
#
# number of rings (size 3 to 8) (size 9 to 14) (size 15 to 20)
#    0.000    0.667    3.333    6.000    0.000    3.333 
#    0.000    3.333    0.000    3.000    0.000    0.000 
#    0.000    0.000    0.000    0.000    0.000    0.000 
#
# Total GULP energy -594982.489248 kJ/mol
# GULP energy per Si atom -12395.468526 kJ/mol
# Density = 2.168357 g / cm^3
# Si number density = 21.733038 Si / 1000 Ang^3
#
#
#
# Elastic Constant Matrix: (Units=GPa)
#
#
# Indices 1 2 3 4 5 6 
#
# 1 138.3163 7.2308 14.2483 0.0000 0.0000 0.0000
# 2 7.2308 93.0911 23.6716 0.0000 0.0000 0.0000
# 3 14.2483 23.6716 115.6629 0.0000 0.0000 0.0000
# 4 0.0000 0.0000 0.0000 17.1681 0.0000 0.0000
# 5 0.0000 0.0000 0.0000 0.0000 8.1148 0.0000
# 6 0.0000 0.0000 0.0000 0.0000 0.0000 36.1795
#
#
#
# Elastic Compliance Matrix: (Units=1/GPa)
#
#
# Indices 1 2 3 4 5 6 
#
# 1 0.007334 -0.000359 -0.000830 0.000000 0.000000 0.000000
# 2 -0.000359 0.011349 -0.002279 0.000000 0.000000 0.000000
# 3 -0.000830 -0.002279 0.009214 0.000000 0.000000 0.000000
# 4 0.000000 0.000000 0.000000 0.058247 0.000000 0.000000
# 5 0.000000 0.000000 0.000000 0.000000 0.123231 0.000000
# 6 0.000000 0.000000 0.000000 0.000000 0.000000 0.027640
#
#
# Mechanical properties :
#
#
# Convention : Reuss Voigt Hill
#
# Bulk Modulus (GPa) = 47.70232 48.59687 48.14960
# Shear Modulus (GPa) = 19.92516 32.42045 26.17281
#
# Velocity S-wave (km/s) = 3.03118 3.86652 3.47405
# Velocity P-wave (km/s) = 5.85214 6.50712 6.18831
#
# Compressibility (1/GPa) = 0.02096334
#
# Stress axis : x y z
#
# Youngs Moduli (GPa) = 136.35006 88.11009 108.52561
#
# Poissons Ratio (x) = 0.03160 0.09009
# Poissons Ratio (y) = 0.04889 0.24729
# Poissons Ratio (z) = 0.11318 0.20077
#
# Static dielectric constant tensor:
#      x y z
#    x 4.155360 0.000000 0.000000 
#    y 0.000000 4.079340 0.000000 
#    z 0.000000 0.000000 3.650870 
# 
# 
# High freq. dielectric constant tensor:
#      x y z
#    x 1.854030 0.000000 0.000000 
#    y 0.000000 1.867280 0.000000 
#    z 0.000000 0.000000 1.824000 
# 
# From -- ./inp_files/25057.got.cif
#   From: 2010.03.12/outbox.cif.g09.slc.cpg/sg49_13_cif.got.tgz:25057.got - 2010.04.14 03:58:27.
