data_PCOD8204743
_publ_section_title
;
Structure prediction by ZEFSAII (Michael W. Deem and Ramdas Pophale) SiO2 
 PCOD8204743
Probable space group: P B A N
;
_chemical_formula_sum "Si O2"
_cell_formula_units_Z 48
_cell_length_a 26.420540
_cell_length_b 5.354964
_cell_length_c 15.606999
_cell_angle_alpha 90.000000
_cell_angle_beta 90.000000
_cell_angle_gamma 90.000000
_cell_volume 2208.094459
_symmetry_space_group_name_H-M "P B A N"
_symmetry_group_IT_number 50
_space_group.IT_coordinate_system_code '2'
_symmetry_cell_setting 'orthorhombic'
loop_
_space_group_symop_operation_xyz
x,y,z
1/2-x,1/2-y,z
x,1/2-y,-z
1/2-x,y,-z
-x,-y,-z
1/2+x,1/2+y,-z
-x,1/2+y,z
1/2+x,-y,z
loop_
_atom_site_type_symbol
_atom_site_label
_atom_site_fract_x
_atom_site_fract_y
_atom_site_fract_z
Si Si1 0.517059 0.499644 0.137937
Si Si2 0.692482 0.999999 0.464574
Si Si3 0.024858 0.499536 0.672006
Si Si4 0.361218 0.499528 0.294949
Si Si5 0.132246 0.500435 0.186645
Si Si6 0.229537 0.500006 0.096441
O O1 0.500047 0.249567 0.086744
O O2 0.485131 0.499428 0.226203
O O3 0.576251 0.500015 0.151771
O O4 0.665248 0.250000 0.500000
O O5 0.750000 0.999998 0.500000
O O6 0.665246 0.750000 0.500000
O O7 0.685541 0.999998 0.361976
O O8 0.084923 0.499660 0.655492
O O9 0.999987 0.749505 0.630818
O O10 0.356711 0.750489 0.239963
O O11 0.356647 0.247923 0.240319
O O12 0.168780 0.500069 0.103415
O O13 0.250000 0.750000 0.143521
O O14 0.250000 0.250000 0.143514
O O15 0.250000 0.500002 0.000000
#
# Coordination Sequence:
#
# PCOD8204743 Si02
#       6
#     8   8   8   8   8   8
#     4  10  16  30  51  87 136 148 177 251 319 357
#     4  10  23  45  59  75 113 170 201 253 320 367
#     4  10  16  30  51  84 126 154 175 249 321 351
#     4  12  21  35  63  90 121 155 210 261 299 371
#     4  12  21  35  62 103 116 156 211 254 302 365
#     4  10  23  45  62  84 130 170 202 250 309 364
#
# _framework density 21.738202000000001
#
# number of rings (size 3 to 8) (size 9 to 14) (size 15 to 20)
#    0.000    1.333    6.667    2.000    0.000    0.000 
#   18.000    0.000    0.000    3.000    0.000   14.000 
#    0.000    0.000    0.000    0.000    0.000    0.000 
#
# Total GULP energy -594690.291075 kJ/mol
# GULP energy per Si atom -12389.381064 kJ/mol
# Density = 2.168872 g / cm^3
# Si number density = 21.738202 Si / 1000 Ang^3
#
#
#
# Elastic Constant Matrix: (Units=GPa)
#
#
# Indices 1 2 3 4 5 6 
#
# 1 144.5138 48.0683 57.2882 0.0000 0.0000 0.0000
# 2 48.0683 268.8094 38.5408 0.0000 0.0000 0.0000
# 3 57.2882 38.5408 58.5343 0.0000 0.0000 0.0000
# 4 0.0000 0.0000 0.0000 1.0702 0.0000 0.0000
# 5 0.0000 0.0000 0.0000 0.0000 12.8321 0.0000
# 6 0.0000 0.0000 0.0000 0.0000 0.0000 -26.4887
#
#
#
# Elastic Compliance Matrix: (Units=1/GPa)
#
#
# Indices 1 2 3 4 5 6 
#
# 1 0.011363 -0.000483 -0.010803 0.000000 0.000000 0.000000
# 2 -0.000483 0.004128 -0.002246 0.000000 0.000000 0.000000
# 3 -0.010803 -0.002246 0.029136 0.000000 0.000000 0.000000
# 4 0.000000 0.000000 0.000000 0.934364 0.000000 0.000000
# 5 0.000000 0.000000 0.000000 0.000000 0.077930 0.000000
# 6 0.000000 0.000000 0.000000 0.000000 0.000000 -0.037752
#
#
# Mechanical properties :
#
#
# Convention : Reuss Voigt Hill
#
# Bulk Modulus (GPa) = 56.93536 84.40580 70.67058
# Shear Modulus (GPa) = 4.75246 19.34674 12.04960
#
# Velocity S-wave (km/s) = 1.48019 2.98650 2.35692
# Velocity P-wave (km/s) = 5.40088 7.12775 6.32354
#
# Compressibility (1/GPa) = 0.01756378
#
# Stress axis : x y z
#
# Youngs Moduli (GPa) = 88.00527 242.22231 34.32231
#
# Poissons Ratio (x) = 0.11700 0.37078
# Poissons Ratio (y) = 0.04251 0.07707
# Poissons Ratio (z) = 0.95072 0.54392
#
# Static dielectric constant tensor:
#      x y z
#    x 3.897570 0.000000 0.000000 
#    y 0.000000 3.454100 0.000000 
#    z 0.000000 0.000000 3.244420 
# 
# 
# High freq. dielectric constant tensor:
#      x y z
#    x 1.850230 0.000000 0.000000 
#    y 0.000000 1.907120 0.000000 
#    z 0.000000 0.000000 1.786950 
# 
# From -- ./inp_files/27611.got.cif
#   From: 2010.03.12/outbox.cif.g09.slc.cpg/sg50_14_cif.got.tgz:27611.got - 2010.04.16 13:23:21.
