data_PCOD8204876
_publ_section_title
;
Structure prediction by ZEFSAII (Michael W. Deem and Ramdas Pophale) SiO2 
 PCOD8204876
Probable space group: P B A N
;
_chemical_formula_sum "Si O2"
_cell_formula_units_Z 64
_cell_length_a 8.852269
_cell_length_b 34.090696
_cell_length_c 12.450206
_cell_angle_alpha 90.000000
_cell_angle_beta 90.000000
_cell_angle_gamma 90.000000
_cell_volume 3757.223308
_symmetry_space_group_name_H-M "P B A N"
_symmetry_group_IT_number 50
_space_group.IT_coordinate_system_code '2'
_symmetry_cell_setting 'orthorhombic'
loop_
_space_group_symop_operation_xyz
x,y,z
1/2-x,1/2-y,z
x,1/2-y,-z
1/2-x,y,-z
-x,-y,-z
1/2+x,1/2+y,-z
-x,1/2+y,z
1/2+x,-y,z
loop_
_atom_site_type_symbol
_atom_site_label
_atom_site_fract_x
_atom_site_fract_y
_atom_site_fract_z
Si Si1 0.070960 0.407001 0.203167
Si Si2 0.070960 0.407001 0.796833
Si Si3 0.572890 0.329395 0.125198
Si Si4 0.920528 0.750000 0.872373
Si Si5 0.074491 0.959356 0.625246
Si Si6 0.574491 0.040644 0.374754
Si Si7 0.072890 0.829395 0.125198
Si Si8 0.071700 0.042498 0.000000
O O1 0.250000 0.405047 0.209172
O O2 0.015584 0.433922 0.104369
O O3 0.005169 0.424001 0.313137
O O4 0.007282 0.363508 0.191175
O O5 0.007282 0.363508 0.808825
O O6 0.005169 0.424001 0.686863
O O7 0.015584 0.433922 0.895631
O O8 0.507602 0.288411 0.169544
O O9 0.750000 0.330339 0.146953
O O10 0.534389 0.334842 1.000000
O O11 0.750000 0.750000 0.827454
O O12 0.007602 0.711589 0.830456
O O13 0.921258 0.750000 0.000000
O O14 0.250000 0.961152 0.654918
O O15 0.047146 0.951810 0.500000
O O16 1.000000 1.000000 0.662610
O O17 0.250000 0.037761 0.000000
O O18 0.000000 0.000000 0.000000
#
# Coordination Sequence:
#
# PCOD8204876 Si02
#       8
#     8   8   8   8   8   8   8   8
#     4  11  21  34  51  73 102 135 171 209 253 303
#     4  11  21  34  51  73 102 135 171 209 253 303
#     4  10  19  31  48  72 102 136 171 208 249 300
#     4   9  17  29  47  69  98 135 170 207 249 296
#     4  10  21  37  55  75  99 129 170 217 261 303
#     4  10  21  37  55  75  99 129 170 217 261 303
#     4  10  19  31  48  72 102 136 171 208 249 300
#     4  10  22  34  46  67  98 133 166 202 245 298
#
# _framework density 17.033854999999999
#
# number of rings (size 3 to 8) (size 9 to 14) (size 15 to 20)
#    0.000    1.875    1.250    3.375    0.000    8.000 
#    0.000    0.000    0.000    0.000    0.000    0.875 
#    0.000    7.000    0.000    0.000    0.000    0.000 
#
# Total GULP energy -793909.277475 kJ/mol
# GULP energy per Si atom -12404.832461 kJ/mol
# Density = 1.699509 g / cm^3
# Si number density = 17.033855 Si / 1000 Ang^3
#
#
#
# Elastic Constant Matrix: (Units=GPa)
#
#
# Indices 1 2 3 4 5 6 
#
# 1 102.9730 68.6460 39.8713 0.0000 0.0000 0.0000
# 2 68.6460 165.5857 52.1409 0.0000 0.0000 0.0000
# 3 39.8713 52.1409 52.5629 0.0000 0.0000 0.0000
# 4 0.0000 0.0000 0.0000 22.7609 0.0000 0.0000
# 5 0.0000 0.0000 0.0000 0.0000 23.4679 0.0000
# 6 0.0000 0.0000 0.0000 0.0000 0.0000 39.2880
#
#
#
# Elastic Compliance Matrix: (Units=1/GPa)
#
#
# Indices 1 2 3 4 5 6 
#
# 1 0.015315 -0.003913 -0.007735 0.000000 0.000000 0.000000
# 2 -0.003913 0.009782 -0.006735 0.000000 0.000000 0.000000
# 3 -0.007735 -0.006735 0.031574 0.000000 0.000000 0.000000
# 4 0.000000 0.000000 0.000000 0.043935 0.000000 0.000000
# 5 0.000000 0.000000 0.000000 0.000000 0.042611 0.000000
# 6 0.000000 0.000000 0.000000 0.000000 0.000000 0.025453
#
#
# Mechanical properties :
#
#
# Convention : Reuss Voigt Hill
#
# Bulk Modulus (GPa) = 50.24328 71.38201 60.81265
# Shear Modulus (GPa) = 23.57673 27.80091 25.68882
#
# Velocity S-wave (km/s) = 3.72440 4.04431 3.88764
# Velocity P-wave (km/s) = 6.93217 7.98783 7.47865
#
# Compressibility (1/GPa) = 0.01990316
#
# Stress axis : x y z
#
# Youngs Moduli (GPa) = 65.29434 102.22426 31.67195
#
# Poissons Ratio (x) = 0.40005 0.24499
# Poissons Ratio (y) = 0.25552 0.21332
# Poissons Ratio (z) = 0.50507 0.68852
#
# Static dielectric constant tensor:
#      x y z
#    x 3.297150 0.000000 0.000000 
#    y 0.000000 3.270670 0.000000 
#    z 0.000000 0.000000 2.943190 
# 
# 
# High freq. dielectric constant tensor:
#      x y z
#    x 1.675060 0.000000 0.000000 
#    y 0.000000 1.665290 0.000000 
#    z 0.000000 0.000000 1.619440 
# 
# From -- ./inp_files/19552.got.cif
#   From: 2010.03.12/outbox.cif.g09.slc.cpg/sg50_10_cif.got.tgz:19552.got - 2010.04.16 13:23:21.
