data_PCOD8204275
_publ_section_title
;
Structure prediction by ZEFSAII (Michael W. Deem and Ramdas Pophale) SiO2 
 PCOD8204275
Probable space group: P C C M
;
_chemical_formula_sum "Si O2"
_cell_formula_units_Z 48
_cell_length_a 11.578556
_cell_length_b 14.002243
_cell_length_c 14.834067
_cell_angle_alpha 90.000000
_cell_angle_beta 90.000000
_cell_angle_gamma 90.000000
_cell_volume 2404.984308
_symmetry_space_group_name_H-M "P C C M"
_symmetry_group_IT_number 49
_symmetry_cell_setting 'orthorhombic'
loop_
_space_group_symop_operation_xyz
x,y,z
-x,-y,z
x,-y,1/2-z
-x,y,1/2-z
-x,-y,-z
x,y,-z
-x,y,1/2+z
x,-y,1/2+z
loop_
_atom_site_type_symbol
_atom_site_label
_atom_site_fract_x
_atom_site_fract_y
_atom_site_fract_z
Si Si1 0.000000 0.112592 0.148254
Si Si2 0.181622 0.112706 0.000000
Si Si3 0.366033 0.269612 0.000000
Si Si4 0.366034 0.269613 0.500000
Si Si5 0.818379 0.887294 0.500000
Si Si6 0.752210 0.610501 0.851489
Si Si7 0.752210 0.610500 0.648511
Si Si8 0.000000 0.606184 0.606237
O O1 0.888097 0.143688 0.090198
O O2 0.000000 0.157384 0.250000
O O3 0.111903 0.143688 0.090198
O O4 0.000000 0.000000 0.156932
O O5 0.206800 1.000000 0.000000
O O6 0.301832 0.168280 0.000000
O O7 0.335691 0.330954 0.912163
O O8 0.500000 0.245549 0.000000
O O9 0.301832 0.168281 0.500000
O O10 0.335691 0.330955 0.587836
O O11 0.707035 0.619149 0.750000
O O12 0.754564 0.500000 0.884014
O O13 0.882079 0.655631 0.859264
O O14 0.882079 0.655631 0.640735
O O15 0.000002 0.607852 0.500000
O O16 0.000000 0.500000 0.646781
#
# Coordination Sequence:
#
# PCOD8204275 Si02
#       8
#     8   4   4   4   4   8   8   8
#     4   8  15  33  63  93 117 139 169 222 291 354
#     4   9  20  38  60  88 117 146 183 226 281 344
#     4  12  26  40  55  78 112 155 203 245 274 317
#     4  12  26  40  55  78 112 155 203 245 274 317
#     4   9  20  38  60  88 117 146 183 226 281 344
#     4  10  21  38  60  85 114 148 186 234 292 347
#     4  10  21  38  60  85 114 148 186 234 292 347
#     4   9  15  29  56  86 115 143 173 218 283 351
#
# _framework density 19.958551
#
# number of rings (size 3 to 8) (size 9 to 14) (size 15 to 20)
#    0.000    2.333    1.667    2.000    0.000    8.333 
#    0.000    1.667    0.000    0.000    0.000    7.000 
#    0.000    0.000    0.000    0.000    0.000    0.000 
#
# Total GULP energy -595002.120945 kJ/mol
# GULP energy per Si atom -12395.877520 kJ/mol
# Density = 1.991312 g / cm^3
# Si number density = 19.958551 Si / 1000 Ang^3
#
#
#
# Elastic Constant Matrix: (Units=GPa)
#
#
# Indices 1 2 3 4 5 6 
#
# 1 160.6378 53.8823 58.9677 0.0000 0.0000 0.0000
# 2 53.8823 79.0285 41.2359 0.0000 0.0000 0.0000
# 3 58.9677 41.2359 145.1845 0.0000 0.0000 0.0000
# 4 0.0000 0.0000 0.0000 11.3191 0.0000 0.0000
# 5 0.0000 0.0000 0.0000 0.0000 0.9305 0.0000
# 6 0.0000 0.0000 0.0000 0.0000 0.0000 32.3750
#
#
#
# Elastic Compliance Matrix: (Units=1/GPa)
#
#
# Indices 1 2 3 4 5 6 
#
# 1 0.008606 -0.004747 -0.002147 0.000000 0.000000 0.000000
# 2 -0.004747 0.017474 -0.003035 0.000000 0.000000 0.000000
# 3 -0.002147 -0.003035 0.008622 0.000000 0.000000 0.000000
# 4 0.000000 0.000000 0.000000 0.088346 0.000000 0.000000
# 5 0.000000 0.000000 0.000000 0.000000 1.074736 0.000000
# 6 0.000000 0.000000 0.000000 0.000000 0.000000 0.030888
#
#
# Mechanical properties :
#
#
# Convention : Reuss Voigt Hill
#
# Bulk Modulus (GPa) = 67.37054 77.00253 72.18653
# Shear Modulus (GPa) = 3.98890 24.30923 14.14907
#
# Velocity S-wave (km/s) = 1.41525 3.49375 2.66545
# Velocity P-wave (km/s) = 6.04145 7.41216 6.76162
#
# Compressibility (1/GPa) = 0.01484328
#
# Stress axis : x y z
#
# Youngs Moduli (GPa) = 116.20322 57.22821 115.98552
#
# Poissons Ratio (x) = 0.27167 0.24901
# Poissons Ratio (y) = 0.55163 0.35201
# Poissons Ratio (z) = 0.24948 0.17368
#
# Static dielectric constant tensor:
#      x y z
#    x 3.355170 0.000000 0.000000 
#    y 0.000000 3.434060 0.000000 
#    z 0.000000 0.000000 3.901390 
# 
# 
# High freq. dielectric constant tensor:
#      x y z
#    x 1.747030 0.000000 0.000000 
#    y 0.000000 1.767750 0.000000 
#    z 0.000000 0.000000 1.790750 
# 
# From -- ./inp_files/12849.got.cif
#   From: 2010.03.12/outbox.cif.g09.slc.cpg/sg49_7_cif.got.tgz:12849.got - 2010.04.14 03:58:27.
