data_PCOD8204884
_publ_section_title
;
Structure prediction by ZEFSAII (Michael W. Deem and Ramdas Pophale) SiO2 
 PCOD8204884
Probable space group: P B A N
;
_chemical_formula_sum "Si O2"
_cell_formula_units_Z 54
_cell_length_a 5.137228
_cell_length_b 16.423609
_cell_length_c 31.400683
_cell_angle_alpha 90.000000
_cell_angle_beta 90.000000
_cell_angle_gamma 90.000000
_cell_volume 2649.332900
_symmetry_space_group_name_H-M "P B A N"
_symmetry_group_IT_number 50
_space_group.IT_coordinate_system_code '2'
_symmetry_cell_setting 'orthorhombic'
loop_
_space_group_symop_operation_xyz
x,y,z
1/2-x,1/2-y,z
x,1/2-y,-z
1/2-x,y,-z
-x,-y,-z
1/2+x,1/2+y,-z
-x,1/2+y,z
1/2+x,-y,z
loop_
_atom_site_type_symbol
_atom_site_label
_atom_site_fract_x
_atom_site_fract_y
_atom_site_fract_z
Si Si1 0.251972 0.652969 0.452088
Si Si2 0.248677 0.153452 0.598110
Si Si3 0.078408 0.449641 0.230017
Si Si4 0.250000 0.250000 0.000000
Si Si5 0.900178 0.329988 0.067845
Si Si6 0.250000 0.555109 0.000000
Si Si7 0.878456 0.554579 0.863846
Si Si8 0.275432 0.445061 0.681940
O O1 0.250000 0.750000 0.453446
O O2 0.250000 0.617958 0.500000
O O3 0.511809 0.620086 0.430093
O O4 0.008969 0.620164 0.424552
O O5 0.250000 0.250000 0.600478
O O6 0.206915 0.121907 0.645590
O O7 0.273123 0.527958 0.232332
O O8 0.120075 0.407470 0.184097
O O9 0.167474 0.399173 0.272317
O O10 0.415213 0.308927 0.971042
O O11 0.750000 0.250000 0.085360
O O12 0.069640 0.368922 0.105670
O O13 0.711926 0.394267 0.044349
O O14 0.500000 0.500000 0.000000
O O15 0.595722 0.515126 0.871582
O O16 0.490458 0.515870 0.678275
#
# Coordination Sequence:
#
# PCOD8204884 Si02
#       8
#     8   8   8   2   8   4   8   8
#     4   9  17  30  49  73 102 140 186 229 273 324
#     4  10  19  31  51  78 105 136 180 234 277 318
#     4   8  16  33  57  82 108 138 179 225 270 322
#     4  12  24  44  60  80 128 162 194 214 286 354
#     4  12  25  41  61  86 121 160 186 234 291 347
#     4  12  24  40  61  87 112 148 202 242 272 318
#     4  10  22  40  64  91 113 146 196 243 276 326
#     4  10  19  33  56  80 108 145 180 219 274 344
#
# _framework density 20.382490000000001
#
# number of rings (size 3 to 8) (size 9 to 14) (size 15 to 20)
#    0.000    1.926    1.481    2.667    2.074    1.778 
#    0.000    0.000    1.630   11.556    0.000    0.000 
#    0.000    0.000    0.000    0.000    0.000    0.000 
#
# Total GULP energy -669149.302129 kJ/mol
# GULP energy per Si atom -12391.653743 kJ/mol
# Density = 2.033610 g / cm^3
# Si number density = 20.382490 Si / 1000 Ang^3
#
#
#
# Elastic Constant Matrix: (Units=GPa)
#
#
# Indices 1 2 3 4 5 6 
#
# 1 118.9438 21.2417 41.1653 0.0000 0.0000 0.0000
# 2 21.2417 47.1334 40.7613 0.0000 0.0000 0.0000
# 3 41.1653 40.7613 188.6050 0.0000 0.0000 0.0000
# 4 0.0000 0.0000 0.0000 32.3598 0.0000 0.0000
# 5 0.0000 0.0000 0.0000 0.0000 37.0185 0.0000
# 6 0.0000 0.0000 0.0000 0.0000 0.0000 5.1790
#
#
#
# Elastic Compliance Matrix: (Units=1/GPa)
#
#
# Indices 1 2 3 4 5 6 
#
# 1 0.009436 -0.003039 -0.001403 0.000000 0.000000 0.000000
# 2 -0.003039 0.027072 -0.005187 0.000000 0.000000 0.000000
# 3 -0.001403 -0.005187 0.006729 0.000000 0.000000 0.000000
# 4 0.000000 0.000000 0.000000 0.030902 0.000000 0.000000
# 5 0.000000 0.000000 0.000000 0.000000 0.027014 0.000000
# 6 0.000000 0.000000 0.000000 0.000000 0.000000 0.193089
#
#
# Mechanical properties :
#
#
# Convention : Reuss Voigt Hill
#
# Bulk Modulus (GPa) = 41.70433 62.33543 52.01988
# Shear Modulus (GPa) = 15.55241 31.67906 23.61573
#
# Velocity S-wave (km/s) = 2.76529 3.94665 3.40756
# Velocity P-wave (km/s) = 5.54085 7.17058 6.40774
#
# Compressibility (1/GPa) = 0.02397833
#
# Stress axis : x y z
#
# Youngs Moduli (GPa) = 105.98237 36.93808 148.60334
#
# Poissons Ratio (x) = 0.11227 0.20842
# Poissons Ratio (y) = 0.32212 0.77088
# Poissons Ratio (z) = 0.14864 0.19162
#
# Static dielectric constant tensor:
#      x y z
#    x 3.962150 0.000000 0.000000 
#    y 0.000000 3.216670 0.000000 
#    z 0.000000 0.000000 4.115380 
# 
# 
# High freq. dielectric constant tensor:
#      x y z
#    x 1.818810 0.000000 0.000000 
#    y 0.000000 1.737240 0.000000 
#    z 0.000000 0.000000 1.819070 
# 
# From -- ./inp_files/32398.got.cif
#   From: 2010.03.12/outbox.cif.g09.slc.cpg/sg50_17_cif.got.tgz:32398.got - 2010.04.16 13:23:21.
