data_PCOD8204907
_publ_section_title
;
Structure prediction by ZEFSAII (Michael W. Deem and Ramdas Pophale) SiO2 
 PCOD8204907
Probable space group: P B A N
;
_chemical_formula_sum "Si O2"
_cell_formula_units_Z 64
_cell_length_a 25.592646
_cell_length_b 9.364216
_cell_length_c 16.706211
_cell_angle_alpha 90.000000
_cell_angle_beta 90.000000
_cell_angle_gamma 90.000000
_cell_volume 4003.728086
_symmetry_space_group_name_H-M "P B A N"
_symmetry_group_IT_number 50
_space_group.IT_coordinate_system_code '2'
_symmetry_cell_setting 'orthorhombic'
loop_
_space_group_symop_operation_xyz
x,y,z
1/2-x,1/2-y,z
x,1/2-y,-z
1/2-x,y,-z
-x,-y,-z
1/2+x,1/2+y,-z
-x,1/2+y,z
1/2+x,-y,z
loop_
_atom_site_type_symbol
_atom_site_label
_atom_site_fract_x
_atom_site_fract_y
_atom_site_fract_z
Si Si1 0.656818 0.416193 0.174547
Si Si2 0.550232 0.084237 0.091882
Si Si3 0.189653 0.586629 0.650485
Si Si4 0.343182 0.583807 0.174547
Si Si5 0.687763 0.588446 0.500000
Si Si6 0.750000 0.584121 0.094357
Si Si7 0.810347 0.086629 0.349515
Si Si8 0.050232 0.584237 0.091882
O O1 0.669072 0.250000 0.156244
O O2 0.698723 0.511561 0.129535
O O3 0.657578 0.446214 0.269261
O O4 0.599948 0.461642 0.143931
O O5 0.599948 0.038358 0.143931
O O6 0.537810 0.250000 0.101604
O O7 0.500000 1.000000 0.124484
O O8 0.562042 0.043663 1.000000
O O9 0.157578 0.553786 0.730739
O O10 0.166478 0.489222 0.579533
O O11 0.183378 0.750000 0.623249
O O12 0.250000 0.550649 0.668505
O O13 0.301277 0.488439 0.129535
O O14 0.667242 0.750000 0.500000
O O15 0.750000 0.579176 0.500000
O O16 0.666478 0.510778 0.420467
O O17 0.750000 0.750000 0.118410
O O18 0.750000 0.562100 0.000000
#
# Coordination Sequence:
#
# PCOD8204907 Si02
#       8
#     8   8   8   8   8   8   8   8
#     4  10  19  33  51  70  92 125 164 197 233 281
#     4   9  18  32  50  70  92 121 159 201 240 278
#     4   9  16  28  45  66  91 120 155 192 227 270
#     4  10  19  33  51  70  92 125 164 197 233 281
#     4   9  17  27  41  63  92 125 154 181 224 278
#     4  11  23  33  43  66  99 130 157 191 238 285
#     4   9  16  28  45  66  91 120 155 192 227 270
#     4   9  18  32  50  70  92 121 159 201 240 278
#
# _framework density 15.985101
#
# number of rings (size 3 to 8) (size 9 to 14) (size 15 to 20)
#    0.000    2.500    1.250    1.500    0.000    5.500 
#    0.000    2.500    0.000    0.000    0.000    0.875 
#    0.000    0.000    0.000    0.000    0.000    0.000 
#
# Total GULP energy -793706.973502 kJ/mol
# GULP energy per Si atom -12401.671461 kJ/mol
# Density = 1.594872 g / cm^3
# Si number density = 15.985101 Si / 1000 Ang^3
#
#
#
# Elastic Constant Matrix: (Units=GPa)
#
#
# Indices 1 2 3 4 5 6 
#
# 1 107.7362 59.4613 66.4098 0.0000 0.0000 0.0000
# 2 59.4613 91.7261 65.4506 0.0000 0.0000 0.0000
# 3 66.4098 65.4506 113.9061 0.0000 0.0000 0.0000
# 4 0.0000 0.0000 0.0000 23.6854 0.0000 0.0000
# 5 0.0000 0.0000 0.0000 0.0000 491.7656 0.0000
# 6 0.0000 0.0000 0.0000 0.0000 0.0000 24.1047
#
#
#
# Elastic Compliance Matrix: (Units=1/GPa)
#
#
# Indices 1 2 3 4 5 6 
#
# 1 0.016493 -0.006492 -0.005885 0.000000 0.000000 0.000000
# 2 -0.006492 0.021033 -0.008301 0.000000 0.000000 0.000000
# 3 -0.005885 -0.008301 0.016980 0.000000 0.000000 0.000000
# 4 0.000000 0.000000 0.000000 0.042220 0.000000 0.000000
# 5 0.000000 0.000000 0.000000 0.000000 0.002033 0.000000
# 6 0.000000 0.000000 0.000000 0.000000 0.000000 0.041486
#
#
# Mechanical properties :
#
#
# Convention : Reuss Voigt Hill
#
# Bulk Modulus (GPa) = 76.04584 77.33465 76.69025
# Shear Modulus (GPa) = 26.88384 116.04759 71.46572
#
# Velocity S-wave (km/s) = 4.10543 8.52965 6.69364
# Velocity P-wave (km/s) = 8.37550 12.06196 10.38364
#
# Compressibility (1/GPa) = 0.01314996
#
# Stress axis : x y z
#
# Youngs Moduli (GPa) = 60.63279 47.54329 58.89226
#
# Poissons Ratio (x) = 0.30865 0.34660
# Poissons Ratio (y) = 0.39362 0.48886
# Poissons Ratio (z) = 0.35685 0.39465
#
# Static dielectric constant tensor:
#      x y z
#    x 2.856510 0.000000 0.000000 
#    y 0.000000 3.095000 0.000000 
#    z 0.000000 0.000000 3.108870 
# 
# 
# High freq. dielectric constant tensor:
#      x y z
#    x 1.579500 0.000000 0.000000 
#    y 0.000000 1.617820 0.000000 
#    z 0.000000 0.000000 1.617400 
# 
# From -- ./inp_files/29971.got.cif
#   From: 2010.03.12/outbox.cif.g09.slc.cpg/sg50_15_cif.got.tgz:29971.got - 2010.04.16 13:23:21.
