data_PCOD8204826
_publ_section_title
;
Structure prediction by ZEFSAII (Michael W. Deem and Ramdas Pophale) SiO2 
 PCOD8204826
Probable space group: P B A N
;
_chemical_formula_sum "Si O2"
_cell_formula_units_Z 48
_cell_length_a 10.512932
_cell_length_b 15.445563
_cell_length_c 14.342591
_cell_angle_alpha 90.000000
_cell_angle_beta 90.000000
_cell_angle_gamma 90.000000
_cell_volume 2328.923443
_symmetry_space_group_name_H-M "P B A N"
_symmetry_group_IT_number 50
_space_group.IT_coordinate_system_code '2'
_symmetry_cell_setting 'orthorhombic'
loop_
_space_group_symop_operation_xyz
x,y,z
1/2-x,1/2-y,z
x,1/2-y,-z
1/2-x,y,-z
-x,-y,-z
1/2+x,1/2+y,-z
-x,1/2+y,z
1/2+x,-y,z
loop_
_atom_site_type_symbol
_atom_site_label
_atom_site_fract_x
_atom_site_fract_y
_atom_site_fract_z
Si Si1 0.267591 0.072422 0.099050
Si Si2 0.520306 0.495035 0.841136
Si Si3 0.258344 0.930910 0.394703
Si Si4 0.468277 0.842789 0.696258
Si Si5 0.238893 0.387174 0.305320
Si Si6 0.489793 0.850458 0.302431
O O1 0.398966 0.018640 0.092743
O O2 0.266274 0.131064 0.192719
O O3 0.149164 0.005815 0.101076
O O4 0.250000 0.124283 0.000000
O O5 0.539302 0.409033 0.780592
O O6 0.492390 0.581215 0.781082
O O7 0.250000 0.966084 0.500000
O O8 0.140431 0.865991 0.378412
O O9 0.391703 0.881353 0.381551
O O10 0.251012 0.009794 0.321818
O O11 0.609530 0.850539 0.648793
O O12 0.447544 0.744717 0.732268
O O13 0.366743 0.343251 0.345929
#
# Coordination Sequence:
#
# PCOD8204826 Si02
#       6
#     8   8   8   8   8   8
#     4  10  18  32  61  87 114 155 198 235 285 349
#     4  10  19  38  57  86 118 154 195 232 299 342
#     4  12  23  40  62  86 120 156 194 247 298 348
#     4  11  21  38  63  86 116 155 197 242 288 350
#     4  10  21  41  59  89 117 159 198 237 300 347
#     4  11  21  38  63  86 116 155 197 242 288 350
#
# _framework density 20.610379999999999
#
# number of rings (size 3 to 8) (size 9 to 14) (size 15 to 20)
#    0.000    1.333    6.667    1.500    0.000    4.000 
#    0.000    0.000    0.000   45.000    0.000    0.000 
#    0.000    0.000    0.000    0.000    0.000    0.000 
#
# Total GULP energy -594705.680867 kJ/mol
# GULP energy per Si atom -12389.701685 kJ/mol
# Density = 2.056347 g / cm^3
# Si number density = 20.610380 Si / 1000 Ang^3
#
#
#
# Elastic Constant Matrix: (Units=GPa)
#
#
# Indices 1 2 3 4 5 6 
#
# 1 130.7397 -32.8986 8.0418 0.0000 0.0000 0.0000
# 2 -32.8986 80.6046 1.1133 0.0000 0.0000 0.0000
# 3 8.0418 1.1133 67.0987 0.0000 0.0000 0.0000
# 4 0.0000 0.0000 0.0000 4.9053 0.0000 0.0000
# 5 0.0000 0.0000 0.0000 0.0000 0.1230 0.0000
# 6 0.0000 0.0000 0.0000 0.0000 0.0000 17.3643
#
#
#
# Elastic Compliance Matrix: (Units=1/GPa)
#
#
# Indices 1 2 3 4 5 6 
#
# 1 0.008603 0.003526 -0.001090 0.000000 0.000000 0.000000
# 2 0.003526 0.013855 -0.000653 0.000000 0.000000 0.000000
# 3 -0.001090 -0.000653 0.015045 0.000000 0.000000 0.000000
# 4 0.000000 0.000000 0.000000 0.203860 0.000000 0.000000
# 5 0.000000 0.000000 0.000000 0.000000 8.128881 0.000000
# 6 0.000000 0.000000 0.000000 0.000000 0.000000 0.057589
#
#
# Mechanical properties :
#
#
# Convention : Reuss Voigt Hill
#
# Bulk Modulus (GPa) = 24.34801 25.66180 25.00491
# Shear Modulus (GPa) = 0.59256 24.62429 12.60843
#
# Velocity S-wave (km/s) = 0.53678 3.46027 2.47604
# Velocity P-wave (km/s) = 3.49618 5.33316 4.50920
#
# Compressibility (1/GPa) = 0.04107111
#
# Stress axis : x y z
#
# Youngs Moduli (GPa) = 116.23621 72.17847 66.46799
#
# Poissons Ratio (x) = -0.25453 0.07242
# Poissons Ratio (y) = -0.40990 0.04337
# Poissons Ratio (z) = 0.12665 0.04710
#
# Static dielectric constant tensor:
#      x y z
#    x 4.647700 0.000000 0.000000 
#    y 0.000000 3.471310 0.000000 
#    z 0.000000 0.000000 3.327180 
# 
# 
# High freq. dielectric constant tensor:
#      x y z
#    x 1.845410 0.000000 0.000000 
#    y 0.000000 1.780560 0.000000 
#    z 0.000000 0.000000 1.766790 
# 
# From -- ./inp_files/25866.got.cif
#   From: 2010.03.12/outbox.cif.g09.slc.cpg/sg50_13_cif.got.tgz:25866.got - 2010.04.16 13:23:21.
