data_PCOD8204293
_publ_section_title
;
Structure prediction by ZEFSAII (Michael W. Deem and Ramdas Pophale) SiO2 
 PCOD8204293
Probable space group: P C C M
;
_chemical_formula_sum "Si O2"
_cell_formula_units_Z 64
_cell_length_a 23.774042
_cell_length_b 8.850667
_cell_length_c 15.318677
_cell_angle_alpha 90.000000
_cell_angle_beta 90.000000
_cell_angle_gamma 90.000000
_cell_volume 3223.296716
_symmetry_space_group_name_H-M "P C C M"
_symmetry_group_IT_number 49
_symmetry_cell_setting 'orthorhombic'
loop_
_space_group_symop_operation_xyz
x,y,z
-x,-y,z
x,-y,1/2-z
-x,y,1/2-z
-x,-y,-z
x,y,-z
-x,y,1/2+z
x,-y,1/2+z
loop_
_atom_site_type_symbol
_atom_site_label
_atom_site_fract_x
_atom_site_fract_y
_atom_site_fract_z
Si Si1 0.611623 0.672035 0.097313
Si Si2 0.885047 0.674513 0.099084
Si Si3 0.693657 0.321932 0.750008
Si Si4 0.611606 0.672000 0.597312
Si Si5 0.000008 0.176246 0.147316
Si Si6 0.499995 0.822060 0.652098
Si Si7 0.186012 0.821333 0.750008
Si Si8 0.114931 0.674507 0.099081
O O1 0.658612 0.727901 0.164904
O O2 0.595285 0.500023 0.119005
O O3 0.555262 0.768662 0.102262
O O4 0.636862 0.688438 0.000000
O O5 0.946082 0.747957 0.104631
O O6 0.842190 0.757733 0.162837
O O7 0.889087 0.500004 0.126798
O O8 0.862682 0.691203 0.000000
O O9 0.708194 0.500000 0.750000
O O10 0.658585 0.272111 0.835087
O O11 0.749345 0.223916 0.750047
O O12 0.636847 0.688408 0.500000
O O13 0.555237 0.768599 0.602246
O O14 0.000000 0.205584 0.250000
O O15 0.946116 0.252113 0.104611
O O16 0.000000 0.000000 0.124791
O O17 0.500000 0.755493 0.750000
O O18 0.500000 0.000000 0.653027
O O19 0.157768 0.757779 0.837157
O O20 0.178741 0.000000 0.750000
O O21 0.137301 0.691211 0.000000
#
# Coordination Sequence:
#
# PCOD8204293 Si02
#       8
#     8   8   8   8   8   8   8   8
#     4  10  21  38  62  89 116 152 198 243 292 352
#     4  11  24  42  66  94 124 163 209 254 302 360
#     4  10  22  41  62  85 117 156 201 252 298 348
#     4  10  21  38  62  89 116 152 198 243 292 352
#     4  11  22  37  62  97 132 165 198 245 311 371
#     4  11  22  35  56  87 123 158 193 236 295 359
#     4  12  26  43  64  91 124 162 205 254 311 366
#     4  11  24  42  66  94 124 163 209 254 302 360
#
# _framework density 19.855447000000002
#
# number of rings (size 3 to 8) (size 9 to 14) (size 15 to 20)
#    0.000    1.250    2.500    3.375    0.000    8.500 
#    0.000    2.500    0.000    0.000    0.000    0.000 
#    0.000    0.000    0.000    0.000    0.000    0.000 
#
# Total GULP energy -793926.387152 kJ/mol
# GULP energy per Si atom -12405.099799 kJ/mol
# Density = 1.981026 g / cm^3
# Si number density = 19.855447 Si / 1000 Ang^3
#
#
#
# Elastic Constant Matrix: (Units=GPa)
#
#
# Indices 1 2 3 4 5 6 
#
# 1 138.0982 56.7967 65.8253 0.0000 0.0000 0.0000
# 2 56.7967 118.9299 58.3841 0.0000 0.0000 0.0000
# 3 65.8253 58.3841 145.4815 0.0000 0.0000 0.0000
# 4 0.0000 0.0000 0.0000 23.5729 0.0000 0.0000
# 5 0.0000 0.0000 0.0000 0.0000 0.4100 0.0000
# 6 0.0000 0.0000 0.0000 0.0000 0.0000 50.2736
#
#
#
# Elastic Compliance Matrix: (Units=1/GPa)
#
#
# Indices 1 2 3 4 5 6 
#
# 1 0.010137 -0.003225 -0.003292 0.000000 0.000000 0.000000
# 2 -0.003225 0.011497 -0.003155 0.000000 0.000000 0.000000
# 3 -0.003292 -0.003155 0.009630 0.000000 0.000000 0.000000
# 4 0.000000 0.000000 0.000000 0.042422 0.000000 0.000000
# 5 0.000000 0.000000 0.000000 0.000000 2.439077 0.000000
# 6 0.000000 0.000000 0.000000 0.000000 0.000000 0.019891
#
#
# Mechanical properties :
#
#
# Convention : Reuss Voigt Hill
#
# Bulk Modulus (GPa) = 83.89686 84.94686 84.42186
# Shear Modulus (GPa) = 1.95620 29.61819 15.78720
#
# Velocity S-wave (km/s) = 0.99366 3.86643 2.82282
# Velocity P-wave (km/s) = 6.60773 7.92514 7.29623
#
# Compressibility (1/GPa) = 0.01191940
#
# Stress axis : x y z
#
# Youngs Moduli (GPa) = 98.65018 86.97840 103.84690
#
# Poissons Ratio (x) = 0.28048 0.34191
# Poissons Ratio (y) = 0.31812 0.32763
# Poissons Ratio (z) = 0.32480 0.27441
#
# Static dielectric constant tensor:
#      x y z
#    x 3.549370 0.000000 0.000000 
#    y 0.000000 3.640680 0.000000 
#    z 0.000000 0.000000 3.899760 
# 
# 
# High freq. dielectric constant tensor:
#      x y z
#    x 1.767580 0.000000 0.000000 
#    y 0.000000 1.777350 0.000000 
#    z 0.000000 0.000000 1.794580 
# 
# From -- ./inp_files/14513.got.cif
#   From: 2010.03.12/outbox.cif.g09.slc.cpg/sg49_8_cif.got.tgz:14513.got - 2010.04.14 03:58:27.
