data_PCOD8204791
_publ_section_title
;
Structure prediction by ZEFSAII (Michael W. Deem and Ramdas Pophale) SiO2 
 PCOD8204791
Probable space group: P B A N
;
_chemical_formula_sum "Si O2"
_cell_formula_units_Z 56
_cell_length_a 14.629228
_cell_length_b 20.764641
_cell_length_c 8.619892
_cell_angle_alpha 90.000000
_cell_angle_beta 90.000000
_cell_angle_gamma 90.000000
_cell_volume 2618.470347
_symmetry_space_group_name_H-M "P B A N"
_symmetry_group_IT_number 50
_space_group.IT_coordinate_system_code '2'
_symmetry_cell_setting 'orthorhombic'
loop_
_space_group_symop_operation_xyz
x,y,z
1/2-x,1/2-y,z
x,1/2-y,-z
1/2-x,y,-z
-x,-y,-z
1/2+x,1/2+y,-z
-x,1/2+y,z
1/2+x,-y,z
loop_
_atom_site_type_symbol
_atom_site_label
_atom_site_fract_x
_atom_site_fract_y
_atom_site_fract_z
Si Si1 0.660497 0.778773 0.170099
Si Si2 0.647444 0.123302 0.840930
Si Si3 0.336911 0.068760 0.828848
Si Si4 0.644827 0.133602 0.202599
Si Si5 0.963502 0.256474 0.814815
Si Si6 0.533854 0.478600 0.666821
Si Si7 0.354424 0.478109 0.824680
O O1 0.750000 0.750000 0.259758
O O2 0.661708 0.855157 0.154876
O O3 0.567076 0.755240 0.251915
O O4 0.662000 0.750000 0.000000
O O5 0.747557 0.146870 0.790193
O O6 0.579520 0.175122 0.764843
O O7 0.633396 0.052314 0.773923
O O8 0.625780 0.116791 0.023621
O O9 0.239527 0.049253 0.749862
O O10 0.423749 0.044953 0.732192
O O11 0.346842 0.033484 0.993098
O O12 0.592927 0.197900 0.259038
O O13 0.612871 0.075880 0.317478
O O14 0.960842 0.250000 0.000000
O O15 0.500000 0.500000 0.500000
O O16 0.447535 0.447035 0.758986
#
# Coordination Sequence:
#
# PCOD8204791 Si02
#       7
#     8   8   8   8   8   8   8
#     4  10  20  33  54  94 131 151 204 263 329 377
#     4  10  17  35  57  93 118 154 202 272 318 377
#     4  11  22  40  63  97 123 166 211 269 330 375
#     4  10  19  35  56  86 128 155 211 249 329 370
#     4   9  19  28  54  87 124 161 190 258 322 375
#     4  12  26  39  59  92 129 176 212 258 316 391
#     4  11  21  36  66  87 123 155 211 266 322 368
#
# _framework density 21.386531000000002
#
# number of rings (size 3 to 8) (size 9 to 14) (size 15 to 20)
#    0.000    1.571    2.857    4.286    8.000    2.286 
#    0.000    0.000    0.000    3.429    0.000    4.000 
#    0.000    0.000    0.000    0.000    0.000    0.000 
#
# Total GULP energy -693962.811591 kJ/mol
# GULP energy per Si atom -12392.193064 kJ/mol
# Density = 2.133785 g / cm^3
# Si number density = 21.386531 Si / 1000 Ang^3
#
#
#
# Elastic Constant Matrix: (Units=GPa)
#
#
# Indices 1 2 3 4 5 6 
#
# 1 157.2262 48.9613 36.1784 0.0000 0.0000 0.0000
# 2 48.9613 155.7421 19.3367 0.0000 0.0000 0.0000
# 3 36.1784 19.3367 44.5834 0.0000 0.0000 0.0000
# 4 0.0000 0.0000 0.0000 10.1004 0.0000 0.0000
# 5 0.0000 0.0000 0.0000 0.0000 11.6003 0.0000
# 6 0.0000 0.0000 0.0000 0.0000 0.0000 29.4440
#
#
#
# Elastic Compliance Matrix: (Units=1/GPa)
#
#
# Indices 1 2 3 4 5 6 
#
# 1 0.008309 -0.001876 -0.005929 0.000000 0.000000 0.000000
# 2 -0.001876 0.007210 -0.001605 0.000000 0.000000 0.000000
# 3 -0.005929 -0.001605 0.027937 0.000000 0.000000 0.000000
# 4 0.000000 0.000000 0.000000 0.099006 0.000000 0.000000
# 5 0.000000 0.000000 0.000000 0.000000 0.086204 0.000000
# 6 0.000000 0.000000 0.000000 0.000000 0.000000 0.033963
#
#
# Mechanical properties :
#
#
# Convention : Reuss Voigt Hill
#
# Bulk Modulus (GPa) = 40.58996 62.94496 51.76746
# Shear Modulus (GPa) = 17.26162 27.10063 22.18112
#
# Velocity S-wave (km/s) = 2.84408 3.56361 3.22398
# Velocity P-wave (km/s) = 5.45944 6.81384 6.17389
#
# Compressibility (1/GPa) = 0.02463664
#
# Stress axis : x y z
#
# Youngs Moduli (GPa) = 120.35654 138.69887 35.79499
#
# Poissons Ratio (x) = 0.26019 0.21222
# Poissons Ratio (y) = 0.22578 0.05744
# Poissons Ratio (z) = 0.71355 0.22258
#
# Static dielectric constant tensor:
#      x y z
#    x 5.163980 0.000000 0.000000 
#    y 0.000000 3.945340 0.000000 
#    z 0.000000 0.000000 3.085560 
# 
# 
# High freq. dielectric constant tensor:
#      x y z
#    x 1.871880 0.000000 0.000000 
#    y 0.000000 1.850280 0.000000 
#    z 0.000000 0.000000 1.755630 
# 
# From -- ./inp_files/13262.got.cif
#   From: 2010.03.12/outbox.cif.g09.slc.cpg/sg50_7_cif.got.tgz:13262.got - 2010.04.16 13:23:21.
