data_PCOD8204643
_publ_section_title
;
Structure prediction by ZEFSAII (Michael W. Deem and Ramdas Pophale) SiO2 
 PCOD8204643
Probable space group: P C C M
;
_chemical_formula_sum "Si O2"
_cell_formula_units_Z 64
_cell_length_a 15.745872
_cell_length_b 8.895890
_cell_length_c 21.771169
_cell_angle_alpha 90.000000
_cell_angle_beta 90.000000
_cell_angle_gamma 90.000000
_cell_volume 3049.564826
_symmetry_space_group_name_H-M "P C C M"
_symmetry_group_IT_number 49
_symmetry_cell_setting 'orthorhombic'
loop_
_space_group_symop_operation_xyz
x,y,z
-x,-y,z
x,-y,1/2-z
-x,y,1/2-z
-x,-y,-z
x,y,-z
-x,y,1/2+z
x,-y,1/2+z
loop_
_atom_site_type_symbol
_atom_site_label
_atom_site_fract_x
_atom_site_fract_y
_atom_site_fract_z
Si Si1 0.712905 0.759107 0.341610
Si Si2 0.275035 0.502218 0.570991
Si Si3 0.576839 0.286095 0.569011
Si Si4 0.876471 0.826514 0.268734
Si Si5 0.148019 0.754412 0.570812
Si Si6 0.712592 0.022277 0.431317
Si Si7 0.020749 0.322857 0.165291
Si Si8 0.529355 0.670444 0.685762
O O1 0.750301 0.643726 0.390806
O O2 0.779487 0.794788 0.287588
O O3 0.630253 0.686655 0.311512
O O4 0.686917 0.907574 0.378634
O O5 0.259261 0.466340 0.500000
O O6 0.373099 0.556404 0.580842
O O7 0.211657 0.628126 0.596123
O O8 0.534672 0.290032 0.500000
O O9 0.645607 0.155787 0.570269
O O10 0.508093 0.256199 0.622770
O O11 0.904550 0.715165 0.214013
O O12 0.938291 0.781639 0.324815
O O13 0.888749 0.000000 0.250000
O O14 0.132304 0.731910 0.500000
O O15 0.192734 0.915148 0.584050
O O16 0.056002 0.732472 0.600310
O O17 0.711893 0.950643 0.500000
O O18 0.000000 0.500000 0.167793
O O19 0.500000 0.500000 0.686952
O O20 0.500000 0.748919 0.750000
#
# Coordination Sequence:
#
# PCOD8204643 Si02
#       8
#     8   8   8   8   8   8   8   8
#     4  12  23  39  63  88 119 164 207 253 313 372
#     4   9  18  34  60  92 122 154 201 251 301 367
#     4   9  19  40  65  88 120 167 208 251 313 373
#     4  11  25  42  60  87 121 166 208 255 306 368
#     4   9  19  38  63  91 126 161 192 246 318 373
#     4   9  20  38  62  94 128 161 207 257 307 376
#     4  11  22  41  64  92 121 154 213 264 294 367
#     4  11  25  43  58  93 128 157 205 269 320 378
#
# _framework density 20.986602000000001
#
# number of rings (size 3 to 8) (size 9 to 14) (size 15 to 20)
#    0.000    1.875    1.250    4.875    0.000    5.000 
#    4.500    3.125    0.000    3.000    0.000    0.000 
#    0.000    0.000    0.000    0.000    0.000    0.000 
#
# Total GULP energy -793288.843725 kJ/mol
# GULP energy per Si atom -12395.138183 kJ/mol
# Density = 2.093884 g / cm^3
# Si number density = 20.986602 Si / 1000 Ang^3
#
#
#
# Elastic Constant Matrix: (Units=GPa)
#
#
# Indices 1 2 3 4 5 6 
#
# 1 118.1634 36.8468 50.3106 0.0000 0.0000 0.0000
# 2 36.8468 83.0856 29.9973 0.0000 0.0000 0.0000
# 3 50.3106 29.9973 89.8157 0.0000 0.0000 0.0000
# 4 0.0000 0.0000 0.0000 21.5680 0.0000 0.0000
# 5 0.0000 0.0000 0.0000 0.0000 37.2757 0.0000
# 6 0.0000 0.0000 0.0000 0.0000 0.0000 20.1793
#
#
#
# Elastic Compliance Matrix: (Units=1/GPa)
#
#
# Indices 1 2 3 4 5 6 
#
# 1 0.011837 -0.003247 -0.005546 0.000000 0.000000 0.000000
# 2 -0.003247 0.014577 -0.003050 0.000000 0.000000 0.000000
# 3 -0.005546 -0.003050 0.015259 0.000000 0.000000 0.000000
# 4 0.000000 0.000000 0.000000 0.046365 0.000000 0.000000
# 5 0.000000 0.000000 0.000000 0.000000 0.026827 0.000000
# 6 0.000000 0.000000 0.000000 0.000000 0.000000 0.049556
#
#
# Mechanical properties :
#
#
# Convention : Reuss Voigt Hill
#
# Bulk Modulus (GPa) = 55.59454 58.37489 56.98472
# Shear Modulus (GPa) = 25.75975 27.39859 26.57917
#
# Velocity S-wave (km/s) = 3.50728 3.61713 3.56263
# Velocity P-wave (km/s) = 6.55358 6.73205 6.64341
#
# Compressibility (1/GPa) = 0.01798738
#
# Stress axis : x y z
#
# Youngs Moduli (GPa) = 84.48329 68.60204 65.53518
#
# Poissons Ratio (x) = 0.22275 0.36345
# Poissons Ratio (y) = 0.27432 0.19986
# Poissons Ratio (z) = 0.46853 0.20921
#
# Static dielectric constant tensor:
#      x y z
#    x 3.805180 0.000000 0.000000 
#    y 0.000000 3.757220 0.000000 
#    z 0.000000 0.000000 4.063140 
# 
# 
# High freq. dielectric constant tensor:
#      x y z
#    x 1.813040 0.000000 0.000000 
#    y 0.000000 1.815520 0.000000 
#    z 0.000000 0.000000 1.826530 
# 
# From -- ./inp_files/23219.got.cif
#   From: 2010.03.12/outbox.cif.g09.slc.cpg/sg49_12_cif.got.tgz:23219.got - 2010.04.14 03:58:27.
