data_PCOD8204129
_publ_section_title
;
Structure prediction by ZEFSAII (Michael W. Deem and Ramdas Pophale) SiO2 
 PCOD8204129
Probable space group: P C C M
;
_chemical_formula_sum "Si O2"
_cell_formula_units_Z 48
_cell_length_a 8.800842
_cell_length_b 21.020396
_cell_length_c 14.209498
_cell_angle_alpha 90.000000
_cell_angle_beta 90.000000
_cell_angle_gamma 90.000000
_cell_volume 2628.717116
_symmetry_space_group_name_H-M "P C C M"
_symmetry_group_IT_number 49
_symmetry_cell_setting 'orthorhombic'
loop_
_space_group_symop_operation_xyz
x,y,z
-x,-y,z
x,-y,1/2-z
-x,y,1/2-z
-x,-y,-z
x,y,-z
-x,y,1/2+z
x,-y,1/2+z
loop_
_atom_site_type_symbol
_atom_site_label
_atom_site_fract_x
_atom_site_fract_y
_atom_site_fract_z
Si Si1 0.674795 0.772151 0.750000
Si Si2 0.679903 0.000000 0.891046
Si Si3 0.821032 0.094043 0.250000
Si Si4 0.677179 0.663972 0.106730
Si Si5 0.820835 0.428052 0.250000
Si Si6 0.322821 0.663972 0.106730
O O1 0.500000 0.795191 0.750000
O O2 0.786440 0.831560 0.750000
O O3 0.711769 0.730657 0.842308
O O4 0.711769 0.730657 0.657692
O O5 0.749148 0.062803 0.843189
O O6 0.500000 0.000000 0.876629
O O7 0.749149 0.937197 0.843189
O O8 0.725644 0.000000 0.000000
O O9 0.000000 0.082239 0.250000
O O10 0.763419 0.606201 0.155943
O O11 0.500000 0.648258 0.113337
O O12 0.734473 0.669796 0.000000
O O13 0.759085 0.500000 0.250000
O O14 0.763419 0.393799 0.155943
O O15 0.000000 0.426263 0.250000
O O16 0.265527 0.669795 0.000000
#
# Coordination Sequence:
#
# PCOD8204129 Si02
#       6
#     8   8   8   8   8   8
#     4   9  18  34  54  77 107 139 173 212 256 310
#     4  10  21  38  59  79 102 138 181 219 256 303
#     4  11  22  35  54  81 112 140 169 212 263 312
#     4   9  19  36  57  79 102 133 176 222 262 302
#     4  10  21  35  51  75 108 142 173 209 259 317
#     4   9  19  36  57  79 102 133 176 222 262 302
#
# _framework density 18.259857
#
# number of rings (size 3 to 8) (size 9 to 14) (size 15 to 20)
#    0.000    2.333    0.000    4.500    0.000    8.000 
#    0.000    6.667    0.000    0.000    0.000    0.000 
#    0.000    0.000    0.000    0.000    0.000    0.000 
#
# Total GULP energy -595322.294048 kJ/mol
# GULP energy per Si atom -12402.547793 kJ/mol
# Density = 1.821830 g / cm^3
# Si number density = 18.259857 Si / 1000 Ang^3
#
#
#
# Elastic Constant Matrix: (Units=GPa)
#
#
# Indices 1 2 3 4 5 6 
#
# 1 84.2719 53.5452 51.9321 0.0000 0.0000 0.0000
# 2 53.5452 139.5319 71.1143 0.0000 0.0000 0.0000
# 3 51.9321 71.1143 181.0967 0.0000 0.0000 0.0000
# 4 0.0000 0.0000 0.0000 9.0258 0.0000 0.0000
# 5 0.0000 0.0000 0.0000 0.0000 12.0054 0.0000
# 6 0.0000 0.0000 0.0000 0.0000 0.0000 24.8630
#
#
#
# Elastic Compliance Matrix: (Units=1/GPa)
#
#
# Indices 1 2 3 4 5 6 
#
# 1 0.016798 -0.004990 -0.002858 0.000000 0.000000 0.000000
# 2 -0.004990 0.010442 -0.002670 0.000000 0.000000 0.000000
# 3 -0.002858 -0.002670 0.007390 0.000000 0.000000 0.000000
# 4 0.000000 0.000000 0.000000 0.110794 0.000000 0.000000
# 5 0.000000 0.000000 0.000000 0.000000 0.083296 0.000000
# 6 0.000000 0.000000 0.000000 0.000000 0.000000 0.040220
#
#
# Mechanical properties :
#
#
# Convention : Reuss Voigt Hill
#
# Bulk Modulus (GPa) = 73.55241 84.23154 78.89197
# Shear Modulus (GPa) = 16.97759 24.39943 20.68851
#
# Velocity S-wave (km/s) = 3.05253 3.65942 3.36967
# Velocity P-wave (km/s) = 7.26583 8.00529 7.64451
#
# Compressibility (1/GPa) = 0.01359575
#
# Stress axis : x y z
#
# Youngs Moduli (GPa) = 59.53193 95.76489 135.32327
#
# Poissons Ratio (x) = 0.47784 0.38670
# Poissons Ratio (y) = 0.29705 0.36127
# Poissons Ratio (z) = 0.17012 0.25566
#
# Static dielectric constant tensor:
#      x y z
#    x 3.302610 0.000000 0.000000 
#    y 0.000000 3.316350 0.000000 
#    z 0.000000 0.000000 3.751160 
# 
# 
# High freq. dielectric constant tensor:
#      x y z
#    x 1.708260 0.000000 0.000000 
#    y 0.000000 1.708490 0.000000 
#    z 0.000000 0.000000 1.713160 
# 
# From -- ./inp_files/11934.got.cif
#   From: 2010.03.12/outbox.cif.g09.slc.cpg/sg49_6_cif.got.tgz:11934.got - 2010.04.14 03:58:27.
