data_PCOD8204968
_publ_section_title
;
Structure prediction by ZEFSAII (Michael W. Deem and Ramdas Pophale) SiO2 
 PCOD8204968
Probable space group: P B A N
;
_chemical_formula_sum "Si O2"
_cell_formula_units_Z 58
_cell_length_a 12.066816
_cell_length_b 28.452448
_cell_length_c 8.773701
_cell_angle_alpha 90.000000
_cell_angle_beta 90.000000
_cell_angle_gamma 90.000000
_cell_volume 3012.278754
_symmetry_space_group_name_H-M "P B A N"
_symmetry_group_IT_number 50
_space_group.IT_coordinate_system_code '2'
_symmetry_cell_setting 'orthorhombic'
loop_
_space_group_symop_operation_xyz
x,y,z
1/2-x,1/2-y,z
x,1/2-y,-z
1/2-x,y,-z
-x,-y,-z
1/2+x,1/2+y,-z
-x,1/2+y,z
1/2+x,-y,z
loop_
_atom_site_type_symbol
_atom_site_label
_atom_site_fract_x
_atom_site_fract_y
_atom_site_fract_z
Si Si1 0.513703 0.874527 0.258611
Si Si2 0.369479 0.449961 0.054929
Si Si3 0.627868 0.144229 0.023100
Si Si4 0.871277 0.413007 0.469715
Si Si5 0.088279 0.681447 0.670034
Si Si6 0.067982 0.951686 0.165058
Si Si7 0.376269 0.194044 0.514644
Si Si8 0.750000 0.250000 0.500000
O O1 0.594955 0.910450 0.175091
O O2 0.443639 0.905792 0.378327
O O3 0.578548 0.830027 0.330628
O O4 0.434203 0.850280 0.136284
O O5 0.365694 0.500443 0.135641
O O6 0.250000 0.434434 0.000000
O O7 0.444971 0.453337 0.904040
O O8 0.575126 0.179508 0.147577
O O9 0.632208 0.090557 0.081997
O O10 0.750000 0.163030 0.000000
O O11 0.750000 0.435960 0.500000
O O12 0.845201 0.363512 0.390270
O O13 0.938577 0.445017 0.348218
O O14 0.163974 0.723785 0.610944
O O15 0.960557 0.678015 0.616458
O O16 0.378500 0.250000 0.500000
O O17 0.250000 0.175671 0.500000
#
# Coordination Sequence:
#
# PCOD8204968 Si02
#       8
#     8   8   8   8   8   8   8   2
#     4  10  22  36  57  86 115 147 196 244 286 348
#     4  10  21  38  58  82 119 152 186 241 292 338
#     4  10  20  35  58  87 121 154 189 233 297 358
#     4  10  19  35  58  84 116 152 190 236 284 343
#     4  10  21  35  60  86 117 152 191 240 303 347
#     4   9  20  36  57  84 111 156 196 223 286 355
#     4  10  22  41  61  78 107 154 203 244 292 351
#     4  12  20  36  60  88 120 152 190 262 292 356
#
# _framework density 19.254525999999998
#
# number of rings (size 3 to 8) (size 9 to 14) (size 15 to 20)
#    0.000    2.069    1.379    2.069    1.931    7.172 
#    0.000    3.103    0.000    1.655    0.000    0.000 
#    0.000    0.000    0.000    0.000    0.000    0.000 
#
# Total GULP energy -718788.863141 kJ/mol
# GULP energy per Si atom -12392.911433 kJ/mol
# Density = 1.921070 g / cm^3
# Si number density = 19.254526 Si / 1000 Ang^3
#
#
#
# Elastic Constant Matrix: (Units=GPa)
#
#
# Indices 1 2 3 4 5 6 
#
# 1 140.8069 38.0107 79.3585 0.0000 0.0000 0.0000
# 2 38.0107 83.1481 52.5553 0.0000 0.0000 0.0000
# 3 79.3585 52.5553 167.2347 0.0000 0.0000 0.0000
# 4 0.0000 0.0000 0.0000 44.1326 0.0000 0.0000
# 5 0.0000 0.0000 0.0000 0.0000 21.8135 0.0000
# 6 0.0000 0.0000 0.0000 0.0000 0.0000 31.7077
#
#
#
# Elastic Compliance Matrix: (Units=1/GPa)
#
#
# Indices 1 2 3 4 5 6 
#
# 1 0.009942 -0.001950 -0.004105 0.000000 0.000000 0.000000
# 2 -0.001950 0.015390 -0.003911 0.000000 0.000000 0.000000
# 3 -0.004105 -0.003911 0.009157 0.000000 0.000000 0.000000
# 4 0.000000 0.000000 0.000000 0.022659 0.000000 0.000000
# 5 0.000000 0.000000 0.000000 0.000000 0.045843 0.000000
# 6 0.000000 0.000000 0.000000 0.000000 0.000000 0.031538
#
#
# Mechanical properties :
#
#
# Convention : Reuss Voigt Hill
#
# Bulk Modulus (GPa) = 68.69859 81.22652 74.96256
# Shear Modulus (GPa) = 31.38459 34.28177 32.83318
#
# Velocity S-wave (km/s) = 4.04169 4.22412 4.13391
# Velocity P-wave (km/s) = 7.58531 8.12823 7.86146
#
# Compressibility (1/GPa) = 0.01455634
#
# Stress axis : x y z
#
# Youngs Moduli (GPa) = 100.58430 64.97554 109.21059
#
# Poissons Ratio (x) = 0.12672 0.44829
# Poissons Ratio (y) = 0.19617 0.42713
# Poissons Ratio (z) = 0.41288 0.25413
#
# Static dielectric constant tensor:
#      x y z
#    x 3.579940 0.000000 0.000000 
#    y 0.000000 3.489090 0.000000 
#    z 0.000000 0.000000 3.722940 
# 
# 
# High freq. dielectric constant tensor:
#      x y z
#    x 1.749540 0.000000 0.000000 
#    y 0.000000 1.737470 0.000000 
#    z 0.000000 0.000000 1.754860 
# 
# From -- ./inp_files/11815.got.cif
#   From: 2010.03.12/outbox.cif.g09.slc.cpg/sg50_6_cif.got.tgz:11815.got - 2010.04.16 13:23:21.
