data_PCOD8204074
_publ_section_title
;
Structure prediction by ZEFSAII (Michael W. Deem and Ramdas Pophale) SiO2 
 PCOD8204074
Probable space group: P C C M
;
_chemical_formula_sum "Si O2"
_cell_formula_units_Z 64
_cell_length_a 9.029437
_cell_length_b 23.079517
_cell_length_c 14.419657
_cell_angle_alpha 90.000000
_cell_angle_beta 90.000000
_cell_angle_gamma 90.000000
_cell_volume 3004.985066
_symmetry_space_group_name_H-M "P C C M"
_symmetry_group_IT_number 49
_symmetry_cell_setting 'orthorhombic'
loop_
_space_group_symop_operation_xyz
x,y,z
-x,-y,z
x,-y,1/2-z
-x,y,1/2-z
-x,-y,-z
x,y,-z
-x,y,1/2+z
x,-y,1/2+z
loop_
_atom_site_type_symbol
_atom_site_label
_atom_site_fract_x
_atom_site_fract_y
_atom_site_fract_z
Si Si1 0.421859 0.131586 0.109873
Si Si2 0.283675 0.172099 0.709649
Si Si3 0.163780 0.506757 0.358572
Si Si4 0.686322 0.376507 0.396782
Si Si5 0.642582 0.602025 0.602761
Si Si6 0.673454 0.299589 0.236685
Si Si7 0.907471 0.086204 0.889495
Si Si8 0.788440 0.032508 0.606827
O O1 0.312845 0.166212 0.179556
O O2 0.586929 0.143579 0.145517
O O3 0.370612 0.063925 0.122670
O O4 0.404787 0.149132 0.000000
O O5 0.258810 0.240630 0.695794
O O6 0.136527 0.141824 0.671594
O O7 0.165128 0.500000 0.250000
O O8 0.201363 0.571093 0.389336
O O9 0.278691 0.460167 0.398455
O O10 0.000000 0.500000 0.399997
O O11 0.680419 0.351862 0.500000
O O12 0.527964 0.402821 0.363678
O O13 0.736911 0.321430 0.335356
O O14 0.646650 0.627749 0.500000
O O15 0.721452 0.649109 0.667228
O O16 0.500000 0.288122 0.250000
O O17 0.075735 0.072572 0.858182
O O18 0.799922 0.033008 0.853385
O O19 0.891733 0.098802 0.000000
O O20 0.822389 0.022899 0.500000
#
# Coordination Sequence:
#
# PCOD8204074 Si02
#       8
#     8   8   8   8   8   8   8   8
#     4  10  21  37  57  83 118 150 187 243 299 353
#     4  11  22  36  58  86 113 156 202 241 294 351
#     4  11  22  37  61  91 126 158 185 237 298 346
#     4  10  21  37  63  90 114 154 200 240 289 347
#     4  10  21  36  61  89 113 151 196 238 286 342
#     4  10  20  39  56  81 118 150 196 245 287 331
#     4   9  18  35  61  90 118 152 195 241 294 360
#     4   8  17  36  60  87 120 152 187 241 304 358
#
# _framework density 21.297941999999999
#
# number of rings (size 3 to 8) (size 9 to 14) (size 15 to 20)
#    0.000    2.125    2.500    1.875    0.000    5.500 
#    0.000    4.375    5.500    0.000    0.000    0.000 
#    0.000    0.000    0.000    0.000    0.000    0.000 
#
# Total GULP energy -792962.282584 kJ/mol
# GULP energy per Si atom -12390.035665 kJ/mol
# Density = 2.124947 g / cm^3
# Si number density = 21.297942 Si / 1000 Ang^3
#
#
#
# Elastic Constant Matrix: (Units=GPa)
#
#
# Indices 1 2 3 4 5 6 
#
# 1 62.9584 43.1039 21.6746 0.0000 0.0000 0.0000
# 2 43.1039 141.2592 35.6141 0.0000 0.0000 0.0000
# 3 21.6746 35.6141 102.1153 0.0000 0.0000 0.0000
# 4 0.0000 0.0000 0.0000 15.3547 0.0000 0.0000
# 5 0.0000 0.0000 0.0000 0.0000 18.9818 0.0000
# 6 0.0000 0.0000 0.0000 0.0000 0.0000 27.5860
#
#
#
# Elastic Compliance Matrix: (Units=1/GPa)
#
#
# Indices 1 2 3 4 5 6 
#
# 1 0.020597 -0.005682 -0.002390 0.000000 0.000000 0.000000
# 2 -0.005682 0.009329 -0.002048 0.000000 0.000000 0.000000
# 3 -0.002390 -0.002048 0.011014 0.000000 0.000000 0.000000
# 4 0.000000 0.000000 0.000000 0.065127 0.000000 0.000000
# 5 0.000000 0.000000 0.000000 0.000000 0.052682 0.000000
# 6 0.000000 0.000000 0.000000 0.000000 0.000000 0.036250
#
#
# Mechanical properties :
#
#
# Convention : Reuss Voigt Hill
#
# Bulk Modulus (GPa) = 48.30821 56.34647 52.32734
# Shear Modulus (GPa) = 22.50840 26.11384 24.31112
#
# Velocity S-wave (km/s) = 3.25443 3.50540 3.38224
# Velocity P-wave (km/s) = 6.07067 6.54962 6.31469
#
# Compressibility (1/GPa) = 0.02070042
#
# Stress axis : x y z
#
# Youngs Moduli (GPa) = 48.55153 107.18869 90.79117
#
# Poissons Ratio (x) = 0.60908 0.21699
# Poissons Ratio (y) = 0.27589 0.18591
# Poissons Ratio (z) = 0.11604 0.21948
#
# Static dielectric constant tensor:
#      x y z
#    x 3.694580 0.000000 0.000000 
#    y 0.000000 3.481660 0.000000 
#    z 0.000000 0.000000 3.961870 
# 
# 
# High freq. dielectric constant tensor:
#      x y z
#    x 1.807000 0.000000 0.000000 
#    y 0.000000 1.820840 0.000000 
#    z 0.000000 0.000000 1.849670 
# 
# From -- ./inp_files/12154.got.cif
#   From: 2010.03.12/outbox.cif.g09.slc.cpg/sg49_7_cif.got.tgz:12154.got - 2010.04.14 03:58:27.
