data_PCOD8204853
_publ_section_title
;
Structure prediction by ZEFSAII (Michael W. Deem and Ramdas Pophale) SiO2 
 PCOD8204853
Probable space group: P B A N
;
_chemical_formula_sum "Si O2"
_cell_formula_units_Z 64
_cell_length_a 19.319410
_cell_length_b 21.794841
_cell_length_c 8.021431
_cell_angle_alpha 90.000000
_cell_angle_beta 90.000000
_cell_angle_gamma 90.000000
_cell_volume 3377.531565
_symmetry_space_group_name_H-M "P B A N"
_symmetry_group_IT_number 50
_space_group.IT_coordinate_system_code '2'
_symmetry_cell_setting 'orthorhombic'
loop_
_space_group_symop_operation_xyz
x,y,z
1/2-x,1/2-y,z
x,1/2-y,-z
1/2-x,y,-z
-x,-y,-z
1/2+x,1/2+y,-z
-x,1/2+y,z
1/2+x,-y,z
loop_
_atom_site_type_symbol
_atom_site_label
_atom_site_fract_x
_atom_site_fract_y
_atom_site_fract_z
Si Si1 0.485465 0.893745 0.740244
Si Si2 0.883910 0.873610 0.858365
Si Si3 0.938676 0.387779 0.605033
Si Si4 0.254231 0.183529 0.693119
Si Si5 0.325847 0.520202 0.575029
Si Si6 0.983089 0.317499 0.939232
Si Si7 0.644418 0.587230 0.205385
Si Si8 0.055937 0.022489 0.347676
O O1 0.455075 0.856592 0.575989
O O2 0.567907 0.900385 0.723446
O O3 0.453067 0.961286 0.759663
O O4 0.460414 0.861079 0.908843
O O5 0.825656 0.849029 0.737144
O O6 0.933284 0.817938 0.922074
O O7 0.937162 0.918847 0.770696
O O8 0.851065 0.913029 0.006480
O O9 0.860015 0.413352 0.617258
O O10 0.950625 0.341840 0.761399
O O11 0.982952 0.453162 0.569799
O O12 0.250000 0.250000 0.783362
O O13 0.250000 0.193763 0.500000
O O14 0.188593 0.144814 0.740819
O O15 0.250000 0.531595 0.500000
O O16 0.321965 0.477406 0.738850
O O17 0.373094 0.480208 0.450944
O O18 0.958796 0.250000 0.000000
#
# Coordination Sequence:
#
# PCOD8204853 Si02
#       8
#     8   8   8   8   8   8   8   8
#     4  10  20  35  61  87 112 157 195 247 304 353
#     4  10  23  34  55  80 114 155 203 248 295 340
#     4  10  20  38  61  85 123 159 188 246 314 359
#     4  11  25  39  51  71 112 173 211 235 276 345
#     4  11  20  33  59  89 119 149 196 242 298 367
#     4  10  24  38  58  90 115 149 205 257 292 360
#     4  11  20  33  54  77 114 154 199 242 293 338
#     4  10  18  37  57  85 120 151 198 240 305 365
#
# _framework density 18.94875
#
# number of rings (size 3 to 8) (size 9 to 14) (size 15 to 20)
#    0.000    1.625    2.500    3.000    7.000    2.500 
#    0.000    0.000    0.000    0.000    0.000   10.500 
#    0.000    0.000    0.000    0.000    0.000    0.000 
#
# Total GULP energy -792955.295541 kJ/mol
# GULP energy per Si atom -12389.926493 kJ/mol
# Density = 1.890562 g / cm^3
# Si number density = 18.948750 Si / 1000 Ang^3
#
#
#
# Elastic Constant Matrix: (Units=GPa)
#
#
# Indices 1 2 3 4 5 6 
#
# 1 91.3515 39.5801 32.6354 0.0000 0.0000 0.0000
# 2 39.5801 76.0546 27.5894 0.0000 0.0000 0.0000
# 3 32.6354 27.5894 94.0892 0.0000 0.0000 0.0000
# 4 0.0000 0.0000 0.0000 21.1723 0.0000 0.0000
# 5 0.0000 0.0000 0.0000 0.0000 12.3266 0.0000
# 6 0.0000 0.0000 0.0000 0.0000 0.0000 23.1022
#
#
#
# Elastic Compliance Matrix: (Units=1/GPa)
#
#
# Indices 1 2 3 4 5 6 
#
# 1 0.014974 -0.006612 -0.003255 0.000000 0.000000 0.000000
# 2 -0.006612 0.017633 -0.002877 0.000000 0.000000 0.000000
# 3 -0.003255 -0.002877 0.012601 0.000000 0.000000 0.000000
# 4 0.000000 0.000000 0.000000 0.047232 0.000000 0.000000
# 5 0.000000 0.000000 0.000000 0.000000 0.081126 0.000000
# 6 0.000000 0.000000 0.000000 0.000000 0.000000 0.043286
#
#
# Mechanical properties :
#
#
# Convention : Reuss Voigt Hill
#
# Bulk Modulus (GPa) = 50.71015 51.23390 50.97203
# Shear Modulus (GPa) = 20.08729 22.09958 21.09344
#
# Velocity S-wave (km/s) = 3.25943 3.41879 3.34006
# Velocity P-wave (km/s) = 6.40195 6.53307 6.46784
#
# Compressibility (1/GPa) = 0.01971992
#
# Stress axis : x y z
#
# Youngs Moduli (GPa) = 66.78023 56.71123 79.35945
#
# Poissons Ratio (x) = 0.37498 0.25833
# Poissons Ratio (y) = 0.44156 0.22832
# Poissons Ratio (z) = 0.21738 0.16316
#
# Static dielectric constant tensor:
#      x y z
#    x 3.281510 0.000000 0.000000 
#    y 0.000000 2.978410 0.000000 
#    z 0.000000 0.000000 3.573500 
# 
# 
# High freq. dielectric constant tensor:
#      x y z
#    x 1.718840 0.000000 0.000000 
#    y 0.000000 1.719330 0.000000 
#    z 0.000000 0.000000 1.750180 
# 
# From -- ./inp_files/14616.got.cif
#   From: 2010.03.12/outbox.cif.g09.slc.cpg/sg50_8_cif.got.tgz:14616.got - 2010.04.16 13:23:21.
