data_PCOD8204229
_publ_section_title
;
Structure prediction by ZEFSAII (Michael W. Deem and Ramdas Pophale) SiO2 
 PCOD8204229
Probable space group: P C C M
;
_chemical_formula_sum "Si O2"
_cell_formula_units_Z 64
_cell_length_a 20.337379
_cell_length_b 8.638569
_cell_length_c 17.507843
_cell_angle_alpha 90.000000
_cell_angle_beta 90.000000
_cell_angle_gamma 90.000000
_cell_volume 3075.880310
_symmetry_space_group_name_H-M "P C C M"
_symmetry_group_IT_number 49
_symmetry_cell_setting 'orthorhombic'
loop_
_space_group_symop_operation_xyz
x,y,z
-x,-y,z
x,-y,1/2-z
-x,y,1/2-z
-x,-y,-z
x,y,-z
-x,y,1/2+z
x,-y,1/2+z
loop_
_atom_site_type_symbol
_atom_site_label
_atom_site_fract_x
_atom_site_fract_y
_atom_site_fract_z
Si Si1 0.343608 0.817100 0.588794
Si Si2 0.218651 0.994680 0.584611
Si Si3 0.867024 0.842940 0.789917
Si Si4 0.691103 0.492487 0.339846
Si Si5 0.816653 0.318847 0.858045
Si Si6 0.482808 0.171870 0.169240
Si Si7 0.438253 0.393528 0.586543
Si Si8 0.929891 0.455669 0.662751
O O1 0.363834 0.790404 0.500000
O O2 0.298080 0.971995 0.596981
O O3 0.300685 0.674787 0.621161
O O4 0.407704 0.816735 0.641939
O O5 0.201391 0.932067 0.500000
O O6 0.185421 0.890831 0.647958
O O7 0.190727 0.168876 0.588356
O O8 0.827962 0.738843 0.728657
O O9 0.918653 0.732071 0.835640
O O10 0.898186 0.000000 0.750000
O O11 0.699193 0.500000 0.250000
O O12 0.749076 0.595179 0.373100
O O13 0.621299 0.566016 0.359211
O O14 0.874904 0.439842 0.880683
O O15 0.500000 0.260522 0.250000
O O16 0.534150 0.223452 0.103715
O O17 0.500000 0.000000 0.185912
O O18 0.500000 0.500000 0.607274
O O19 0.414527 0.410194 0.500000
O O20 0.931296 0.500000 0.750000
O O21 0.000000 0.500000 0.624324
#
# Coordination Sequence:
#
# PCOD8204229 Si02
#       8
#     8   8   8   8   8   8   8   8
#     4  11  23  41  60  83 115 155 199 245 313 378
#     4  10  22  38  58  86 121 161 205 254 305 368
#     4   9  18  37  61  89 125 163 201 251 306 358
#     4  12  23  37  62  88 116 153 194 253 310 374
#     4  10  21  37  59  92 124 154 202 254 305 362
#     4  11  25  43  61  84 112 148 195 251 305 372
#     4  11  24  41  59  84 116 151 195 244 303 371
#     4   9  17  34  62  94 128 161 205 255 301 358
#
# _framework density 20.807051999999999
#
# number of rings (size 3 to 8) (size 9 to 14) (size 15 to 20)
#    0.000    1.625    1.250    4.125    1.750    2.000 
#    4.500   11.250    0.000    2.250    0.000    0.000 
#    0.000    0.000    0.000    0.000    0.000    0.000 
#
# Total GULP energy -792864.162111 kJ/mol
# GULP energy per Si atom -12388.502533 kJ/mol
# Density = 2.075969 g / cm^3
# Si number density = 20.807052 Si / 1000 Ang^3
#
#
#
# Elastic Constant Matrix: (Units=GPa)
#
#
# Indices 1 2 3 4 5 6 
#
# 1 90.6249 48.9570 32.4074 0.0000 0.0000 0.0000
# 2 48.9570 110.2239 22.8771 0.0000 0.0000 0.0000
# 3 32.4074 22.8771 69.6568 0.0000 0.0000 0.0000
# 4 0.0000 0.0000 0.0000 2.1642 0.0000 0.0000
# 5 0.0000 0.0000 0.0000 0.0000 17.0518 0.0000
# 6 0.0000 0.0000 0.0000 0.0000 0.0000 28.7145
#
#
#
# Elastic Compliance Matrix: (Units=1/GPa)
#
#
# Indices 1 2 3 4 5 6 
#
# 1 0.016325 -0.006090 -0.005595 0.000000 0.000000 0.000000
# 2 -0.006090 0.012008 -0.001110 0.000000 0.000000 0.000000
# 3 -0.005595 -0.001110 0.017324 0.000000 0.000000 0.000000
# 4 0.000000 0.000000 0.000000 0.462064 0.000000 0.000000
# 5 0.000000 0.000000 0.000000 0.000000 0.058645 0.000000
# 6 0.000000 0.000000 0.000000 0.000000 0.000000 0.034826
#
#
# Mechanical properties :
#
#
# Convention : Reuss Voigt Hill
#
# Bulk Modulus (GPa) = 49.83518 53.22099 51.52808
# Shear Modulus (GPa) = 7.89303 20.67038 14.28170
#
# Velocity S-wave (km/s) = 1.94979 3.15529 2.62274
# Velocity P-wave (km/s) = 5.39185 6.23766 5.83011
#
# Compressibility (1/GPa) = 0.02006615
#
# Stress axis : x y z
#
# Youngs Moduli (GPa) = 61.25563 83.27994 57.72367
#
# Poissons Ratio (x) = 0.50715 0.32297
# Poissons Ratio (y) = 0.37303 0.06410
# Poissons Ratio (z) = 0.34273 0.09248
#
# Static dielectric constant tensor:
#      x y z
#    x 4.087730 0.000000 0.000000 
#    y 0.000000 12.255980 0.000000 
#    z 0.000000 0.000000 3.639650 
# 
# 
# High freq. dielectric constant tensor:
#      x y z
#    x 1.805680 0.000000 0.000000 
#    y 0.000000 1.822630 0.000000 
#    z 0.000000 0.000000 1.802030 
# 
# From -- ./inp_files/18302.got.cif
#   From: 2010.03.12/outbox.cif.g09.slc.cpg/sg49_10_cif.got.tgz:18302.got - 2010.04.14 03:58:27.
