data_PCOD8204042
_publ_section_title
;
Structure prediction by ZEFSAII (Michael W. Deem and Ramdas Pophale) SiO2 
 PCOD8204042
Probable space group: P C C M
;
_chemical_formula_sum "Si O2"
_cell_formula_units_Z 48
_cell_length_a 18.189201
_cell_length_b 14.225252
_cell_length_c 9.253483
_cell_angle_alpha 90.000000
_cell_angle_beta 90.000000
_cell_angle_gamma 90.000000
_cell_volume 2394.301415
_symmetry_space_group_name_H-M "P C C M"
_symmetry_group_IT_number 49
_symmetry_cell_setting 'orthorhombic'
loop_
_space_group_symop_operation_xyz
x,y,z
-x,-y,z
x,-y,1/2-z
-x,y,1/2-z
-x,-y,-z
x,y,-z
-x,y,1/2+z
x,-y,1/2+z
loop_
_atom_site_type_symbol
_atom_site_label
_atom_site_fract_x
_atom_site_fract_y
_atom_site_fract_z
Si Si1 0.431138 0.596347 0.668324
Si Si2 0.074848 0.630888 0.500000
Si Si3 0.075283 0.087934 0.333867
Si Si4 0.096908 0.586564 0.000000
Si Si5 0.850246 0.279597 0.767364
Si Si6 0.309837 0.747714 0.335870
Si Si7 0.573656 0.901948 0.174220
O O1 0.415284 0.500000 0.750000
O O2 0.500000 0.646114 0.750000
O O3 0.450867 0.581107 0.500000
O O4 0.358216 0.655829 0.685300
O O5 0.107947 0.525716 0.500000
O O6 0.102570 0.695363 0.628597
O O7 0.987399 0.620696 0.500000
O O8 0.060811 0.059387 0.500000
O O9 0.123076 0.181834 0.333775
O O10 0.000000 0.108032 0.250000
O O11 0.114683 0.000000 0.250000
O O12 0.137826 0.628757 0.136420
O O13 0.763486 0.265549 0.754265
O O14 0.285075 0.761319 0.500000
O O15 0.357599 0.836678 0.285649
O O16 0.500000 0.860922 0.250000
O O17 0.591957 0.000000 0.250000
O O18 0.562438 0.910000 0.000000
#
# Coordination Sequence:
#
# PCOD8204042 Si02
#       7
#     8   4   8   4   8   8   8
#     4  10  20  38  60  87 117 156 205 246 299 358
#     4  11  24  42  73  85 130 167 213 269 337 386
#     4  11  24  41  66  95 124 162 209 259 314 381
#     4  11  24  44  63 103 116 165 221 275 321 402
#     4  12  24  43  63  95 132 166 214 266 330 382
#     4  10  23  41  59  87 125 168 204 248 312 370
#     4  10  20  39  64  94 125 162 210 252 304 365
#
# _framework density 20.047601
#
# number of rings (size 3 to 8) (size 9 to 14) (size 15 to 20)
#    0.000    1.333    1.667    5.500    2.333    3.333 
#    6.000    1.667    0.000    0.000    0.000    0.000 
#    0.000    0.000    0.000    0.000    0.000    0.000 
#
# Total GULP energy -594922.154321 kJ/mol
# GULP energy per Si atom -12394.211548 kJ/mol
# Density = 2.000197 g / cm^3
# Si number density = 20.047601 Si / 1000 Ang^3
#
#
#
# Elastic Constant Matrix: (Units=GPa)
#
#
# Indices 1 2 3 4 5 6 
#
# 1 119.7516 46.1919 45.9493 0.0000 0.0000 0.0000
# 2 46.1919 101.4358 40.8748 0.0000 0.0000 0.0000
# 3 45.9493 40.8748 141.5364 0.0000 0.0000 0.0000
# 4 0.0000 0.0000 0.0000 -137.4816 0.0000 0.0000
# 5 0.0000 0.0000 0.0000 0.0000 18.9593 0.0000
# 6 0.0000 0.0000 0.0000 0.0000 0.0000 25.5655
#
#
#
# Elastic Compliance Matrix: (Units=1/GPa)
#
#
# Indices 1 2 3 4 5 6 
#
# 1 0.010783 -0.003961 -0.002357 0.000000 0.000000 0.000000
# 2 -0.003961 0.012612 -0.002356 0.000000 0.000000 0.000000
# 3 -0.002357 -0.002356 0.008511 0.000000 0.000000 0.000000
# 4 0.000000 0.000000 0.000000 -0.007274 0.000000 0.000000
# 5 0.000000 0.000000 0.000000 0.000000 0.052745 0.000000
# 6 0.000000 0.000000 0.000000 0.000000 0.000000 0.039115
#
#
# Mechanical properties :
#
#
# Convention : Reuss Voigt Hill
#
# Bulk Modulus (GPa) = 68.69171 69.86176 69.27673
# Shear Modulus (GPa) = 36.05135 -3.27752 16.38691
#
# Velocity S-wave (km/s) = 4.24522 -1.28001 2.86212
# Velocity P-wave (km/s) = 7.63989 5.72180 6.74933
#
# Compressibility (1/GPa) = 0.01455780
#
# Stress axis : x y z
#
# Youngs Moduli (GPa) = 92.74188 79.29265 117.49583
#
# Poissons Ratio (x) = 0.31404 0.27691
# Poissons Ratio (y) = 0.36730 0.27686
# Poissons Ratio (z) = 0.21857 0.18684
#
# Static dielectric constant tensor:
#      x y z
#    x 3.597770 0.000000 0.000000 
#    y 0.000000 3.941340 0.000000 
#    z 0.000000 0.000000 3.789880 
# 
# 
# High freq. dielectric constant tensor:
#      x y z
#    x 1.776170 0.000000 0.000000 
#    y 0.000000 1.797080 0.000000 
#    z 0.000000 0.000000 1.794300 
# 
# From -- ./inp_files/4913.got.cif
#   From: 2010.03.12/outbox.cif.g09.slc.cpg/sg49_3_cif.got.tgz:4913.got - 2010.04.14 03:58:27.
