data_PCOD8204703
_publ_section_title
;
Structure prediction by ZEFSAII (Michael W. Deem and Ramdas Pophale) SiO2 
 PCOD8204703
Probable space group: P C C M
;
_chemical_formula_sum "Si O2"
_cell_formula_units_Z 32
_cell_length_a 12.498665
_cell_length_b 12.531514
_cell_length_c 9.761919
_cell_angle_alpha 90.000000
_cell_angle_beta 90.000000
_cell_angle_gamma 90.000000
_cell_volume 1528.981995
_symmetry_space_group_name_H-M "P C C M"
_symmetry_group_IT_number 49
_symmetry_cell_setting 'orthorhombic'
loop_
_space_group_symop_operation_xyz
x,y,z
-x,-y,z
x,-y,1/2-z
-x,y,1/2-z
-x,-y,-z
x,y,-z
-x,y,1/2+z
x,-y,1/2+z
loop_
_atom_site_type_symbol
_atom_site_label
_atom_site_fract_x
_atom_site_fract_y
_atom_site_fract_z
Si Si1 0.896528 0.800795 0.339904
Si Si2 0.433287 0.393117 0.500000
Si Si3 0.765171 0.000000 0.250000
Si Si4 0.355998 0.280821 0.000000
Si Si5 0.739356 0.380771 0.229897
Si Si6 0.375880 0.032446 0.000000
O O1 0.921589 0.831200 0.500000
O O2 0.826772 0.693495 0.341761
O O3 0.000000 0.774341 0.250000
O O4 0.840119 0.896268 0.255938
O O5 0.500000 0.500000 0.500000
O O6 0.516816 0.296961 0.500000
O O7 0.364539 0.387472 0.363869
O O8 0.683732 0.982117 0.372796
O O9 0.296131 0.331079 0.872163
O O10 0.346829 0.155528 0.000000
O O11 0.786887 0.500000 0.250000
O O12 0.500000 0.000000 0.000000
#
# Coordination Sequence:
#
# PCOD8204703 Si02
#       6
#     8   4   4   4   8   4
#     4  12  29  50  77 103 137 187 246 308 368 420
#     4  12  24  42  68 106 144 193 237 277 344 429
#     4  12  26  50  74 104 146 188 244 292 360 446
#     4  12  26  40  72 104 148 193 238 283 359 429
#     4  12  25  46  70 108 147 187 237 299 350 428
#     4  12  28  44  71 113 154 190 228 297 367 433
#
# _framework density 20.92896
#
# number of rings (size 3 to 8) (size 9 to 14) (size 15 to 20)
#    0.000    0.000    7.500    1.500    7.000    3.500 
#    0.000    1.250    0.000    0.000    0.000    0.000 
#    0.000    0.000    0.000    0.000    0.000    0.000 
#
# Total GULP energy -396808.073117 kJ/mol
# GULP energy per Si atom -12400.252285 kJ/mol
# Density = 2.088132 g / cm^3
# Si number density = 20.928960 Si / 1000 Ang^3
#
#
#
# Elastic Constant Matrix: (Units=GPa)
#
#
# Indices 1 2 3 4 5 6 
#
# 1 115.2845 34.4230 42.2567 0.0000 0.0000 0.0000
# 2 34.4230 114.6035 7.0797 0.0000 0.0000 0.0000
# 3 42.2567 7.0797 139.4664 0.0000 0.0000 0.0000
# 4 0.0000 0.0000 0.0000 41.6730 0.0000 0.0000
# 5 0.0000 0.0000 0.0000 0.0000 48.4552 0.0000
# 6 0.0000 0.0000 0.0000 0.0000 0.0000 36.1141
#
#
#
# Elastic Compliance Matrix: (Units=1/GPa)
#
#
# Indices 1 2 3 4 5 6 
#
# 1 0.010711 -0.003026 -0.003092 0.000000 0.000000 0.000000
# 2 -0.003026 0.009608 0.000429 0.000000 0.000000 0.000000
# 3 -0.003092 0.000429 0.008085 0.000000 0.000000 0.000000
# 4 0.000000 0.000000 0.000000 0.023996 0.000000 0.000000
# 5 0.000000 0.000000 0.000000 0.000000 0.020638 0.000000
# 6 0.000000 0.000000 0.000000 0.000000 0.000000 0.027690
#
#
# Mechanical properties :
#
#
# Convention : Reuss Voigt Hill
#
# Bulk Modulus (GPa) = 58.73072 59.65258 59.19165
# Shear Modulus (GPa) = 42.45146 44.28812 43.36979
#
# Velocity S-wave (km/s) = 4.50862 4.60512 4.55712
# Velocity P-wave (km/s) = 7.43144 7.53926 7.48555
#
# Compressibility (1/GPa) = 0.01702686
#
# Stress axis : x y z
#
# Youngs Moduli (GPa) = 93.36155 104.07770 123.68356
#
# Poissons Ratio (x) = 0.31496 0.38239
# Poissons Ratio (y) = 0.28253 -0.05308
# Poissons Ratio (z) = 0.28865 -0.04467
#
# Static dielectric constant tensor:
#      x y z
#    x 5.493750 0.000000 0.000000 
#    y 0.000000 4.044150 0.000000 
#    z 0.000000 0.000000 3.970570 
# 
# 
# High freq. dielectric constant tensor:
#      x y z
#    x 1.819910 0.000000 0.000000 
#    y 0.000000 1.833530 0.000000 
#    z 0.000000 0.000000 1.841790 
# 
# From -- ./inp_files/2589.got.cif
#   From: 2010.03.12/outbox.cif.g09.slc.cpg/sg49_2_cif.got.tgz:2589.got - 2010.04.14 03:58:27.
