data_PCOD8204378
_publ_section_title
;
Structure prediction by ZEFSAII (Michael W. Deem and Ramdas Pophale) SiO2 
 PCOD8204378
Probable space group: P C C M
;
_chemical_formula_sum "Si O2"
_cell_formula_units_Z 56
_cell_length_a 8.664924
_cell_length_b 20.145201
_cell_length_c 14.437298
_cell_angle_alpha 90.000000
_cell_angle_beta 90.000000
_cell_angle_gamma 90.000000
_cell_volume 2520.126166
_symmetry_space_group_name_H-M "P C C M"
_symmetry_group_IT_number 49
_symmetry_cell_setting 'orthorhombic'
loop_
_space_group_symop_operation_xyz
x,y,z
-x,-y,z
x,-y,1/2-z
-x,y,1/2-z
-x,-y,-z
x,y,-z
-x,y,1/2+z
x,-y,1/2+z
loop_
_atom_site_type_symbol
_atom_site_label
_atom_site_fract_x
_atom_site_fract_y
_atom_site_fract_z
Si Si1 0.891427 0.595893 0.108860
Si Si2 0.170921 0.011730 0.858100
Si Si3 0.179571 0.782011 0.767350
Si Si4 0.329704 0.527767 0.897143
Si Si5 0.329154 0.882249 0.102036
Si Si6 0.672514 0.851306 0.894432
Si Si7 0.796077 0.638360 0.297204
O O1 0.809606 0.524432 0.123898
O O2 0.811559 0.643518 0.185174
O O3 0.068558 0.600950 0.142861
O O4 0.874461 0.617747 0.000000
O O5 0.290627 0.960207 0.903202
O O6 0.174647 0.000000 0.750000
O O7 0.216211 0.085878 0.884504
O O8 0.000000 0.000000 0.898343
O O9 0.209124 0.845594 0.831230
O O10 0.268564 0.791418 0.670161
O O11 0.232877 0.715409 0.822889
O O12 0.000000 0.775047 0.750000
O O13 0.500000 0.500000 0.888564
O O14 0.341498 0.589605 0.825612
O O15 0.301315 0.555415 0.000000
O O16 0.502341 0.872394 0.139087
O O17 0.313942 0.851302 0.000000
O O18 0.674301 0.825811 0.000000
#
# Coordination Sequence:
#
# PCOD8204378 Si02
#       7
#     8   8   8   8   8   8   8
#     4  10  21  41  67  96 127 163 213 269 323 390
#     4  11  22  39  69 105 135 167 221 283 337 395
#     4  12  25  45  64  97 132 179 229 277 327 396
#     4  10  22  42  69 102 134 166 213 273 333 395
#     4  11  25  44  68  98 134 177 222 273 339 403
#     4  11  25  45  69  97 134 180 225 276 339 402
#     4  11  23  42  65  96 130 173 219 264 332 391
#
# _framework density 22.221108999999998
#
# number of rings (size 3 to 8) (size 9 to 14) (size 15 to 20)
#    0.000    1.143    2.857    3.429    0.000    9.714 
#    5.143    0.000    0.000    0.000    0.000    0.000 
#    0.000    0.000    0.000    0.000    0.000    0.000 
#
# Total GULP energy -693929.089891 kJ/mol
# GULP energy per Si atom -12391.590891 kJ/mol
# Density = 2.217053 g / cm^3
# Si number density = 22.221109 Si / 1000 Ang^3
#
#
#
# Elastic Constant Matrix: (Units=GPa)
#
#
# Indices 1 2 3 4 5 6 
#
# 1 87.0717 46.4589 33.1850 0.0000 0.0000 0.0000
# 2 46.4589 109.7790 23.3069 0.0000 0.0000 0.0000
# 3 33.1850 23.3069 115.1833 0.0000 0.0000 0.0000
# 4 0.0000 0.0000 0.0000 21.5616 0.0000 0.0000
# 5 0.0000 0.0000 0.0000 0.0000 61.5877 0.0000
# 6 0.0000 0.0000 0.0000 0.0000 0.0000 16.8249
#
#
#
# Elastic Compliance Matrix: (Units=1/GPa)
#
#
# Indices 1 2 3 4 5 6 
#
# 1 0.016006 -0.006055 -0.003386 0.000000 0.000000 0.000000
# 2 -0.006055 0.011809 -0.000645 0.000000 0.000000 0.000000
# 3 -0.003386 -0.000645 0.009788 0.000000 0.000000 0.000000
# 4 0.000000 0.000000 0.000000 0.046379 0.000000 0.000000
# 5 0.000000 0.000000 0.000000 0.000000 0.016237 0.000000
# 6 0.000000 0.000000 0.000000 0.000000 0.000000 0.059436
#
#
# Mechanical properties :
#
#
# Convention : Reuss Voigt Hill
#
# Bulk Modulus (GPa) = 57.37124 57.54839 57.45981
# Shear Modulus (GPa) = 26.93439 33.93374 30.43406
#
# Velocity S-wave (km/s) = 3.48531 3.91205 3.70483
# Velocity P-wave (km/s) = 6.48621 6.80880 6.64946
#
# Compressibility (1/GPa) = 0.01743034
#
# Stress axis : x y z
#
# Youngs Moduli (GPa) = 62.47628 84.68407 102.16678
#
# Poissons Ratio (x) = 0.51275 0.34596
# Poissons Ratio (y) = 0.37829 0.06589
# Poissons Ratio (z) = 0.21156 0.05462
#
# Static dielectric constant tensor:
#      x y z
#    x 4.049230 0.000000 0.000000 
#    y 0.000000 3.873840 0.000000 
#    z 0.000000 0.000000 4.351840 
# 
# 
# High freq. dielectric constant tensor:
#      x y z
#    x 1.874880 0.000000 0.000000 
#    y 0.000000 1.860250 0.000000 
#    z 0.000000 0.000000 1.888090 
# 
# From -- ./inp_files/11966.got.cif
#   From: 2010.03.12/outbox.cif.g09.slc.cpg/sg49_6_cif.got.tgz:11966.got - 2010.04.14 03:58:27.
