data_PCOD8204144
_publ_section_title
;
Structure prediction by ZEFSAII (Michael W. Deem and Ramdas Pophale) SiO2 
 PCOD8204144
Probable space group: P C C M
;
_chemical_formula_sum "Si O2"
_cell_formula_units_Z 48
_cell_length_a 18.936244
_cell_length_b 9.315427
_cell_length_c 14.916937
_cell_angle_alpha 90.000000
_cell_angle_beta 90.000000
_cell_angle_gamma 90.000000
_cell_volume 2631.335733
_symmetry_space_group_name_H-M "P C C M"
_symmetry_group_IT_number 49
_symmetry_cell_setting 'orthorhombic'
loop_
_space_group_symop_operation_xyz
x,y,z
-x,-y,z
x,-y,1/2-z
-x,y,1/2-z
-x,-y,-z
x,y,-z
-x,y,1/2+z
x,-y,1/2+z
loop_
_atom_site_type_symbol
_atom_site_label
_atom_site_fract_x
_atom_site_fract_y
_atom_site_fract_z
Si Si1 0.636547 0.838234 0.399947
Si Si2 0.000000 0.330181 0.101897
Si Si3 0.890287 0.329923 0.250000
Si Si4 0.500000 0.665257 0.355194
Si Si5 0.743982 0.831624 0.750000
Si Si6 0.363453 0.161766 0.100053
O O1 0.667295 0.834235 0.500000
O O2 0.569000 0.737306 0.395650
O O3 0.698996 0.783641 0.336311
O O4 0.613778 0.000000 0.372335
O O5 0.068391 0.281281 0.159509
O O6 0.000000 0.500000 0.094209
O O7 0.931609 0.281281 0.159509
O O8 0.000000 0.264238 0.000000
O O9 0.880177 0.500000 0.250000
O O10 0.815569 0.254908 0.250000
O O11 0.500000 0.500000 0.383845
O O12 0.500000 0.686942 0.250000
O O13 0.431000 0.737306 0.395650
O O14 0.698996 0.783641 0.836311
O O15 0.761251 0.000000 0.750000
O O16 0.332705 0.165765 0.000000
#
# Coordination Sequence:
#
# PCOD8204144 Si02
#       6
#     8   8   8   8   8   8
#     4  10  21  37  56  75  98 137 182 215 255 315
#     4   8  15  31  54  78 104 134 168 206 248 296
#     4   9  18  32  53  79 103 132 172 209 244 300
#     4  11  22  35  54  79 105 132 169 222 273 311
#     4  10  21  36  52  74 108 140 167 210 260 304
#     4  10  21  37  56  75  98 137 182 215 255 315
#
# _framework density 18.241685
#
# number of rings (size 3 to 8) (size 9 to 14) (size 15 to 20)
#    0.000    2.333    1.667    2.000    0.000    6.000 
#    0.000    1.667    0.000    1.000    0.000    0.000 
#    0.000    0.000    0.000    0.000    0.000    0.000 
#
# Total GULP energy -595114.591162 kJ/mol
# GULP energy per Si atom -12398.220649 kJ/mol
# Density = 1.820017 g / cm^3
# Si number density = 18.241685 Si / 1000 Ang^3
#
#
#
# Elastic Constant Matrix: (Units=GPa)
#
#
# Indices 1 2 3 4 5 6 
#
# 1 161.6387 54.3588 78.2567 0.0000 0.0000 0.0000
# 2 54.3588 56.4818 38.1926 0.0000 0.0000 0.0000
# 3 78.2567 38.1926 153.9343 0.0000 0.0000 0.0000
# 4 0.0000 0.0000 0.0000 18.0777 0.0000 0.0000
# 5 0.0000 0.0000 0.0000 0.0000 52.0798 0.0000
# 6 0.0000 0.0000 0.0000 0.0000 0.0000 33.0760
#
#
#
# Elastic Compliance Matrix: (Units=1/GPa)
#
#
# Indices 1 2 3 4 5 6 
#
# 1 0.010430 -0.007753 -0.003379 0.000000 0.000000 0.000000
# 2 -0.007753 0.027037 -0.002767 0.000000 0.000000 0.000000
# 3 -0.003379 -0.002767 0.008900 0.000000 0.000000 0.000000
# 4 0.000000 0.000000 0.000000 0.055317 0.000000 0.000000
# 5 0.000000 0.000000 0.000000 0.000000 0.019201 0.000000
# 6 0.000000 0.000000 0.000000 0.000000 0.000000 0.030233
#
#
# Mechanical properties :
#
#
# Convention : Reuss Voigt Hill
#
# Bulk Modulus (GPa) = 53.84877 79.29677 66.57277
# Shear Modulus (GPa) = 27.01154 34.06315 30.53735
#
# Velocity S-wave (km/s) = 3.85224 4.32594 4.09594
# Velocity P-wave (km/s) = 7.02638 8.27745 7.67744
#
# Compressibility (1/GPa) = 0.01857053
#
# Stress axis : x y z
#
# Youngs Moduli (GPa) = 95.87969 36.98582 112.35524
#
# Poissons Ratio (x) = 0.28676 0.37960
# Poissons Ratio (y) = 0.74337 0.31086
# Poissons Ratio (z) = 0.32394 0.10233
#
# Static dielectric constant tensor:
#      x y z
#    x 3.220810 0.000000 0.000000 
#    y 0.000000 3.176320 0.000000 
#    z 0.000000 0.000000 3.828910 
# 
# 
# High freq. dielectric constant tensor:
#      x y z
#    x 1.697920 0.000000 0.000000 
#    y 0.000000 1.684800 0.000000 
#    z 0.000000 0.000000 1.726960 
# 
# From -- ./inp_files/11787.got.cif
#   From: 2010.03.12/outbox.cif.g09.slc.cpg/sg49_6_cif.got.tgz:11787.got - 2010.04.14 03:58:27.
