data_PCOD8204012
_publ_section_title
;
Structure prediction by ZEFSAII (Michael W. Deem and Ramdas Pophale) SiO2 
 PCOD8204012
Probable space group: P C C M
;
_chemical_formula_sum "Si O2"
_cell_formula_units_Z 34
_cell_length_a 15.473134
_cell_length_b 7.338464
_cell_length_c 14.645548
_cell_angle_alpha 90.000000
_cell_angle_beta 90.000000
_cell_angle_gamma 90.000000
_cell_volume 1662.987869
_symmetry_space_group_name_H-M "P C C M"
_symmetry_group_IT_number 49
_symmetry_cell_setting 'orthorhombic'
loop_
_space_group_symop_operation_xyz
x,y,z
-x,-y,z
x,-y,1/2-z
-x,y,1/2-z
-x,-y,-z
x,y,-z
-x,y,1/2+z
x,-y,1/2+z
loop_
_atom_site_type_symbol
_atom_site_label
_atom_site_fract_x
_atom_site_fract_y
_atom_site_fract_z
Si Si1 0.263355 0.229646 0.649812
Si Si2 0.724755 0.192386 0.642005
Si Si3 0.000000 0.500000 0.250000
Si Si4 0.585855 0.805970 0.000000
Si Si5 0.601975 0.234247 0.000000
Si Si6 0.868194 0.536812 0.101312
O O1 0.289810 0.254030 0.754412
O O2 0.343503 0.298883 0.588244
O O3 0.176594 0.344755 0.629626
O O4 0.247020 0.017387 0.628824
O O5 0.636631 0.247560 0.591760
O O6 0.799715 0.303968 0.594348
O O7 0.062293 0.395148 0.177943
O O8 0.496293 0.689873 0.000000
O O9 0.580595 0.022340 0.000000
O O10 0.909727 0.513659 0.000000
#
# Coordination Sequence:
#
# PCOD8204012 Si02
#       6
#     8   8   2   4   4   8
#     4  10  20  37  62  87 119 161 197 237 294 351
#     4  10  20  37  62  87 119 161 197 237 294 351
#     4  12  26  44  62  94 118 142 202 252 298 358
#     4   9  18  33  57  91 123 156 203 245 281 340
#     4   9  18  33  57  91 123 156 203 245 281 340
#     4  12  23  41  65  87 116 153 193 245 302 357
#
# _framework density 20.445128
#
# number of rings (size 3 to 8) (size 9 to 14) (size 15 to 20)
#    0.000    1.647    4.706    0.353    0.000    0.941 
#    0.000    9.412    0.000    5.647    0.000    0.000 
#    0.000    0.000    0.000    0.000    0.000    0.000 
#
# Total GULP energy -421214.632691 kJ/mol
# GULP energy per Si atom -12388.665667 kJ/mol
# Density = 2.039859 g / cm^3
# Si number density = 20.445128 Si / 1000 Ang^3
#
#
#
# Elastic Constant Matrix: (Units=GPa)
#
#
# Indices 1 2 3 4 5 6 
#
# 1 119.4536 26.2571 60.5073 0.0000 0.0000 0.0000
# 2 26.2571 65.7684 24.2753 0.0000 0.0000 0.0000
# 3 60.5073 24.2753 187.5292 0.0000 0.0000 0.0000
# 4 0.0000 0.0000 0.0000 20.2660 0.0000 0.0000
# 5 0.0000 0.0000 0.0000 0.0000 58.3913 0.0000
# 6 0.0000 0.0000 0.0000 0.0000 0.0000 10.5634
#
#
#
# Elastic Compliance Matrix: (Units=1/GPa)
#
#
# Indices 1 2 3 4 5 6 
#
# 1 0.010581 -0.003113 -0.003011 0.000000 0.000000 0.000000
# 2 -0.003113 0.016884 -0.001181 0.000000 0.000000 0.000000
# 3 -0.003011 -0.001181 0.006457 0.000000 0.000000 0.000000
# 4 0.000000 0.000000 0.000000 0.049344 0.000000 0.000000
# 5 0.000000 0.000000 0.000000 0.000000 0.017126 0.000000
# 6 0.000000 0.000000 0.000000 0.000000 0.000000 0.094667
#
#
# Mechanical properties :
#
#
# Convention : Reuss Voigt Hill
#
# Bulk Modulus (GPa) = 51.78322 66.09230 58.93776
# Shear Modulus (GPa) = 23.13689 35.29157 29.21423
#
# Velocity S-wave (km/s) = 3.36766 4.15922 3.78419
# Velocity P-wave (km/s) = 6.36431 7.44730 6.92700
#
# Compressibility (1/GPa) = 0.01931128
#
# Stress axis : x y z
#
# Youngs Moduli (GPa) = 94.51011 59.22897 154.87257
#
# Poissons Ratio (x) = 0.18437 0.46632
# Poissons Ratio (y) = 0.29420 0.18293
# Poissons Ratio (z) = 0.28457 0.06996
#
# Static dielectric constant tensor:
#      x y z
#    x 3.954350 0.000000 0.000000 
#    y 0.000000 3.542330 0.000000 
#    z 0.000000 0.000000 4.001480 
# 
# 
# High freq. dielectric constant tensor:
#      x y z
#    x 1.787790 0.000000 0.000000 
#    y 0.000000 1.781070 0.000000 
#    z 0.000000 0.000000 1.825010 
# 
# From -- ./inp_files/13928.got.cif
#   From: 2010.03.12/outbox.cif.g09.slc.cpg/sg49_7_cif.got.tgz:13928.got - 2010.04.14 03:58:27.
