data_PCOD8204709
_publ_section_title
;
Structure prediction by ZEFSAII (Michael W. Deem and Ramdas Pophale) SiO2 
 PCOD8204709
Probable space group: P C C M
;
_chemical_formula_sum "Si O2"
_cell_formula_units_Z 48
_cell_length_a 9.267459
_cell_length_b 10.994826
_cell_length_c 27.254637
_cell_angle_alpha 90.000000
_cell_angle_beta 90.000000
_cell_angle_gamma 90.000000
_cell_volume 2777.086685
_symmetry_space_group_name_H-M "P C C M"
_symmetry_group_IT_number 49
_symmetry_cell_setting 'orthorhombic'
loop_
_space_group_symop_operation_xyz
x,y,z
-x,-y,z
x,-y,1/2-z
-x,y,1/2-z
-x,-y,-z
x,y,-z
-x,y,1/2+z
x,-y,1/2+z
loop_
_atom_site_type_symbol
_atom_site_label
_atom_site_fract_x
_atom_site_fract_y
_atom_site_fract_z
Si Si1 0.656886 0.141641 0.260223
Si Si2 0.911802 0.385184 0.106022
Si Si3 0.341796 0.519745 0.443547
Si Si4 0.839716 0.249578 0.444290
Si Si5 0.180889 0.094292 0.150275
Si Si6 0.871063 0.166430 0.823847
O O1 0.500000 0.202856 0.250000
O O2 0.692783 0.159181 0.318108
O O3 0.785813 0.195113 0.226544
O O4 0.648898 0.000000 0.250000
O O5 0.764597 0.427119 0.082208
O O6 0.863776 0.291933 0.147322
O O7 0.000000 0.500000 0.128725
O O8 0.011389 0.321232 0.064931
O O9 0.500000 0.500000 0.420385
O O10 0.342713 0.482497 0.500000
O O11 0.294124 0.659457 0.436570
O O12 0.841589 0.197944 0.500000
O O13 0.822646 0.139904 0.405707
O O14 0.038153 0.128730 0.181780
O O15 0.203462 0.948156 0.147929
#
# Coordination Sequence:
#
# PCOD8204709 Si02
#       6
#     8   8   8   8   8   8
#     4   9  17  29  47  71  95 121 154 190 228 275
#     4   9  17  30  48  69  91 121 157 194 234 276
#     4   9  17  29  46  66  88 121 164 201 232 273
#     4   9  17  30  48  69  96 126 156 192 234 280
#     4   9  17  30  48  71  97 125 155 191 236 281
#     4   9  17  30  48  71  95 121 155 192 235 283
#
# _framework density 17.284299000000001
#
# number of rings (size 3 to 8) (size 9 to 14) (size 15 to 20)
#    0.000    3.000    0.000    1.000    0.000    5.333 
#    0.000    7.500    0.000   17.000    0.000   24.500 
#    0.000    0.000    0.000    0.000    0.000    0.000 
#
# Total GULP energy -594763.980936 kJ/mol
# GULP energy per Si atom -12390.916270 kJ/mol
# Density = 1.724496 g / cm^3
# Si number density = 17.284299 Si / 1000 Ang^3
#
#
#
# Elastic Constant Matrix: (Units=GPa)
#
#
# Indices 1 2 3 4 5 6 
#
# 1 100.8822 29.3568 46.2536 0.0000 0.0000 0.0000
# 2 29.3568 79.5979 49.1638 0.0000 0.0000 0.0000
# 3 46.2536 49.1638 109.8311 0.0000 0.0000 0.0000
# 4 0.0000 0.0000 0.0000 17.2605 0.0000 0.0000
# 5 0.0000 0.0000 0.0000 0.0000 21.8154 0.0000
# 6 0.0000 0.0000 0.0000 0.0000 0.0000 15.0073
#
#
#
# Elastic Compliance Matrix: (Units=1/GPa)
#
#
# Indices 1 2 3 4 5 6 
#
# 1 0.012484 -0.001876 -0.004418 0.000000 0.000000 0.000000
# 2 -0.001876 0.017646 -0.007109 0.000000 0.000000 0.000000
# 3 -0.004418 -0.007109 0.014148 0.000000 0.000000 0.000000
# 4 0.000000 0.000000 0.000000 0.057936 0.000000 0.000000
# 5 0.000000 0.000000 0.000000 0.000000 0.045839 0.000000
# 6 0.000000 0.000000 0.000000 0.000000 0.000000 0.066634
#
#
# Mechanical properties :
#
#
# Convention : Reuss Voigt Hill
#
# Bulk Modulus (GPa) = 57.23258 59.98440 58.60849
# Shear Modulus (GPa) = 20.21714 21.85245 21.03480
#
# Velocity S-wave (km/s) = 3.42377 3.55955 3.49232
# Velocity P-wave (km/s) = 6.98670 7.18845 7.08829
#
# Compressibility (1/GPa) = 0.01747257
#
# Stress axis : x y z
#
# Youngs Moduli (GPa) = 80.10334 56.67099 70.68358
#
# Poissons Ratio (x) = 0.10629 0.31227
# Poissons Ratio (y) = 0.15024 0.50248
# Poissons Ratio (z) = 0.35388 0.40287
#
# Static dielectric constant tensor:
#      x y z
#    x 3.557340 0.000000 0.000000 
#    y 0.000000 3.045640 0.000000 
#    z 0.000000 0.000000 3.081000 
# 
# 
# High freq. dielectric constant tensor:
#      x y z
#    x 1.669950 0.000000 0.000000 
#    y 0.000000 1.643770 0.000000 
#    z 0.000000 0.000000 1.653030 
# 
# From -- ./inp_files/24755.got.cif
#   From: 2010.03.12/outbox.cif.g09.slc.cpg/sg49_13_cif.got.tgz:24755.got - 2010.04.14 03:58:27.
