data_PCOD8204325
_publ_section_title
;
Structure prediction by ZEFSAII (Michael W. Deem and Ramdas Pophale) SiO2 
 PCOD8204325
Probable space group: P C C M
;
_chemical_formula_sum "Si O2"
_cell_formula_units_Z 64
_cell_length_a 15.225458
_cell_length_b 12.003277
_cell_length_c 17.857317
_cell_angle_alpha 90.000000
_cell_angle_beta 90.000000
_cell_angle_gamma 90.000000
_cell_volume 3263.520930
_symmetry_space_group_name_H-M "P C C M"
_symmetry_group_IT_number 49
_symmetry_cell_setting 'orthorhombic'
loop_
_space_group_symop_operation_xyz
x,y,z
-x,-y,z
x,-y,1/2-z
-x,y,1/2-z
-x,-y,-z
x,y,-z
-x,y,1/2+z
x,-y,1/2+z
loop_
_atom_site_type_symbol
_atom_site_label
_atom_site_fract_x
_atom_site_fract_y
_atom_site_fract_z
Si Si1 0.197614 0.621432 0.657890
Si Si2 0.585521 0.270731 0.207721
Si Si3 0.940260 0.768743 0.087195
Si Si4 0.242008 0.620311 0.825654
Si Si5 0.505145 0.873936 0.914468
Si Si6 0.139975 0.799639 0.085687
Si Si7 0.320572 0.178985 0.155027
Si Si8 0.845191 0.968546 0.834833
O O1 0.106619 0.657731 0.619012
O O2 0.189138 0.625980 0.747690
O O3 0.222608 0.496265 0.632486
O O4 0.272876 0.706559 0.631666
O O5 0.500000 0.321365 0.250000
O O6 0.652607 0.370414 0.186954
O O7 0.558617 0.203886 0.133773
O O8 0.634852 0.185421 0.263242
O O9 0.043426 0.748844 0.097889
O O10 0.912726 0.875773 0.135688
O O11 0.915913 0.787836 0.000000
O O12 0.211393 0.724095 0.873923
O O13 0.606579 0.838283 0.908294
O O14 0.500000 0.000000 0.884777
O O15 0.473924 0.863852 0.000000
O O16 0.144789 0.924503 0.114234
O O17 0.166790 0.801617 0.000000
O O18 0.253610 0.076410 0.157941
O O19 0.869313 0.000000 0.750000
#
# Coordination Sequence:
#
# PCOD8204325 Si02
#       8
#     8   8   8   8   8   8   8   8
#     4   9  20  40  63  84 114 149 198 245 287 347
#     4   9  19  38  58  82 115 152 190 239 295 355
#     4  10  22  40  58  82 119 162 197 232 291 360
#     4  10  21  39  61  90 115 147 198 251 295 338
#     4  10  22  35  52  81 116 152 189 231 283 352
#     4  11  24  38  56  86 123 157 194 241 298 353
#     4   9  20  36  58  82 109 151 191 234 291 354
#     4  11  22  36  60  88 115 149 197 249 296 350
#
# _framework density 19.610721999999999
#
# number of rings (size 3 to 8) (size 9 to 14) (size 15 to 20)
#    0.000    2.125    0.000    3.000    3.500    9.250 
#    0.000   13.125    0.000    0.750    0.000    0.000 
#    0.000    0.000    0.000    0.000    0.000    0.000 
#
# Total GULP energy -793712.425491 kJ/mol
# GULP energy per Si atom -12401.756648 kJ/mol
# Density = 1.956609 g / cm^3
# Si number density = 19.610722 Si / 1000 Ang^3
#
#
#
# Elastic Constant Matrix: (Units=GPa)
#
#
# Indices 1 2 3 4 5 6 
#
# 1 93.8506 30.2803 27.1038 0.0000 0.0000 0.0000
# 2 30.2803 93.3559 11.0329 0.0000 0.0000 0.0000
# 3 27.1038 11.0329 59.5954 0.0000 0.0000 0.0000
# 4 0.0000 0.0000 0.0000 11.6228 0.0000 0.0000
# 5 0.0000 0.0000 0.0000 0.0000 29.3337 0.0000
# 6 0.0000 0.0000 0.0000 0.0000 0.0000 22.7315
#
#
#
# Elastic Compliance Matrix: (Units=1/GPa)
#
#
# Indices 1 2 3 4 5 6 
#
# 1 0.013417 -0.003712 -0.005415 0.000000 0.000000 0.000000
# 2 -0.003712 0.011978 -0.000529 0.000000 0.000000 0.000000
# 3 -0.005415 -0.000529 0.019340 0.000000 0.000000 0.000000
# 4 0.000000 0.000000 0.000000 0.086038 0.000000 0.000000
# 5 0.000000 0.000000 0.000000 0.000000 0.034091 0.000000
# 6 0.000000 0.000000 0.000000 0.000000 0.000000 0.043992
#
#
# Mechanical properties :
#
#
# Convention : Reuss Voigt Hill
#
# Bulk Modulus (GPa) = 39.33377 42.62620 40.97999
# Shear Modulus (GPa) = 21.12900 24.62991 22.87946
#
# Velocity S-wave (km/s) = 3.28597 3.54777 3.41938
# Velocity P-wave (km/s) = 5.87347 6.21012 6.04414
#
# Compressibility (1/GPa) = 0.02542344
#
# Stress axis : x y z
#
# Youngs Moduli (GPa) = 74.53474 83.48506 51.70526
#
# Poissons Ratio (x) = 0.30988 0.27997
# Poissons Ratio (y) = 0.27666 0.02737
# Poissons Ratio (z) = 0.40358 0.04420
#
# Static dielectric constant tensor:
#      x y z
#    x 3.718790 0.000000 0.000000 
#    y 0.000000 3.552700 0.000000 
#    z 0.000000 0.000000 3.529520 
# 
# 
# High freq. dielectric constant tensor:
#      x y z
#    x 1.770500 0.000000 0.000000 
#    y 0.000000 1.757840 0.000000 
#    z 0.000000 0.000000 1.761150 
# 
# From -- ./inp_files/17962.got.cif
#   From: 2010.03.12/outbox.cif.g09.slc.cpg/sg49_9_cif.got.tgz:17962.got - 2010.04.14 03:58:27.
