data_PCOD8204215
_publ_section_title
;
Structure prediction by ZEFSAII (Michael W. Deem and Ramdas Pophale) SiO2 
 PCOD8204215
Probable space group: P C C M
;
_chemical_formula_sum "Si O2"
_cell_formula_units_Z 40
_cell_length_a 9.290726
_cell_length_b 14.825050
_cell_length_c 15.001343
_cell_angle_alpha 90.000000
_cell_angle_beta 90.000000
_cell_angle_gamma 90.000000
_cell_volume 2066.217141
_symmetry_space_group_name_H-M "P C C M"
_symmetry_group_IT_number 49
_symmetry_cell_setting 'orthorhombic'
loop_
_space_group_symop_operation_xyz
x,y,z
-x,-y,z
x,-y,1/2-z
-x,y,1/2-z
-x,-y,-z
x,y,-z
-x,y,1/2+z
x,-y,1/2+z
loop_
_atom_site_type_symbol
_atom_site_label
_atom_site_fract_x
_atom_site_fract_y
_atom_site_fract_z
Si Si1 0.421342 0.904917 0.500000
Si Si2 0.918864 0.780339 0.158351
Si Si3 0.918052 0.907489 0.000000
Si Si4 0.608758 0.420866 0.604592
Si Si5 0.418327 0.776513 0.339519
Si Si6 0.074838 0.417293 0.845833
O O1 0.251677 0.922766 0.500000
O O2 0.468244 0.847707 0.413895
O O3 0.500000 0.000000 0.500000
O O4 0.968428 0.854091 0.087549
O O5 0.750382 0.784945 0.178737
O O6 0.953240 0.682223 0.113917
O O7 0.000000 0.799202 0.250000
O O8 0.000000 0.000000 0.000000
O O9 0.500000 0.500000 0.632236
O O10 0.645764 0.423218 0.500000
O O11 0.539141 0.324500 0.629396
O O12 0.754980 0.436386 0.659785
O O13 0.500000 0.802650 0.250000
O O14 0.000000 0.500000 0.900927
O O15 0.000000 0.416054 0.750000
#
# Coordination Sequence:
#
# PCOD8204215 Si02
#       6
#     4   8   4   8   8   8
#     4  10  22  42  61  84 118 148 189 242 295 352
#     4   9  20  38  58  83 116 148 190 232 283 342
#     4  10  22  40  61  82 108 152 185 232 295 342
#     4  10  21  37  58  86 121 160 200 243 294 350
#     4  10  21  38  63  84 115 157 193 236 292 346
#     4   9  19  35  56  83 118 154 196 236 285 340
#
# _framework density 19.359048999999999
#
# number of rings (size 3 to 8) (size 9 to 14) (size 15 to 20)
#    0.000    2.400    1.000    0.000    4.200   11.200 
#    0.000    4.000    0.000    0.000    0.000    0.000 
#    0.000    0.000    0.000    0.000    0.000    0.000 
#
# Total GULP energy -495825.878260 kJ/mol
# GULP energy per Si atom -12395.646957 kJ/mol
# Density = 1.931499 g / cm^3
# Si number density = 19.359049 Si / 1000 Ang^3
#
#
#
# Elastic Constant Matrix: (Units=GPa)
#
#
# Indices 1 2 3 4 5 6 
#
# 1 73.9905 73.8154 61.4237 0.0000 0.0000 0.0000
# 2 73.8154 199.9802 78.8038 0.0000 0.0000 0.0000
# 3 61.4237 78.8038 122.8154 0.0000 0.0000 0.0000
# 4 0.0000 0.0000 0.0000 35.4384 0.0000 0.0000
# 5 0.0000 0.0000 0.0000 0.0000 28.2105 0.0000
# 6 0.0000 0.0000 0.0000 0.0000 0.0000 39.0385
#
#
#
# Elastic Compliance Matrix: (Units=1/GPa)
#
#
# Indices 1 2 3 4 5 6 
#
# 1 0.028289 -0.006514 -0.009969 0.000000 0.000000 0.000000
# 2 -0.006514 0.008192 -0.001999 0.000000 0.000000 0.000000
# 3 -0.009969 -0.001999 0.014411 0.000000 0.000000 0.000000
# 4 0.000000 0.000000 0.000000 0.028218 0.000000 0.000000
# 5 0.000000 0.000000 0.000000 0.000000 0.035448 0.000000
# 6 0.000000 0.000000 0.000000 0.000000 0.000000 0.025616
#
#
# Mechanical properties :
#
#
# Convention : Reuss Voigt Hill
#
# Bulk Modulus (GPa) = 71.79069 91.65243 81.72156
# Shear Modulus (GPa) = 27.50580 32.72035 30.11308
#
# Velocity S-wave (km/s) = 3.77347 4.11564 3.94827
# Velocity P-wave (km/s) = 7.49331 8.36845 7.94294
#
# Compressibility (1/GPa) = 0.01392938
#
# Stress axis : x y z
#
# Youngs Moduli (GPa) = 35.34929 122.06329 69.39298
#
# Poissons Ratio (x) = 0.79507 0.69177
# Poissons Ratio (y) = 0.23025 0.13872
# Poissons Ratio (z) = 0.35239 0.24401
#
# Static dielectric constant tensor:
#      x y z
#    x 3.411200 0.000000 0.000000 
#    y 0.000000 4.210280 0.000000 
#    z 0.000000 0.000000 3.428330 
# 
# 
# High freq. dielectric constant tensor:
#      x y z
#    x 1.744190 0.000000 0.000000 
#    y 0.000000 1.767430 0.000000 
#    z 0.000000 0.000000 1.748180 
# 
# From -- ./inp_files/11610.got.cif
#   From: 2010.03.12/outbox.cif.g09.slc.cpg/sg49_6_cif.got.tgz:11610.got - 2010.04.14 03:58:27.
