data_PCOD8204209
_publ_section_title
;
Structure prediction by ZEFSAII (Michael W. Deem and Ramdas Pophale) SiO2 
 PCOD8204209
Probable space group: P C C M
;
_chemical_formula_sum "Si O2"
_cell_formula_units_Z 48
_cell_length_a 16.508274
_cell_length_b 9.008822
_cell_length_c 17.277772
_cell_angle_alpha 90.000000
_cell_angle_beta 90.000000
_cell_angle_gamma 90.000000
_cell_volume 2569.552014
_symmetry_space_group_name_H-M "P C C M"
_symmetry_group_IT_number 49
_symmetry_cell_setting 'orthorhombic'
loop_
_space_group_symop_operation_xyz
x,y,z
-x,-y,z
x,-y,1/2-z
-x,y,1/2-z
-x,-y,-z
x,y,-z
-x,y,1/2+z
x,-y,1/2+z
loop_
_atom_site_type_symbol
_atom_site_label
_atom_site_fract_x
_atom_site_fract_y
_atom_site_fract_z
Si Si1 0.202321 0.896943 0.179076
Si Si2 0.504468 0.673703 0.162942
Si Si3 0.835647 0.173977 0.409491
Si Si4 0.350990 0.185774 0.086257
Si Si5 0.093718 0.668563 0.732921
Si Si6 0.643305 0.843540 0.411432
O O1 0.140772 0.773460 0.208017
O O2 0.278169 0.809933 0.141339
O O3 0.233093 0.000000 0.250000
O O4 0.155307 0.001474 0.116643
O O5 0.500000 0.500000 0.153126
O O6 0.500000 0.729100 0.250000
O O7 0.595130 0.713895 0.140155
O O8 0.434576 0.749726 0.112825
O O9 0.860186 0.190264 0.500000
O O10 0.742351 0.215545 0.394160
O O11 0.889050 0.284729 0.356514
O O12 0.377121 0.016006 0.097775
O O13 0.369660 0.237152 0.000000
O O14 0.120720 0.500000 0.750000
O O15 0.000000 0.690853 0.750000
O O16 0.665123 0.804561 0.500000
#
# Coordination Sequence:
#
# PCOD8204209 Si02
#       6
#     8   8   8   8   8   8
#     4   9  19  35  61  88 111 145 187 236 284 335
#     4  11  25  36  48  76 113 151 191 230 273 328
#     4   9  19  38  63  88 115 146 192 242 288 334
#     4   9  19  37  58  80 106 141 183 235 283 325
#     4  10  22  40  59  85 121 157 186 226 282 348
#     4  10  21  37  57  82 109 141 186 234 281 330
#
# _framework density 18.680298000000001
#
# number of rings (size 3 to 8) (size 9 to 14) (size 15 to 20)
#    0.000    2.333    0.000    2.500    7.000    7.667 
#    0.000    7.500    0.000    0.000    0.000    0.000 
#    0.000    0.000    0.000    0.000    0.000    0.000 
#
# Total GULP energy -595116.791146 kJ/mol
# GULP energy per Si atom -12398.266482 kJ/mol
# Density = 1.863778 g / cm^3
# Si number density = 18.680298 Si / 1000 Ang^3
#
#
#
# Elastic Constant Matrix: (Units=GPa)
#
#
# Indices 1 2 3 4 5 6 
#
# 1 90.1722 48.3797 63.4463 0.0000 0.0000 0.0000
# 2 48.3797 64.0399 58.4945 0.0000 0.0000 0.0000
# 3 63.4463 58.4945 138.4686 0.0000 0.0000 0.0000
# 4 0.0000 0.0000 0.0000 34.9150 0.0000 0.0000
# 5 0.0000 0.0000 0.0000 0.0000 29.0063 0.0000
# 6 0.0000 0.0000 0.0000 0.0000 0.0000 13.3602
#
#
#
# Elastic Compliance Matrix: (Units=1/GPa)
#
#
# Indices 1 2 3 4 5 6 
#
# 1 0.020299 -0.011137 -0.004596 0.000000 0.000000 0.000000
# 2 -0.011137 0.031536 -0.008219 0.000000 0.000000 0.000000
# 3 -0.004596 -0.008219 0.012800 0.000000 0.000000 0.000000
# 4 0.000000 0.000000 0.000000 0.028641 0.000000 0.000000
# 5 0.000000 0.000000 0.000000 0.000000 0.034475 0.000000
# 6 0.000000 0.000000 0.000000 0.000000 0.000000 0.074849
#
#
# Mechanical properties :
#
#
# Convention : Reuss Voigt Hill
#
# Bulk Modulus (GPa) = 59.77126 70.36907 65.07016
# Shear Modulus (GPa) = 19.52495 23.61366 21.56930
#
# Velocity S-wave (km/s) = 3.23649 3.55927 3.40171
# Velocity P-wave (km/s) = 6.78475 7.39210 7.09493
#
# Compressibility (1/GPa) = 0.01673045
#
# Stress axis : x y z
#
# Youngs Moduli (GPa) = 49.26291 31.70958 78.12467
#
# Poissons Ratio (x) = 0.35315 0.35910
# Poissons Ratio (y) = 0.54863 0.64212
# Poissons Ratio (z) = 0.22644 0.26063
#
# Static dielectric constant tensor:
#      x y z
#    x 3.298450 0.000000 0.000000 
#    y 0.000000 3.410900 0.000000 
#    z 0.000000 0.000000 3.691350 
# 
# 
# High freq. dielectric constant tensor:
#      x y z
#    x 1.719580 0.000000 0.000000 
#    y 0.000000 1.714280 0.000000 
#    z 0.000000 0.000000 1.739870 
# 
# From -- ./inp_files/17731.got.cif
#   From: 2010.03.12/outbox.cif.g09.slc.cpg/sg49_9_cif.got.tgz:17731.got - 2010.04.14 03:58:27.
