data_PCOD8204393
_publ_section_title
;
Structure prediction by ZEFSAII (Michael W. Deem and Ramdas Pophale) SiO2 
 PCOD8204393
Probable space group: P C C M
;
_chemical_formula_sum "Si O2"
_cell_formula_units_Z 52
_cell_length_a 10.323272
_cell_length_b 9.858063
_cell_length_c 26.696214
_cell_angle_alpha 90.000000
_cell_angle_beta 90.000000
_cell_angle_gamma 90.000000
_cell_volume 2716.806044
_symmetry_space_group_name_H-M "P C C M"
_symmetry_group_IT_number 49
_symmetry_cell_setting 'orthorhombic'
loop_
_space_group_symop_operation_xyz
x,y,z
-x,-y,z
x,-y,1/2-z
-x,y,1/2-z
-x,-y,-z
x,y,-z
-x,y,1/2+z
x,-y,1/2+z
loop_
_atom_site_type_symbol
_atom_site_label
_atom_site_fract_x
_atom_site_fract_y
_atom_site_fract_z
Si Si1 0.803784 0.330547 0.944852
Si Si2 0.000000 0.500000 0.616702
Si Si3 0.408789 0.244445 0.798411
Si Si4 0.646030 0.998269 0.865766
Si Si5 0.802832 0.466237 0.697866
Si Si6 0.145055 0.983927 0.944341
Si Si7 0.645735 0.694096 0.354327
O O1 0.824595 0.172699 0.949906
O O2 0.675690 0.355932 0.911111
O O3 0.930519 0.391628 0.918438
O O4 0.783489 0.395753 0.000000
O O5 0.100221 0.577978 0.653484
O O6 0.500000 0.222060 0.750000
O O7 0.353377 0.100648 0.817635
O O8 0.291320 0.343390 0.788212
O O9 0.493277 0.316405 0.842497
O O10 0.500000 0.000000 0.889137
O O11 0.748987 0.946723 0.907604
O O12 0.687796 0.147974 0.846910
O O13 0.876571 0.500000 0.750000
O O14 0.726536 0.602636 0.683535
O O15 0.153901 0.051654 0.000000
O O16 0.000000 0.000000 0.922344
#
# Coordination Sequence:
#
# PCOD8204393 Si02
#       7
#     8   4   8   8   8   8   8
#     4   9  18  35  57  79 110 150 185 227 283 338
#     4  10  22  34  56  82 110 142 190 238 272 334
#     4  11  21  35  57  81 110 147 186 232 286 334
#     4   9  20  35  53  83 113 146 188 238 276 333
#     4  11  21  36  55  80 110 148 187 230 278 338
#     4   9  18  33  56  81 112 149 188 230 282 343
#     4   9  19  35  54  81 110 144 189 223 278 333
#
# _framework density 19.140121000000001
#
# number of rings (size 3 to 8) (size 9 to 14) (size 15 to 20)
#    0.000    2.308    1.538    0.923    2.154    3.077 
#    0.000    2.308    0.000    8.308    0.000    6.462 
#    0.000    0.000    0.000    0.000    0.000    0.000 
#
# Total GULP energy -644359.625816 kJ/mol
# GULP energy per Si atom -12391.531266 kJ/mol
# Density = 1.909656 g / cm^3
# Si number density = 19.140121 Si / 1000 Ang^3
#
#
#
# Elastic Constant Matrix: (Units=GPa)
#
#
# Indices 1 2 3 4 5 6 
#
# 1 86.5305 21.6812 50.3503 0.0000 0.0000 0.0000
# 2 21.6812 54.1665 35.9083 0.0000 0.0000 0.0000
# 3 50.3503 35.9083 133.8794 0.0000 0.0000 0.0000
# 4 0.0000 0.0000 0.0000 563.1958 0.0000 0.0000
# 5 0.0000 0.0000 0.0000 0.0000 25.6403 0.0000
# 6 0.0000 0.0000 0.0000 0.0000 0.0000 24.3101
#
#
#
# Elastic Compliance Matrix: (Units=1/GPa)
#
#
# Indices 1 2 3 4 5 6 
#
# 1 0.015130 -0.002778 -0.004945 0.000000 0.000000 0.000000
# 2 -0.002778 0.022964 -0.005115 0.000000 0.000000 0.000000
# 3 -0.004945 -0.005115 0.010701 0.000000 0.000000 0.000000
# 4 0.000000 0.000000 0.000000 0.001776 0.000000 0.000000
# 5 0.000000 0.000000 0.000000 0.000000 0.039001 0.000000
# 6 0.000000 0.000000 0.000000 0.000000 0.000000 0.041135
#
#
# Mechanical properties :
#
#
# Convention : Reuss Voigt Hill
#
# Bulk Modulus (GPa) = 43.25257 54.49511 48.87384
# Shear Modulus (GPa) = 30.47128 133.73834 82.10481
#
# Velocity S-wave (km/s) = 3.99433 8.36809 6.55666
# Velocity P-wave (km/s) = 6.62720 11.04084 9.10549
#
# Compressibility (1/GPa) = 0.02312001
#
# Stress axis : x y z
#
# Youngs Moduli (GPa) = 66.09324 43.54636 93.44898
#
# Poissons Ratio (x) = 0.12097 0.46212
# Poissons Ratio (y) = 0.18360 0.47795
# Poissons Ratio (z) = 0.32684 0.22272
#
# Static dielectric constant tensor:
#      x y z
#    x 3.615360 0.000000 0.000000 
#    y 0.000000 3.329480 0.000000 
#    z 0.000000 0.000000 3.960350 
# 
# 
# High freq. dielectric constant tensor:
#      x y z
#    x 1.734760 0.000000 0.000000 
#    y 0.000000 1.728410 0.000000 
#    z 0.000000 0.000000 1.751190 
# 
# From -- ./inp_files/24813.got.cif
#   From: 2010.03.12/outbox.cif.g09.slc.cpg/sg49_13_cif.got.tgz:24813.got - 2010.04.14 03:58:27.
