data_PCOD8204025
_publ_section_title
;
Structure prediction by ZEFSAII (Michael W. Deem and Ramdas Pophale) SiO2 
 PCOD8204025
Probable space group: P C C M
;
_chemical_formula_sum "Si O2"
_cell_formula_units_Z 34
_cell_length_a 9.399364
_cell_length_b 20.901226
_cell_length_c 8.605552
_cell_angle_alpha 90.000000
_cell_angle_beta 90.000000
_cell_angle_gamma 90.000000
_cell_volume 1690.631525
_symmetry_space_group_name_H-M "P C C M"
_symmetry_group_IT_number 49
_symmetry_cell_setting 'orthorhombic'
loop_
_space_group_symop_operation_xyz
x,y,z
-x,-y,z
x,-y,1/2-z
-x,y,1/2-z
-x,-y,-z
x,y,-z
-x,y,1/2+z
x,-y,1/2+z
loop_
_atom_site_type_symbol
_atom_site_label
_atom_site_fract_x
_atom_site_fract_y
_atom_site_fract_z
Si Si1 0.137665 0.876985 0.329047
Si Si2 0.000000 0.000000 0.250000
Si Si3 0.650205 0.569986 0.315290
Si Si4 0.343850 0.208777 0.317227
Si Si5 0.156637 0.321846 0.815704
O O1 0.161010 0.847986 0.500000
O O2 0.275051 0.860662 0.223496
O O3 0.000000 0.843333 0.250000
O O4 0.106590 0.953450 0.345952
O O5 0.682259 0.500000 0.250000
O O6 0.500000 0.596284 0.250000
O O7 0.642209 0.567997 0.500000
O O8 0.776643 0.615083 0.259972
O O9 0.500000 0.211775 0.250000
O O10 0.346950 0.220849 0.500000
O O11 0.248778 0.260932 0.231870
O O12 0.000000 0.312974 0.750000
O O13 0.153533 0.329298 0.000000
#
# Coordination Sequence:
#
# PCOD8204025 Si02
#       5
#     8   2   8   8   8
#     4  10  20  37  62  92 123 160 202 246 297 358
#     4   8  22  36  68  92 130 160 210 240 306 352
#     4  11  22  40  64  93 126 166 210 256 311 371
#     4  12  25  42  63  90 124 163 205 256 310 367
#     4  12  25  43  64  91 124 162 208 259 312 369
#
# _framework density 20.110828000000001
#
# number of rings (size 3 to 8) (size 9 to 14) (size 15 to 20)
#    0.706    0.235    0.000    9.529    0.000    0.471 
#    0.000    2.941    0.000    2.824    0.000    0.000 
#    0.000    0.000    0.000    0.000    0.000    0.000 
#
# Total GULP energy -421474.219037 kJ/mol
# GULP energy per Si atom -12396.300560 kJ/mol
# Density = 2.006505 g / cm^3
# Si number density = 20.110828 Si / 1000 Ang^3
#
#
#
# Elastic Constant Matrix: (Units=GPa)
#
#
# Indices 1 2 3 4 5 6 
#
# 1 163.4092 63.3520 54.4811 0.0000 0.0000 0.0000
# 2 63.3520 94.2060 34.3203 0.0000 0.0000 0.0000
# 3 54.4811 34.3203 185.0676 0.0000 0.0000 0.0000
# 4 0.0000 0.0000 0.0000 37.6423 0.0000 0.0000
# 5 0.0000 0.0000 0.0000 0.0000 38.8010 0.0000
# 6 0.0000 0.0000 0.0000 0.0000 0.0000 40.1770
#
#
#
# Elastic Compliance Matrix: (Units=1/GPa)
#
#
# Indices 1 2 3 4 5 6 
#
# 1 0.008689 -0.005267 -0.001581 0.000000 0.000000 0.000000
# 2 -0.005267 0.014577 -0.001153 0.000000 0.000000 0.000000
# 3 -0.001581 -0.001153 0.006083 0.000000 0.000000 0.000000
# 4 0.000000 0.000000 0.000000 0.026566 0.000000 0.000000
# 5 0.000000 0.000000 0.000000 0.000000 0.025773 0.000000
# 6 0.000000 0.000000 0.000000 0.000000 0.000000 0.024890
#
#
# Mechanical properties :
#
#
# Convention : Reuss Voigt Hill
#
# Bulk Modulus (GPa) = 74.92493 82.99883 78.96188
# Shear Modulus (GPa) = 39.36170 42.69270 41.02720
#
# Velocity S-wave (km/s) = 4.42887 4.61246 4.52160
# Velocity P-wave (km/s) = 7.96807 8.35025 8.16140
#
# Compressibility (1/GPa) = 0.01334669
#
# Stress axis : x y z
#
# Youngs Moduli (GPa) = 115.09202 68.60141 164.40219
#
# Poissons Ratio (x) = 0.36132 0.25993
# Poissons Ratio (y) = 0.60619 0.18951
# Poissons Ratio (z) = 0.18197 0.07908
#
# Static dielectric constant tensor:
#      x y z
#    x 3.765940 0.000000 0.000000 
#    y 0.000000 3.685750 0.000000 
#    z 0.000000 0.000000 3.835880 
# 
# 
# High freq. dielectric constant tensor:
#      x y z
#    x 1.785100 0.000000 0.000000 
#    y 0.000000 1.784840 0.000000 
#    z 0.000000 0.000000 1.806860 
# 
# From -- ./inp_files/1535.got.cif
#   From: 2010.03.12/outbox.cif.g09.slc.cpg/sg49_1_cif.got.tgz:1535.got - 2010.04.14 03:58:27.
