data_PCOD8204350
_publ_section_title
;
Structure prediction by ZEFSAII (Michael W. Deem and Ramdas Pophale) SiO2 
 PCOD8204350
Probable space group: P C C M
;
_chemical_formula_sum "Si O2"
_cell_formula_units_Z 56
_cell_length_a 30.242045
_cell_length_b 4.974907
_cell_length_c 16.978737
_cell_angle_alpha 90.000000
_cell_angle_beta 90.000000
_cell_angle_gamma 90.000000
_cell_volume 2554.474096
_symmetry_space_group_name_H-M "P C C M"
_symmetry_group_IT_number 49
_symmetry_cell_setting 'orthorhombic'
loop_
_space_group_symop_operation_xyz
x,y,z
-x,-y,z
x,-y,1/2-z
-x,y,1/2-z
-x,-y,-z
x,y,-z
-x,y,1/2+z
x,-y,1/2+z
loop_
_atom_site_type_symbol
_atom_site_label
_atom_site_fract_x
_atom_site_fract_y
_atom_site_fract_z
Si Si1 0.448658 0.442005 0.161204
Si Si2 0.029586 0.741074 0.088097
Si Si3 0.835205 0.427355 0.408736
Si Si4 0.880577 0.922891 0.659872
Si Si5 0.695152 0.006375 0.092797
Si Si6 0.593991 0.064848 0.090104
Si Si7 0.257768 0.520191 0.657604
O O1 0.500000 0.500000 0.149052
O O2 0.433825 0.500000 0.250000
O O3 0.435766 0.135151 0.142453
O O4 0.422597 0.632972 0.101628
O O5 0.071211 0.802907 0.142476
O O6 0.000000 0.500000 0.124565
O O7 0.045892 0.659761 0.000000
O O8 0.000000 0.000000 0.083862
O O9 0.839040 0.501058 0.500000
O O10 0.845855 0.689513 0.357476
O O11 0.785304 0.355261 0.385321
O O12 0.869137 0.184125 0.391939
O O13 0.877090 0.000000 0.750000
O O14 0.645009 0.073243 0.115202
O O15 0.703602 0.729141 0.138359
O O16 0.728828 0.232142 0.123246
O O17 0.702049 0.968001 0.000000
O O18 0.588561 0.977088 0.000000
O O19 0.249146 0.500000 0.750000
#
# Coordination Sequence:
#
# PCOD8204350 Si02
#       7
#     8   8   8   8   8   8   8
#     4  11  24  41  62  90 125 163 205 256 316 380
#     4  10  21  39  64  92 124 164 208 251 302 370
#     4  12  25  44  68  93 128 174 217 260 319 385
#     4  12  25  43  66  98 134 168 214 272 324 374
#     4  11  24  43  64  91 127 166 209 257 315 380
#     4  11  24  41  64  92 123 162 209 260 311 372
#     4  12  25  42  65  96 128 164 212 264 317 373
#
# _framework density 21.922319000000002
#
# number of rings (size 3 to 8) (size 9 to 14) (size 15 to 20)
#    0.000    0.714    0.000    8.143    0.000   10.000 
#    0.000    0.714    0.000    0.000    0.000    0.000 
#    0.000    0.000    0.000    0.000    0.000    0.000 
#
# Total GULP energy -694812.702464 kJ/mol
# GULP energy per Si atom -12407.369687 kJ/mol
# Density = 2.187242 g / cm^3
# Si number density = 21.922319 Si / 1000 Ang^3
#
#
#
# Elastic Constant Matrix: (Units=GPa)
#
#
# Indices 1 2 3 4 5 6 
#
# 1 100.7551 27.2498 53.1382 0.0000 0.0000 0.0000
# 2 27.2498 117.7746 34.1624 0.0000 0.0000 0.0000
# 3 53.1382 34.1624 93.5659 0.0000 0.0000 0.0000
# 4 0.0000 0.0000 0.0000 35.2253 0.0000 0.0000
# 5 0.0000 0.0000 0.0000 0.0000 30.3728 0.0000
# 6 0.0000 0.0000 0.0000 0.0000 0.0000 33.3776
#
#
#
# Elastic Compliance Matrix: (Units=1/GPa)
#
#
# Indices 1 2 3 4 5 6 
#
# 1 0.014287 -0.001065 -0.007725 0.000000 0.000000 0.000000
# 2 -0.001065 0.009576 -0.002892 0.000000 0.000000 0.000000
# 3 -0.007725 -0.002892 0.016131 0.000000 0.000000 0.000000
# 4 0.000000 0.000000 0.000000 0.028389 0.000000 0.000000
# 5 0.000000 0.000000 0.000000 0.000000 0.032924 0.000000
# 6 0.000000 0.000000 0.000000 0.000000 0.000000 0.029960
#
#
# Mechanical properties :
#
#
# Convention : Reuss Voigt Hill
#
# Bulk Modulus (GPa) = 60.13012 60.13293 60.13152
# Shear Modulus (GPa) = 31.21601 32.96482 32.09041
#
# Velocity S-wave (km/s) = 3.77760 3.88198 3.83015
# Velocity P-wave (km/s) = 6.82021 6.89801 6.85922
#
# Compressibility (1/GPa) = 0.01663060
#
# Stress axis : x y z
#
# Youngs Moduli (GPa) = 69.99182 104.42859 61.99320
#
# Poissons Ratio (x) = 0.11120 0.47892
# Poissons Ratio (y) = 0.07453 0.17926
# Poissons Ratio (z) = 0.54071 0.30196
#
# Static dielectric constant tensor:
#      x y z
#    x 3.949350 0.000000 0.000000 
#    y 0.000000 4.044800 0.000000 
#    z 0.000000 0.000000 3.898360 
# 
# 
# High freq. dielectric constant tensor:
#      x y z
#    x 1.873490 0.000000 0.000000 
#    y 0.000000 1.877080 0.000000 
#    z 0.000000 0.000000 1.865210 
# 
# From -- ./inp_files/14606.got.cif
#   From: 2010.03.12/outbox.cif.g09.slc.cpg/sg49_8_cif.got.tgz:14606.got - 2010.04.14 03:58:27.
