data_PCOD8204410
_publ_section_title
;
Structure prediction by ZEFSAII (Michael W. Deem and Ramdas Pophale) SiO2 
 PCOD8204410
Probable space group: P C C M
;
_chemical_formula_sum "Si O2"
_cell_formula_units_Z 40
_cell_length_a 8.797207
_cell_length_b 13.126615
_cell_length_c 15.443620
_cell_angle_alpha 90.000000
_cell_angle_beta 90.000000
_cell_angle_gamma 90.000000
_cell_volume 1783.391391
_symmetry_space_group_name_H-M "P C C M"
_symmetry_group_IT_number 49
_symmetry_cell_setting 'orthorhombic'
loop_
_space_group_symop_operation_xyz
x,y,z
-x,-y,z
x,-y,1/2-z
-x,y,1/2-z
-x,-y,-z
x,y,-z
-x,y,1/2+z
x,-y,1/2+z
loop_
_atom_site_type_symbol
_atom_site_label
_atom_site_fract_x
_atom_site_fract_y
_atom_site_fract_z
Si Si1 0.603379 0.404451 0.097256
Si Si2 0.218992 0.955462 0.654852
Si Si3 0.836295 0.672927 0.280488
Si Si4 0.596182 0.769281 0.166392
Si Si5 0.081257 0.854454 0.097758
O O1 0.500000 0.500000 0.120209
O O2 0.740114 0.411884 0.167058
O O3 0.503815 0.300476 0.102856
O O4 0.668751 0.411688 0.000000
O O5 0.353920 0.878215 0.624972
O O6 0.064130 0.889928 0.652508
O O7 0.247348 0.000000 0.750000
O O8 0.202677 0.052091 0.591054
O O9 0.747867 0.708125 0.194606
O O10 0.844428 0.763247 0.350199
O O11 0.000000 0.630580 0.250000
O O12 0.500000 0.796809 0.250000
O O13 0.038525 0.820922 0.000000
#
# Coordination Sequence:
#
# PCOD8204410 Si02
#       5
#     8   8   8   8   8
#     4  10  24  47  70  96 135 172 207 272 348 398
#     4  11  19  35  57  86 132 177 222 268 320 383
#     4  11  20  41  68  96 125 168 223 274 316 384
#     4  10  22  38  64  91 125 176 222 263 324 393
#     4  11  21  33  57  94 132 171 218 277 331 375
#
# _framework density 22.429175999999998
#
# number of rings (size 3 to 8) (size 9 to 14) (size 15 to 20)
#    0.000    1.400    4.000    3.000    0.000    5.600 
#    0.000    2.000    0.000    6.000    0.000    0.000 
#    0.000    0.000    0.000    0.000    0.000    0.000 
#
# Total GULP energy -495798.831748 kJ/mol
# GULP energy per Si atom -12394.970794 kJ/mol
# Density = 2.237813 g / cm^3
# Si number density = 22.429176 Si / 1000 Ang^3
#
#
#
# Elastic Constant Matrix: (Units=GPa)
#
#
# Indices 1 2 3 4 5 6 
#
# 1 112.5937 33.6537 30.5491 0.0000 0.0000 0.0000
# 2 33.6537 81.7217 19.2947 0.0000 0.0000 0.0000
# 3 30.5491 19.2947 72.5396 0.0000 0.0000 0.0000
# 4 0.0000 0.0000 0.0000 25.9646 0.0000 0.0000
# 5 0.0000 0.0000 0.0000 0.0000 22.3346 0.0000
# 6 0.0000 0.0000 0.0000 0.0000 0.0000 31.8038
#
#
#
# Elastic Compliance Matrix: (Units=1/GPa)
#
#
# Indices 1 2 3 4 5 6 
#
# 1 0.010963 -0.003654 -0.003645 0.000000 0.000000 0.000000
# 2 -0.003654 0.014274 -0.002258 0.000000 0.000000 0.000000
# 3 -0.003645 -0.002258 0.015921 0.000000 0.000000 0.000000
# 4 0.000000 0.000000 0.000000 0.038514 0.000000 0.000000
# 5 0.000000 0.000000 0.000000 0.000000 0.044774 0.000000
# 6 0.000000 0.000000 0.000000 0.000000 0.000000 0.031443
#
#
# Mechanical properties :
#
#
# Convention : Reuss Voigt Hill
#
# Bulk Modulus (GPa) = 45.36259 48.20557 46.78408
# Shear Modulus (GPa) = 27.41975 28.24444 27.83210
#
# Velocity S-wave (km/s) = 3.50023 3.55247 3.52645
# Velocity P-wave (km/s) = 6.05014 6.19401 6.12250
#
# Compressibility (1/GPa) = 0.02204460
#
# Stress axis : x y z
#
# Youngs Moduli (GPa) = 91.21954 70.05501 62.80950
#
# Poissons Ratio (x) = 0.25598 0.22893
# Poissons Ratio (y) = 0.33331 0.14183
# Poissons Ratio (z) = 0.33248 0.15819
#
# Static dielectric constant tensor:
#      x y z
#    x 4.177530 0.000000 0.000000 
#    y 0.000000 4.089470 0.000000 
#    z 0.000000 0.000000 3.827320 
# 
# 
# High freq. dielectric constant tensor:
#      x y z
#    x 1.877490 0.000000 0.000000 
#    y 0.000000 1.877540 0.000000 
#    z 0.000000 0.000000 1.865320 
# 
# From -- ./inp_files/11585.got.cif
#   From: 2010.03.12/outbox.cif.g09.slc.cpg/sg49_6_cif.got.tgz:11585.got - 2010.04.14 03:58:27.
