data_PCOD8204264
_publ_section_title
;
Structure prediction by ZEFSAII (Michael W. Deem and Ramdas Pophale) SiO2 
 PCOD8204264
Probable space group: P C C M
;
_chemical_formula_sum "Si O2"
_cell_formula_units_Z 56
_cell_length_a 8.318577
_cell_length_b 13.979652
_cell_length_c 21.005418
_cell_angle_alpha 90.000000
_cell_angle_beta 90.000000
_cell_angle_gamma 90.000000
_cell_volume 2442.737107
_symmetry_space_group_name_H-M "P C C M"
_symmetry_group_IT_number 49
_symmetry_cell_setting 'orthorhombic'
loop_
_space_group_symop_operation_xyz
x,y,z
-x,-y,z
x,-y,1/2-z
-x,y,1/2-z
-x,-y,-z
x,y,-z
-x,y,1/2+z
x,-y,1/2+z
loop_
_atom_site_type_symbol
_atom_site_label
_atom_site_fract_x
_atom_site_fract_y
_atom_site_fract_z
Si Si1 0.190429 0.285642 0.379334
Si Si2 0.189598 0.211244 0.754958
Si Si3 0.179032 0.660974 0.628661
Si Si4 0.693004 0.827944 0.069574
Si Si5 0.175967 0.040950 0.164107
Si Si6 0.663559 0.108589 0.072327
Si Si7 0.685887 0.478869 0.072231
O O1 0.259955 0.243639 0.312565
O O2 0.213595 0.197800 0.428231
O O3 0.300536 0.372376 0.401192
O O4 0.010173 0.323231 0.377531
O O5 0.244213 0.292715 0.805262
O O6 0.240139 0.098556 0.771936
O O7 0.000000 0.209679 0.750000
O O8 0.279851 0.713710 0.572560
O O9 0.216733 0.548991 0.620204
O O10 0.833693 0.870347 0.114779
O O11 0.514260 0.856559 0.091097
O O12 0.725922 0.867555 0.000000
O O13 0.292278 0.966641 0.128101
O O14 0.000000 0.000000 0.176970
O O15 0.667590 0.064847 0.000000
O O16 0.500000 0.500000 0.073559
O O17 0.754664 0.486254 0.000000
#
# Coordination Sequence:
#
# PCOD8204264 Si02
#       7
#     8   8   8   8   8   8   8
#     4  11  23  40  65  91 123 165 212 256 300 365
#     4   9  21  41  62  88 121 160 203 256 316 359
#     4  10  21  39  64  92 121 162 213 257 300 362
#     4  10  21  38  58  86 128 167 201 253 318 370
#     4  11  22  37  62  89 116 158 212 258 304 367
#     4  11  23  38  58  89 129 167 205 258 321 371
#     4  11  24  42  64  94 132 166 197 246 312 366
#
# _framework density 22.925101000000002
#
# number of rings (size 3 to 8) (size 9 to 14) (size 15 to 20)
#    0.000    1.571    0.000    5.571    0.000   11.143 
#    0.000    9.286    0.000   12.000    0.000    0.000 
#    0.000    0.000    0.000    0.000    0.000    0.000 
#
# Total GULP energy -693845.626755 kJ/mol
# GULP energy per Si atom -12390.100478 kJ/mol
# Density = 2.287292 g / cm^3
# Si number density = 22.925101 Si / 1000 Ang^3
#
#
#
# Elastic Constant Matrix: (Units=GPa)
#
#
# Indices 1 2 3 4 5 6 
#
# 1 51.3254 24.4766 45.0897 0.0000 0.0000 0.0000
# 2 24.4766 143.1803 56.2233 0.0000 0.0000 0.0000
# 3 45.0897 56.2233 113.6309 0.0000 0.0000 0.0000
# 4 0.0000 0.0000 0.0000 16.6940 0.0000 0.0000
# 5 0.0000 0.0000 0.0000 0.0000 10.2709 0.0000
# 6 0.0000 0.0000 0.0000 0.0000 0.0000 45.1991
#
#
#
# Elastic Compliance Matrix: (Units=1/GPa)
#
#
# Indices 1 2 3 4 5 6 
#
# 1 0.029947 -0.000562 -0.011605 0.000000 0.000000 0.000000
# 2 -0.000562 0.008679 -0.004071 0.000000 0.000000 0.000000
# 3 -0.011605 -0.004071 0.015420 0.000000 0.000000 0.000000
# 4 0.000000 0.000000 0.000000 0.059902 0.000000 0.000000
# 5 0.000000 0.000000 0.000000 0.000000 0.097362 0.000000
# 6 0.000000 0.000000 0.000000 0.000000 0.000000 0.022124
#
#
# Mechanical properties :
#
#
# Convention : Reuss Voigt Hill
#
# Bulk Modulus (GPa) = 46.36366 62.19064 54.27715
# Shear Modulus (GPa) = 18.30834 26.58928 22.44881
#
# Velocity S-wave (km/s) = 2.82904 3.40933 3.13265
# Velocity P-wave (km/s) = 5.56230 6.53335 6.06728
#
# Compressibility (1/GPa) = 0.02156862
#
# Stress axis : x y z
#
# Youngs Moduli (GPa) = 33.39268 115.22130 64.85245
#
# Poissons Ratio (x) = 0.06481 0.75260
# Poissons Ratio (y) = 0.01878 0.26402
# Poissons Ratio (z) = 0.38752 0.46907
#
# Static dielectric constant tensor:
#      x y z
#    x 3.798760 0.000000 0.000000 
#    y 0.000000 4.515800 0.000000 
#    z 0.000000 0.000000 4.572800 
# 
# 
# High freq. dielectric constant tensor:
#      x y z
#    x 1.883320 0.000000 0.000000 
#    y 0.000000 1.923030 0.000000 
#    z 0.000000 0.000000 1.909770 
# 
# From -- ./inp_files/19896.got.cif
#   From: 2010.03.12/outbox.cif.g09.slc.cpg/sg49_10_cif.got.tgz:19896.got - 2010.04.14 03:58:27.
