data_PCOD8204904
_publ_section_title
;
Structure prediction by ZEFSAII (Michael W. Deem and Ramdas Pophale) SiO2 
 PCOD8204904
Probable space group: P B A N
;
_chemical_formula_sum "Si O2"
_cell_formula_units_Z 56
_cell_length_a 16.049829
_cell_length_b 34.392862
_cell_length_c 4.977294
_cell_angle_alpha 90.000000
_cell_angle_beta 90.000000
_cell_angle_gamma 90.000000
_cell_volume 2747.464068
_symmetry_space_group_name_H-M "P B A N"
_symmetry_group_IT_number 50
_space_group.IT_coordinate_system_code '2'
_symmetry_cell_setting 'orthorhombic'
loop_
_space_group_symop_operation_xyz
x,y,z
1/2-x,1/2-y,z
x,1/2-y,-z
1/2-x,y,-z
-x,-y,-z
1/2+x,1/2+y,-z
-x,1/2+y,z
1/2+x,-y,z
loop_
_atom_site_type_symbol
_atom_site_label
_atom_site_fract_x
_atom_site_fract_y
_atom_site_fract_z
Si Si1 0.193892 0.433529 0.237284
Si Si2 0.482215 0.473439 0.743603
Si Si3 0.474509 0.322702 0.552437
Si Si4 0.928675 0.105367 0.624315
Si Si5 0.804996 0.653911 0.757720
Si Si6 0.564391 0.206396 0.939501
Si Si7 0.839407 0.134212 0.129712
O O1 0.250000 0.435561 0.500000
O O2 0.112589 0.459625 0.259295
O O3 0.165208 0.389486 0.160064
O O4 0.250000 0.450977 0.000000
O O5 0.500000 0.500000 0.500000
O O6 0.545262 0.438246 0.687343
O O7 0.500000 0.500000 0.000000
O O8 0.495547 0.368496 0.500465
O O9 0.381902 0.318422 0.675024
O O10 0.487653 0.298044 0.275947
O O11 0.539200 0.307446 0.767435
O O12 0.852047 0.110066 0.408938
O O13 0.907217 0.120462 0.918131
O O14 0.750000 0.649218 0.500000
O O15 0.750000 0.672484 0.000000
O O16 0.641632 0.180418 0.824662
O O17 0.594005 0.250000 0.000000
O O18 0.750000 0.126779 0.000000
#
# Coordination Sequence:
#
# PCOD8204904 Si02
#       7
#     8   8   8   8   8   8   8
#     4  10  21  38  59  84 116 146 190 253 304 343
#     4  12  24  40  61  87 120 161 201 244 301 369
#     4  10  19  36  58  82 117 150 192 248 287 356
#     4  10  21  39  58  84 114 151 201 243 299 356
#     4  10  19  32  57  87 110 142 189 246 297 336
#     4  10  21  35  58  87 118 157 196 242 301 352
#     4  10  21  38  62  86 117 156 200 251 298 354
#
# _framework density 20.382432999999999
#
# number of rings (size 3 to 8) (size 9 to 14) (size 15 to 20)
#    0.000    1.714    1.429    3.429    0.000    0.286 
#    0.000    7.143    0.000   11.571    0.000    0.000 
#    0.000    0.000    0.000    0.000    0.000    0.000 
#
# Total GULP energy -693916.953790 kJ/mol
# GULP energy per Si atom -12391.374175 kJ/mol
# Density = 2.033604 g / cm^3
# Si number density = 20.382433 Si / 1000 Ang^3
#
#
#
# Elastic Constant Matrix: (Units=GPa)
#
#
# Indices 1 2 3 4 5 6 
#
# 1 74.0273 25.9050 14.2513 0.0000 0.0000 0.0000
# 2 25.9050 109.8465 36.7321 0.0000 0.0000 0.0000
# 3 14.2513 36.7321 125.6179 0.0000 0.0000 0.0000
# 4 0.0000 0.0000 0.0000 34.9631 0.0000 0.0000
# 5 0.0000 0.0000 0.0000 0.0000 40.7037 0.0000
# 6 0.0000 0.0000 0.0000 0.0000 0.0000 20.0241
#
#
#
# Elastic Compliance Matrix: (Units=1/GPa)
#
#
# Indices 1 2 3 4 5 6 
#
# 1 0.014784 -0.003243 -0.000729 0.000000 0.000000 0.000000
# 2 -0.003243 0.010801 -0.002791 0.000000 0.000000 0.000000
# 3 -0.000729 -0.002791 0.008859 0.000000 0.000000 0.000000
# 4 0.000000 0.000000 0.000000 0.028602 0.000000 0.000000
# 5 0.000000 0.000000 0.000000 0.000000 0.024568 0.000000
# 6 0.000000 0.000000 0.000000 0.000000 0.000000 0.049940
#
#
# Mechanical properties :
#
#
# Convention : Reuss Voigt Hill
#
# Bulk Modulus (GPa) = 47.80122 51.47426 49.63774
# Shear Modulus (GPa) = 31.63525 34.64505 33.14015
#
# Velocity S-wave (km/s) = 3.94392 4.12728 4.03664
# Velocity P-wave (km/s) = 6.65150 6.92976 6.79206
#
# Compressibility (1/GPa) = 0.02091997
#
# Stress axis : x y z
#
# Youngs Moduli (GPa) = 67.64252 92.57987 112.87499
#
# Poissons Ratio (x) = 0.30020 0.08229
# Poissons Ratio (y) = 0.21934 0.31499
# Poissons Ratio (z) = 0.04931 0.25835
#
# Static dielectric constant tensor:
#      x y z
#    x 3.499660 0.000000 0.000000 
#    y 0.000000 3.646710 0.000000 
#    z 0.000000 0.000000 3.904080 
# 
# 
# High freq. dielectric constant tensor:
#      x y z
#    x 1.781240 0.000000 0.000000 
#    y 0.000000 1.776590 0.000000 
#    z 0.000000 0.000000 1.820500 
# 
# From -- ./inp_files/3760.got.cif
#   From: 2010.03.12/outbox.cif.g09.slc.cpg/sg50_2_cif.got.tgz:3760.got - 2010.04.16 13:23:21.
