data_PCOD8204543
_publ_section_title
;
Structure prediction by ZEFSAII (Michael W. Deem and Ramdas Pophale) SiO2 
 PCOD8204543
Probable space group: P C C M
;
_chemical_formula_sum "Si O2"
_cell_formula_units_Z 48
_cell_length_a 8.673848
_cell_length_b 8.744808
_cell_length_c 28.513025
_cell_angle_alpha 90.000000
_cell_angle_beta 90.000000
_cell_angle_gamma 90.000000
_cell_volume 2162.745319
_symmetry_space_group_name_H-M "P C C M"
_symmetry_group_IT_number 49
_symmetry_cell_setting 'orthorhombic'
loop_
_space_group_symop_operation_xyz
x,y,z
-x,-y,z
x,-y,1/2-z
-x,y,1/2-z
-x,-y,-z
x,y,-z
-x,y,1/2+z
x,-y,1/2+z
loop_
_atom_site_type_symbol
_atom_site_label
_atom_site_fract_x
_atom_site_fract_y
_atom_site_fract_z
Si Si1 0.131017 0.600614 0.876397
Si Si2 0.554025 0.163124 0.946417
Si Si3 0.383157 0.380256 0.125341
Si Si4 0.919375 0.843279 0.553198
Si Si5 0.830026 0.825650 0.697537
Si Si6 0.805858 0.829184 0.803796
O O1 0.251877 0.483623 0.900177
O O2 0.033425 0.701106 0.914197
O O3 0.232954 0.703099 0.839969
O O4 0.000000 0.500000 0.849815
O O5 0.473800 0.289996 0.914755
O O6 0.736652 0.155037 0.941630
O O7 0.500000 0.000000 0.928257
O O8 0.503178 0.193904 0.000000
O O9 0.500000 0.500000 0.150214
O O10 0.303937 0.272586 0.164058
O O11 0.974140 0.814322 0.500000
O O12 0.000000 0.000000 0.571593
O O13 0.778562 0.780808 0.749770
O O14 0.012756 0.814355 0.687537
O O15 0.762937 0.993576 0.686877
#
# Coordination Sequence:
#
# PCOD8204543 Si02
#       6
#     8   8   8   8   8   8
#     4  12  25  39  65 102 138 177 221 277 344 402
#     4  10  24  45  69  95 131 181 227 274 337 407
#     4  12  25  42  65 103 141 178 219 275 350 408
#     4  10  24  45  69  98 131 174 231 283 330 402
#     4   9  20  41  68  99 127 176 236 279 327 388
#     4   9  20  41  70  96 130 178 232 279 325 402
#
# _framework density 22.194015
#
# number of rings (size 3 to 8) (size 9 to 14) (size 15 to 20)
#    0.000    1.667    3.333    1.000    7.000    2.000 
#    0.000    1.667    0.000    2.000    0.000    0.000 
#    0.000    0.000    0.000    0.000    0.000    0.000 
#
# Total GULP energy -594741.490300 kJ/mol
# GULP energy per Si atom -12390.447715 kJ/mol
# Density = 2.214350 g / cm^3
# Si number density = 22.194015 Si / 1000 Ang^3
#
#
#
# Elastic Constant Matrix: (Units=GPa)
#
#
# Indices 1 2 3 4 5 6 
#
# 1 76.2702 62.6875 38.7576 0.0000 0.0000 0.0000
# 2 62.6875 159.4634 84.5975 0.0000 0.0000 0.0000
# 3 38.7576 84.5975 113.7685 0.0000 0.0000 0.0000
# 4 0.0000 0.0000 0.0000 14.3457 0.0000 0.0000
# 5 0.0000 0.0000 0.0000 0.0000 149.0838 0.0000
# 6 0.0000 0.0000 0.0000 0.0000 0.0000 49.6043
#
#
#
# Elastic Compliance Matrix: (Units=1/GPa)
#
#
# Indices 1 2 3 4 5 6 
#
# 1 0.019536 -0.006852 -0.001560 0.000000 0.000000 0.000000
# 2 -0.006852 0.012760 -0.007154 0.000000 0.000000 0.000000
# 3 -0.001560 -0.007154 0.014641 0.000000 0.000000 0.000000
# 4 0.000000 0.000000 0.000000 0.069707 0.000000 0.000000
# 5 0.000000 0.000000 0.000000 0.000000 0.006708 0.000000
# 6 0.000000 0.000000 0.000000 0.000000 0.000000 0.020160
#
#
# Mechanical properties :
#
#
# Convention : Reuss Voigt Hill
#
# Bulk Modulus (GPa) = 63.27341 80.17637 71.72489
# Shear Modulus (GPa) = 27.79140 53.50406 40.64773
#
# Velocity S-wave (km/s) = 3.54249 4.91526 4.28421
# Velocity P-wave (km/s) = 6.73078 8.27144 7.54056
#
# Compressibility (1/GPa) = 0.01580443
#
# Stress axis : x y z
#
# Youngs Moduli (GPa) = 51.18751 78.36991 68.30224
#
# Poissons Ratio (x) = 0.53701 0.10655
# Poissons Ratio (y) = 0.35075 0.48863
# Poissons Ratio (z) = 0.07985 0.56065
#
# Static dielectric constant tensor:
#      x y z
#    x 3.925180 0.000000 0.000000 
#    y 0.000000 4.480720 0.000000 
#    z 0.000000 0.000000 4.019510 
# 
# 
# High freq. dielectric constant tensor:
#      x y z
#    x 1.865890 0.000000 0.000000 
#    y 0.000000 1.892380 0.000000 
#    z 0.000000 0.000000 1.861870 
# 
# From -- ./inp_files/26253.got.cif
#   From: 2010.03.12/outbox.cif.g09.slc.cpg/sg49_14_cif.got.tgz:26253.got - 2010.04.14 03:58:27.
