data_PCOD8204944
_publ_section_title
;
Structure prediction by ZEFSAII (Michael W. Deem and Ramdas Pophale) SiO2 
 PCOD8204944
Probable space group: P B A N
;
_chemical_formula_sum "Si O2"
_cell_formula_units_Z 48
_cell_length_a 8.547788
_cell_length_b 18.883893
_cell_length_c 15.316143
_cell_angle_alpha 90.000000
_cell_angle_beta 90.000000
_cell_angle_gamma 90.000000
_cell_volume 2472.263095
_symmetry_space_group_name_H-M "P B A N"
_symmetry_group_IT_number 50
_space_group.IT_coordinate_system_code '2'
_symmetry_cell_setting 'orthorhombic'
loop_
_space_group_symop_operation_xyz
x,y,z
1/2-x,1/2-y,z
x,1/2-y,-z
1/2-x,y,-z
-x,-y,-z
1/2+x,1/2+y,-z
-x,1/2+y,z
1/2+x,-y,z
loop_
_atom_site_type_symbol
_atom_site_label
_atom_site_fract_x
_atom_site_fract_y
_atom_site_fract_z
Si Si1 0.431981 0.166739 0.500000
Si Si2 0.935936 0.670930 0.000000
Si Si3 0.564247 0.923663 0.840731
Si Si4 0.065128 0.576677 0.346180
Si Si5 0.934872 0.423323 0.346180
Si Si6 0.564247 0.576337 0.840730
O O1 0.461742 0.250000 0.500000
O O2 0.250000 0.147431 0.500000
O O3 0.511574 0.135154 0.585565
O O4 0.511574 0.135154 0.414435
O O5 0.995740 0.631311 0.913363
O O6 0.005861 0.750000 0.000000
O O7 0.750000 0.672633 0.000000
O O8 0.995739 0.631312 0.086637
O O9 0.497571 0.899026 0.747879
O O10 0.750000 0.927071 0.834971
O O11 0.500000 0.000000 0.867729
O O12 0.250000 0.571590 0.343698
O O13 0.000000 0.500000 0.373457
O O14 0.002428 0.600974 0.252121
#
# Coordination Sequence:
#
# PCOD8204944 Si02
#       6
#     8   8   8   8   8   8
#     4  11  24  41  60  83 113 149 186 225 276 335
#     4   9  19  34  53  79 110 145 184 226 274 329
#     4  10  19  34  57  82 109 143 185 230 276 326
#     4  11  22  38  60  85 114 146 186 232 278 329
#     4  11  22  38  60  85 114 146 186 232 278 329
#     4  10  19  34  57  82 109 143 185 230 276 326
#
# _framework density 19.415407999999999
#
# number of rings (size 3 to 8) (size 9 to 14) (size 15 to 20)
#    0.000    1.667    0.000    7.500    0.000    2.667 
#    0.000    5.833    0.000    7.000    0.000    0.000 
#    0.000    0.000    0.000    0.000    0.000    0.000 
#
# Total GULP energy -595380.457063 kJ/mol
# GULP energy per Si atom -12403.759522 kJ/mol
# Density = 1.937122 g / cm^3
# Si number density = 19.415408 Si / 1000 Ang^3
#
#
#
# Elastic Constant Matrix: (Units=GPa)
#
#
# Indices 1 2 3 4 5 6 
#
# 1 129.8202 49.0895 56.1656 0.0000 0.0000 0.0000
# 2 49.0895 128.5927 103.3161 0.0000 0.0000 0.0000
# 3 56.1656 103.3161 164.9965 0.0000 0.0000 0.0000
# 4 0.0000 0.0000 0.0000 23.2836 0.0000 0.0000
# 5 0.0000 0.0000 0.0000 0.0000 0.4747 0.0000
# 6 0.0000 0.0000 0.0000 0.0000 0.0000 28.9238
#
#
#
# Elastic Compliance Matrix: (Units=1/GPa)
#
#
# Indices 1 2 3 4 5 6 
#
# 1 0.009288 -0.002023 -0.001895 0.000000 0.000000 0.000000
# 2 -0.002023 0.016090 -0.009387 0.000000 0.000000 0.000000
# 3 -0.001895 -0.009387 0.012583 0.000000 0.000000 0.000000
# 4 0.000000 0.000000 0.000000 0.042949 0.000000 0.000000
# 5 0.000000 0.000000 0.000000 0.000000 2.106458 0.000000
# 6 0.000000 0.000000 0.000000 0.000000 0.000000 0.034574
#
#
# Mechanical properties :
#
#
# Convention : Reuss Voigt Hill
#
# Bulk Modulus (GPa) = 88.08766 93.39464 90.74115
# Shear Modulus (GPa) = 2.21992 24.85897 13.53944
#
# Velocity S-wave (km/s) = 1.07045 3.58211 2.64361
# Velocity P-wave (km/s) = 6.85538 8.08186 7.49376
#
# Compressibility (1/GPa) = 0.01135233
#
# Stress axis : x y z
#
# Youngs Moduli (GPa) = 107.66864 62.14869 79.47024
#
# Poissons Ratio (x) = 0.12575 0.15057
# Poissons Ratio (y) = 0.21785 0.74596
# Poissons Ratio (z) = 0.20400 0.58337
#
# Static dielectric constant tensor:
#      x y z
#    x 3.563820 0.000000 0.000000 
#    y 0.000000 3.607120 0.000000 
#    z 0.000000 0.000000 3.724840 
# 
# 
# High freq. dielectric constant tensor:
#      x y z
#    x 1.759320 0.000000 0.000000 
#    y 0.000000 1.752200 0.000000 
#    z 0.000000 0.000000 1.772800 
# 
# From -- ./inp_files/24963.got.cif
#   From: 2010.03.12/outbox.cif.g09.slc.cpg/sg50_13_cif.got.tgz:24963.got - 2010.04.16 13:23:21.
