data_PCOD8204086
_publ_section_title
;
Structure prediction by ZEFSAII (Michael W. Deem and Ramdas Pophale) SiO2 
 PCOD8204086
Probable space group: P C C M
;
_chemical_formula_sum "Si O2"
_cell_formula_units_Z 58
_cell_length_a 17.528336
_cell_length_b 8.494705
_cell_length_c 18.322794
_cell_angle_alpha 90.000000
_cell_angle_beta 90.000000
_cell_angle_gamma 90.000000
_cell_volume 2728.228177
_symmetry_space_group_name_H-M "P C C M"
_symmetry_group_IT_number 49
_symmetry_cell_setting 'orthorhombic'
loop_
_space_group_symop_operation_xyz
x,y,z
-x,-y,z
x,-y,1/2-z
-x,y,1/2-z
-x,-y,-z
x,y,-z
-x,y,1/2+z
x,-y,1/2+z
loop_
_atom_site_type_symbol
_atom_site_label
_atom_site_fract_x
_atom_site_fract_y
_atom_site_fract_z
Si Si1 0.755558 0.570660 0.324445
Si Si2 0.000000 0.000000 0.750000
Si Si3 0.416536 0.038428 0.914733
Si Si4 0.681047 0.329200 0.581841
Si Si5 0.287495 0.092040 0.322141
Si Si6 0.041411 0.242018 0.870377
Si Si7 0.815109 0.914127 0.921270
Si Si8 0.097926 0.426465 0.413455
O O1 0.791332 0.500000 0.250000
O O2 0.687313 0.468101 0.359429
O O3 0.717413 0.729743 0.297811
O O4 0.817532 0.610570 0.386699
O O5 0.953759 0.127935 0.700900
O O6 0.391196 0.218499 0.898522
O O7 0.500000 0.000000 0.882185
O O8 0.355350 0.922032 0.879858
O O9 0.414857 0.002815 0.000000
O O10 0.671141 0.396942 0.500000
O O11 0.760521 0.236040 0.588276
O O12 0.309200 0.000000 0.250000
O O13 0.206534 0.035431 0.357050
O O14 0.097631 0.146415 0.923430
O O15 0.071916 0.422356 0.864709
O O16 0.954520 0.269645 0.898961
O O17 0.799998 0.994903 0.000000
O O18 0.095225 0.466724 0.500000
#
# Coordination Sequence:
#
# PCOD8204086 Si02
#       8
#     8   2   8   8   8   8   8   8
#     4  12  25  39  63  91 127 169 216 269 330 390
#     4  12  32  42  58 100 128 162 208 280 344 394
#     4   9  19  40  69  98 129 168 208 249 309 382
#     4   9  18  36  63  93 124 162 205 255 314 381
#     4  11  25  40  61  92 129 167 214 264 319 389
#     4  11  25  43  65  86 128 161 214 270 334 399
#     4  10  20  39  64  86 118 161 205 262 322 381
#     4  11  25  45  68  91 120 170 222 272 336 402
#
# _framework density 21.259219000000002
#
# number of rings (size 3 to 8) (size 9 to 14) (size 15 to 20)
#    0.000    1.517    1.379    4.966    4.828    3.034 
#    0.000    3.103    0.000    3.310    0.000    0.000 
#    0.000    0.000    0.000    0.000    0.000    0.000 
#
# Total GULP energy -718553.999478 kJ/mol
# GULP energy per Si atom -12388.862060 kJ/mol
# Density = 2.121083 g / cm^3
# Si number density = 21.259219 Si / 1000 Ang^3
#
#
#
# Elastic Constant Matrix: (Units=GPa)
#
#
# Indices 1 2 3 4 5 6 
#
# 1 117.7810 45.9911 38.2492 0.0000 0.0000 0.0000
# 2 45.9911 111.6860 53.8037 0.0000 0.0000 0.0000
# 3 38.2492 53.8037 96.0967 0.0000 0.0000 0.0000
# 4 0.0000 0.0000 0.0000 36.5073 0.0000 0.0000
# 5 0.0000 0.0000 0.0000 0.0000 12.6698 0.0000
# 6 0.0000 0.0000 0.0000 0.0000 0.0000 24.1865
#
#
#
# Elastic Compliance Matrix: (Units=1/GPa)
#
#
# Indices 1 2 3 4 5 6 
#
# 1 0.010510 -0.003167 -0.002410 0.000000 0.000000 0.000000
# 2 -0.003167 0.013215 -0.006138 0.000000 0.000000 0.000000
# 3 -0.002410 -0.006138 0.014802 0.000000 0.000000 0.000000
# 4 0.000000 0.000000 0.000000 0.027392 0.000000 0.000000
# 5 0.000000 0.000000 0.000000 0.000000 0.078928 0.000000
# 6 0.000000 0.000000 0.000000 0.000000 0.000000 0.041345
#
#
# Mechanical properties :
#
#
# Convention : Reuss Voigt Hill
#
# Bulk Modulus (GPa) = 66.24153 66.85016 66.54585
# Shear Modulus (GPa) = 23.29330 27.17404 25.23367
#
# Velocity S-wave (km/s) = 3.31370 3.57910 3.44895
# Velocity P-wave (km/s) = 6.77255 6.97090 6.87244
#
# Compressibility (1/GPa) = 0.01509627
#
# Stress axis : x y z
#
# Youngs Moduli (GPa) = 95.15176 75.67266 67.55693
#
# Poissons Ratio (x) = 0.23963 0.16282
# Poissons Ratio (y) = 0.30131 0.41469
# Poissons Ratio (z) = 0.22932 0.46451
#
# Static dielectric constant tensor:
#      x y z
#    x 3.839100 0.000000 0.000000 
#    y 0.000000 3.899960 0.000000 
#    z 0.000000 0.000000 3.863590 
# 
# 
# High freq. dielectric constant tensor:
#      x y z
#    x 1.810210 0.000000 0.000000 
#    y 0.000000 1.826830 0.000000 
#    z 0.000000 0.000000 1.836400 
# 
# From -- ./inp_files/18174.got.cif
#   From: 2010.03.12/outbox.cif.g09.slc.cpg/sg49_10_cif.got.tgz:18174.got - 2010.04.14 03:58:27.
