data_PCOD8204652
_publ_section_title
;
Structure prediction by ZEFSAII (Michael W. Deem and Ramdas Pophale) SiO2 
 PCOD8204652
Probable space group: P C C M
;
_chemical_formula_sum "Si O2"
_cell_formula_units_Z 30
_cell_length_a 4.989580
_cell_length_b 18.828089
_cell_length_c 14.072625
_cell_angle_alpha 90.000000
_cell_angle_beta 90.000000
_cell_angle_gamma 90.000000
_cell_volume 1322.042290
_symmetry_space_group_name_H-M "P C C M"
_symmetry_group_IT_number 49
_symmetry_cell_setting 'orthorhombic'
loop_
_space_group_symop_operation_xyz
x,y,z
-x,-y,z
x,-y,1/2-z
-x,y,1/2-z
-x,-y,-z
x,y,-z
-x,y,1/2+z
x,-y,1/2+z
loop_
_atom_site_type_symbol
_atom_site_label
_atom_site_fract_x
_atom_site_fract_y
_atom_site_fract_z
Si Si1 0.762222 0.647674 0.316009
Si Si2 0.865783 0.192630 0.848448
Si Si3 0.656437 0.109344 0.396720
Si Si4 0.500000 0.000000 0.250000
Si Si5 0.253432 0.550482 0.000000
O O1 0.500000 0.654199 0.250000
O O2 0.848198 0.722942 0.361109
O O3 0.724352 0.596689 0.404951
O O4 0.000000 0.617623 0.250000
O O5 0.569323 0.162619 0.858201
O O6 0.000000 0.171392 0.750000
O O7 0.072887 0.154081 0.918902
O O8 0.572832 0.077982 0.500000
O O9 0.690782 0.046503 0.319315
O O10 0.500000 0.500000 0.000000
O O11 0.000000 0.500000 0.000000
#
# Coordination Sequence:
#
# PCOD8204652 Si02
#       5
#     8   8   8   2   4
#     4  11  25  46  74 106 146 191 240 297 357 424
#     4  11  22  47  69 103 136 181 234 298 352 409
#     4  12  26  42  71  99 135 185 234 291 357 424
#     4  12  26  50  64 100 148 186 232 290 368 436
#     4  12  28  46  72 114 150 193 239 289 363 434
#
# _framework density 22.692166
#
# number of rings (size 3 to 8) (size 9 to 14) (size 15 to 20)
#    0.000    0.533    2.667    6.000    3.733    5.333 
#    0.000    2.667    0.000    0.000    0.000    0.000 
#    0.000    0.000    0.000    0.000    0.000    0.000 
#
# Total GULP energy -371830.933030 kJ/mol
# GULP energy per Si atom -12394.364434 kJ/mol
# Density = 2.264052 g / cm^3
# Si number density = 22.692166 Si / 1000 Ang^3
#
#
#
# Elastic Constant Matrix: (Units=GPa)
#
#
# Indices 1 2 3 4 5 6 
#
# 1 137.5723 62.8029 28.2476 0.0000 0.0000 0.0000
# 2 62.8029 152.1280 87.6341 0.0000 0.0000 0.0000
# 3 28.2476 87.6341 164.1543 0.0000 0.0000 0.0000
# 4 0.0000 0.0000 0.0000 -37.1690 0.0000 0.0000
# 5 0.0000 0.0000 0.0000 0.0000 20.8749 0.0000
# 6 0.0000 0.0000 0.0000 0.0000 0.0000 36.1453
#
#
#
# Elastic Compliance Matrix: (Units=1/GPa)
#
#
# Indices 1 2 3 4 5 6 
#
# 1 0.009002 -0.004078 0.000628 0.000000 0.000000 0.000000
# 2 -0.004078 0.011340 -0.005352 0.000000 0.000000 0.000000
# 3 0.000628 -0.005352 0.008841 0.000000 0.000000 0.000000
# 4 0.000000 0.000000 0.000000 -0.026904 0.000000 0.000000
# 5 0.000000 0.000000 0.000000 0.000000 0.047904 0.000000
# 6 0.000000 0.000000 0.000000 0.000000 0.000000 0.027666
#
#
# Mechanical properties :
#
#
# Convention : Reuss Voigt Hill
#
# Bulk Modulus (GPa) = 86.36692 90.13598 88.25145
# Shear Modulus (GPa) = 50.34606 22.31489 36.33048
#
# Velocity S-wave (km/s) = 4.71537 3.13928 4.00561
# Velocity P-wave (km/s) = 8.23342 7.27651 7.76971
#
# Compressibility (1/GPa) = 0.01157851
#
# Stress axis : x y z
#
# Youngs Moduli (GPa) = 111.09218 88.18320 113.10885
#
# Poissons Ratio (x) = 0.35960 -0.07103
# Poissons Ratio (y) = 0.45302 0.60538
# Poissons Ratio (z) = -0.06977 0.47197
#
# Static dielectric constant tensor:
#      x y z
#    x 4.310830 0.000000 0.000000 
#    y 0.000000 4.132840 0.000000 
#    z 0.000000 0.000000 4.243810 
# 
# 
# High freq. dielectric constant tensor:
#      x y z
#    x 1.902960 0.000000 0.000000 
#    y 0.000000 1.893450 0.000000 
#    z 0.000000 0.000000 1.919110 
# 
# From -- ./inp_files/10553.got.cif
#   From: 2010.03.12/outbox.cif.g09.slc.cpg/sg49_6_cif.got.tgz:10553.got - 2010.04.14 03:58:27.
