data_PCOD8204714
_publ_section_title
;
Structure prediction by ZEFSAII (Michael W. Deem and Ramdas Pophale) SiO2 
 PCOD8204714
Probable space group: P C C M
;
_chemical_formula_sum "Si O2"
_cell_formula_units_Z 64
_cell_length_a 9.000000
_cell_length_b 21.000000
_cell_length_c 18.000000
_cell_angle_alpha 90.000000
_cell_angle_beta 90.000000
_cell_angle_gamma 90.000000
_cell_volume 3402.000000
_symmetry_space_group_name_H-M "P C C M"
_symmetry_group_IT_number 49
_symmetry_cell_setting 'orthorhombic'
loop_
_space_group_symop_operation_xyz
x,y,z
-x,-y,z
x,-y,1/2-z
-x,y,1/2-z
-x,-y,-z
x,y,-z
-x,y,1/2+z
x,-y,1/2+z
loop_
_atom_site_type_symbol
_atom_site_label
_atom_site_fract_x
_atom_site_fract_y
_atom_site_fract_z
Si Si1 0.672968 1.000000 0.412571
Si Si2 0.335511 0.377273 0.088192
Si Si3 0.675644 0.764463 0.914253
Si Si4 0.664489 0.377273 0.088192
Si Si5 0.324356 0.764463 0.914253
Si Si6 0.165811 0.500000 0.588710
Si Si7 0.826709 0.119325 0.163087
Si Si8 0.173291 0.119325 0.836913
O O1 0.699794 0.000000 0.500000
O O2 0.745434 0.937092 0.379408
O O3 0.500000 0.000000 0.392325
O O4 0.745435 0.062907 0.379408
O O5 0.273132 0.307130 0.109290
O O6 0.500000 0.385320 0.121470
O O7 0.239206 0.435416 0.120874
O O8 0.342254 0.381852 0.000000
O O9 0.500000 0.772368 0.902073
O O10 0.763405 0.813001 0.862569
O O11 0.716161 0.777946 0.000000
O O12 0.726868 0.307131 0.109290
O O13 0.760793 0.435416 0.120875
O O14 0.657746 0.381853 0.000000
O O15 0.236594 0.813000 0.862569
O O16 0.283838 0.777946 0.000000
O O17 0.173652 0.500000 0.500000
O O18 0.000000 0.500000 0.618780
O O19 0.796852 0.111053 0.250000
O O20 0.000000 0.116210 0.144057
#
# Coordination Sequence:
#
# PCOD8204714 Si02
#       8
#     8   8   8   8   8   8   8   8
#     4  11  24  41  62  86 108 133 170 213 254 300
#     4   8  14  25  41  62  92 129 166 207 255 304
#     4   9  18  33  53  77 103 134 176 220 260 307
#     4   8  14  25  41  62  92 129 166 207 255 304
#     4   9  18  33  53  77 103 134 176 220 260 307
#     4   9  15  21  33  59  94 129 166 207 252 304
#     4  11  24  39  55  79 110 141 173 209 252 305
#     4  11  24  39  55  79 110 141 173 209 252 305
#
# _framework density 18.812463000000001
#
# number of rings (size 3 to 8) (size 9 to 14) (size 15 to 20)
#    0.000    2.500    0.000    4.125    0.000   10.500 
#    0.000    2.500    0.000    0.000    0.000    0.875 
#    0.000    7.000    0.000    0.000    0.000    0.000 
#
# Total GULP energy -793430.298454 kJ/mol
# GULP energy per Si atom -12397.348413 kJ/mol
# Density = 1.876965 g / cm^3
# Si number density = 18.812463 Si / 1000 Ang^3
#
#
#
# Elastic Constant Matrix: (Units=GPa)
#
#
# Indices 1 2 3 4 5 6 
#
# 1 116.0695 90.9182 46.6698 0.0000 0.0000 0.0000
# 2 90.9182 191.8264 44.5636 0.0000 0.0000 0.0000
# 3 46.6698 44.5636 49.3409 0.0000 0.0000 0.0000
# 4 0.0000 0.0000 0.0000 2.6764 0.0000 0.0000
# 5 0.0000 0.0000 0.0000 0.0000 22.1794 0.0000
# 6 0.0000 0.0000 0.0000 0.0000 0.0000 2.9607
#
#
#
# Elastic Compliance Matrix: (Units=1/GPa)
#
#
# Indices 1 2 3 4 5 6 
#
# 1 0.017782 -0.005721 -0.011652 0.000000 0.000000 0.000000
# 2 -0.005721 0.008438 -0.002210 0.000000 0.000000 0.000000
# 3 -0.011652 -0.002210 0.033284 0.000000 0.000000 0.000000
# 4 0.000000 0.000000 0.000000 0.373638 0.000000 0.000000
# 5 0.000000 0.000000 0.000000 0.000000 0.045087 0.000000
# 6 0.000000 0.000000 0.000000 0.000000 0.000000 0.337754
#
#
# Mechanical properties :
#
#
# Convention : Reuss Voigt Hill
#
# Bulk Modulus (GPa) = 49.16806 80.17111 64.66958
# Shear Modulus (GPa) = 5.80094 17.23565 11.51830
#
# Velocity S-wave (km/s) = 1.75791 3.03013 2.47709
# Velocity P-wave (km/s) = 5.50572 7.41288 6.52931
#
# Compressibility (1/GPa) = 0.02033841
#
# Stress axis : x y z
#
# Youngs Moduli (GPa) = 56.23642 118.51275 30.04414
#
# Poissons Ratio (x) = 0.67801 0.35008
# Poissons Ratio (y) = 0.32173 0.06639
# Poissons Ratio (z) = 0.65528 0.26187
#
# Static dielectric constant tensor:
#      x y z
#    x 3.536990 0.000000 0.000000 
#    y 0.000000 3.831750 0.000000 
#    z 0.000000 0.000000 3.073710 
# 
# 
# High freq. dielectric constant tensor:
#      x y z
#    x 1.729780 0.000000 0.000000 
#    y 0.000000 1.759450 0.000000 
#    z 0.000000 0.000000 1.688230 
# 
# From -- ./inp_files/16572.got.cif
#   From: 2010.03.12/outbox.ucp.g09.slc.cvg/sg49_9_cif.got.tgz:16572.got - 2010.05.04 21:28:32.
