data_PCOD8204951
_publ_section_title
;
Structure prediction by ZEFSAII (Michael W. Deem and Ramdas Pophale) SiO2 
 PCOD8204951
Probable space group: P B A N
;
_chemical_formula_sum "Si O2"
_cell_formula_units_Z 64
_cell_length_a 33.646535
_cell_length_b 5.155578
_cell_length_c 17.004685
_cell_angle_alpha 90.000000
_cell_angle_beta 90.000000
_cell_angle_gamma 90.000000
_cell_volume 2949.757400
_symmetry_space_group_name_H-M "P B A N"
_symmetry_group_IT_number 50
_space_group.IT_coordinate_system_code '2'
_symmetry_cell_setting 'orthorhombic'
loop_
_space_group_symop_operation_xyz
x,y,z
1/2-x,1/2-y,z
x,1/2-y,-z
1/2-x,y,-z
-x,-y,-z
1/2+x,1/2+y,-z
-x,1/2+y,z
1/2+x,-y,z
loop_
_atom_site_type_symbol
_atom_site_label
_atom_site_fract_x
_atom_site_fract_y
_atom_site_fract_z
Si Si1 0.390310 0.161894 0.663586
Si Si2 0.890310 0.838105 0.163586
Si Si3 0.018099 0.312733 0.661377
Si Si4 0.767725 0.004117 0.912064
Si Si5 0.981901 0.687267 0.838623
Si Si6 0.141530 0.845639 0.086161
Si Si7 0.141530 0.845640 0.586161
Si Si8 0.232275 0.995883 0.587936
O O1 0.376467 0.250000 0.750000
O O2 0.436585 0.091476 0.659660
O O3 0.385654 0.408981 0.606644
O O4 0.364780 0.904533 0.642392
O O5 0.936585 0.908524 0.159660
O O6 0.885654 0.591017 0.106644
O O7 0.864780 0.095466 0.142391
O O8 0.003321 0.249999 0.750000
O O9 0.991352 0.536804 0.619342
O O10 0.750000 0.250000 0.865681
O O11 0.814806 0.028860 0.911254
O O12 0.750000 0.750000 0.868724
O O13 0.750000 0.002518 0.000000
O O14 0.008648 0.463195 0.880658
O O15 0.130193 0.750000 0.000000
O O16 0.130193 0.750000 0.500000
O O17 0.185194 0.971140 0.588746
O O18 0.250000 0.250000 0.631276
O O19 0.250000 0.997482 0.500000
O O20 0.250000 0.750000 0.634319
#
# Coordination Sequence:
#
# PCOD8204951 Si02
#       8
#     8   8   8   8   8   8   8   8
#     4  11  24  40  62  95 135 163 199 265 327 370
#     4  11  24  40  62  95 135 163 199 265 327 370
#     4   9  17  33  59  86 114 162 219 253 285 358
#     4  10  19  34  59  90 111 148 205 267 280 339
#     4   9  17  33  59  86 114 162 219 253 285 358
#     4  12  23  39  65  96 123 163 213 261 308 373
#     4  12  23  39  65  96 123 163 213 261 308 373
#     4  10  19  34  59  90 111 148 205 267 280 339
#
# _framework density 21.6967
#
# number of rings (size 3 to 8) (size 9 to 14) (size 15 to 20)
#    0.000    1.500    2.500    4.500    3.500    4.000 
#    0.000    0.000    0.000   26.250    0.000    0.000 
#    0.000    0.000    0.000    0.000    0.000    0.000 
#
# Total GULP energy -792935.671289 kJ/mol
# GULP energy per Si atom -12389.619864 kJ/mol
# Density = 2.164732 g / cm^3
# Si number density = 21.696700 Si / 1000 Ang^3
#
#
#
# Elastic Constant Matrix: (Units=GPa)
#
#
# Indices 1 2 3 4 5 6 
#
# 1 94.6361 53.0047 30.9642 0.0000 0.0000 0.0000
# 2 53.0047 212.8742 23.5315 0.0000 0.0000 0.0000
# 3 30.9642 23.5315 39.3002 0.0000 0.0000 0.0000
# 4 0.0000 0.0000 0.0000 16.6215 0.0000 0.0000
# 5 0.0000 0.0000 0.0000 0.0000 21.1688 0.0000
# 6 0.0000 0.0000 0.0000 0.0000 0.0000 55.3466
#
#
#
# Elastic Compliance Matrix: (Units=1/GPa)
#
#
# Indices 1 2 3 4 5 6 
#
# 1 0.015561 -0.002698 -0.010645 0.000000 0.000000 0.000000
# 2 -0.002698 0.005498 -0.001167 0.000000 0.000000 0.000000
# 3 -0.010645 -0.001167 0.034531 0.000000 0.000000 0.000000
# 4 0.000000 0.000000 0.000000 0.060163 0.000000 0.000000
# 5 0.000000 0.000000 0.000000 0.000000 0.047239 0.000000
# 6 0.000000 0.000000 0.000000 0.000000 0.000000 0.018068
#
#
# Mechanical properties :
#
#
# Convention : Reuss Voigt Hill
#
# Bulk Modulus (GPa) = 37.63470 62.42349 50.02910
# Shear Modulus (GPa) = 22.83778 34.58138 28.70958
#
# Velocity S-wave (km/s) = 3.24789 3.99664 3.64156
# Velocity P-wave (km/s) = 5.60790 7.08032 6.38668
#
# Compressibility (1/GPa) = 0.02657122
#
# Stress axis : x y z
#
# Youngs Moduli (GPa) = 64.26435 181.87369 28.95986
#
# Poissons Ratio (x) = 0.49067 0.30827
# Poissons Ratio (y) = 0.17338 0.03378
# Poissons Ratio (z) = 0.68408 0.21217
#
# Static dielectric constant tensor:
#      x y z
#    x 3.761300 0.000000 0.000000 
#    y 0.000000 2.209770 0.000000 
#    z 0.000000 0.000000 3.455060 
# 
# 
# High freq. dielectric constant tensor:
#      x y z
#    x 1.853090 0.000000 0.000000 
#    y 0.000000 1.896270 0.000000 
#    z 0.000000 0.000000 1.791510 
# 
# From -- ./inp_files/30102.got.cif
#   From: 2010.03.12/outbox.cif.g09.slc.cpg/sg50_16_cif.got.tgz:30102.got - 2010.04.16 13:23:21.
