data_PCOD8204343
_publ_section_title
;
Structure prediction by ZEFSAII (Michael W. Deem and Ramdas Pophale) SiO2 
 PCOD8204343
Probable space group: P C C M
;
_chemical_formula_sum "Si O2"
_cell_formula_units_Z 48
_cell_length_a 26.653660
_cell_length_b 5.102881
_cell_length_c 16.219054
_cell_angle_alpha 90.000000
_cell_angle_beta 90.000000
_cell_angle_gamma 90.000000
_cell_volume 2205.960917
_symmetry_space_group_name_H-M "P C C M"
_symmetry_group_IT_number 49
_symmetry_cell_setting 'orthorhombic'
loop_
_space_group_symop_operation_xyz
x,y,z
-x,-y,z
x,-y,1/2-z
-x,y,1/2-z
-x,-y,-z
x,y,-z
-x,y,1/2+z
x,-y,1/2+z
loop_
_atom_site_type_symbol
_atom_site_label
_atom_site_fract_x
_atom_site_fract_y
_atom_site_fract_z
Si Si1 0.029710 0.750149 0.098376
Si Si2 0.687706 0.373411 0.405371
Si Si3 0.201598 0.750955 0.401893
Si Si4 0.142799 0.749872 0.901553
Si Si5 0.532663 0.257559 0.093590
Si Si6 0.637632 0.116156 0.160302
O O1 0.086256 0.759480 0.133150
O O2 0.000000 0.500000 0.132969
O O3 0.030920 0.745211 0.000000
O O4 0.000000 0.000000 0.131972
O O5 0.690867 0.465238 0.500000
O O6 0.741301 0.275567 0.370804
O O7 0.672132 0.629061 0.353422
O O8 0.649548 0.126824 0.400578
O O9 0.201259 0.757990 0.500000
O O10 0.168718 0.511609 0.368237
O O11 0.175910 0.011684 0.366043
O O12 0.141902 0.758621 0.000000
O O13 0.500000 0.500000 0.128375
O O14 0.580931 0.215719 0.150089
O O15 0.500000 0.000000 0.097314
O O16 0.550198 0.319813 0.000000
O O17 0.647102 0.000000 0.250000
#
# Coordination Sequence:
#
# PCOD8204343 Si02
#       6
#     8   8   8   8   8   8
#     4   9  15  21  30  47  76 119 166 211 266 332
#     4  11  22  39  62  85 114 155 203 247 293 354
#     4   9  17  28  45  68  91 125 177 235 282 322
#     4   9  15  24  37  57  87 120 168 231 279 322
#     4  10  21  39  64  90 116 150 191 231 274 331
#     4  12  25  41  61  91 126 157 193 242 301 355
#
# _framework density 21.759224
#
# number of rings (size 3 to 8) (size 9 to 14) (size 15 to 20)
#    0.000    2.000    0.000    5.000    0.000    8.333 
#    0.000    0.833    0.000    0.000    0.000    0.000 
#    0.000    0.000    0.000    0.000    0.000  175.000 
#
# Total GULP energy -595248.299173 kJ/mol
# GULP energy per Si atom -12401.006233 kJ/mol
# Density = 2.170970 g / cm^3
# Si number density = 21.759224 Si / 1000 Ang^3
#
#
#
# Elastic Constant Matrix: (Units=GPa)
#
#
# Indices 1 2 3 4 5 6 
#
# 1 149.6407 62.4556 27.0473 0.0000 0.0000 0.0000
# 2 62.4556 171.5879 16.4678 0.0000 0.0000 0.0000
# 3 27.0473 16.4678 28.9049 0.0000 0.0000 0.0000
# 4 0.0000 0.0000 0.0000 20.2347 0.0000 0.0000
# 5 0.0000 0.0000 0.0000 0.0000 4.2217 0.0000
# 6 0.0000 0.0000 0.0000 0.0000 0.0000 52.4318
#
#
#
# Elastic Compliance Matrix: (Units=1/GPa)
#
#
# Indices 1 2 3 4 5 6 
#
# 1 0.009035 -0.002620 -0.006961 0.000000 0.000000 0.000000
# 2 -0.002620 0.006925 -0.001493 0.000000 0.000000 0.000000
# 3 -0.006961 -0.001493 0.041961 0.000000 0.000000 0.000000
# 4 0.000000 0.000000 0.000000 0.049420 0.000000 0.000000
# 5 0.000000 0.000000 0.000000 0.000000 0.236874 0.000000
# 6 0.000000 0.000000 0.000000 0.000000 0.000000 0.019072
#
#
# Mechanical properties :
#
#
# Convention : Reuss Voigt Hill
#
# Bulk Modulus (GPa) = 27.95580 62.45276 45.20428
# Shear Modulus (GPa) = 12.58305 31.65515 22.11910
#
# Velocity S-wave (km/s) = 2.40737 3.81831 3.19178
# Velocity P-wave (km/s) = 4.53904 6.94287 5.86542
#
# Compressibility (1/GPa) = 0.03577075
#
# Stress axis : x y z
#
# Youngs Moduli (GPa) = 110.68635 144.40397 23.83177
#
# Poissons Ratio (x) = 0.37839 0.16589
# Poissons Ratio (y) = 0.29004 0.03559
# Poissons Ratio (z) = 0.77049 0.21565
#
# Static dielectric constant tensor:
#      x y z
#    x 4.058010 0.000000 0.000000 
#    y 0.000000 4.177450 0.000000 
#    z 0.000000 0.000000 3.269890 
# 
# 
# High freq. dielectric constant tensor:
#      x y z
#    x 1.869230 0.000000 0.000000 
#    y 0.000000 1.876030 0.000000 
#    z 0.000000 0.000000 1.793590 
# 
# From -- ./inp_files/14585.got.cif
#   From: 2010.03.12/outbox.cif.g09.slc.cpg/sg49_8_cif.got.tgz:14585.got - 2010.04.14 03:58:27.
