data_PCOD8204186
_publ_section_title
;
Structure prediction by ZEFSAII (Michael W. Deem and Ramdas Pophale) SiO2 
 PCOD8204186
Probable space group: P C C M
;
_chemical_formula_sum "Si O2"
_cell_formula_units_Z 48
_cell_length_a 11.452137
_cell_length_b 14.292322
_cell_length_c 14.317372
_cell_angle_alpha 90.000000
_cell_angle_beta 90.000000
_cell_angle_gamma 90.000000
_cell_volume 2343.433511
_symmetry_space_group_name_H-M "P C C M"
_symmetry_group_IT_number 49
_symmetry_cell_setting 'orthorhombic'
loop_
_space_group_symop_operation_xyz
x,y,z
-x,-y,z
x,-y,1/2-z
-x,y,1/2-z
-x,-y,-z
x,y,-z
-x,y,1/2+z
x,-y,1/2+z
loop_
_atom_site_type_symbol
_atom_site_label
_atom_site_fract_x
_atom_site_fract_y
_atom_site_fract_z
Si Si1 0.781844 0.361319 0.898007
Si Si2 0.130222 0.037871 0.608808
Si Si3 0.244718 0.428358 0.104244
Si Si4 0.184640 0.141305 0.794253
Si Si5 0.364672 0.709444 0.265060
Si Si6 0.970837 0.692792 0.149734
O O1 0.787629 0.467841 0.860038
O O2 0.697198 0.302277 0.833875
O O3 0.908774 0.312157 0.906891
O O4 0.725079 0.360013 0.000000
O O5 0.157274 0.066613 0.500000
O O6 0.155941 0.120392 0.683958
O O7 0.207951 0.949923 0.642702
O O8 0.000000 0.000000 0.620422
O O9 0.342149 0.381196 0.170267
O O10 0.126111 0.369410 0.100343
O O11 0.297229 0.431339 0.000000
O O12 0.304807 0.198461 0.807694
O O13 0.076906 0.201217 0.837645
O O14 0.500000 0.726583 0.250000
O O15 0.000000 0.648025 0.250000
#
# Coordination Sequence:
#
# PCOD8204186 Si02
#       6
#     8   8   8   8   8   8
#     4  11  23  37  58  88 120 157 202 253 306 359
#     4  10  21  36  63  95 126 155 180 228 299 371
#     4  10  22  38  58  86 120 158 202 253 308 362
#     4  10  21  40  59  89 126 152 196 241 291 364
#     4  11  25  42  61  83 115 165 214 258 297 339
#     4  11  19  34  59  91 124 158 188 240 302 371
#
# _framework density 20.482768
#
# number of rings (size 3 to 8) (size 9 to 14) (size 15 to 20)
#    0.000    1.500    3.333    3.500    0.000    8.000 
#    0.000    3.333    0.000    1.000    0.000    0.000 
#    0.000    0.000    0.000    0.000    0.000    0.000 
#
# Total GULP energy -594921.996051 kJ/mol
# GULP energy per Si atom -12394.208251 kJ/mol
# Density = 2.043615 g / cm^3
# Si number density = 20.482768 Si / 1000 Ang^3
#
#
#
# Elastic Constant Matrix: (Units=GPa)
#
#
# Indices 1 2 3 4 5 6 
#
# 1 114.9905 31.4113 7.5006 0.0000 0.0000 0.0000
# 2 31.4113 91.5026 8.4511 0.0000 0.0000 0.0000
# 3 7.5006 8.4511 71.3438 0.0000 0.0000 0.0000
# 4 0.0000 0.0000 0.0000 23.1917 0.0000 0.0000
# 5 0.0000 0.0000 0.0000 0.0000 -4.9079 0.0000
# 6 0.0000 0.0000 0.0000 0.0000 0.0000 14.1463
#
#
#
# Elastic Compliance Matrix: (Units=1/GPa)
#
#
# Indices 1 2 3 4 5 6 
#
# 1 0.009624 -0.003246 -0.000627 0.000000 0.000000 0.000000
# 2 -0.003246 0.012144 -0.001097 0.000000 0.000000 0.000000
# 3 -0.000627 -0.001097 0.014213 0.000000 0.000000 0.000000
# 4 0.000000 0.000000 0.000000 0.043119 0.000000 0.000000
# 5 0.000000 0.000000 0.000000 0.000000 -0.203754 0.000000
# 6 0.000000 0.000000 0.000000 0.000000 0.000000 0.070690
#
#
# Mechanical properties :
#
#
# Convention : Reuss Voigt Hill
#
# Bulk Modulus (GPa) = 38.40262 41.39587 39.89925
# Shear Modulus (GPa) = -141.46977 21.85093 -59.80942
#
# Velocity S-wave (km/s) = -8.31971 3.26973 -5.40955
# Velocity P-wave (km/s) = 8.57326 5.87442 4.41542
#
# Compressibility (1/GPa) = 0.02603989
#
# Stress axis : x y z
#
# Youngs Moduli (GPa) = 103.90774 82.34367 70.36023
#
# Poissons Ratio (x) = 0.26727 0.04414
# Poissons Ratio (y) = 0.33726 0.07721
# Poissons Ratio (z) = 0.06518 0.09036
#
# Static dielectric constant tensor:
#      x y z
#    x 3.346760 0.000000 0.000000 
#    y 0.000000 3.859780 0.000000 
#    z 0.000000 0.000000 3.893670 
# 
# 
# High freq. dielectric constant tensor:
#      x y z
#    x 1.755750 0.000000 0.000000 
#    y 0.000000 1.809400 0.000000 
#    z 0.000000 0.000000 1.809790 
# 
# From -- ./inp_files/12800.got.cif
#   From: 2010.03.12/outbox.cif.g09.slc.cpg/sg49_7_cif.got.tgz:12800.got - 2010.04.14 03:58:27.
