data_PCOD8204196
_publ_section_title
;
Structure prediction by ZEFSAII (Michael W. Deem and Ramdas Pophale) SiO2 
 PCOD8204196
Probable space group: P C C M
;
_chemical_formula_sum "Si O2"
_cell_formula_units_Z 64
_cell_length_a 17.025995
_cell_length_b 20.657232
_cell_length_c 8.825752
_cell_angle_alpha 90.000000
_cell_angle_beta 90.000000
_cell_angle_gamma 90.000000
_cell_volume 3104.104607
_symmetry_space_group_name_H-M "P C C M"
_symmetry_group_IT_number 49
_symmetry_cell_setting 'orthorhombic'
loop_
_space_group_symop_operation_xyz
x,y,z
-x,-y,z
x,-y,1/2-z
-x,y,1/2-z
-x,-y,-z
x,y,-z
-x,y,1/2+z
x,-y,1/2+z
loop_
_atom_site_type_symbol
_atom_site_label
_atom_site_fract_x
_atom_site_fract_y
_atom_site_fract_z
Si Si1 0.868545 0.223931 0.331553
Si Si2 0.076171 0.360982 0.168717
Si Si3 0.419425 0.704563 0.318419
Si Si4 0.289254 0.200621 0.679371
Si Si5 0.615339 0.567582 0.675509
Si Si6 0.799933 0.436001 0.828754
Si Si7 0.253041 0.065494 0.818773
Si Si8 0.077119 0.087047 0.828702
O O1 0.829673 0.217795 0.500000
O O2 0.927433 0.283828 0.324348
O O3 0.797950 0.227711 0.210899
O O4 0.925599 0.163811 0.303417
O O5 0.157941 0.376492 0.249291
O O6 0.000000 0.390840 0.250000
O O7 0.077054 0.388790 0.000000
O O8 0.500000 0.733597 0.250000
O O9 0.418854 0.707067 0.500000
O O10 0.349850 0.748822 0.253524
O O11 0.416354 0.629426 0.265730
O O12 0.304198 0.197735 0.500000
O O13 0.297397 0.128455 0.750688
O O14 0.585028 0.500000 0.750000
O O15 0.588579 0.569984 0.500000
O O16 0.708158 0.571868 0.690733
O O17 0.832216 0.500000 0.750000
O O18 0.827079 0.438504 0.000000
O O19 0.161696 0.064309 0.763979
O O20 0.291915 0.000000 0.750000
O O21 0.260966 0.067268 0.000000
O O22 0.000000 0.056294 0.750000
O O23 0.070951 0.064711 0.000000
#
# Coordination Sequence:
#
# PCOD8204196 Si02
#       8
#     8   8   8   8   8   8   8   8
#     4   9  19  35  53  76 106 143 185 231 281 338
#     4  11  22  34  50  72 101 136 179 231 289 343
#     4  12  25  42  64  92 126 160 194 236 283 338
#     4  11  22  38  62  90 118 153 194 238 289 348
#     4  10  21  39  63  92 123 158 197 237 283 340
#     4  10  21  37  56  76 101 134 178 227 277 334
#     4  10  21  38  58  84 116 154 200 249 298 350
#     4   9  18  31  48  73 109 149 190 235 287 341
#
# _framework density 20.617861999999999
#
# number of rings (size 3 to 8) (size 9 to 14) (size 15 to 20)
#    0.000    1.750    0.000    5.625    0.000    7.750 
#    0.000    3.750    0.000    0.375    0.000    2.625 
#    0.000    0.000    0.000    0.000    0.000    0.000 
#
# Total GULP energy -793320.360768 kJ/mol
# GULP energy per Si atom -12395.630637 kJ/mol
# Density = 2.057093 g / cm^3
# Si number density = 20.617862 Si / 1000 Ang^3
#
#
#
# Elastic Constant Matrix: (Units=GPa)
#
#
# Indices 1 2 3 4 5 6 
#
# 1 50.5781 29.3337 46.0003 0.0000 0.0000 0.0000
# 2 29.3337 93.6154 42.8426 0.0000 0.0000 0.0000
# 3 46.0003 42.8426 152.1259 0.0000 0.0000 0.0000
# 4 0.0000 0.0000 0.0000 34.4104 0.0000 0.0000
# 5 0.0000 0.0000 0.0000 0.0000 31.2473 0.0000
# 6 0.0000 0.0000 0.0000 0.0000 0.0000 -4.0239
#
#
#
# Elastic Compliance Matrix: (Units=1/GPa)
#
#
# Indices 1 2 3 4 5 6 
#
# 1 0.029959 -0.006017 -0.007365 0.000000 0.000000 0.000000
# 2 -0.006017 0.013471 -0.001974 0.000000 0.000000 0.000000
# 3 -0.007365 -0.001974 0.009356 0.000000 0.000000 0.000000
# 4 0.000000 0.000000 0.000000 0.029061 0.000000 0.000000
# 5 0.000000 0.000000 0.000000 0.000000 0.032003 0.000000
# 6 0.000000 0.000000 0.000000 0.000000 0.000000 -0.248512
#
#
# Mechanical properties :
#
#
# Convention : Reuss Voigt Hill
#
# Bulk Modulus (GPa) = 45.30101 59.18584 52.24342
# Shear Modulus (GPa) = -51.76405 24.20294 -13.78056
#
# Velocity S-wave (km/s) = -5.01607 3.42991 -2.58811
# Velocity P-wave (km/s) = 3.39536 6.66740 4.05744
#
# Compressibility (1/GPa) = 0.02207456
#
# Stress axis : x y z
#
# Youngs Moduli (GPa) = 33.37884 74.23385 106.87834
#
# Poissons Ratio (x) = 0.44667 0.78711
# Poissons Ratio (y) = 0.20084 0.21101
# Poissons Ratio (z) = 0.24582 0.14656
#
# Static dielectric constant tensor:
#      x y z
#    x 3.618520 0.000000 0.000000 
#    y 0.000000 3.870520 0.000000 
#    z 0.000000 0.000000 3.839310 
# 
# 
# High freq. dielectric constant tensor:
#      x y z
#    x 1.785480 0.000000 0.000000 
#    y 0.000000 1.815200 0.000000 
#    z 0.000000 0.000000 1.815420 
# 
# From -- ./inp_files/5295.got.cif
#   From: 2010.03.12/outbox.cif.g09.slc.cpg/sg49_3_cif.got.tgz:5295.got - 2010.04.14 03:58:27.
