data_PCOD8204035
_publ_section_title
;
Structure prediction by ZEFSAII (Michael W. Deem and Ramdas Pophale) SiO2 
 PCOD8204035
Probable space group: P C C M
;
_chemical_formula_sum "Si O2"
_cell_formula_units_Z 56
_cell_length_a 14.153445
_cell_length_b 10.071881
_cell_length_c 17.435014
_cell_angle_alpha 90.000000
_cell_angle_beta 90.000000
_cell_angle_gamma 90.000000
_cell_volume 2485.392869
_symmetry_space_group_name_H-M "P C C M"
_symmetry_group_IT_number 49
_symmetry_cell_setting 'orthorhombic'
loop_
_space_group_symop_operation_xyz
x,y,z
-x,-y,z
x,-y,1/2-z
-x,y,1/2-z
-x,-y,-z
x,y,-z
-x,y,1/2+z
x,-y,1/2+z
loop_
_atom_site_type_symbol
_atom_site_label
_atom_site_fract_x
_atom_site_fract_y
_atom_site_fract_z
Si Si1 0.307307 0.748895 0.351026
Si Si2 0.151643 0.820825 0.912470
Si Si3 0.502341 0.653091 0.589509
Si Si4 0.686681 0.260782 0.830849
Si Si5 0.859609 0.885159 0.087806
Si Si6 0.812184 0.503188 0.159434
Si Si7 0.986909 0.335053 0.340015
O O1 0.407475 0.733228 0.392320
O O2 0.322230 0.751306 0.259836
O O3 0.249979 0.876399 0.382417
O O4 0.243020 0.625901 0.376824
O O5 0.249438 0.855918 0.866324
O O6 0.089023 0.696551 0.878612
O O7 0.100330 0.964027 0.906494
O O8 0.172947 0.783659 0.000000
O O9 0.500000 0.500000 0.618437
O O10 0.524920 0.658509 0.500000
O O11 0.582572 0.730959 0.635621
O O12 0.753447 0.376625 0.868650
O O13 0.922345 0.790691 0.140532
O O14 0.866274 0.836143 0.000000
O O15 0.802130 0.500000 0.250000
O O16 0.925646 0.526815 0.138517
O O17 0.000000 0.335337 0.250000
#
# Coordination Sequence:
#
# PCOD8204035 Si02
#       7
#     8   8   8   8   8   8   8
#     4  10  20  37  64  90 115 155 205 249 296 355
#     4  11  24  41  58  83 122 161 198 252 314 359
#     4  11  22  37  60  92 127 159 196 242 294 359
#     4  11  22  38  60  89 124 159 197 247 302 361
#     4  10  22  41  62  85 117 157 204 256 309 361
#     4   9  19  35  56  85 120 154 191 243 301 352
#     4  11  22  37  61  88 115 156 208 251 294 357
#
# _framework density 22.531649000000002
#
# number of rings (size 3 to 8) (size 9 to 14) (size 15 to 20)
#    0.000    1.571    1.429    4.714    0.000    6.571 
#    0.000    3.571    0.000    4.286    0.000    0.000 
#    0.000    0.000    0.000    0.000    0.000    0.000 
#
# Total GULP energy -693820.348943 kJ/mol
# GULP energy per Si atom -12389.649088 kJ/mol
# Density = 2.248037 g / cm^3
# Si number density = 22.531649 Si / 1000 Ang^3
#
#
#
# Elastic Constant Matrix: (Units=GPa)
#
#
# Indices 1 2 3 4 5 6 
#
# 1 124.4021 7.0910 11.8546 0.0000 0.0000 0.0000
# 2 7.0910 69.1829 18.8148 0.0000 0.0000 0.0000
# 3 11.8546 18.8148 83.0797 0.0000 0.0000 0.0000
# 4 0.0000 0.0000 0.0000 52.7274 0.0000 0.0000
# 5 0.0000 0.0000 0.0000 0.0000 23.3079 0.0000
# 6 0.0000 0.0000 0.0000 0.0000 0.0000 24.8120
#
#
#
# Elastic Compliance Matrix: (Units=1/GPa)
#
#
# Indices 1 2 3 4 5 6 
#
# 1 0.008169 -0.000554 -0.001040 0.000000 0.000000 0.000000
# 2 -0.000554 0.015441 -0.003418 0.000000 0.000000 0.000000
# 3 -0.001040 -0.003418 0.012959 0.000000 0.000000 0.000000
# 4 0.000000 0.000000 0.000000 0.018965 0.000000 0.000000
# 5 0.000000 0.000000 0.000000 0.000000 0.042904 0.000000
# 6 0.000000 0.000000 0.000000 0.000000 0.000000 0.040303
#
#
# Mechanical properties :
#
#
# Convention : Reuss Voigt Hill
#
# Bulk Modulus (GPa) = 37.67267 39.13175 38.40221
# Shear Modulus (GPa) = 31.72306 36.09641 33.90974
#
# Velocity S-wave (km/s) = 3.75631 4.00688 3.88362
# Velocity P-wave (km/s) = 5.96401 6.22992 6.09842
#
# Compressibility (1/GPa) = 0.02654444
#
# Stress axis : x y z
#
# Youngs Moduli (GPa) = 122.41151 64.76378 77.16624
#
# Poissons Ratio (x) = 0.03591 0.08026
# Poissons Ratio (y) = 0.06787 0.26373
# Poissons Ratio (z) = 0.12732 0.22134
#
# Static dielectric constant tensor:
#      x y z
#    x 4.401980 0.000000 0.000000 
#    y 0.000000 4.340860 0.000000 
#    z 0.000000 0.000000 3.746430 
# 
# 
# High freq. dielectric constant tensor:
#      x y z
#    x 1.911590 0.000000 0.000000 
#    y 0.000000 1.891040 0.000000 
#    z 0.000000 0.000000 1.875380 
# 
# From -- ./inp_files/13582.got.cif
#   From: 2010.03.12/outbox.cif.g09.slc.cpg/sg49_7_cif.got.tgz:13582.got - 2010.04.14 03:58:27.
