data_PCOD8204402
_publ_section_title
;
Structure prediction by ZEFSAII (Michael W. Deem and Ramdas Pophale) SiO2 
 PCOD8204402
Probable space group: P C C M
;
_chemical_formula_sum "Si O2"
_cell_formula_units_Z 56
_cell_length_a 9.188923
_cell_length_b 21.346683
_cell_length_c 14.934976
_cell_angle_alpha 90.000000
_cell_angle_beta 90.000000
_cell_angle_gamma 90.000000
_cell_volume 2929.540741
_symmetry_space_group_name_H-M "P C C M"
_symmetry_group_IT_number 49
_symmetry_cell_setting 'orthorhombic'
loop_
_space_group_symop_operation_xyz
x,y,z
-x,-y,z
x,-y,1/2-z
-x,y,1/2-z
-x,-y,-z
x,y,-z
-x,y,1/2+z
x,-y,1/2+z
loop_
_atom_site_type_symbol
_atom_site_label
_atom_site_fract_x
_atom_site_fract_y
_atom_site_fract_z
Si Si1 0.168428 0.121187 0.397680
Si Si2 0.168317 0.221141 0.750000
Si Si3 0.833100 0.572315 0.603385
Si Si4 0.166900 0.572315 0.396615
Si Si5 0.168428 0.878813 0.397680
Si Si6 0.672352 0.350743 0.750000
Si Si7 0.663565 1.000000 0.893688
O O1 0.211950 0.136833 0.500000
O O2 0.205118 0.181624 0.338694
O O3 1.000000 0.102981 0.389897
O O4 0.256915 0.062246 0.358488
O O5 0.205118 0.181624 0.838694
O O6 0.272256 0.280224 0.750000
O O7 0.000000 0.242412 0.750000
O O8 0.802834 0.587468 0.500000
O O9 0.799902 0.500000 0.624343
O O10 0.727462 0.614799 0.661314
O O11 0.000000 0.587753 0.627842
O O12 0.197166 0.587468 0.500000
O O13 0.272538 0.614799 0.338686
O O14 0.211950 0.863167 0.500000
O O15 0.256915 0.937754 0.358488
O O16 0.500000 0.351089 0.750000
O O17 0.500000 0.000000 0.856395
O O18 0.669041 1.000000 0.000000
#
# Coordination Sequence:
#
# PCOD8204402 Si02
#       7
#     8   8   8   8   8   8   8
#     4   9  18  34  55  76  99 130 172 223 271 313
#     4  10  22  38  54  74 101 140 190 229 260 312
#     4   9  19  38  64  89 111 142 187 233 273 318
#     4   9  19  38  64  89 111 142 187 233 273 318
#     4   9  18  34  55  76  99 130 172 223 271 313
#     4  12  25  37  53  82 120 155 183 221 278 337
#     4   9  17  30  51  78 105 133 164 205 265 330
#
# _framework density 19.115624
#
# number of rings (size 3 to 8) (size 9 to 14) (size 15 to 20)
#    0.000    2.429    0.000    3.000    0.000    7.429 
#    0.000    7.143    0.000    0.000    0.000    0.000 
#    0.000    0.000    0.000    0.000    0.000    0.000 
#
# Total GULP energy -694517.015556 kJ/mol
# GULP energy per Si atom -12402.089563 kJ/mol
# Density = 1.907212 g / cm^3
# Si number density = 19.115624 Si / 1000 Ang^3
#
#
#
# Elastic Constant Matrix: (Units=GPa)
#
#
# Indices 1 2 3 4 5 6 
#
# 1 136.0376 96.8857 61.5114 0.0000 0.0000 0.0000
# 2 96.8857 146.3332 71.6557 0.0000 0.0000 0.0000
# 3 61.5114 71.6557 105.4628 0.0000 0.0000 0.0000
# 4 0.0000 0.0000 0.0000 298.1254 0.0000 0.0000
# 5 0.0000 0.0000 0.0000 0.0000 15.4473 0.0000
# 6 0.0000 0.0000 0.0000 0.0000 0.0000 7.0794
#
#
#
# Elastic Compliance Matrix: (Units=1/GPa)
#
#
# Indices 1 2 3 4 5 6 
#
# 1 0.014476 -0.008168 -0.002894 0.000000 0.000000 0.000000
# 2 -0.008168 0.014849 -0.005325 0.000000 0.000000 0.000000
# 3 -0.002894 -0.005325 0.014788 0.000000 0.000000 0.000000
# 4 0.000000 0.000000 0.000000 0.003354 0.000000 0.000000
# 5 0.000000 0.000000 0.000000 0.000000 0.064736 0.000000
# 6 0.000000 0.000000 0.000000 0.000000 0.000000 0.141255
#
#
# Mechanical properties :
#
#
# Convention : Reuss Voigt Hill
#
# Bulk Modulus (GPa) = 88.18437 94.21547 91.19992
# Shear Modulus (GPa) = 17.24061 74.64913 45.94487
#
# Velocity S-wave (km/s) = 3.00644 6.25589 4.90789
# Velocity P-wave (km/s) = 7.63439 10.07848 8.94034
#
# Compressibility (1/GPa) = 0.01133988
#
# Stress axis : x y z
#
# Youngs Moduli (GPa) = 69.07796 67.34451 67.62150
#
# Poissons Ratio (x) = 0.55004 0.19570
# Poissons Ratio (y) = 0.56420 0.36010
# Poissons Ratio (z) = 0.19991 0.35863
#
# Static dielectric constant tensor:
#      x y z
#    x 3.425190 0.000000 0.000000 
#    y 0.000000 3.423050 0.000000 
#    z 0.000000 0.000000 3.604580 
# 
# 
# High freq. dielectric constant tensor:
#      x y z
#    x 1.732430 0.000000 0.000000 
#    y 0.000000 1.740590 0.000000 
#    z 0.000000 0.000000 1.751620 
# 
# From -- ./inp_files/12015.got.cif
#   From: 2010.03.12/outbox.cif.g09.slc.cpg/sg49_7_cif.got.tgz:12015.got - 2010.04.14 03:58:27.
