data_PCOD8204228
_publ_section_title
;
Structure prediction by ZEFSAII (Michael W. Deem and Ramdas Pophale) SiO2 
 PCOD8204228
Probable space group: P C C M
;
_chemical_formula_sum "Si O2"
_cell_formula_units_Z 64
_cell_length_a 11.723186
_cell_length_b 15.396130
_cell_length_c 17.067639
_cell_angle_alpha 90.000000
_cell_angle_beta 90.000000
_cell_angle_gamma 90.000000
_cell_volume 3080.567104
_symmetry_space_group_name_H-M "P C C M"
_symmetry_group_IT_number 49
_symmetry_cell_setting 'orthorhombic'
loop_
_space_group_symop_operation_xyz
x,y,z
-x,-y,z
x,-y,1/2-z
-x,y,1/2-z
-x,-y,-z
x,y,-z
-x,y,1/2+z
x,-y,1/2+z
loop_
_atom_site_type_symbol
_atom_site_label
_atom_site_fract_x
_atom_site_fract_y
_atom_site_fract_z
Si Si1 0.734463 0.020698 0.912044
Si Si2 0.212381 0.693453 0.850828
Si Si3 0.857248 0.768917 0.909364
Si Si4 0.606853 0.176352 0.850776
Si Si5 0.919204 0.852952 0.589600
Si Si6 0.884270 0.620318 0.797251
Si Si7 0.349220 0.853487 0.328113
Si Si8 0.134510 0.516196 0.914834
O O1 0.654284 0.105691 0.911604
O O2 0.862920 0.053667 0.888179
O O3 0.683615 0.950963 0.852649
O O4 0.735053 0.980977 0.000000
O O5 0.341166 0.727626 0.869462
O O6 0.130423 0.776732 0.856615
O O7 0.207904 0.660987 0.761235
O O8 0.172664 0.616291 0.907800
O O9 0.916299 0.686741 0.867191
O O10 0.739412 0.787773 0.866596
O O11 0.943014 0.851972 0.900719
O O12 0.836001 0.746057 0.000000
O O13 0.651419 0.148184 0.765114
O O14 0.471553 0.177485 0.859665
O O15 0.886053 0.831239 0.500000
O O16 0.821635 0.538064 0.839340
O O17 0.000000 0.595001 0.750000
O O18 0.000000 0.500000 0.912182
O O19 0.180662 0.484273 0.000000
#
# Coordination Sequence:
#
# PCOD8204228 Si02
#       8
#     8   8   8   8   8   8   8   8
#     4  10  21  37  59  87 119 156 199 252 312 369
#     4  11  20  36  60  85 118 159 199 245 311 377
#     4  11  22  37  59  87 124 167 207 252 308 376
#     4  10  23  40  60  85 116 155 207 265 311 365
#     4   9  19  35  55  85 125 162 196 241 302 371
#     4  12  21  35  57  89 123 158 204 248 308 381
#     4  11  22  39  59  85 117 155 209 263 313 356
#     4  11  22  34  54  88 127 158 193 248 310 378
#
# _framework density 20.775396000000001
#
# number of rings (size 3 to 8) (size 9 to 14) (size 15 to 20)
#    0.000    1.375    3.750    2.250    0.000    5.500 
#    0.000    1.875    0.000    2.250    0.000    1.750 
#    0.000    0.000    0.000    0.000    0.000    0.000 
#
# Total GULP energy -793215.713239 kJ/mol
# GULP energy per Si atom -12393.995519 kJ/mol
# Density = 2.072811 g / cm^3
# Si number density = 20.775396 Si / 1000 Ang^3
#
#
#
# Elastic Constant Matrix: (Units=GPa)
#
#
# Indices 1 2 3 4 5 6 
#
# 1 100.4599 36.0873 27.0286 0.0000 0.0000 0.0000
# 2 36.0873 105.5168 34.2431 0.0000 0.0000 0.0000
# 3 27.0286 34.2431 101.0503 0.0000 0.0000 0.0000
# 4 0.0000 0.0000 0.0000 23.1082 0.0000 0.0000
# 5 0.0000 0.0000 0.0000 0.0000 21.0736 0.0000
# 6 0.0000 0.0000 0.0000 0.0000 0.0000 21.7725
#
#
#
# Elastic Compliance Matrix: (Units=1/GPa)
#
#
# Indices 1 2 3 4 5 6 
#
# 1 0.011695 -0.003353 -0.001992 0.000000 0.000000 0.000000
# 2 -0.003353 0.011610 -0.003037 0.000000 0.000000 0.000000
# 3 -0.001992 -0.003037 0.011458 0.000000 0.000000 0.000000
# 4 0.000000 0.000000 0.000000 0.043275 0.000000 0.000000
# 5 0.000000 0.000000 0.000000 0.000000 0.047453 0.000000
# 6 0.000000 0.000000 0.000000 0.000000 0.000000 0.045930
#
#
# Mechanical properties :
#
#
# Convention : Reuss Voigt Hill
#
# Bulk Modulus (GPa) = 55.56215 55.74943 55.65579
# Shear Modulus (GPa) = 25.74889 27.16873 26.45881
#
# Velocity S-wave (km/s) = 3.52432 3.62019 3.57258
# Velocity P-wave (km/s) = 6.58509 6.66085 6.62308
#
# Compressibility (1/GPa) = 0.01799787
#
# Stress axis : x y z
#
# Youngs Moduli (GPa) = 85.50917 86.13511 87.27488
#
# Poissons Ratio (x) = 0.28883 0.17383
# Poissons Ratio (y) = 0.28673 0.26508
# Poissons Ratio (z) = 0.17031 0.26162
#
# Static dielectric constant tensor:
#      x y z
#    x 3.659050 0.000000 0.000000 
#    y 0.000000 3.789690 0.000000 
#    z 0.000000 0.000000 4.018900 
# 
# 
# High freq. dielectric constant tensor:
#      x y z
#    x 1.780790 0.000000 0.000000 
#    y 0.000000 1.807600 0.000000 
#    z 0.000000 0.000000 1.826560 
# 
# From -- ./inp_files/17331.got.cif
#   From: 2010.03.12/outbox.cif.g09.slc.cpg/sg49_9_cif.got.tgz:17331.got - 2010.04.14 03:58:27.
