data_PCOD8204872
_publ_section_title
;
Structure prediction by ZEFSAII (Michael W. Deem and Ramdas Pophale) SiO2 
 PCOD8204872
Probable space group: P B A N
;
_chemical_formula_sum "Si O2"
_cell_formula_units_Z 64
_cell_length_a 23.244479
_cell_length_b 9.282646
_cell_length_c 16.459180
_cell_angle_alpha 90.000000
_cell_angle_beta 90.000000
_cell_angle_gamma 90.000000
_cell_volume 3551.401713
_symmetry_space_group_name_H-M "P B A N"
_symmetry_group_IT_number 50
_space_group.IT_coordinate_system_code '2'
_symmetry_cell_setting 'orthorhombic'
loop_
_space_group_symop_operation_xyz
x,y,z
1/2-x,1/2-y,z
x,1/2-y,-z
1/2-x,y,-z
-x,-y,-z
1/2+x,1/2+y,-z
-x,1/2+y,z
1/2+x,-y,z
loop_
_atom_site_type_symbol
_atom_site_label
_atom_site_fract_x
_atom_site_fract_y
_atom_site_fract_z
Si Si1 0.570833 0.775951 0.088673
Si Si2 0.932880 0.969835 0.194941
Si Si3 0.251123 0.918341 0.410375
Si Si4 0.061376 0.074936 0.504999
Si Si5 0.127119 0.576380 0.639970
Si Si6 0.060970 0.779661 0.913961
Si Si7 0.624938 0.081422 0.647506
Si Si8 0.064948 0.959802 0.198301
O O1 0.594625 0.680320 0.164398
O O2 0.504814 0.727194 0.078149
O O3 0.577232 0.936671 0.121600
O O4 0.601151 0.750000 0.000000
O O5 0.932967 0.055132 0.109418
O O6 0.892930 0.044173 0.261241
O O7 0.998435 0.960320 0.227952
O O8 0.250000 0.750000 0.424704
O O9 0.250000 0.992250 0.500000
O O10 0.194834 0.960902 0.358998
O O11 0.308310 0.962480 0.361822
O O12 0.057360 0.250000 0.500000
O O13 0.099910 0.011863 0.433372
O O14 0.088482 0.022788 0.589548
O O15 0.000000 0.000000 0.500000
O O16 0.114396 0.748156 0.629757
O O17 0.102462 0.509058 0.722523
O O18 0.086565 0.691855 0.837701
O O19 0.092515 0.750000 0.000000
#
# Coordination Sequence:
#
# PCOD8204872 Si02
#       8
#     8   8   8   8   8   8   8   8
#     4   9  18  30  48  74 111 148 178 218 271 341
#     4  10  19  30  50  78 112 144 179 223 277 333
#     4   9  18  36  60  80 101 144 192 240 280 329
#     4  12  26  39  58  83 115 152 182 220 277 342
#     4  11  21  38  59  81 110 146 190 236 283 327
#     4   9  16  30  48  74 105 142 182 218 267 331
#     4  11  21  38  59  81 110 146 190 236 283 327
#     4  10  19  30  50  78 112 144 179 223 277 333
#
# _framework density 18.021053999999999
#
# number of rings (size 3 to 8) (size 9 to 14) (size 15 to 20)
#    0.000    1.875    2.500    2.625    1.750    3.000 
#    0.000    1.250    0.000    0.000    0.000    5.250 
#    0.000    0.000    0.000    0.000    0.000    0.000 
#
# Total GULP energy -793020.459156 kJ/mol
# GULP energy per Si atom -12390.944674 kJ/mol
# Density = 1.798004 g / cm^3
# Si number density = 18.021054 Si / 1000 Ang^3
#
#
#
# Elastic Constant Matrix: (Units=GPa)
#
#
# Indices 1 2 3 4 5 6 
#
# 1 97.7508 26.7592 41.9877 0.0000 0.0000 0.0000
# 2 26.7592 79.4008 21.2884 0.0000 0.0000 0.0000
# 3 41.9877 21.2884 105.9083 0.0000 0.0000 0.0000
# 4 0.0000 0.0000 0.0000 30.9837 0.0000 0.0000
# 5 0.0000 0.0000 0.0000 0.0000 -2.4964 0.0000
# 6 0.0000 0.0000 0.0000 0.0000 0.0000 14.9524
#
#
#
# Elastic Compliance Matrix: (Units=1/GPa)
#
#
# Indices 1 2 3 4 5 6 
#
# 1 0.013048 -0.003182 -0.004533 0.000000 0.000000 0.000000
# 2 -0.003182 0.014088 -0.001570 0.000000 0.000000 0.000000
# 3 -0.004533 -0.001570 0.011555 0.000000 0.000000 0.000000
# 4 0.000000 0.000000 0.000000 0.032275 0.000000 0.000000
# 5 0.000000 0.000000 0.000000 0.000000 -0.400577 0.000000
# 6 0.000000 0.000000 0.000000 0.000000 0.000000 0.066879
#
#
# Mechanical properties :
#
#
# Convention : Reuss Voigt Hill
#
# Bulk Modulus (GPa) = 49.70233 51.45894 50.58063
# Shear Modulus (GPa) = -21.05670 21.55624 0.24977
#
# Velocity S-wave (km/s) = -3.42197 3.46232 0.37269
# Velocity P-wave (km/s) = 3.46798 6.67836 5.32106
#
# Compressibility (1/GPa) = 0.02011978
#
# Stress axis : x y z
#
# Youngs Moduli (GPa) = 76.63724 70.98382 86.54202
#
# Poissons Ratio (x) = 0.22587 0.39234
# Poissons Ratio (y) = 0.24386 0.13589
# Poissons Ratio (z) = 0.34743 0.11146
#
# Static dielectric constant tensor:
#      x y z
#    x 3.209480 0.000000 0.000000 
#    y 0.000000 3.340670 0.000000 
#    z 0.000000 0.000000 3.438960 
# 
# 
# High freq. dielectric constant tensor:
#      x y z
#    x 1.649940 0.000000 0.000000 
#    y 0.000000 1.699800 0.000000 
#    z 0.000000 0.000000 1.710880 
# 
# From -- ./inp_files/29861.got.cif
#   From: 2010.03.12/outbox.cif.g09.slc.cpg/sg50_15_cif.got.tgz:29861.got - 2010.04.16 13:23:21.
