data_PCOD8204124
_publ_section_title
;
Structure prediction by ZEFSAII (Michael W. Deem and Ramdas Pophale) SiO2 
 PCOD8204124
Probable space group: P C C M
;
_chemical_formula_sum "Si O2"
_cell_formula_units_Z 58
_cell_length_a 15.046343
_cell_length_b 23.213729
_cell_length_c 9.737395
_cell_angle_alpha 90.000000
_cell_angle_beta 90.000000
_cell_angle_gamma 90.000000
_cell_volume 3401.094160
_symmetry_space_group_name_H-M "P C C M"
_symmetry_group_IT_number 49
_symmetry_cell_setting 'orthorhombic'
loop_
_space_group_symop_operation_xyz
x,y,z
-x,-y,z
x,-y,1/2-z
-x,y,1/2-z
-x,-y,-z
x,y,-z
-x,y,1/2+z
x,-y,1/2+z
loop_
_atom_site_type_symbol
_atom_site_label
_atom_site_fract_x
_atom_site_fract_y
_atom_site_fract_z
Si Si1 0.500000 0.500000 0.250000
Si Si2 0.671878 0.549349 0.655421
Si Si3 0.582975 0.241262 0.840266
Si Si4 0.916878 0.723139 0.340169
Si Si5 0.767700 0.053937 0.840503
Si Si6 0.267182 0.327006 0.662620
Si Si7 0.918599 0.856469 0.657175
Si Si8 0.581953 0.891979 0.657817
O O1 0.435877 0.458522 0.340968
O O2 0.717370 0.500000 0.750000
O O3 0.706054 0.542458 0.500000
O O4 0.700481 0.610962 0.717562
O O5 0.500000 0.261380 0.750000
O O6 0.666545 0.277517 0.784664
O O7 0.604902 0.174559 0.814798
O O8 0.562208 0.253625 0.000000
O O9 0.937719 0.711531 0.500000
O O10 0.832377 0.686723 0.286975
O O11 0.895383 0.790080 0.313874
O O12 0.000000 0.702370 0.250000
O O13 0.831662 0.107156 0.805343
O O14 0.667828 0.071441 0.800384
O O15 0.797909 0.000000 0.750000
O O16 0.774490 0.037097 0.000000
O O17 0.269280 0.326382 0.500000
O O18 0.947183 0.865857 0.500000
O O19 0.000000 0.877944 0.750000
O O20 0.500000 0.913366 0.750000
O O21 0.555434 0.902000 0.500000
#
# Coordination Sequence:
#
# PCOD8204124 Si02
#       8
#     2   8   8   8   8   8   8   8
#     4   8  18  28  46  64  96 128 170 196 228 264
#     4   9  18  30  46  67  95 129 164 197 232 272
#     4   9  17  29  47  70  96 124 155 190 236 286
#     4   9  17  32  54  75  97 123 156 195 240 288
#     4  10  21  35  50  69  94 124 160 195 234 280
#     4   9  17  30  49  72  97 129 161 193 237 291
#     4   9  18  33  53  75  97 124 153 189 236 290
#     4   9  18  33  50  68  92 123 157 196 237 283
#
# _framework density 17.053336000000002
#
# number of rings (size 3 to 8) (size 9 to 14) (size 15 to 20)
#    0.414    2.483    0.000    1.034    0.966    4.966 
#    0.000    4.828    0.000    7.034    0.000    2.897 
#    0.000    0.000    0.000    0.000    0.000    0.000 
#
# Total GULP energy -719057.940199 kJ/mol
# GULP energy per Si atom -12397.550693 kJ/mol
# Density = 1.701452 g / cm^3
# Si number density = 17.053336 Si / 1000 Ang^3
#
#
#
# Elastic Constant Matrix: (Units=GPa)
#
#
# Indices 1 2 3 4 5 6 
#
# 1 115.4899 48.7583 41.7231 0.0000 0.0000 0.0000
# 2 48.7583 71.9053 30.4763 0.0000 0.0000 0.0000
# 3 41.7231 30.4763 54.3343 0.0000 0.0000 0.0000
# 4 0.0000 0.0000 0.0000 18.0642 0.0000 0.0000
# 5 0.0000 0.0000 0.0000 0.0000 28.9455 0.0000
# 6 0.0000 0.0000 0.0000 0.0000 0.0000 22.1472
#
#
#
# Elastic Compliance Matrix: (Units=1/GPa)
#
#
# Indices 1 2 3 4 5 6 
#
# 1 0.013943 -0.006450 -0.007089 0.000000 0.000000 0.000000
# 2 -0.006450 0.021228 -0.006954 0.000000 0.000000 0.000000
# 3 -0.007089 -0.006954 0.027749 0.000000 0.000000 0.000000
# 4 0.000000 0.000000 0.000000 0.055358 0.000000 0.000000
# 5 0.000000 0.000000 0.000000 0.000000 0.034548 0.000000
# 6 0.000000 0.000000 0.000000 0.000000 0.000000 0.045152
#
#
# Mechanical properties :
#
#
# Convention : Reuss Voigt Hill
#
# Bulk Modulus (GPa) = 45.59146 53.73832 49.66489
# Shear Modulus (GPa) = 20.30250 21.88284 21.09267
#
# Velocity S-wave (km/s) = 3.45415 3.58606 3.52072
# Velocity P-wave (km/s) = 6.53459 6.98046 6.76120
#
# Compressibility (1/GPa) = 0.02193393
#
# Stress axis : x y z
#
# Youngs Moduli (GPa) = 71.72131 47.10704 36.03781
#
# Poissons Ratio (x) = 0.30384 0.25547
# Poissons Ratio (y) = 0.46260 0.25061
# Poissons Ratio (z) = 0.50842 0.32759
#
# Static dielectric constant tensor:
#      x y z
#    x 3.204770 0.000000 0.000000 
#    y 0.000000 3.172410 0.000000 
#    z 0.000000 0.000000 3.058120 
# 
# 
# High freq. dielectric constant tensor:
#      x y z
#    x 1.651500 0.000000 0.000000 
#    y 0.000000 1.650980 0.000000 
#    z 0.000000 0.000000 1.642320 
# 
# From -- ./inp_files/4274.got.cif
#   From: 2010.03.12/outbox.cif.g09.slc.cpg/sg49_3_cif.got.tgz:4274.got - 2010.04.14 03:58:27.
