data_PCOD8204001
_publ_section_title
;
Structure prediction by ZEFSAII (Michael W. Deem and Ramdas Pophale) SiO2 
 PCOD8204001
Probable space group: P C C M
;
_chemical_formula_sum "Si O2"
_cell_formula_units_Z 58
_cell_length_a 17.130440
_cell_length_b 9.809137
_cell_length_c 17.831390
_cell_angle_alpha 90.000000
_cell_angle_beta 90.000000
_cell_angle_gamma 90.000000
_cell_volume 2996.294638
_symmetry_space_group_name_H-M "P C C M"
_symmetry_group_IT_number 49
_symmetry_cell_setting 'orthorhombic'
loop_
_space_group_symop_operation_xyz
x,y,z
-x,-y,z
x,-y,1/2-z
-x,y,1/2-z
-x,-y,-z
x,y,-z
-x,y,1/2+z
x,-y,1/2+z
loop_
_atom_site_type_symbol
_atom_site_label
_atom_site_fract_x
_atom_site_fract_y
_atom_site_fract_z
Si Si1 0.585251 0.655628 0.272445
Si Si2 0.236122 0.544793 0.582410
Si Si3 0.253215 0.976246 0.914211
Si Si4 0.076886 0.423888 0.415953
Si Si5 0.343370 0.296031 0.582447
Si Si6 0.132689 0.825564 0.178112
Si Si7 0.000000 0.000000 0.750000
Si Si8 0.732608 0.778142 0.802346
O O1 0.600268 0.500000 0.250000
O O2 0.500000 0.708458 0.250000
O O3 0.586599 0.665292 0.362387
O O4 0.652457 0.757726 0.243219
O O5 0.266376 0.594519 0.500000
O O6 0.143056 0.538968 0.580484
O O7 0.268762 0.392834 0.599650
O O8 0.259721 0.643288 0.648708
O O9 0.318672 0.860361 0.908773
O O10 0.171167 0.914074 0.887886
O O11 0.278119 0.096205 0.858461
O O12 0.244593 0.029083 0.000000
O O13 0.064851 0.360906 0.500000
O O14 0.101964 0.315376 0.354338
O O15 0.000000 0.500000 0.387229
O O16 0.376635 0.323684 0.500000
O O17 0.194208 0.802591 0.246657
O O18 0.055326 0.904735 0.201055
#
# Coordination Sequence:
#
# PCOD8204001 Si02
#       8
#     8   8   8   8   8   8   2   8
#     4  11  23  41  66 101 132 164 210 265 323 377
#     4  10  20  37  60  89 122 165 213 259 311 377
#     4  11  22  41  67  92 122 168 216 258 312 380
#     4  10  22  39  60  88 120 161 213 263 317 377
#     4  10  20  39  65  91 125 171 213 251 313 388
#     4  12  24  42  63  86 127 166 212 260 319 377
#     4  12  28  44  52  92 126 164 210 262 312 372
#     4  12  23  40  64  94 127 165 212 261 315 379
#
# _framework density 19.357240999999998
#
# number of rings (size 3 to 8) (size 9 to 14) (size 15 to 20)
#    0.000    1.103    5.517    0.828    1.931    0.000 
#    0.000    5.517    0.000    1.655    0.000    0.000 
#    0.000    0.000    0.000    0.000    0.000    0.000 
#
# Total GULP energy -719035.877722 kJ/mol
# GULP energy per Si atom -12397.170306 kJ/mol
# Density = 1.931318 g / cm^3
# Si number density = 19.357241 Si / 1000 Ang^3
#
#
#
# Elastic Constant Matrix: (Units=GPa)
#
#
# Indices 1 2 3 4 5 6 
#
# 1 120.1013 32.7587 63.9406 0.0000 0.0000 0.0000
# 2 32.7587 93.4818 60.0499 0.0000 0.0000 0.0000
# 3 63.9406 60.0499 148.3488 0.0000 0.0000 0.0000
# 4 0.0000 0.0000 0.0000 42.1299 0.0000 0.0000
# 5 0.0000 0.0000 0.0000 0.0000 19.6581 0.0000
# 6 0.0000 0.0000 0.0000 0.0000 0.0000 20.9243
#
#
#
# Elastic Compliance Matrix: (Units=1/GPa)
#
#
# Indices 1 2 3 4 5 6 
#
# 1 0.010886 -0.001082 -0.004254 0.000000 0.000000 0.000000
# 2 -0.001082 0.014564 -0.005429 0.000000 0.000000 0.000000
# 3 -0.004254 -0.005429 0.010772 0.000000 0.000000 0.000000
# 4 0.000000 0.000000 0.000000 0.023736 0.000000 0.000000
# 5 0.000000 0.000000 0.000000 0.000000 0.050870 0.000000
# 6 0.000000 0.000000 0.000000 0.000000 0.000000 0.047791
#
#
# Mechanical properties :
#
#
# Convention : Reuss Voigt Hill
#
# Bulk Modulus (GPa) = 68.06478 75.04781 71.55629
# Shear Modulus (GPa) = 27.02020 30.22131 28.62075
#
# Velocity S-wave (km/s) = 3.74019 3.95554 3.84937
# Velocity P-wave (km/s) = 7.34103 7.72760 7.53680
#
# Compressibility (1/GPa) = 0.01469189
#
# Stress axis : x y z
#
# Youngs Moduli (GPa) = 91.85844 68.66337 92.83329
#
# Poissons Ratio (x) = 0.07430 0.39492
# Poissons Ratio (y) = 0.09940 0.50398
# Poissons Ratio (z) = 0.39078 0.37276
#
# Static dielectric constant tensor:
#      x y z
#    x 3.415260 0.000000 0.000000 
#    y 0.000000 3.468070 0.000000 
#    z 0.000000 0.000000 3.878370 
# 
# 
# High freq. dielectric constant tensor:
#      x y z
#    x 1.736560 0.000000 0.000000 
#    y 0.000000 1.749480 0.000000 
#    z 0.000000 0.000000 1.774040 
# 
# From -- ./inp_files/16501.got.cif
#   From: 2010.03.12/outbox.cif.g09.slc.cpg/sg49_9_cif.got.tgz:16501.got - 2010.04.14 03:58:27.
