data_PCOD8204689
_publ_section_title
;
Structure prediction by ZEFSAII (Michael W. Deem and Ramdas Pophale) SiO2 
 PCOD8204689
Probable space group: P C C M
;
_chemical_formula_sum "Si O2"
_cell_formula_units_Z 18
_cell_length_a 6.634666
_cell_length_b 11.137613
_cell_length_c 10.510036
_cell_angle_alpha 90.000000
_cell_angle_beta 90.000000
_cell_angle_gamma 90.000000
_cell_volume 776.632198
_symmetry_space_group_name_H-M "P C C M"
_symmetry_group_IT_number 49
_symmetry_cell_setting 'orthorhombic'
loop_
_space_group_symop_operation_xyz
x,y,z
-x,-y,z
x,-y,1/2-z
-x,y,1/2-z
-x,-y,-z
x,y,-z
-x,y,1/2+z
x,-y,1/2+z
loop_
_atom_site_type_symbol
_atom_site_label
_atom_site_fract_x
_atom_site_fract_y
_atom_site_fract_z
Si Si1 0.658101 0.156013 0.355328
Si Si2 0.000000 0.000000 0.250000
Si Si3 0.714429 0.566220 0.863231
O O1 0.500000 0.107645 0.250000
O O2 0.575320 0.137390 0.500000
O O3 0.694936 0.295187 0.327564
O O4 0.865724 0.084010 0.340708
O O5 0.500000 0.500000 0.872196
O O6 0.839019 0.500000 0.750000
O O7 0.825039 0.552773 0.000000
#
# Coordination Sequence:
#
# PCOD8204689 Si02
#       3
#     8   2   8
#     4  11  24  44  71  99 133 178 223 276 334 392
#     4  12  28  44  62  96 142 180 226 268 322 406
#     4   9  16  32  63  97 124 158 210 267 328 388
#
# _framework density 23.176995000000002
#
# number of rings (size 3 to 8) (size 9 to 14) (size 15 to 20)
#    0.000    1.778    4.444    1.333    0.000    5.333 
#    0.000    1.111    0.000    5.333    0.000    0.000 
#    0.000    0.000    0.000    0.000    0.000    0.000 
#
# Total GULP energy -223011.450163 kJ/mol
# GULP energy per Si atom -12389.525009 kJ/mol
# Density = 2.312424 g / cm^3
# Si number density = 23.176995 Si / 1000 Ang^3
#
#
#
# Elastic Constant Matrix: (Units=GPa)
#
#
# Indices 1 2 3 4 5 6 
#
# 1 90.7358 55.8884 39.5072 0.0000 0.0000 0.0000
# 2 55.8884 168.4327 52.0242 0.0000 0.0000 0.0000
# 3 39.5072 52.0242 237.6721 0.0000 0.0000 0.0000
# 4 0.0000 0.0000 0.0000 -9.4741 0.0000 0.0000
# 5 0.0000 0.0000 0.0000 0.0000 18.0473 0.0000
# 6 0.0000 0.0000 0.0000 0.0000 0.0000 18.0676
#
#
#
# Elastic Compliance Matrix: (Units=1/GPa)
#
#
# Indices 1 2 3 4 5 6 
#
# 1 0.014294 -0.004300 -0.001435 0.000000 0.000000 0.000000
# 2 -0.004300 0.007661 -0.000962 0.000000 0.000000 0.000000
# 3 -0.001435 -0.000962 0.004657 0.000000 0.000000 0.000000
# 4 0.000000 0.000000 0.000000 -0.105551 0.000000 0.000000
# 5 0.000000 0.000000 0.000000 0.000000 0.055410 0.000000
# 6 0.000000 0.000000 0.000000 0.000000 0.000000 0.055348
#
#
# Mechanical properties :
#
#
# Convention : Reuss Voigt Hill
#
# Bulk Modulus (GPa) = 75.65397 87.96445 81.80921
# Shear Modulus (GPa) = 100.76947 28.62288 64.69618
#
# Velocity S-wave (km/s) = 6.60096 3.51803 5.28910
# Velocity P-wave (km/s) = 9.52940 7.38497 8.52488
#
# Compressibility (1/GPa) = 0.01321808
#
# Stress axis : x y z
#
# Youngs Moduli (GPa) = 69.95824 130.53072 214.74876
#
# Poissons Ratio (x) = 0.56126 0.30814
# Poissons Ratio (y) = 0.30081 0.20663
# Poissons Ratio (z) = 0.10038 0.12559
#
# Static dielectric constant tensor:
#      x y z
#    x 3.697240 0.000000 0.000000 
#    y 0.000000 4.291650 0.000000 
#    z 0.000000 0.000000 6.399960 
# 
# 
# High freq. dielectric constant tensor:
#      x y z
#    x 1.877910 0.000000 0.000000 
#    y 0.000000 1.938610 0.000000 
#    z 0.000000 0.000000 1.941660 
# 
# From -- ./inp_files/7169.got.cif
#   From: 2010.03.12/outbox.cif.g09.slc.cpg/sg49_4_cif.got.tgz:7169.got - 2010.04.14 03:58:27.
