data_PCOD8204498
_publ_section_title
;
Structure prediction by ZEFSAII (Michael W. Deem and Ramdas Pophale) SiO2 
 PCOD8204498
Probable space group: P C C M
;
_chemical_formula_sum "Si O2"
_cell_formula_units_Z 56
_cell_length_a 15.269158
_cell_length_b 8.682181
_cell_length_c 20.392161
_cell_angle_alpha 90.000000
_cell_angle_beta 90.000000
_cell_angle_gamma 90.000000
_cell_volume 2703.380494
_symmetry_space_group_name_H-M "P C C M"
_symmetry_group_IT_number 49
_symmetry_cell_setting 'orthorhombic'
loop_
_space_group_symop_operation_xyz
x,y,z
-x,-y,z
x,-y,1/2-z
-x,y,1/2-z
-x,-y,-z
x,y,-z
-x,y,1/2+z
x,-y,1/2+z
loop_
_atom_site_type_symbol
_atom_site_label
_atom_site_fract_x
_atom_site_fract_y
_atom_site_fract_z
Si Si1 0.549682 0.654273 0.074734
Si Si2 0.131313 0.094645 0.924946
Si Si3 0.056259 0.232777 0.423443
Si Si4 0.277496 0.829339 0.769228
Si Si5 0.852180 0.419956 0.182581
Si Si6 0.269262 0.312416 0.862969
Si Si7 0.535678 0.832417 0.685513
O O1 0.500000 0.500000 0.094762
O O2 0.653776 0.645116 0.086839
O O3 0.503470 0.783006 0.116928
O O4 0.533344 0.697803 0.000000
O O5 0.210731 0.166426 0.884363
O O6 0.042194 0.182985 0.907485
O O7 0.120736 0.912580 0.910594
O O8 0.154761 0.121408 0.000000
O O9 0.065402 0.286385 0.500000
O O10 0.075619 0.371154 0.371910
O O11 0.196161 0.738259 0.799268
O O12 0.312433 0.737473 0.705458
O O13 0.358778 0.831856 0.819344
O O14 0.245336 0.000000 0.750000
O O15 0.889990 0.500000 0.250000
O O16 0.787881 0.534904 0.145181
O O17 0.500000 0.737904 0.750000
O O18 0.500000 0.000000 0.696281
#
# Coordination Sequence:
#
# PCOD8204498 Si02
#       7
#     8   8   8   8   8   8   8
#     4  11  24  39  56  83 121 159 197 245 300 359
#     4   9  19  37  64  90 116 152 202 248 298 364
#     4   9  19  39  63  89 117 157 202 246 299 359
#     4  11  20  37  59  84 113 151 202 249 295 357
#     4  10  23  37  56  88 122 158 195 242 299 353
#     4  11  21  37  57  85 118 156 197 244 296 357
#     4  11  20  38  61  87 108 147 201 247 299 347
#
# _framework density 20.714804000000001
#
# number of rings (size 3 to 8) (size 9 to 14) (size 15 to 20)
#    0.000    1.714    2.857    3.000    0.000    2.286 
#    0.000    7.143    0.000    7.714    0.000    0.000 
#    0.000    0.000    0.000    0.000    0.000    0.000 
#
# Total GULP energy -694143.532953 kJ/mol
# GULP energy per Si atom -12395.420231 kJ/mol
# Density = 2.066766 g / cm^3
# Si number density = 20.714804 Si / 1000 Ang^3
#
#
#
# Elastic Constant Matrix: (Units=GPa)
#
#
# Indices 1 2 3 4 5 6 
#
# 1 79.2173 26.3028 39.6426 0.0000 0.0000 0.0000
# 2 26.3028 71.5812 39.9888 0.0000 0.0000 0.0000
# 3 39.6426 39.9888 90.5102 0.0000 0.0000 0.0000
# 4 0.0000 0.0000 0.0000 54.2833 0.0000 0.0000
# 5 0.0000 0.0000 0.0000 0.0000 29.1282 0.0000
# 6 0.0000 0.0000 0.0000 0.0000 0.0000 29.3246
#
#
#
# Elastic Compliance Matrix: (Units=1/GPa)
#
#
# Indices 1 2 3 4 5 6 
#
# 1 0.016550 -0.002698 -0.006057 0.000000 0.000000 0.000000
# 2 -0.002698 0.018988 -0.007208 0.000000 0.000000 0.000000
# 3 -0.006057 -0.007208 0.016886 0.000000 0.000000 0.000000
# 4 0.000000 0.000000 0.000000 0.018422 0.000000 0.000000
# 5 0.000000 0.000000 0.000000 0.000000 0.034331 0.000000
# 6 0.000000 0.000000 0.000000 0.000000 0.000000 0.034101
#
#
# Mechanical properties :
#
#
# Convention : Reuss Voigt Hill
#
# Bulk Modulus (GPa) = 48.78179 50.35303 49.56741
# Shear Modulus (GPa) = 28.08423 31.57218 29.82820
#
# Velocity S-wave (km/s) = 3.68605 3.90825 3.79878
# Velocity P-wave (km/s) = 6.45882 6.68778 6.57430
#
# Compressibility (1/GPa) = 0.02049945
#
# Stress axis : x y z
#
# Youngs Moduli (GPa) = 60.42170 52.66489 59.22131
#
# Poissons Ratio (x) = 0.14208 0.35870
# Poissons Ratio (y) = 0.16300 0.42684
# Poissons Ratio (z) = 0.36597 0.37959
#
# Static dielectric constant tensor:
#      x y z
#    x 3.575920 0.000000 0.000000 
#    y 0.000000 3.676520 0.000000 
#    z 0.000000 0.000000 3.795490 
# 
# 
# High freq. dielectric constant tensor:
#      x y z
#    x 1.804880 0.000000 0.000000 
#    y 0.000000 1.809520 0.000000 
#    z 0.000000 0.000000 1.814400 
# 
# From -- ./inp_files/20864.got.cif
#   From: 2010.03.12/outbox.cif.g09.slc.cpg/sg49_11_cif.got.tgz:20864.got - 2010.04.14 03:58:27.
