data_PCOD8204158
_publ_section_title
;
Structure prediction by ZEFSAII (Michael W. Deem and Ramdas Pophale) SiO2 
 PCOD8204158
Probable space group: P C C M
;
_chemical_formula_sum "Si O2"
_cell_formula_units_Z 48
_cell_length_a 9.373147
_cell_length_b 30.430024
_cell_length_c 8.599894
_cell_angle_alpha 90.000000
_cell_angle_beta 90.000000
_cell_angle_gamma 90.000000
_cell_volume 2452.905524
_symmetry_space_group_name_H-M "P C C M"
_symmetry_group_IT_number 49
_symmetry_cell_setting 'orthorhombic'
loop_
_space_group_symop_operation_xyz
x,y,z
-x,-y,z
x,-y,1/2-z
-x,y,1/2-z
-x,-y,-z
x,y,-z
-x,y,1/2+z
x,-y,1/2+z
loop_
_atom_site_type_symbol
_atom_site_label
_atom_site_fract_x
_atom_site_fract_y
_atom_site_fract_z
Si Si1 0.847126 0.625790 0.815935
Si Si2 0.155055 0.878895 0.682064
Si Si3 0.349799 0.952134 0.183816
Si Si4 0.656115 0.455121 0.316473
Si Si5 0.154878 0.281252 0.683488
Si Si6 0.344291 0.794388 0.317959
O O1 0.744598 0.586881 0.760770
O O2 0.792631 0.671520 0.744499
O O3 0.000000 0.613311 0.750000
O O4 0.854088 0.630797 0.000000
O O5 0.144998 0.888610 0.500000
O O6 0.221266 0.920866 0.766893
O O7 0.251712 0.837084 0.719455
O O8 0.000000 0.869249 0.750000
O O9 0.500000 0.934046 0.250000
O O10 0.315770 0.000000 0.250000
O O11 0.361560 0.954609 0.000000
O O12 0.725864 0.500000 0.250000
O O13 0.500000 0.448790 0.250000
O O14 0.650221 0.458782 0.500000
O O15 0.141495 0.282441 0.500000
O O16 0.273313 0.246761 0.733888
O O17 0.000000 0.268325 0.750000
O O18 0.500000 0.802586 0.250000
O O19 0.353507 0.784663 0.500000
#
# Coordination Sequence:
#
# PCOD8204158 Si02
#       6
#     8   8   8   8   8   8
#     4  10  21  37  57  83 113 147 188 232 281 337
#     4  11  24  41  62  89 120 156 197 241 291 345
#     4  11  22  39  63  90 122 158 198 243 292 346
#     4  10  21  36  56  80 109 145 185 230 279 335
#     4  11  22  38  61  86 116 152 190 235 286 341
#     4  11  24  41  62  88 119 153 193 239 287 343
#
# _framework density 19.568631
#
# number of rings (size 3 to 8) (size 9 to 14) (size 15 to 20)
#    0.000    1.333    0.000    8.000    0.000    9.333 
#    0.000    5.000    0.000    0.000    0.000    0.000 
#    0.000    0.000    0.000    0.000    0.000    0.000 
#
# Total GULP energy -595441.514210 kJ/mol
# GULP energy per Si atom -12405.031546 kJ/mol
# Density = 1.952409 g / cm^3
# Si number density = 19.568631 Si / 1000 Ang^3
#
#
#
# Elastic Constant Matrix: (Units=GPa)
#
#
# Indices 1 2 3 4 5 6 
#
# 1 113.4033 75.4463 56.9779 0.0000 0.0000 0.0000
# 2 75.4463 128.0925 68.4467 0.0000 0.0000 0.0000
# 3 56.9779 68.4467 140.6252 0.0000 0.0000 0.0000
# 4 0.0000 0.0000 0.0000 41.4449 0.0000 0.0000
# 5 0.0000 0.0000 0.0000 0.0000 33.4262 0.0000
# 6 0.0000 0.0000 0.0000 0.0000 0.0000 86.6681
#
#
#
# Elastic Compliance Matrix: (Units=1/GPa)
#
#
# Indices 1 2 3 4 5 6 
#
# 1 0.015084 -0.007593 -0.002416 0.000000 0.000000 0.000000
# 2 -0.007593 0.014374 -0.003919 0.000000 0.000000 0.000000
# 3 -0.002416 -0.003919 0.009998 0.000000 0.000000 0.000000
# 4 0.000000 0.000000 0.000000 0.024128 0.000000 0.000000
# 5 0.000000 0.000000 0.000000 0.000000 0.029917 0.000000
# 6 0.000000 0.000000 0.000000 0.000000 0.000000 0.011538
#
#
# Mechanical properties :
#
#
# Convention : Reuss Voigt Hill
#
# Bulk Modulus (GPa) = 86.22195 87.09587 86.65891
# Shear Modulus (GPa) = 36.56007 44.39119 40.47563
#
# Velocity S-wave (km/s) = 4.32707 4.76803 4.55289
# Velocity P-wave (km/s) = 8.31395 8.65544 8.48641
#
# Compressibility (1/GPa) = 0.01159797
#
# Stress axis : x y z
#
# Youngs Moduli (GPa) = 66.29718 69.57109 100.02447
#
# Poissons Ratio (x) = 0.52829 0.24161
# Poissons Ratio (y) = 0.50343 0.39204
# Poissons Ratio (z) = 0.16014 0.27268
#
# Static dielectric constant tensor:
#      x y z
#    x 3.604580 0.000000 0.000000 
#    y 0.000000 3.812320 0.000000 
#    z 0.000000 0.000000 3.736770 
# 
# 
# High freq. dielectric constant tensor:
#      x y z
#    x 1.762400 0.000000 0.000000 
#    y 0.000000 1.777350 0.000000 
#    z 0.000000 0.000000 1.783340 
# 
# From -- ./inp_files/2121.got.cif
#   From: 2010.03.12/outbox.cif.g09.slc.cpg/sg49_2_cif.got.tgz:2121.got - 2010.04.14 03:58:27.
