data_PCOD8204696
_publ_section_title
;
Structure prediction by ZEFSAII (Michael W. Deem and Ramdas Pophale) SiO2 
 PCOD8204696
Probable space group: P C C M
;
_chemical_formula_sum "Si O2"
_cell_formula_units_Z 40
_cell_length_a 8.106969
_cell_length_b 12.214351
_cell_length_c 16.806526
_cell_angle_alpha 90.000000
_cell_angle_beta 90.000000
_cell_angle_gamma 90.000000
_cell_volume 1664.205144
_symmetry_space_group_name_H-M "P C C M"
_symmetry_group_IT_number 49
_symmetry_cell_setting 'orthorhombic'
loop_
_space_group_symop_operation_xyz
x,y,z
-x,-y,z
x,-y,1/2-z
-x,y,1/2-z
-x,-y,-z
x,y,-z
-x,y,1/2+z
x,-y,1/2+z
loop_
_atom_site_type_symbol
_atom_site_label
_atom_site_fract_x
_atom_site_fract_y
_atom_site_fract_z
Si Si1 0.667928 0.740871 0.650480
Si Si2 0.184985 0.026944 0.658442
Si Si3 0.831371 0.661438 0.799343
Si Si4 0.680933 0.179385 0.592207
Si Si5 0.691553 0.515986 0.411053
O O1 0.682898 0.691694 0.739267
O O2 0.481421 0.771884 0.632291
O O3 0.732703 0.645244 0.591796
O O4 0.781778 0.847146 0.638844
O O5 0.306104 0.950740 0.606174
O O6 0.219921 0.000000 0.750000
O O7 0.000000 0.000000 0.633137
O O8 0.834880 0.758574 0.865342
O O9 0.799632 0.546801 0.844645
O O10 0.000000 0.657517 0.750000
O O11 0.679166 0.207759 0.500000
O O12 0.500000 0.500000 0.390558
O O13 0.732532 0.472449 0.500000
#
# Coordination Sequence:
#
# PCOD8204696 Si02
#       5
#     8   8   8   8   8
#     4  12  25  44  80 112 149 205 262 307 381 469
#     4  11  25  47  74 111 154 200 254 319 386 463
#     4  12  26  48  77 115 151 204 255 308 383 467
#     4  12  26  46  77 115 155 198 253 323 385 451
#     4  11  25  47  77 114 157 198 256 327 384 447
#
# _framework density 24.035498
#
# number of rings (size 3 to 8) (size 9 to 14) (size 15 to 20)
#    0.000    0.400    4.000    4.200    0.000    6.000 
#    0.000    9.000    0.000    0.000    0.000    0.000 
#    0.000    0.000    0.000    0.000    0.000    0.000 
#
# Total GULP energy -496043.068444 kJ/mol
# GULP energy per Si atom -12401.076711 kJ/mol
# Density = 2.398079 g / cm^3
# Si number density = 24.035498 Si / 1000 Ang^3
#
#
#
# Elastic Constant Matrix: (Units=GPa)
#
#
# Indices 1 2 3 4 5 6 
#
# 1 107.3968 66.3846 96.3282 0.0000 0.0000 0.0000
# 2 66.3846 207.2631 58.6071 0.0000 0.0000 0.0000
# 3 96.3282 58.6071 155.6819 0.0000 0.0000 0.0000
# 4 0.0000 0.0000 0.0000 38.2248 0.0000 0.0000
# 5 0.0000 0.0000 0.0000 0.0000 23.6386 0.0000
# 6 0.0000 0.0000 0.0000 0.0000 0.0000 38.3937
#
#
#
# Elastic Compliance Matrix: (Units=1/GPa)
#
#
# Indices 1 2 3 4 5 6 
#
# 1 0.023313 -0.003792 -0.012997 0.000000 0.000000 0.000000
# 2 -0.003792 0.006016 0.000081 0.000000 0.000000 0.000000
# 3 -0.012997 0.000081 0.014435 0.000000 0.000000 0.000000
# 4 0.000000 0.000000 0.000000 0.026161 0.000000 0.000000
# 5 0.000000 0.000000 0.000000 0.000000 0.042304 0.000000
# 6 0.000000 0.000000 0.000000 0.000000 0.000000 0.026046
#
#
# Mechanical properties :
#
#
# Convention : Reuss Voigt Hill
#
# Bulk Modulus (GPa) = 96.63395 101.44240 99.03817
# Shear Modulus (GPa) = 28.54862 36.65290 32.60076
#
# Velocity S-wave (km/s) = 3.45014 3.90930 3.68687
# Velocity P-wave (km/s) = 7.49422 7.91667 7.70834
#
# Compressibility (1/GPa) = 0.01034833
#
# Stress axis : x y z
#
# Youngs Moduli (GPa) = 42.89472 166.21646 69.27636
#
# Poissons Ratio (x) = 0.63024 0.90042
# Poissons Ratio (y) = 0.16264 -0.00563
# Poissons Ratio (z) = 0.55752 -0.01351
#
# Static dielectric constant tensor:
#      x y z
#    x 4.110550 0.000000 0.000000 
#    y 0.000000 4.825420 0.000000 
#    z 0.000000 0.000000 4.353190 
# 
# 
# High freq. dielectric constant tensor:
#      x y z
#    x 1.939900 0.000000 0.000000 
#    y 0.000000 1.976200 0.000000 
#    z 0.000000 0.000000 1.953110 
# 
# From -- ./inp_files/15994.got.cif
#   From: 2010.03.12/outbox.cif.g09.slc.cpg/sg49_8_cif.got.tgz:15994.got - 2010.04.14 03:58:27.
