data_PCOD8204799
_publ_section_title
;
Structure prediction by ZEFSAII (Michael W. Deem and Ramdas Pophale) SiO2 
 PCOD8204799
Probable space group: P B A N
;
_chemical_formula_sum "Si O2"
_cell_formula_units_Z 34
_cell_length_a 9.762259
_cell_length_b 20.204094
_cell_length_c 8.584401
_cell_angle_alpha 90.000000
_cell_angle_beta 90.000000
_cell_angle_gamma 90.000000
_cell_volume 1693.166638
_symmetry_space_group_name_H-M "P B A N"
_symmetry_group_IT_number 50
_space_group.IT_coordinate_system_code '2'
_symmetry_cell_setting 'orthorhombic'
loop_
_space_group_symop_operation_xyz
x,y,z
1/2-x,1/2-y,z
x,1/2-y,-z
1/2-x,y,-z
-x,-y,-z
1/2+x,1/2+y,-z
-x,1/2+y,z
1/2+x,-y,z
loop_
_atom_site_type_symbol
_atom_site_label
_atom_site_fract_x
_atom_site_fract_y
_atom_site_fract_z
Si Si1 0.296541 0.159959 0.755646
Si Si2 0.286068 0.017258 0.329151
Si Si3 0.750000 0.750000 0.500000
Si Si4 0.449963 0.959147 0.851442
Si Si5 0.536999 0.821435 0.956607
O O1 0.265334 0.091419 0.675975
O O2 0.346398 0.205985 0.612474
O O3 0.163819 0.193087 0.840272
O O4 0.414169 0.147412 0.880474
O O5 0.250000 0.987850 0.500000
O O6 0.447478 0.018774 0.288636
O O7 0.204819 0.975515 0.197885
O O8 0.444837 0.879349 0.881489
O O9 0.500000 0.000000 0.000000
O O10 0.465969 0.750000 0.000000
#
# Coordination Sequence:
#
# PCOD8204799 Si02
#       5
#     8   8   2   8   8
#     4  10  18  28  51  79 116 144 183 237 297 347
#     4  11  22  37  55  88 121 154 191 242 301 346
#     4  12  16  26  48  84 116 148 172 242 316 340
#     4  11  22  37  60  84 115 157 198 240 287 352
#     4  10  18  33  51  79 109 149 193 239 284 341
#
# _framework density 20.080717
#
# number of rings (size 3 to 8) (size 9 to 14) (size 15 to 20)
#    0.000    1.412    5.882    2.118    0.000    0.000 
#    0.000    0.000    0.000    2.824    0.000    1.647 
#    0.000    0.000    0.000    0.000    0.000    0.000 
#
# Total GULP energy -421226.865267 kJ/mol
# GULP energy per Si atom -12389.025449 kJ/mol
# Density = 2.003501 g / cm^3
# Si number density = 20.080717 Si / 1000 Ang^3
#
#
#
# Elastic Constant Matrix: (Units=GPa)
#
#
# Indices 1 2 3 4 5 6 
#
# 1 38.6377 21.3896 0.2839 0.0000 0.0000 0.0000
# 2 21.3896 97.4752 19.7289 0.0000 0.0000 0.0000
# 3 0.2839 19.7289 94.9501 0.0000 0.0000 0.0000
# 4 0.0000 0.0000 0.0000 36.4733 0.0000 0.0000
# 5 0.0000 0.0000 0.0000 0.0000 19.5687 0.0000
# 6 0.0000 0.0000 0.0000 0.0000 0.0000 23.3532
#
#
#
# Elastic Compliance Matrix: (Units=1/GPa)
#
#
# Indices 1 2 3 4 5 6 
#
# 1 0.029617 -0.006766 0.001317 0.000000 0.000000 0.000000
# 2 -0.006766 0.012255 -0.002526 0.000000 0.000000 0.000000
# 3 0.001317 -0.002526 0.011053 0.000000 0.000000 0.000000
# 4 0.000000 0.000000 0.000000 0.027417 0.000000 0.000000
# 5 0.000000 0.000000 0.000000 0.000000 0.051102 0.000000
# 6 0.000000 0.000000 0.000000 0.000000 0.000000 0.042821
#
#
# Mechanical properties :
#
#
# Convention : Reuss Voigt Hill
#
# Bulk Modulus (GPa) = 27.04474 34.87421 30.95948
# Shear Modulus (GPa) = 24.68655 28.52308 26.60481
#
# Velocity S-wave (km/s) = 3.51004 3.77294 3.64386
# Velocity P-wave (km/s) = 5.47032 6.03198 5.75800
#
# Compressibility (1/GPa) = 0.03697576
#
# Stress axis : x y z
#
# Youngs Moduli (GPa) = 33.76415 81.59975 90.47492
#
# Poissons Ratio (x) = 0.55208 -0.11918
# Poissons Ratio (y) = 0.22844 0.22855
# Poissons Ratio (z) = -0.04448 0.20613
#
# Static dielectric constant tensor:
#      x y z
#    x 3.215720 0.000000 0.000000 
#    y 0.000000 3.798680 0.000000 
#    z 0.000000 0.000000 3.860040 
# 
# 
# High freq. dielectric constant tensor:
#      x y z
#    x 1.712400 0.000000 0.000000 
#    y 0.000000 1.797240 0.000000 
#    z 0.000000 0.000000 1.801230 
# 
# From -- ./inp_files/9239.got.cif
#   From: 2010.03.12/outbox.cif.g09.slc.cpg/sg50_5_cif.got.tgz:9239.got - 2010.04.16 13:23:21.
