data_PCOD8204473
_publ_section_title
;
Structure prediction by ZEFSAII (Michael W. Deem and Ramdas Pophale) SiO2 
 PCOD8204473
Probable space group: P C C M
;
_chemical_formula_sum "Si O2"
_cell_formula_units_Z 24
_cell_length_a 12.680228
_cell_length_b 5.688844
_cell_length_c 14.725307
_cell_angle_alpha 90.000000
_cell_angle_beta 90.000000
_cell_angle_gamma 90.000000
_cell_volume 1062.222375
_symmetry_space_group_name_H-M "P C C M"
_symmetry_group_IT_number 49
_symmetry_cell_setting 'orthorhombic'
loop_
_space_group_symop_operation_xyz
x,y,z
-x,-y,z
x,-y,1/2-z
-x,y,1/2-z
-x,-y,-z
x,y,-z
-x,y,1/2+z
x,-y,1/2+z
loop_
_atom_site_type_symbol
_atom_site_label
_atom_site_fract_x
_atom_site_fract_y
_atom_site_fract_z
Si Si1 0.405194 0.821127 0.598989
Si Si2 0.062305 0.754334 0.000000
Si Si3 0.785774 0.122858 0.839791
Si Si4 0.643060 0.500000 0.250000
O O1 0.405280 0.697343 0.500000
O O2 0.430068 0.640799 0.679576
O O3 0.500000 0.000000 0.605305
O O4 0.289843 0.935497 0.610911
O O5 0.129122 0.766986 0.092308
O O6 0.000000 0.500000 0.000000
O O7 0.000000 0.000000 0.000000
O O8 0.715365 0.338875 0.811251
O O9 0.837990 0.000000 0.750000
#
# Coordination Sequence:
#
# PCOD8204473 Si02
#       4
#     8   4   8   4
#     4  10  22  41  71 106 146 189 238 290 362 446
#     4  12  30  50  79 107 145 193 252 318 382 447
#     4  10  24  45  71 107 146 185 239 304 368 444
#     4  10  24  41  73  98 148 186 239 294 363 440
#
# _framework density 22.594138999999998
#
# number of rings (size 3 to 8) (size 9 to 14) (size 15 to 20)
#    0.000    1.667    1.667    0.000   11.667    9.333 
#    0.000    3.333    0.000    1.000    0.000    0.000 
#    0.000    0.000    0.000    0.000    0.000    0.000 
#
# Total GULP energy -297416.382398 kJ/mol
# GULP energy per Si atom -12392.349267 kJ/mol
# Density = 2.254271 g / cm^3
# Si number density = 22.594139 Si / 1000 Ang^3
#
#
#
# Elastic Constant Matrix: (Units=GPa)
#
#
# Indices 1 2 3 4 5 6 
#
# 1 84.8719 34.6306 74.2923 0.0000 0.0000 0.0000
# 2 34.6306 108.3769 79.7581 0.0000 0.0000 0.0000
# 3 74.2923 79.7581 240.9560 0.0000 0.0000 0.0000
# 4 0.0000 0.0000 0.0000 10.2010 0.0000 0.0000
# 5 0.0000 0.0000 0.0000 0.0000 37.3378 0.0000
# 6 0.0000 0.0000 0.0000 0.0000 0.0000 -0.0129
#
#
#
# Elastic Compliance Matrix: (Units=1/GPa)
#
#
# Indices 1 2 3 4 5 6 
#
# 1 0.016465 -0.002016 -0.004409 0.000000 0.000000 0.000000
# 2 -0.002016 0.012446 -0.003498 0.000000 0.000000 0.000000
# 3 -0.004409 -0.003498 0.006667 0.000000 0.000000 0.000000
# 4 0.000000 0.000000 0.000000 0.098029 0.000000 0.000000
# 5 0.000000 0.000000 0.000000 0.000000 0.026783 0.000000
# 6 0.000000 0.000000 0.000000 0.000000 0.000000-77.323696
#
#
# Mechanical properties :
#
#
# Convention : Reuss Voigt Hill
#
# Bulk Modulus (GPa) = 63.56850 90.17409 76.87130
# Shear Modulus (GPa) = -0.06482 25.87344 12.90431
#
# Velocity S-wave (km/s) = -0.16956 3.38766 2.39244
# Velocity P-wave (km/s) = 5.30638 7.43631 6.45974
#
# Compressibility (1/GPa) = 0.01573106
#
# Stress axis : x y z
#
# Youngs Moduli (GPa) = 60.73638 80.34995 149.98470
#
# Poissons Ratio (x) = 0.16201 0.66128
# Poissons Ratio (y) = 0.12247 0.52463
# Poissons Ratio (z) = 0.26779 0.28105
#
# Static dielectric constant tensor:
#      x y z
#    x 3.954050 0.000000 0.000000 
#    y 0.000000 4.280920 0.000000 
#    z 0.000000 0.000000 4.193710 
# 
# 
# High freq. dielectric constant tensor:
#      x y z
#    x 1.877690 0.000000 0.000000 
#    y 0.000000 1.898530 0.000000 
#    z 0.000000 0.000000 1.922290 
# 
# From -- ./inp_files/10450.got.cif
#   From: 2010.03.12/outbox.cif.g09.slc.cpg/sg49_6_cif.got.tgz:10450.got - 2010.04.14 03:58:27.
