data_PCOD8204463
_publ_section_title
;
Structure prediction by ZEFSAII (Michael W. Deem and Ramdas Pophale) SiO2 
 PCOD8204463
Probable space group: P C C M
;
_chemical_formula_sum "Si O2"
_cell_formula_units_Z 58
_cell_length_a 16.906512
_cell_length_b 17.967707
_cell_length_c 8.859045
_cell_angle_alpha 90.000000
_cell_angle_beta 90.000000
_cell_angle_gamma 90.000000
_cell_volume 2691.123209
_symmetry_space_group_name_H-M "P C C M"
_symmetry_group_IT_number 49
_symmetry_cell_setting 'orthorhombic'
loop_
_space_group_symop_operation_xyz
x,y,z
-x,-y,z
x,-y,1/2-z
-x,y,1/2-z
-x,-y,-z
x,y,-z
-x,y,1/2+z
x,-y,1/2+z
loop_
_atom_site_type_symbol
_atom_site_label
_atom_site_fract_x
_atom_site_fract_y
_atom_site_fract_z
Si Si1 0.586445 0.424602 0.319026
Si Si2 0.076356 0.182810 0.170904
Si Si3 0.218562 0.070759 0.832393
Si Si4 0.173203 0.302374 0.325888
Si Si5 0.920035 0.420123 0.678852
Si Si6 0.351436 0.724878 0.824007
Si Si7 0.500000 0.000000 0.750000
Si Si8 0.381442 0.127660 0.830127
O O1 0.626938 0.500000 0.250000
O O2 0.500000 0.419469 0.250000
O O3 0.584680 0.429425 0.500000
O O4 0.630080 0.349877 0.267400
O O5 0.149214 0.128436 0.170236
O O6 0.100904 0.250647 0.276027
O O7 0.000000 0.145345 0.250000
O O8 0.057107 0.208459 0.000000
O O9 0.299677 0.099134 0.754834
O O10 0.183641 0.000000 0.750000
O O11 0.242697 0.047207 0.000000
O O12 0.164478 0.323691 0.500000
O O13 0.159658 0.375837 0.225407
O O14 0.257706 0.263064 0.295800
O O15 0.908674 0.500000 0.750000
O O16 0.928000 0.424606 0.500000
O O17 0.000000 0.383722 0.750000
O O18 0.401877 0.797155 0.765213
O O19 0.372150 0.714092 0.000000
O O20 0.444560 0.059345 0.837730
O O21 0.368232 0.155917 0.000000
#
# Coordination Sequence:
#
# PCOD8204463 Si02
#       8
#     8   8   8   8   8   8   2   8
#     4  11  23  43  70  98 134 174 219 271 328 392
#     4  11  23  40  62  90 122 162 212 264 322 386
#     4  10  22  41  65  90 124 168 210 260 323 386
#     4  11  23  40  62  90 123 164 213 264 319 383
#     4  11  22  38  60  87 124 167 213 267 323 381
#     4  11  25  43  67  97 131 173 220 270 328 391
#     4  12  26  44  72 106 138 172 224 274 330 404
#     4  11  24  44  67  97 135 175 220 271 331 395
#
# _framework density 21.552340999999998
#
# number of rings (size 3 to 8) (size 9 to 14) (size 15 to 20)
#    0.000    1.103    2.069    5.172    0.966    5.241 
#    0.000    1.379    0.000    0.000    0.000    0.000 
#    0.000    0.000    0.000    0.000    0.000    0.000 
#
# Total GULP energy -718757.108477 kJ/mol
# GULP energy per Si atom -12392.363939 kJ/mol
# Density = 2.150329 g / cm^3
# Si number density = 21.552341 Si / 1000 Ang^3
#
#
#
# Elastic Constant Matrix: (Units=GPa)
#
#
# Indices 1 2 3 4 5 6 
#
# 1 85.3379 33.2263 40.5896 0.0000 0.0000 0.0000
# 2 33.2263 124.8858 60.7940 0.0000 0.0000 0.0000
# 3 40.5896 60.7940 155.0512 0.0000 0.0000 0.0000
# 4 0.0000 0.0000 0.0000 32.3872 0.0000 0.0000
# 5 0.0000 0.0000 0.0000 0.0000 28.3730 0.0000
# 6 0.0000 0.0000 0.0000 0.0000 0.0000 14.9265
#
#
#
# Elastic Compliance Matrix: (Units=1/GPa)
#
#
# Indices 1 2 3 4 5 6 
#
# 1 0.013938 -0.002388 -0.002712 0.000000 0.000000 0.000000
# 2 -0.002388 0.010305 -0.003415 0.000000 0.000000 0.000000
# 3 -0.002712 -0.003415 0.008499 0.000000 0.000000 0.000000
# 4 0.000000 0.000000 0.000000 0.030876 0.000000 0.000000
# 5 0.000000 0.000000 0.000000 0.000000 0.035245 0.000000
# 6 0.000000 0.000000 0.000000 0.000000 0.000000 0.066995
#
#
# Mechanical properties :
#
#
# Convention : Reuss Voigt Hill
#
# Bulk Modulus (GPa) = 63.65217 70.49940 67.07578
# Shear Modulus (GPa) = 26.57789 30.51501 28.54645
#
# Velocity S-wave (km/s) = 3.51547 3.76687 3.64334
# Velocity P-wave (km/s) = 6.78793 7.19033 6.99202
#
# Compressibility (1/GPa) = 0.01571038
#
# Stress axis : x y z
#
# Youngs Moduli (GPa) = 71.74653 97.03784 117.66452
#
# Poissons Ratio (x) = 0.23171 0.31916
# Poissons Ratio (y) = 0.17132 0.40188
# Poissons Ratio (z) = 0.19461 0.33143
#
# Static dielectric constant tensor:
#      x y z
#    x 4.010830 0.000000 0.000000 
#    y 0.000000 4.121090 0.000000 
#    z 0.000000 0.000000 3.993140 
# 
# 
# High freq. dielectric constant tensor:
#      x y z
#    x 1.844270 0.000000 0.000000 
#    y 0.000000 1.852640 0.000000 
#    z 0.000000 0.000000 1.851630 
# 
# From -- ./inp_files/5067.got.cif
#   From: 2010.03.12/outbox.cif.g09.slc.cpg/sg49_3_cif.got.tgz:5067.got - 2010.04.14 03:58:27.
