data_PCOD8204450
_publ_section_title
;
Structure prediction by ZEFSAII (Michael W. Deem and Ramdas Pophale) SiO2 
 PCOD8204450
Probable space group: P C C M
;
_chemical_formula_sum "Si O2"
_cell_formula_units_Z 64
_cell_length_a 14.653796
_cell_length_b 11.675844
_cell_length_c 17.990801
_cell_angle_alpha 90.000000
_cell_angle_beta 90.000000
_cell_angle_gamma 90.000000
_cell_volume 3078.143943
_symmetry_space_group_name_H-M "P C C M"
_symmetry_group_IT_number 49
_symmetry_cell_setting 'orthorhombic'
loop_
_space_group_symop_operation_xyz
x,y,z
-x,-y,z
x,-y,1/2-z
-x,y,1/2-z
-x,-y,-z
x,y,-z
-x,y,1/2+z
x,-y,1/2+z
loop_
_atom_site_type_symbol
_atom_site_label
_atom_site_fract_x
_atom_site_fract_y
_atom_site_fract_z
Si Si1 0.097989 0.244112 0.280928
Si Si2 0.264982 0.152598 0.916320
Si Si3 0.805925 0.378227 0.654128
Si Si4 0.550140 0.736954 0.917041
Si Si5 0.176579 0.381761 0.412769
Si Si6 0.760350 0.054885 0.179517
Si Si7 0.644997 0.256384 0.135321
Si Si8 0.616613 0.612256 0.218449
O O1 0.129021 0.336436 0.219856
O O2 0.107472 0.305001 0.362219
O O3 0.154420 0.126162 0.286988
O O4 0.000000 0.207088 0.250000
O O5 0.217170 0.273607 0.900334
O O6 0.374777 0.163370 0.898965
O O7 0.213350 0.052480 0.872007
O O8 0.247666 0.118885 0.000000
O O9 0.844006 0.485178 0.606741
O O10 0.717313 0.422715 0.695844
O O11 0.443493 0.769961 0.915120
O O12 0.558858 0.640832 0.854591
O O13 0.572358 0.689780 0.000000
O O14 0.154756 0.360846 0.500000
O O15 0.283628 0.350206 0.397287
O O16 0.694075 0.134801 0.133241
O O17 0.708230 0.000000 0.250000
O O18 0.616831 0.286999 0.220041
O O19 0.567728 0.500000 0.250000
#
# Coordination Sequence:
#
# PCOD8204450 Si02
#       8
#     8   8   8   8   8   8   8   8
#     4  11  24  43  71  98 129 164 210 266 329 405
#     4  10  22  40  63  90 126 172 221 270 321 377
#     4  11  19  42  65  92 127 175 219 256 319 398
#     4  10  23  39  56  88 130 173 220 273 329 377
#     4  11  23  40  67 100 135 171 212 266 329 391
#     4  11  21  41  67  91 119 162 217 263 321 394
#     4  11  22  38  62  92 128 170 221 272 321 382
#     4  11  19  38  58  85 124 172 220 265 318 388
#
# _framework density 20.79175
#
# number of rings (size 3 to 8) (size 9 to 14) (size 15 to 20)
#    0.000    1.250    5.000    2.250    0.000    5.750 
#    0.000    4.375    0.000    0.750    0.000    0.000 
#    0.000    0.000    0.000    0.000    0.000    0.000 
#
# Total GULP energy -792897.645391 kJ/mol
# GULP energy per Si atom -12389.025709 kJ/mol
# Density = 2.074443 g / cm^3
# Si number density = 20.791750 Si / 1000 Ang^3
#
#
#
# Elastic Constant Matrix: (Units=GPa)
#
#
# Indices 1 2 3 4 5 6 
#
# 1 76.5602 19.9525 31.7034 0.0000 0.0000 0.0000
# 2 19.9525 123.3169 46.6727 0.0000 0.0000 0.0000
# 3 31.7034 46.6727 143.5212 0.0000 0.0000 0.0000
# 4 0.0000 0.0000 0.0000 98.3544 0.0000 0.0000
# 5 0.0000 0.0000 0.0000 0.0000 27.5575 0.0000
# 6 0.0000 0.0000 0.0000 0.0000 0.0000 19.7442
#
#
#
# Elastic Compliance Matrix: (Units=1/GPa)
#
#
# Indices 1 2 3 4 5 6 
#
# 1 0.014557 -0.001298 -0.002793 0.000000 0.000000 0.000000
# 2 -0.001298 0.009363 -0.002758 0.000000 0.000000 0.000000
# 3 -0.002793 -0.002758 0.008482 0.000000 0.000000 0.000000
# 4 0.000000 0.000000 0.000000 0.010167 0.000000 0.000000
# 5 0.000000 0.000000 0.000000 0.000000 0.036288 0.000000
# 6 0.000000 0.000000 0.000000 0.000000 0.000000 0.050648
#
#
# Mechanical properties :
#
#
# Convention : Reuss Voigt Hill
#
# Bulk Modulus (GPa) = 53.46948 60.00616 56.73782
# Shear Modulus (GPa) = 33.45885 45.46921 39.46403
#
# Velocity S-wave (km/s) = 4.01588 4.68149 4.36140
# Velocity P-wave (km/s) = 6.87572 7.62529 7.26019
#
# Compressibility (1/GPa) = 0.01870226
#
# Stress axis : x y z
#
# Youngs Moduli (GPa) = 68.69722 106.80231 117.90229
#
# Poissons Ratio (x) = 0.13863 0.32935
# Poissons Ratio (y) = 0.08917 0.32519
# Poissons Ratio (z) = 0.19190 0.29457
#
# Static dielectric constant tensor:
#      x y z
#    x 6.053040 0.000000 0.000000 
#    y 0.000000 3.677370 0.000000 
#    z 0.000000 0.000000 3.901460 
# 
# 
# High freq. dielectric constant tensor:
#      x y z
#    x 1.789970 0.000000 0.000000 
#    y 0.000000 1.808630 0.000000 
#    z 0.000000 0.000000 1.826450 
# 
# From -- ./inp_files/17958.got.cif
#   From: 2010.03.12/outbox.cif.g09.slc.cpg/sg49_9_cif.got.tgz:17958.got - 2010.04.14 03:58:27.
