data_PCOD8204462
_publ_section_title
;
Structure prediction by ZEFSAII (Michael W. Deem and Ramdas Pophale) SiO2 
 PCOD8204462
Probable space group: P C C M
;
_chemical_formula_sum "Si O2"
_cell_formula_units_Z 48
_cell_length_a 26.718934
_cell_length_b 5.028585
_cell_length_c 16.454660
_cell_angle_alpha 90.000000
_cell_angle_beta 90.000000
_cell_angle_gamma 90.000000
_cell_volume 2210.822296
_symmetry_space_group_name_H-M "P C C M"
_symmetry_group_IT_number 49
_symmetry_cell_setting 'orthorhombic'
loop_
_space_group_symop_operation_xyz
x,y,z
-x,-y,z
x,-y,1/2-z
-x,y,1/2-z
-x,-y,-z
x,y,-z
-x,y,1/2+z
x,-y,1/2+z
loop_
_atom_site_type_symbol
_atom_site_label
_atom_site_fract_x
_atom_site_fract_y
_atom_site_fract_z
Si Si1 0.275382 0.067409 0.093571
Si Si2 0.779576 0.450604 0.156245
Si Si3 0.532780 0.759988 0.908478
Si Si4 0.941467 0.048086 0.342192
Si Si5 0.629537 0.753904 0.804388
Si Si6 0.111209 0.439928 0.593119
O O1 0.233517 0.293105 0.102327
O O2 0.324198 0.164337 0.140162
O O3 0.254379 0.796288 0.130345
O O4 0.288941 0.019603 0.000000
O O5 0.768116 0.500000 0.250000
O O6 0.837944 0.402928 0.143060
O O7 0.500000 0.500000 0.907538
O O8 0.582225 0.687012 0.859411
O O9 0.500000 0.000000 0.869906
O O10 0.548646 0.840068 0.000000
O O11 0.925675 0.345112 0.366565
O O12 0.923800 0.000000 0.250000
O O13 0.915179 0.844797 0.403180
O O14 0.000000 0.000000 0.351380
O O15 0.644343 0.500000 0.750000
O O16 0.613544 0.000000 0.750000
O O17 0.122457 0.514111 0.500000
#
# Coordination Sequence:
#
# PCOD8204462 Si02
#       6
#     8   8   8   8   8   8
#     4  12  25  44  67  94 128 167 213 263 320 382
#     4  12  25  44  68  94 128 167 211 263 320 381
#     4  10  22  41  64  91 126 168 213 262 319 381
#     4  11  24  43  66  93 128 170 214 261 317 379
#     4  12  25  41  64  94 129 167 212 263 320 382
#     4  12  25  42  65  96 130 166 212 262 318 380
#
# _framework density 21.711378
#
# number of rings (size 3 to 8) (size 9 to 14) (size 15 to 20)
#    0.000    0.500    0.000    9.500    0.000    5.333 
#    0.000    5.000    0.000    0.000    0.000    0.000 
#    0.000    0.000    0.000    0.000    0.000    0.000 
#
# Total GULP energy -595521.998677 kJ/mol
# GULP energy per Si atom -12406.708306 kJ/mol
# Density = 2.166196 g / cm^3
# Si number density = 21.711378 Si / 1000 Ang^3
#
#
#
# Elastic Constant Matrix: (Units=GPa)
#
#
# Indices 1 2 3 4 5 6 
#
# 1 882.1377 613.1131 -291.6201 0.0000 0.0000 0.0000
# 2 613.1131 562.1140 -215.3332 0.0000 0.0000 0.0000
# 3 -291.6201 -215.3332 296.4392 0.0000 0.0000 0.0000
# 4 0.0000 0.0000 0.0000 47.5313 0.0000 0.0000
# 5 0.0000 0.0000 0.0000 0.0000 65.7365 0.0000
# 6 0.0000 0.0000 0.0000 0.0000 0.0000 39.8268
#
#
#
# Elastic Compliance Matrix: (Units=1/GPa)
#
#
# Indices 1 2 3 4 5 6 
#
# 1 0.005042 -0.004987 0.001337 0.000000 0.000000 0.000000
# 2 -0.004987 0.007397 0.000468 0.000000 0.000000 0.000000
# 3 0.001337 0.000468 0.005029 0.000000 0.000000 0.000000
# 4 0.000000 0.000000 0.000000 0.021039 0.000000 0.000000
# 5 0.000000 0.000000 0.000000 0.000000 0.015212 0.000000
# 6 0.000000 0.000000 0.000000 0.000000 0.000000 0.025109
#
#
# Mechanical properties :
#
#
# Convention : Reuss Voigt Hill
#
# Bulk Modulus (GPa) = 90.05500 217.00114 153.52807
# Shear Modulus (GPa) = 56.24763 139.58766 97.91764
#
# Velocity S-wave (km/s) = 5.09541 8.02695 6.72292
# Velocity P-wave (km/s) = 8.72846 13.64091 11.45121
#
# Compressibility (1/GPa) = 0.01110433
#
# Stress axis : x y z
#
# Youngs Moduli (GPa) = 198.34546 135.18160 198.85795
#
# Poissons Ratio (x) = 0.67413 -0.26594
# Poissons Ratio (y) = 0.98912 -0.09301
# Poissons Ratio (z) = -0.26525 -0.06323
#
# Static dielectric constant tensor:
#      x y z
#    x 3.842760 0.000000 0.000000 
#    y 0.000000 4.096790 0.000000 
#    z 0.000000 0.000000 4.078470 
# 
# 
# High freq. dielectric constant tensor:
#      x y z
#    x 1.865270 0.000000 0.000000 
#    y 0.000000 1.870150 0.000000 
#    z 0.000000 0.000000 1.863870 
# 
# From -- ./inp_files/14586.got.cif
#   From: 2010.03.12/outbox.cif.g09.slc.cpg/sg49_8_cif.got.tgz:14586.got - 2010.04.14 03:58:27.
