data_PCOD8204386
_publ_section_title
;
Structure prediction by ZEFSAII (Michael W. Deem and Ramdas Pophale) SiO2 
 PCOD8204386
Probable space group: P C C M
;
_chemical_formula_sum "Si O2"
_cell_formula_units_Z 48
_cell_length_a 8.964465
_cell_length_b 18.359976
_cell_length_c 13.884368
_cell_angle_alpha 90.000000
_cell_angle_beta 90.000000
_cell_angle_gamma 90.000000
_cell_volume 2285.191506
_symmetry_space_group_name_H-M "P C C M"
_symmetry_group_IT_number 49
_symmetry_cell_setting 'orthorhombic'
loop_
_space_group_symop_operation_xyz
x,y,z
-x,-y,z
x,-y,1/2-z
-x,y,1/2-z
-x,-y,-z
x,y,-z
-x,y,1/2+z
x,-y,1/2+z
loop_
_atom_site_type_symbol
_atom_site_label
_atom_site_fract_x
_atom_site_fract_y
_atom_site_fract_z
Si Si1 0.648562 0.194887 0.804764
Si Si2 0.836443 0.925821 0.793432
Si Si3 0.917554 0.574412 0.109542
Si Si4 0.413439 0.889735 0.000000
Si Si5 0.341015 0.417007 0.255090
Si Si6 0.186484 0.325965 0.608071
Si Si7 0.739000 0.958669 0.000000
O O1 0.500000 0.222458 0.750000
O O2 0.726925 0.138745 0.733463
O O3 0.765610 0.260898 0.820513
O O4 0.609836 0.158934 0.906194
O O5 0.839328 0.934598 0.908912
O O6 0.000000 0.911238 0.750000
O O7 0.768345 0.000000 0.750000
O O8 0.774961 0.600033 0.169941
O O9 0.000000 0.500000 0.149080
O O10 0.015964 0.648121 0.116701
O O11 0.869121 0.558942 0.000000
O O12 0.581045 0.918630 0.000000
O O13 0.291828 0.954687 0.000000
O O14 0.378239 0.500000 0.250000
O O15 0.500000 0.374535 0.250000
O O16 0.276302 0.397811 0.359881
O O17 0.228557 0.303574 0.500000
#
# Coordination Sequence:
#
# PCOD8204386 Si02
#       7
#     8   8   8   4   8   8   4
#     4  12  24  44  69 101 143 188 233 292 358 424
#     4  11  25  41  66 101 142 189 239 298 354 413
#     4  10  21  41  69  97 130 174 224 278 343 424
#     4  11  22  39  76 103 141 185 243 298 347 425
#     4  11  23  39  65  99 132 171 218 280 340 407
#     4  11  24  41  66  97 132 180 225 280 356 424
#     4  11  22  42  71 110 135 191 253 299 347 419
#
# _framework density 21.004805000000001
#
# number of rings (size 3 to 8) (size 9 to 14) (size 15 to 20)
#    0.000    1.000    5.833    1.000    0.000    4.333 
#    0.000    1.667    1.833    0.000    0.000    0.000 
#    0.000    0.000    0.000    0.000    0.000    0.000 
#
# Total GULP energy -594876.494727 kJ/mol
# GULP energy per Si atom -12393.260307 kJ/mol
# Density = 2.095700 g / cm^3
# Si number density = 21.004805 Si / 1000 Ang^3
#
#
#
# Elastic Constant Matrix: (Units=GPa)
#
#
# Indices 1 2 3 4 5 6 
#
# 1 130.0593 36.1442 66.4962 0.0000 0.0000 0.0000
# 2 36.1442 95.7846 39.9198 0.0000 0.0000 0.0000
# 3 66.4962 39.9198 145.5742 0.0000 0.0000 0.0000
# 4 0.0000 0.0000 0.0000 29.9093 0.0000 0.0000
# 5 0.0000 0.0000 0.0000 0.0000 43.6472 0.0000
# 6 0.0000 0.0000 0.0000 0.0000 0.0000 24.1721
#
#
#
# Elastic Compliance Matrix: (Units=1/GPa)
#
#
# Indices 1 2 3 4 5 6 
#
# 1 0.010427 -0.002201 -0.004159 0.000000 0.000000 0.000000
# 2 -0.002201 0.012252 -0.002354 0.000000 0.000000 0.000000
# 3 -0.004159 -0.002354 0.009415 0.000000 0.000000 0.000000
# 4 0.000000 0.000000 0.000000 0.033434 0.000000 0.000000
# 5 0.000000 0.000000 0.000000 0.000000 0.022911 0.000000
# 6 0.000000 0.000000 0.000000 0.000000 0.000000 0.041370
#
#
# Mechanical properties :
#
#
# Convention : Reuss Voigt Hill
#
# Bulk Modulus (GPa) = 68.19301 72.94873 70.57087
# Shear Modulus (GPa) = 32.86729 34.80292 33.83511
#
# Velocity S-wave (km/s) = 3.95999 4.07492 4.01787
# Velocity P-wave (km/s) = 7.31058 7.54619 7.42932
#
# Compressibility (1/GPa) = 0.01466426
#
# Stress axis : x y z
#
# Youngs Moduli (GPa) = 95.90412 81.62009 106.21496
#
# Poissons Ratio (x) = 0.17966 0.44178
# Poissons Ratio (y) = 0.21110 0.25006
# Poissons Ratio (z) = 0.39890 0.19216
#
# Static dielectric constant tensor:
#      x y z
#    x 3.951140 0.000000 0.000000 
#    y 0.000000 3.835990 0.000000 
#    z 0.000000 0.000000 3.955300 
# 
# 
# High freq. dielectric constant tensor:
#      x y z
#    x 1.824720 0.000000 0.000000 
#    y 0.000000 1.820540 0.000000 
#    z 0.000000 0.000000 1.831380 
# 
# From -- ./inp_files/11896.got.cif
#   From: 2010.03.12/outbox.cif.g09.slc.cpg/sg49_6_cif.got.tgz:11896.got - 2010.04.14 03:58:27.
