data_PCOD8204123
_publ_section_title
;
Structure prediction by ZEFSAII (Michael W. Deem and Ramdas Pophale) SiO2 
 PCOD8204123
Probable space group: P C C M
;
_chemical_formula_sum "Si O2"
_cell_formula_units_Z 64
_cell_length_a 14.894562
_cell_length_b 28.150713
_cell_length_c 9.294716
_cell_angle_alpha 90.000000
_cell_angle_beta 90.000000
_cell_angle_gamma 90.000000
_cell_volume 3897.205081
_symmetry_space_group_name_H-M "P C C M"
_symmetry_group_IT_number 49
_symmetry_cell_setting 'orthorhombic'
loop_
_space_group_symop_operation_xyz
x,y,z
-x,-y,z
x,-y,1/2-z
-x,y,1/2-z
-x,-y,-z
x,y,-z
-x,y,1/2+z
x,-y,1/2+z
loop_
_atom_site_type_symbol
_atom_site_label
_atom_site_fract_x
_atom_site_fract_y
_atom_site_fract_z
Si Si1 0.912431 0.873351 0.832652
Si Si2 0.405890 0.457420 0.168068
Si Si3 0.413160 0.191658 0.168302
Si Si4 0.089197 0.764196 0.669111
Si Si5 0.406370 0.352059 0.167576
Si Si6 0.277131 0.729824 0.329772
Si Si7 0.223365 0.045994 0.168485
Si Si8 0.586568 0.916996 0.167593
O O1 0.889129 0.819041 0.793096
O O2 0.830472 0.906930 0.785033
O O3 0.000000 0.891197 0.750000
O O4 0.932761 0.878538 0.000000
O O5 0.350273 0.500000 0.250000
O O6 0.500000 0.455180 0.250000
O O7 0.363890 0.404934 0.187411
O O8 0.417011 0.470095 0.000000
O O9 0.500000 0.211585 0.250000
O O10 0.328421 0.222539 0.219154
O O11 0.394208 0.137423 0.211306
O O12 0.431141 0.197587 0.000000
O O13 0.073253 0.757565 0.500000
O O14 0.174167 0.733112 0.725788
O O15 0.000000 0.746342 0.750000
O O16 0.500000 0.344798 0.250000
O O17 0.330506 0.316257 0.229257
O O18 0.426762 0.342068 0.000000
O O19 0.273411 0.727381 0.500000
O O20 0.326843 0.053030 0.213566
O O21 0.184892 0.000000 0.250000
O O22 0.213481 0.036992 0.000000
O O23 0.500000 0.937401 0.250000
O O24 0.566424 0.921389 0.000000
#
# Coordination Sequence:
#
# PCOD8204123 Si02
#       8
#     8   8   8   8   8   8   8   8
#     4   9  18  33  52  71  89 110 136 167 204 248
#     4   9  15  23  36  53  76 109 149 186 216 246
#     4   9  16  27  44  64  85 111 141 169 200 242
#     4   9  17  31  50  68  86 110 140 172 206 248
#     4   9  17  27  39  59  87 118 150 181 213 251
#     4   9  16  27  44  63  86 116 143 168 207 257
#     4  10  21  35  49  66  88 112 138 168 205 248
#     4   9  18  32  48  65  85 110 141 174 204 238
#
# _framework density 16.422025000000001
#
# number of rings (size 3 to 8) (size 9 to 14) (size 15 to 20)
#    0.000    2.875    0.000    1.875    0.000    5.000 
#    0.000    3.750    0.000    6.000    0.000    0.000 
#    0.000    0.500    0.000    6.250    0.000    0.000 
#
# Total GULP energy -793203.466987 kJ/mol
# GULP energy per Si atom -12393.804172 kJ/mol
# Density = 1.638465 g / cm^3
# Si number density = 16.422025 Si / 1000 Ang^3
#
#
#
# Elastic Constant Matrix: (Units=GPa)
#
#
# Indices 1 2 3 4 5 6 
#
# 1 108.0918 47.2688 34.4833 0.0000 0.0000 0.0000
# 2 47.2688 80.5924 28.6229 0.0000 0.0000 0.0000
# 3 34.4833 28.6229 42.2135 0.0000 0.0000 0.0000
# 4 0.0000 0.0000 0.0000 -15.1112 0.0000 0.0000
# 5 0.0000 0.0000 0.0000 0.0000 24.0178 0.0000
# 6 0.0000 0.0000 0.0000 0.0000 0.0000 14.5103
#
#
#
# Elastic Compliance Matrix: (Units=1/GPa)
#
#
# Indices 1 2 3 4 5 6 
#
# 1 0.014165 -0.005530 -0.007821 0.000000 0.000000 0.000000
# 2 -0.005530 0.018503 -0.008029 0.000000 0.000000 0.000000
# 3 -0.007821 -0.008029 0.035522 0.000000 0.000000 0.000000
# 4 0.000000 0.000000 0.000000 -0.066176 0.000000 0.000000
# 5 0.000000 0.000000 0.000000 0.000000 0.041636 0.000000
# 6 0.000000 0.000000 0.000000 0.000000 0.000000 0.068917
#
#
# Mechanical properties :
#
#
# Convention : Reuss Voigt Hill
#
# Bulk Modulus (GPa) = 39.32378 50.18306 44.75342
# Shear Modulus (GPa) = 30.52456 12.71823 21.62140
#
# Velocity S-wave (km/s) = 4.31601 2.78593 3.63245
# Velocity P-wave (km/s) = 6.98820 6.40104 6.70106
#
# Compressibility (1/GPa) = 0.02542990
#
# Stress axis : x y z
#
# Youngs Moduli (GPa) = 70.59720 54.04513 28.15167
#
# Poissons Ratio (x) = 0.29888 0.22018
# Poissons Ratio (y) = 0.39041 0.22602
# Poissons Ratio (z) = 0.55216 0.43390
#
# Static dielectric constant tensor:
#      x y z
#    x 3.129360 0.000000 0.000000 
#    y 0.000000 3.571370 0.000000 
#    z 0.000000 0.000000 3.019930 
# 
# 
# High freq. dielectric constant tensor:
#      x y z
#    x 1.609130 0.000000 0.000000 
#    y 0.000000 1.627370 0.000000 
#    z 0.000000 0.000000 1.619240 
# 
# From -- ./inp_files/4533.got.cif
#   From: 2010.03.12/outbox.cif.g09.slc.cpg/sg49_3_cif.got.tgz:4533.got - 2010.04.14 03:58:27.
