data_PCOD8204532
_publ_section_title
;
Structure prediction by ZEFSAII (Michael W. Deem and Ramdas Pophale) SiO2 
 PCOD8204532
Probable space group: P C C M
;
_chemical_formula_sum "Si O2"
_cell_formula_units_Z 28
_cell_length_a 4.901472
_cell_length_b 11.625278
_cell_length_c 21.569668
_cell_angle_alpha 90.000000
_cell_angle_beta 90.000000
_cell_angle_gamma 90.000000
_cell_volume 1229.060705
_symmetry_space_group_name_H-M "P C C M"
_symmetry_group_IT_number 49
_symmetry_cell_setting 'orthorhombic'
loop_
_space_group_symop_operation_xyz
x,y,z
-x,-y,z
x,-y,1/2-z
-x,y,1/2-z
-x,-y,-z
x,y,-z
-x,y,1/2+z
x,-y,1/2+z
loop_
_atom_site_type_symbol
_atom_site_label
_atom_site_fract_x
_atom_site_fract_y
_atom_site_fract_z
Si Si1 0.865714 0.261278 0.072225
Si Si2 0.765245 0.922267 0.664763
Si Si3 0.500000 0.742462 0.250000
Si Si4 0.632600 0.375532 0.628081
O O1 0.899392 0.135670 0.103327
O O2 0.553182 0.292494 0.086492
O O3 0.062709 0.360625 0.100921
O O4 0.922575 0.250845 0.000000
O O5 0.714611 0.822558 0.714718
O O6 0.500000 0.000000 0.650439
O O7 0.000000 0.000000 0.694260
O O8 0.350395 0.661239 0.299935
O O9 0.500000 0.500000 0.621398
#
# Coordination Sequence:
#
# PCOD8204532 Si02
#       4
#     8   8   4   8
#     4  11  25  43  63  93 128 164 213 261 307 375
#     4  11  24  41  65  93 126 168 209 259 320 377
#     4  10  24  42  64  94 128 158 208 260 310 378
#     4  11  24  42  66  93 125 166 207 259 319 372
#
# _framework density 22.781624999999998
#
# number of rings (size 3 to 8) (size 9 to 14) (size 15 to 20)
#    0.000    1.143    0.000    6.000    0.000   18.286 
#    0.000    5.714    0.000    0.000    0.000    0.000 
#    0.000    0.000    0.000    0.000    0.000    0.000 
#
# Total GULP energy -347158.620213 kJ/mol
# GULP energy per Si atom -12398.522150 kJ/mol
# Density = 2.272977 g / cm^3
# Si number density = 22.781625 Si / 1000 Ang^3
#
#
#
# Elastic Constant Matrix: (Units=GPa)
#
#
# Indices 1 2 3 4 5 6 
#
# 1 95.7406 13.2486 23.8694 0.0000 0.0000 0.0000
# 2 13.2486 75.7148 21.8223 0.0000 0.0000 0.0000
# 3 23.8694 21.8223 161.8743 0.0000 0.0000 0.0000
# 4 0.0000 0.0000 0.0000 16.9363 0.0000 0.0000
# 5 0.0000 0.0000 0.0000 0.0000 16.8305 0.0000
# 6 0.0000 0.0000 0.0000 0.0000 0.0000 39.6520
#
#
#
# Elastic Compliance Matrix: (Units=1/GPa)
#
#
# Indices 1 2 3 4 5 6 
#
# 1 0.011009 -0.001517 -0.001419 0.000000 0.000000 0.000000
# 2 -0.001517 0.013951 -0.001657 0.000000 0.000000 0.000000
# 3 -0.001419 -0.001657 0.006610 0.000000 0.000000 0.000000
# 4 0.000000 0.000000 0.000000 0.059045 0.000000 0.000000
# 5 0.000000 0.000000 0.000000 0.000000 0.059416 0.000000
# 6 0.000000 0.000000 0.000000 0.000000 0.000000 0.025219
#
#
# Mechanical properties :
#
#
# Convention : Reuss Voigt Hill
#
# Bulk Modulus (GPa) = 44.67630 50.13449 47.40539
# Shear Modulus (GPa) = 26.05568 32.97637 29.51603
#
# Velocity S-wave (km/s) = 3.38555 3.80873 3.60336
# Velocity P-wave (km/s) = 5.91066 6.43399 6.17787
#
# Compressibility (1/GPa) = 0.02238323
#
# Stress axis : x y z
#
# Youngs Moduli (GPa) = 90.83825 71.68187 151.28129
#
# Poissons Ratio (x) = 0.10877 0.21463
# Poissons Ratio (y) = 0.13784 0.25066
# Poissons Ratio (z) = 0.12887 0.11877
#
# Static dielectric constant tensor:
#      x y z
#    x 4.175960 0.000000 0.000000 
#    y 0.000000 4.383540 0.000000 
#    z 0.000000 0.000000 4.177090 
# 
# 
# High freq. dielectric constant tensor:
#      x y z
#    x 1.904960 0.000000 0.000000 
#    y 0.000000 1.903030 0.000000 
#    z 0.000000 0.000000 1.897360 
# 
# From -- ./inp_files/18657.got.cif
#   From: 2010.03.12/outbox.cif.g09.slc.cpg/sg49_10_cif.got.tgz:18657.got - 2010.04.14 03:58:27.
