data_PCOD8204134
_publ_section_title
;
Structure prediction by ZEFSAII (Michael W. Deem and Ramdas Pophale) SiO2 
 PCOD8204134
Probable space group: P C C M
;
_chemical_formula_sum "Si O2"
_cell_formula_units_Z 56
_cell_length_a 17.526767
_cell_length_b 5.022829
_cell_length_c 29.155227
_cell_angle_alpha 90.000000
_cell_angle_beta 90.000000
_cell_angle_gamma 90.000000
_cell_volume 2566.649900
_symmetry_space_group_name_H-M "P C C M"
_symmetry_group_IT_number 49
_symmetry_cell_setting 'orthorhombic'
loop_
_space_group_symop_operation_xyz
x,y,z
-x,-y,z
x,-y,1/2-z
-x,y,1/2-z
-x,-y,-z
x,y,-z
-x,y,1/2+z
x,-y,1/2+z
loop_
_atom_site_type_symbol
_atom_site_label
_atom_site_fract_x
_atom_site_fract_y
_atom_site_fract_z
Si Si1 0.669864 0.584834 0.447493
Si Si2 0.081434 0.441711 0.836615
Si Si3 0.755107 0.491610 0.697991
Si Si4 0.230170 0.895567 0.551346
Si Si5 0.666650 0.984627 0.695076
Si Si6 0.081231 0.949659 0.895461
Si Si7 0.548093 0.754730 0.626172
O O1 0.642348 0.524091 0.500000
O O2 0.719380 0.340756 0.426292
O O3 0.598516 0.636355 0.414825
O O4 0.722717 0.838273 0.446550
O O5 0.153939 0.466080 0.803839
O O6 0.090769 0.641623 0.880318
O O7 0.000000 0.500000 0.811504
O O8 0.079057 0.134446 0.850607
O O9 0.729628 0.500000 0.750000
O O10 0.703964 0.256798 0.675444
O O11 0.729780 0.772805 0.677406
O O12 0.211850 0.803974 0.500000
O O13 0.149473 0.943373 0.574233
O O14 0.652595 0.000000 0.750000
O O15 0.589814 0.895358 0.669519
O O16 0.000000 0.000000 0.921500
O O17 0.500000 0.500000 0.644769
O O18 0.500000 0.000000 0.604715
#
# Coordination Sequence:
#
# PCOD8204134 Si02
#       7
#     8   8   8   8   8   8   8
#     4  10  23  41  63  94 126 158 203 256 306 366
#     4  10  21  35  54  87 123 160 204 252 305 353
#     4  10  21  38  61  88 118 161 206 248 303 358
#     4  10  21  38  60  88 120 162 208 249 303 359
#     4  10  23  42  63  92 123 157 205 254 302 363
#     4  10  21  35  54  86 123 161 205 252 303 352
#     4  12  26  43  66  97 123 160 207 242 315 393
#
# _framework density 21.818321999999998
#
# number of rings (size 3 to 8) (size 9 to 14) (size 15 to 20)
#    0.000    1.714    0.000    3.429    6.000    1.429 
#    0.000    0.714    0.000   10.286    0.000    0.000 
#    0.000    0.000    0.000    0.000    0.000    0.000 
#
# Total GULP energy -693956.909329 kJ/mol
# GULP energy per Si atom -12392.087667 kJ/mol
# Density = 2.176866 g / cm^3
# Si number density = 21.818322 Si / 1000 Ang^3
#
#
#
# Elastic Constant Matrix: (Units=GPa)
#
#
# Indices 1 2 3 4 5 6 
#
# 1 146.9882 54.2379 46.5044 0.0000 0.0000 0.0000
# 2 54.2379 142.1513 28.4976 0.0000 0.0000 0.0000
# 3 46.5044 28.4976 52.6787 0.0000 0.0000 0.0000
# 4 0.0000 0.0000 0.0000 19.0804 0.0000 0.0000
# 5 0.0000 0.0000 0.0000 0.0000 17.4520 0.0000
# 6 0.0000 0.0000 0.0000 0.0000 0.0000 44.7646
#
#
#
# Elastic Compliance Matrix: (Units=1/GPa)
#
#
# Indices 1 2 3 4 5 6 
#
# 1 0.010074 -0.002312 -0.007643 0.000000 0.000000 0.000000
# 2 -0.002312 0.008421 -0.002515 0.000000 0.000000 0.000000
# 3 -0.007643 -0.002515 0.027091 0.000000 0.000000 0.000000
# 4 0.000000 0.000000 0.000000 0.052410 0.000000 0.000000
# 5 0.000000 0.000000 0.000000 0.000000 0.057300 0.000000
# 6 0.000000 0.000000 0.000000 0.000000 0.000000 0.022339
#
#
# Mechanical properties :
#
#
# Convention : Reuss Voigt Hill
#
# Bulk Modulus (GPa) = 48.43313 66.69979 57.56646
# Shear Modulus (GPa) = 23.87134 30.43129 27.15132
#
# Velocity S-wave (km/s) = 3.31130 3.73870 3.53147
# Velocity P-wave (km/s) = 6.07175 7.01955 6.56278
#
# Compressibility (1/GPa) = 0.02064703
#
# Stress axis : x y z
#
# Youngs Moduli (GPa) = 99.26161 118.75202 36.91305
#
# Poissons Ratio (x) = 0.27451 0.28213
# Poissons Ratio (y) = 0.22946 0.09283
# Poissons Ratio (z) = 0.75866 0.29863
#
# Static dielectric constant tensor:
#      x y z
#    x 4.064970 0.000000 0.000000 
#    y 0.000000 4.448270 0.000000 
#    z 0.000000 0.000000 3.717370 
# 
# 
# High freq. dielectric constant tensor:
#      x y z
#    x 1.868130 0.000000 0.000000 
#    y 0.000000 1.885970 0.000000 
#    z 0.000000 0.000000 1.824120 
# 
# From -- ./inp_files/26777.got.cif
#   From: 2010.03.12/outbox.cif.g09.slc.cpg/sg49_14_cif.got.tgz:26777.got - 2010.04.14 03:58:27.
