data_PCOD8204726
_publ_section_title
;
Structure prediction by ZEFSAII (Michael W. Deem and Ramdas Pophale) SiO2 
 PCOD8204726
Probable space group: P B A N
;
_chemical_formula_sum "Si O2"
_cell_formula_units_Z 64
_cell_length_a 26.234854
_cell_length_b 5.253005
_cell_length_c 27.360076
_cell_angle_alpha 90.000000
_cell_angle_beta 90.000000
_cell_angle_gamma 90.000000
_cell_volume 3770.541848
_symmetry_space_group_name_H-M "P B A N"
_symmetry_group_IT_number 50
_space_group.IT_coordinate_system_code '2'
_symmetry_cell_setting 'orthorhombic'
loop_
_space_group_symop_operation_xyz
x,y,z
1/2-x,1/2-y,z
x,1/2-y,-z
1/2-x,y,-z
-x,-y,-z
1/2+x,1/2+y,-z
-x,1/2+y,z
1/2+x,-y,z
loop_
_atom_site_type_symbol
_atom_site_label
_atom_site_fract_x
_atom_site_fract_y
_atom_site_fract_z
Si Si1 0.307518 0.749603 0.270182
Si Si2 0.555970 0.267195 0.057716
Si Si3 0.365253 0.249179 0.613222
Si Si4 0.866281 0.749729 0.270601
Si Si5 0.692800 0.249270 0.613555
Si Si6 0.942446 0.732700 0.099662
Si Si7 0.968073 0.733820 0.444133
Si Si8 0.033585 0.263388 0.789849
O O1 0.250000 0.750000 0.249220
O O2 0.336874 0.499699 0.250836
O O3 0.305831 0.746131 0.328299
O O4 0.336377 0.001558 0.251404
O O5 0.585174 0.523887 0.074686
O O6 0.500507 0.291436 0.081791
O O7 0.585464 0.022998 0.080002
O O8 0.551211 0.250000 0.000000
O O9 0.369546 0.247672 0.671294
O O10 0.334580 0.495221 0.594421
O O11 0.421163 0.263562 0.591720
O O12 0.336757 0.997109 0.593788
O O13 0.923591 0.754263 0.251227
O O14 0.750000 0.250000 0.592445
O O15 0.939172 0.750918 0.157732
O O16 0.949196 0.750000 0.500000
O O17 0.993011 0.461532 0.432833
O O18 0.004758 0.529473 0.783251
#
# Coordination Sequence:
#
# PCOD8204726 Si02
#       8
#     8   8   8   8   8   8   8   8
#     4   9  17  33  51  70  93 114 151 205 242 274
#     4  10  16  25  41  58  74 102 164 207 217 249
#     4  10  19  33  51  73  98 118 155 202 230 274
#     4  10  21  31  48  74  91 123 164 188 232 282
#     4   9  17  30  52  76  98 123 145 180 239 292
#     4  10  16  27  37  54  78 114 151 189 220 258
#     4  10  21  36  54  72  93 126 164 200 241 277
#     4  12  21  33  43  58  95 135 162 187 214 276
#
# _framework density 16.973687000000002
#
# number of rings (size 3 to 8) (size 9 to 14) (size 15 to 20)
#    0.000    2.000    2.500    4.125    0.000    4.000 
#    0.000    0.000    0.000    2.250    0.000    0.000 
#    0.000    0.000    0.000    0.000    0.000   72.500 
#
# Total GULP energy -793472.508983 kJ/mol
# GULP energy per Si atom -12398.007953 kJ/mol
# Density = 1.693505 g / cm^3
# Si number density = 16.973687 Si / 1000 Ang^3
#
#
#
# Elastic Constant Matrix: (Units=GPa)
#
#
# Indices 1 2 3 4 5 6 
#
# 1 56.2032 24.4181 25.4636 0.0000 0.0000 0.0000
# 2 24.4181 139.1121 21.1258 0.0000 0.0000 0.0000
# 3 25.4636 21.1258 31.8899 0.0000 0.0000 0.0000
# 4 0.0000 0.0000 0.0000 14.3283 0.0000 0.0000
# 5 0.0000 0.0000 0.0000 0.0000 -0.4076 0.0000
# 6 0.0000 0.0000 0.0000 0.0000 0.0000 19.1767
#
#
#
# Elastic Compliance Matrix: (Units=1/GPa)
#
#
# Indices 1 2 3 4 5 6 
#
# 1 0.028236 -0.001704 -0.021418 0.000000 0.000000 0.000000
# 2 -0.001704 0.008095 -0.004002 0.000000 0.000000 0.000000
# 3 -0.021418 -0.004002 0.051111 0.000000 0.000000 0.000000
# 4 0.000000 0.000000 0.000000 0.069792 0.000000 0.000000
# 5 0.000000 0.000000 0.000000 0.000000 -2.453194 0.000000
# 6 0.000000 0.000000 0.000000 0.000000 0.000000 0.052147
#
#
# Mechanical properties :
#
#
# Convention : Reuss Voigt Hill
#
# Bulk Modulus (GPa) = 30.12493 41.02445 35.57469
# Shear Modulus (GPa) = -2.29516 17.03267 7.36876
#
# Velocity S-wave (km/s) = -1.16410 3.17120 2.08584
# Velocity P-wave (km/s) = 3.99746 6.13438 5.17737
#
# Compressibility (1/GPa) = 0.03319510
#
# Stress axis : x y z
#
# Youngs Moduli (GPa) = 35.41537 123.52828 19.56526
#
# Poissons Ratio (x) = 0.21046 0.41904
# Poissons Ratio (y) = 0.06034 0.07831
# Poissons Ratio (z) = 0.75851 0.49441
#
# Static dielectric constant tensor:
#      x y z
#    x 1.491350 0.000000 0.000000 
#    y 0.000000 7.274090 0.000000 
#    z 0.000000 0.000000 2.914790 
# 
# 
# High freq. dielectric constant tensor:
#      x y z
#    x 1.613060 0.000000 0.000000 
#    y 0.000000 1.691810 0.000000 
#    z 0.000000 0.000000 1.625270 
# 
# From -- ./inp_files/31916.got.cif
#   From: 2010.03.12/outbox.cif.g09.slc.cpg/sg50_16_cif.got.tgz:31916.got - 2010.04.16 13:23:21.
