data_PCOD8204746
_publ_section_title
;
Structure prediction by ZEFSAII (Michael W. Deem and Ramdas Pophale) SiO2 
 PCOD8204746
Probable space group: P B A N
;
_chemical_formula_sum "Si O2"
_cell_formula_units_Z 48
_cell_length_a 18.219754
_cell_length_b 14.040444
_cell_length_c 9.008956
_cell_angle_alpha 90.000000
_cell_angle_beta 90.000000
_cell_angle_gamma 90.000000
_cell_volume 2304.611987
_symmetry_space_group_name_H-M "P B A N"
_symmetry_group_IT_number 50
_space_group.IT_coordinate_system_code '2'
_symmetry_cell_setting 'orthorhombic'
loop_
_space_group_symop_operation_xyz
x,y,z
1/2-x,1/2-y,z
x,1/2-y,-z
1/2-x,y,-z
-x,-y,-z
1/2+x,1/2+y,-z
-x,1/2+y,z
1/2+x,-y,z
loop_
_atom_site_type_symbol
_atom_site_label
_atom_site_fract_x
_atom_site_fract_y
_atom_site_fract_z
Si Si1 0.324991 0.834016 0.909563
Si Si2 0.638085 0.206493 0.658168
Si Si3 0.418736 0.521387 0.242207
Si Si4 0.670595 0.488625 0.458704
Si Si5 0.023295 0.330728 0.692306
Si Si6 0.553844 0.874361 0.638657
O O1 0.313332 0.784117 0.747851
O O2 0.372102 0.930782 0.892226
O O3 0.367338 0.750000 0.000000
O O4 0.250000 0.857131 0.000000
O O5 0.618670 0.250000 0.500000
O O6 0.681174 0.106743 0.640531
O O7 0.560468 0.187636 0.741750
O O8 0.374172 0.534637 0.393526
O O9 0.435689 0.410082 0.205848
O O10 0.495886 0.575711 0.253208
O O11 0.750000 0.529928 0.500000
O O12 0.630105 0.568168 0.359306
O O13 0.020298 0.374307 0.526610
O O14 0.069438 0.232728 0.696921
#
# Coordination Sequence:
#
# PCOD8204746 Si02
#       6
#     8   8   8   8   8   8
#     4  11  26  40  55  89 138 165 203 277 341 385
#     4  12  19  37  66  97 122 164 217 265 329 397
#     4  11  19  38  61  87 126 167 214 260 319 384
#     4  11  22  31  59 100 131 163 205 259 327 394
#     4  10  16  31  65  94 121 161 208 267 310 378
#     4  10  17  34  58  99 132 151 207 272 311 378
#
# _framework density 20.827801999999998
#
# number of rings (size 3 to 8) (size 9 to 14) (size 15 to 20)
#    0.000    1.167    8.333    1.000    4.667    0.333 
#    0.000    7.500    0.000    0.000    0.000    1.167 
#    0.000    0.000    0.000    0.000    0.000    0.000 
#
# Total GULP energy -594858.671764 kJ/mol
# GULP energy per Si atom -12392.888995 kJ/mol
# Density = 2.078040 g / cm^3
# Si number density = 20.827802 Si / 1000 Ang^3
#
#
#
# Elastic Constant Matrix: (Units=GPa)
#
#
# Indices 1 2 3 4 5 6 
#
# 1 137.2433 78.4392 35.0565 0.0000 0.0000 0.0000
# 2 78.4392 157.6039 35.1529 0.0000 0.0000 0.0000
# 3 35.0565 35.1529 50.1400 0.0000 0.0000 0.0000
# 4 0.0000 0.0000 0.0000 22.1446 0.0000 0.0000
# 5 0.0000 0.0000 0.0000 0.0000 27.9889 0.0000
# 6 0.0000 0.0000 0.0000 0.0000 0.0000 22.2350
#
#
#
# Elastic Compliance Matrix: (Units=1/GPa)
#
#
# Indices 1 2 3 4 5 6 
#
# 1 0.010999 -0.004456 -0.004567 0.000000 0.000000 0.000000
# 2 -0.004456 0.009326 -0.003423 0.000000 0.000000 0.000000
# 3 -0.004567 -0.003423 0.025537 0.000000 0.000000 0.000000
# 4 0.000000 0.000000 0.000000 0.045158 0.000000 0.000000
# 5 0.000000 0.000000 0.000000 0.000000 0.035728 0.000000
# 6 0.000000 0.000000 0.000000 0.000000 0.000000 0.044974
#
#
# Mechanical properties :
#
#
# Convention : Reuss Voigt Hill
#
# Bulk Modulus (GPa) = 47.68381 71.36494 59.52438
# Shear Modulus (GPa) = 24.55741 27.56293 26.06017
#
# Velocity S-wave (km/s) = 3.43748 3.64176 3.54110
# Velocity P-wave (km/s) = 6.22086 7.21262 6.73502
#
# Compressibility (1/GPa) = 0.02097148
#
# Stress axis : x y z
#
# Youngs Moduli (GPa) = 90.91363 107.22456 39.15907
#
# Poissons Ratio (x) = 0.47778 0.17882
# Poissons Ratio (y) = 0.40510 0.13405
# Poissons Ratio (z) = 0.41516 0.36705
#
# Static dielectric constant tensor:
#      x y z
#    x 3.684460 0.000000 0.000000 
#    y 0.000000 4.178620 0.000000 
#    z 0.000000 0.000000 3.502430 
# 
# 
# High freq. dielectric constant tensor:
#      x y z
#    x 1.800260 0.000000 0.000000 
#    y 0.000000 1.825120 0.000000 
#    z 0.000000 0.000000 1.766950 
# 
# From -- ./inp_files/14241.got.cif
#   From: 2010.03.12/outbox.cif.g09.slc.cpg/sg50_8_cif.got.tgz:14241.got - 2010.04.16 13:23:21.
