data_PCOD8204173
_publ_section_title
;
Structure prediction by ZEFSAII (Michael W. Deem and Ramdas Pophale) SiO2 
 PCOD8204173
Probable space group: P C C M
;
_chemical_formula_sum "Si O2"
_cell_formula_units_Z 48
_cell_length_a 14.350077
_cell_length_b 20.622142
_cell_length_c 8.612927
_cell_angle_alpha 90.000000
_cell_angle_beta 90.000000
_cell_angle_gamma 90.000000
_cell_volume 2548.817679
_symmetry_space_group_name_H-M "P C C M"
_symmetry_group_IT_number 49
_symmetry_cell_setting 'orthorhombic'
loop_
_space_group_symop_operation_xyz
x,y,z
-x,-y,z
x,-y,1/2-z
-x,y,1/2-z
-x,-y,-z
x,y,-z
-x,y,1/2+z
x,-y,1/2+z
loop_
_atom_site_type_symbol
_atom_site_label
_atom_site_fract_x
_atom_site_fract_y
_atom_site_fract_z
Si Si1 0.219994 0.809333 0.182838
Si Si2 0.102811 0.691620 0.316853
Si Si3 0.597142 0.763647 0.183329
Si Si4 0.779063 0.433676 0.682842
Si Si5 0.100339 0.067811 0.682642
Si Si6 0.402385 0.377823 0.316291
O O1 0.158910 0.749627 0.240011
O O2 0.320313 0.811178 0.265278
O O3 0.171301 0.876142 0.231617
O O4 0.233715 0.803374 0.000000
O O5 0.100310 0.702729 0.500000
O O6 0.151813 0.624269 0.271680
O O7 0.000000 0.690326 0.250000
O O8 0.500000 0.790840 0.250000
O O9 0.619839 0.692864 0.249044
O O10 0.590595 0.759178 0.000000
O O11 0.823226 0.500000 0.750000
O O12 0.764531 0.438101 0.500000
O O13 0.679146 0.425543 0.764320
O O14 0.090398 0.061421 0.500000
O O15 0.000000 0.086031 0.750000
O O16 0.137951 0.000000 0.750000
O O17 0.500000 0.404519 0.250000
O O18 0.408637 0.373480 0.500000
#
# Coordination Sequence:
#
# PCOD8204173 Si02
#       6
#     8   8   8   8   8   8
#     4  11  22  37  60  89 119 153 194 237 287 339
#     4  11  24  40  60  84 113 147 191 240 289 343
#     4  11  21  35  57  86 118 152 190 234 286 340
#     4  11  24  41  59  82 111 148 192 237 292 348
#     4  10  21  36  57  86 121 159 197 237 283 339
#     4  11  21  36  59  84 114 148 185 234 287 344
#
# _framework density 18.832260000000002
#
# number of rings (size 3 to 8) (size 9 to 14) (size 15 to 20)
#    0.000    1.167    1.667    7.000    0.000    6.667 
#    0.000    3.333    0.000    0.500    0.000    3.500 
#    0.000    0.000    0.000    0.000    0.000    0.000 
#
# Total GULP energy -595447.783970 kJ/mol
# GULP energy per Si atom -12405.162166 kJ/mol
# Density = 1.878940 g / cm^3
# Si number density = 18.832260 Si / 1000 Ang^3
#
#
#
# Elastic Constant Matrix: (Units=GPa)
#
#
# Indices 1 2 3 4 5 6 
#
# 1 131.1778 66.6724 47.9476 0.0000 0.0000 0.0000
# 2 66.6724 118.8362 55.7867 0.0000 0.0000 0.0000
# 3 47.9476 55.7867 126.1826 0.0000 0.0000 0.0000
# 4 0.0000 0.0000 0.0000 21.8881 0.0000 0.0000
# 5 0.0000 0.0000 0.0000 0.0000 33.8176 0.0000
# 6 0.0000 0.0000 0.0000 0.0000 0.0000 40.6876
#
#
#
# Elastic Compliance Matrix: (Units=1/GPa)
#
#
# Indices 1 2 3 4 5 6 
#
# 1 0.010989 -0.005306 -0.001830 0.000000 0.000000 0.000000
# 2 -0.005306 0.013181 -0.003811 0.000000 0.000000 0.000000
# 3 -0.001830 -0.003811 0.010305 0.000000 0.000000 0.000000
# 4 0.000000 0.000000 0.000000 0.045687 0.000000 0.000000
# 5 0.000000 0.000000 0.000000 0.000000 0.029570 0.000000
# 6 0.000000 0.000000 0.000000 0.000000 0.000000 0.024578
#
#
# Mechanical properties :
#
#
# Convention : Reuss Voigt Hill
#
# Bulk Modulus (GPa) = 79.48524 79.66779 79.57651
# Shear Modulus (GPa) = 31.17233 32.99798 32.08515
#
# Velocity S-wave (km/s) = 4.07291 4.19048 4.13211
# Velocity P-wave (km/s) = 8.02600 8.11229 8.06926
#
# Compressibility (1/GPa) = 0.01258095
#
# Stress axis : x y z
#
# Youngs Moduli (GPa) = 90.99965 75.86555 97.03811
#
# Poissons Ratio (x) = 0.40258 0.17755
# Poissons Ratio (y) = 0.48288 0.36983
# Poissons Ratio (z) = 0.16650 0.28914
#
# Static dielectric constant tensor:
#      x y z
#    x 3.678160 0.000000 0.000000 
#    y 0.000000 3.580750 0.000000 
#    z 0.000000 0.000000 3.612920 
# 
# 
# High freq. dielectric constant tensor:
#      x y z
#    x 1.737790 0.000000 0.000000 
#    y 0.000000 1.719260 0.000000 
#    z 0.000000 0.000000 1.753730 
# 
# From -- ./inp_files/3694.got.cif
#   From: 2010.03.12/outbox.cif.g09.slc.cpg/sg49_2_cif.got.tgz:3694.got - 2010.04.14 03:58:27.
