data_PCOD8204169
_publ_section_title
;
Structure prediction by ZEFSAII (Michael W. Deem and Ramdas Pophale) SiO2 
 PCOD8204169
Probable space group: P C C M
;
_chemical_formula_sum "Si O2"
_cell_formula_units_Z 56
_cell_length_a 15.252535
_cell_length_b 20.165182
_cell_length_c 8.768886
_cell_angle_alpha 90.000000
_cell_angle_beta 90.000000
_cell_angle_gamma 90.000000
_cell_volume 2697.047532
_symmetry_space_group_name_H-M "P C C M"
_symmetry_group_IT_number 49
_symmetry_cell_setting 'orthorhombic'
loop_
_space_group_symop_operation_xyz
x,y,z
-x,-y,z
x,-y,1/2-z
-x,y,1/2-z
-x,-y,-z
x,y,-z
-x,y,1/2+z
x,-y,1/2+z
loop_
_atom_site_type_symbol
_atom_site_label
_atom_site_fract_x
_atom_site_fract_y
_atom_site_fract_z
Si Si1 0.408284 0.327799 0.820493
Si Si2 0.269365 0.933794 0.819540
Si Si3 0.912024 0.615674 0.321141
Si Si4 0.724486 0.568837 0.681503
Si Si5 0.872125 0.763024 0.326803
Si Si6 0.328451 0.792252 0.827460
Si Si7 0.088428 0.895571 0.321552
O O1 0.500000 0.351253 0.750000
O O2 0.332282 0.371433 0.746752
O O3 0.391743 0.250278 0.781156
O O4 0.410021 0.338285 0.000000
O O5 0.325113 0.868909 0.770368
O O6 0.170770 0.930075 0.757574
O O7 0.314278 0.000000 0.750000
O O8 0.264686 0.938173 0.000000
O O9 0.918526 0.609031 0.500000
O O10 0.825125 0.578033 0.263230
O O11 0.907003 0.692349 0.271139
O O12 0.000000 0.583636 0.250000
O O13 0.689016 0.500000 0.750000
O O14 0.716215 0.569096 0.500000
O O15 0.901403 0.780500 0.500000
O O16 0.767478 0.760750 0.319681
O O17 0.910919 0.816809 0.211193
O O18 0.364971 0.788473 0.000000
O O19 0.091896 0.909434 0.500000
O O20 0.000000 0.926594 0.250000
#
# Coordination Sequence:
#
# PCOD8204169 Si02
#       7
#     8   8   8   8   8   8   8
#     4  12  25  42  69 101 129 162 203 250 307 374
#     4  10  21  37  57  82 115 156 200 247 303 364
#     4  10  21  36  57  84 121 164 209 259 307 360
#     4  11  24  45  66  91 128 168 209 259 313 367
#     4   9  17  33  54  79 112 154 197 250 311 359
#     4   9  18  37  62  88 123 159 196 248 305 359
#     4  11  21  32  47  72 107 149 199 255 308 364
#
# _framework density 20.763445000000001
#
# number of rings (size 3 to 8) (size 9 to 14) (size 15 to 20)
#    0.000    1.714    1.429    4.714    0.000    6.571 
#    0.000    4.286    0.000    0.429    0.000    3.000 
#    0.000    0.000    0.000    0.000    0.000    0.000 
#
# Total GULP energy -694482.449082 kJ/mol
# GULP energy per Si atom -12401.472305 kJ/mol
# Density = 2.071619 g / cm^3
# Si number density = 20.763445 Si / 1000 Ang^3
#
#
#
# Elastic Constant Matrix: (Units=GPa)
#
#
# Indices 1 2 3 4 5 6 
#
# 1 81.5098 35.4602 39.0487 0.0000 0.0000 0.0000
# 2 35.4602 107.7061 44.6893 0.0000 0.0000 0.0000
# 3 39.0487 44.6893 104.9943 0.0000 0.0000 0.0000
# 4 0.0000 0.0000 0.0000 16.1312 0.0000 0.0000
# 5 0.0000 0.0000 0.0000 0.0000 31.4377 0.0000
# 6 0.0000 0.0000 0.0000 0.0000 0.0000 4.4515
#
#
#
# Elastic Compliance Matrix: (Units=1/GPa)
#
#
# Indices 1 2 3 4 5 6 
#
# 1 0.015877 -0.003373 -0.004469 0.000000 0.000000 0.000000
# 2 -0.003373 0.011992 -0.003850 0.000000 0.000000 0.000000
# 3 -0.004469 -0.003850 0.012825 0.000000 0.000000 0.000000
# 4 0.000000 0.000000 0.000000 0.061992 0.000000 0.000000
# 5 0.000000 0.000000 0.000000 0.000000 0.031809 0.000000
# 6 0.000000 0.000000 0.000000 0.000000 0.000000 0.224645
#
#
# Mechanical properties :
#
#
# Convention : Reuss Voigt Hill
#
# Bulk Modulus (GPa) = 57.76877 59.17851 58.47364
# Shear Modulus (GPa) = 12.87683 22.07154 17.47418
#
# Velocity S-wave (km/s) = 2.49302 3.26390 2.90415
# Velocity P-wave (km/s) = 6.01412 6.53967 6.28239
#
# Compressibility (1/GPa) = 0.01731039
#
# Stress axis : x y z
#
# Youngs Moduli (GPa) = 62.98498 83.38623 77.97154
#
# Poissons Ratio (x) = 0.28124 0.34847
# Poissons Ratio (y) = 0.21243 0.30019
# Poissons Ratio (z) = 0.28149 0.32104
#
# Static dielectric constant tensor:
#      x y z
#    x 3.660590 0.000000 0.000000 
#    y 0.000000 3.887510 0.000000 
#    z 0.000000 0.000000 3.629600 
# 
# 
# High freq. dielectric constant tensor:
#      x y z
#    x 1.793640 0.000000 0.000000 
#    y 0.000000 1.817340 0.000000 
#    z 0.000000 0.000000 1.808680 
# 
# From -- ./inp_files/4068.got.cif
#   From: 2010.03.12/outbox.cif.g09.slc.cpg/sg49_3_cif.got.tgz:4068.got - 2010.04.14 03:58:27.
