data_PCOD8204760
_publ_section_title
;
Structure prediction by ZEFSAII (Michael W. Deem and Ramdas Pophale) SiO2 
 PCOD8204760
Probable space group: P B A N
;
_chemical_formula_sum "Si O2"
_cell_formula_units_Z 36
_cell_length_a 13.653762
_cell_length_b 8.566906
_cell_length_c 15.156460
_cell_angle_alpha 90.000000
_cell_angle_beta 90.000000
_cell_angle_gamma 90.000000
_cell_volume 1772.858638
_symmetry_space_group_name_H-M "P B A N"
_symmetry_group_IT_number 50
_space_group.IT_coordinate_system_code '2'
_symmetry_cell_setting 'orthorhombic'
loop_
_space_group_symop_operation_xyz
x,y,z
1/2-x,1/2-y,z
x,1/2-y,-z
1/2-x,y,-z
-x,-y,-z
1/2+x,1/2+y,-z
-x,1/2+y,z
1/2+x,-y,z
loop_
_atom_site_type_symbol
_atom_site_label
_atom_site_fract_x
_atom_site_fract_y
_atom_site_fract_z
Si Si1 0.298120 0.996031 0.628182
Si Si2 0.131833 0.930923 0.763659
Si Si3 0.227443 0.071045 0.101884
Si Si4 0.750000 0.750000 0.500000
Si Si5 0.926404 0.428846 0.216087
Si Si6 0.250000 0.750000 0.500000
O O1 0.189858 0.970760 0.672792
O O2 0.379162 0.019689 0.702024
O O3 0.319906 0.851960 0.563108
O O4 0.312972 0.145623 0.566404
O O5 0.098125 0.752618 0.771524
O O6 0.203706 0.954780 0.845073
O O7 0.042185 0.049108 0.777990
O O8 0.250000 0.250000 0.129302
O O9 0.116997 0.012779 0.127242
O O10 0.250000 0.045560 0.000000
#
# Coordination Sequence:
#
# PCOD8204760 Si02
#       6
#     8   8   8   2   8   2
#     4  10  21  40  60  85 120 157 198 246 300 348
#     4  11  23  39  63  89 122 160 198 244 296 354
#     4  10  22  41  65  91 121 156 196 243 294 352
#     4  10  24  34  66  86 114 160 196 250 302 350
#     4  11  23  39  63  89 122 160 198 244 296 354
#     4  10  16  42  62  78 118 156 200 250 294 346
#
# _framework density 20.306187999999999
#
# number of rings (size 3 to 8) (size 9 to 14) (size 15 to 20)
#    0.000    1.556    2.222    3.333    9.333    2.667 
#    0.000    6.667    0.000    0.000    0.000    0.000 
#    0.000    0.000    0.000    0.000    0.000    0.000 
#
# Total GULP energy -446123.382803 kJ/mol
# GULP energy per Si atom -12392.316189 kJ/mol
# Density = 2.025997 g / cm^3
# Si number density = 20.306188 Si / 1000 Ang^3
#
#
#
# Elastic Constant Matrix: (Units=GPa)
#
#
# Indices 1 2 3 4 5 6 
#
# 1 92.6538 13.0698 24.3637 0.0000 0.0000 0.0000
# 2 13.0698 107.7674 37.8617 0.0000 0.0000 0.0000
# 3 24.3637 37.8617 118.2615 0.0000 0.0000 0.0000
# 4 0.0000 0.0000 0.0000 47.4655 0.0000 0.0000
# 5 0.0000 0.0000 0.0000 0.0000 6.6143 0.0000
# 6 0.0000 0.0000 0.0000 0.0000 0.0000 29.2068
#
#
#
# Elastic Compliance Matrix: (Units=1/GPa)
#
#
# Indices 1 2 3 4 5 6 
#
# 1 0.011449 -0.000631 -0.002157 0.000000 0.000000 0.000000
# 2 -0.000631 0.010490 -0.003228 0.000000 0.000000 0.000000
# 3 -0.002157 -0.003228 0.009934 0.000000 0.000000 0.000000
# 4 0.000000 0.000000 0.000000 0.021068 0.000000 0.000000
# 5 0.000000 0.000000 0.000000 0.000000 0.151187 0.000000
# 6 0.000000 0.000000 0.000000 0.000000 0.000000 0.034239
#
#
# Mechanical properties :
#
#
# Convention : Reuss Voigt Hill
#
# Bulk Modulus (GPa) = 50.40118 52.14145 51.27131
# Shear Modulus (GPa) = 19.45437 32.88315 26.16876
#
# Velocity S-wave (km/s) = 3.09860 4.02850 3.59375
# Velocity P-wave (km/s) = 6.13810 6.88272 6.52104
#
# Compressibility (1/GPa) = 0.01984081
#
# Stress axis : x y z
#
# Youngs Moduli (GPa) = 87.34411 95.32905 100.66692
#
# Poissons Ratio (x) = 0.06013 0.21711
# Poissons Ratio (y) = 0.05510 0.32500
# Poissons Ratio (z) = 0.18838 0.30776
#
# Static dielectric constant tensor:
#      x y z
#    x 3.626010 0.000000 0.000000 
#    y 0.000000 3.989910 0.000000 
#    z 0.000000 0.000000 3.897920 
# 
# 
# High freq. dielectric constant tensor:
#      x y z
#    x 1.764040 0.000000 0.000000 
#    y 0.000000 1.814210 0.000000 
#    z 0.000000 0.000000 1.803510 
# 
# From -- ./inp_files/24602.got.cif
#   From: 2010.03.12/outbox.cif.g09.slc.cpg/sg50_13_cif.got.tgz:24602.got - 2010.04.16 13:23:21.
