data_PCOD8204315
_publ_section_title
;
Structure prediction by ZEFSAII (Michael W. Deem and Ramdas Pophale) SiO2 
 PCOD8204315
Probable space group: P C C M
;
_chemical_formula_sum "Si O2"
_cell_formula_units_Z 34
_cell_length_a 14.163322
_cell_length_b 6.812869
_cell_length_c 18.318466
_cell_angle_alpha 90.000000
_cell_angle_beta 90.000000
_cell_angle_gamma 90.000000
_cell_volume 1767.601127
_symmetry_space_group_name_H-M "P C C M"
_symmetry_group_IT_number 49
_symmetry_cell_setting 'orthorhombic'
loop_
_space_group_symop_operation_xyz
x,y,z
-x,-y,z
x,-y,1/2-z
-x,y,1/2-z
-x,-y,-z
x,y,-z
-x,y,1/2+z
x,-y,1/2+z
loop_
_atom_site_type_symbol
_atom_site_label
_atom_site_fract_x
_atom_site_fract_y
_atom_site_fract_z
Si Si1 0.240975 0.768671 0.080387
Si Si2 0.892169 0.473229 0.335760
Si Si3 0.589406 0.873201 0.681046
Si Si4 0.906434 0.103176 0.580263
Si Si5 0.500000 0.500000 0.750000
O O1 0.184631 0.611734 0.127788
O O2 0.334408 0.850703 0.118314
O O3 0.175434 0.951800 0.068915
O O4 0.266405 0.681498 0.000000
O O5 0.883794 0.500000 0.250000
O O6 0.866938 0.254508 0.360254
O O7 0.000000 0.500000 0.363466
O O8 0.563570 0.647709 0.701528
O O9 0.500000 0.000000 0.651295
O O10 0.629238 0.000000 0.750000
O O11 0.929582 0.197788 0.500000
O O12 0.000000 0.000000 0.612504
#
# Coordination Sequence:
#
# PCOD8204315 Si02
#       5
#     8   8   8   8   2
#     4  11  24  39  62  92 122 162 205 249 306 363
#     4  11  24  38  56  89 124 163 204 252 298 357
#     4   9  21  40  63  90 120 157 201 254 304 367
#     4  10  21  39  60  82 121 166 200 242 297 359
#     4   8  18  40  66  90 118 156 196 240 320 358
#
# _framework density 19.235109000000001
#
# number of rings (size 3 to 8) (size 9 to 14) (size 15 to 20)
#    0.000    2.118    2.353    0.706    4.941    3.294 
#    0.000    0.588    0.000    0.000    0.000    0.000 
#    0.000    0.000    0.000    0.000    0.000    0.000 
#
# Total GULP energy -421311.125393 kJ/mol
# GULP energy per Si atom -12391.503688 kJ/mol
# Density = 1.919133 g / cm^3
# Si number density = 19.235109 Si / 1000 Ang^3
#
#
#
# Elastic Constant Matrix: (Units=GPa)
#
#
# Indices 1 2 3 4 5 6 
#
# 1 119.9255 34.4333 61.9805 0.0000 0.0000 0.0000
# 2 34.4333 119.4028 53.2954 0.0000 0.0000 0.0000
# 3 61.9805 53.2954 120.7125 0.0000 0.0000 0.0000
# 4 0.0000 0.0000 0.0000 26.2670 0.0000 0.0000
# 5 0.0000 0.0000 0.0000 0.0000 39.1356 0.0000
# 6 0.0000 0.0000 0.0000 0.0000 0.0000 26.5143
#
#
#
# Elastic Compliance Matrix: (Units=1/GPa)
#
#
# Indices 1 2 3 4 5 6 
#
# 1 0.011418 -0.000842 -0.005491 0.000000 0.000000 0.000000
# 2 -0.000842 0.010493 -0.004200 0.000000 0.000000 0.000000
# 3 -0.005491 -0.004200 0.012958 0.000000 0.000000 0.000000
# 4 0.000000 0.000000 0.000000 0.038071 0.000000 0.000000
# 5 0.000000 0.000000 0.000000 0.000000 0.025552 0.000000
# 6 0.000000 0.000000 0.000000 0.000000 0.000000 0.037716
#
#
# Mechanical properties :
#
#
# Convention : Reuss Voigt Hill
#
# Bulk Modulus (GPa) = 72.45123 73.27326 72.86224
# Shear Modulus (GPa) = 30.88819 32.40548 31.64684
#
# Velocity S-wave (km/s) = 4.01162 4.10897 4.06059
# Velocity P-wave (km/s) = 7.69450 7.79023 7.74251
#
# Compressibility (1/GPa) = 0.01380239
#
# Stress axis : x y z
#
# Youngs Moduli (GPa) = 87.58010 95.30540 77.17233
#
# Poissons Ratio (x) = 0.08023 0.42376
# Poissons Ratio (y) = 0.07373 0.32415
# Poissons Ratio (z) = 0.48090 0.40031
#
# Static dielectric constant tensor:
#      x y z
#    x 3.374800 0.000000 0.000000 
#    y 0.000000 3.522890 0.000000 
#    z 0.000000 0.000000 3.693900 
# 
# 
# High freq. dielectric constant tensor:
#      x y z
#    x 1.743680 0.000000 0.000000 
#    y 0.000000 1.752800 0.000000 
#    z 0.000000 0.000000 1.746390 
# 
# From -- ./inp_files/15157.got.cif
#   From: 2010.03.12/outbox.cif.g09.slc.cpg/sg49_8_cif.got.tgz:15157.got - 2010.04.14 03:58:27.
