data_PCOD8204197
_publ_section_title
;
Structure prediction by ZEFSAII (Michael W. Deem and Ramdas Pophale) SiO2 
 PCOD8204197
Probable space group: P C C M
;
_chemical_formula_sum "Si O2"
_cell_formula_units_Z 64
_cell_length_a 8.803967
_cell_length_b 26.299785
_cell_length_c 14.648002
_cell_angle_alpha 90.000000
_cell_angle_beta 90.000000
_cell_angle_gamma 90.000000
_cell_volume 3391.634113
_symmetry_space_group_name_H-M "P C C M"
_symmetry_group_IT_number 49
_symmetry_cell_setting 'orthorhombic'
loop_
_space_group_symop_operation_xyz
x,y,z
-x,-y,z
x,-y,1/2-z
-x,y,1/2-z
-x,-y,-z
x,y,-z
-x,y,1/2+z
x,-y,1/2+z
loop_
_atom_site_type_symbol
_atom_site_label
_atom_site_fract_x
_atom_site_fract_y
_atom_site_fract_z
Si Si1 0.676926 0.265105 0.893944
Si Si2 0.677779 0.440801 0.250000
Si Si3 0.819258 0.000000 0.102613
Si Si4 0.177045 0.629311 0.605727
Si Si5 0.177045 0.629311 0.105727
Si Si6 0.819633 0.078873 0.750000
Si Si7 0.676926 0.734895 0.106056
Si Si8 0.819592 0.806475 0.750000
O O1 0.745343 0.318646 0.861367
O O2 0.500000 0.265317 0.870523
O O3 0.758338 0.219997 0.840822
O O4 0.709708 0.255881 0.000000
O O5 0.715495 0.500000 0.250000
O O6 0.500000 0.429681 0.250000
O O7 0.751327 0.417435 0.340456
O O8 0.751327 0.417435 0.159544
O O9 0.762914 0.950235 0.158512
O O10 0.762914 0.049765 0.158512
O O11 0.749586 0.000000 0.000000
O O12 0.000000 0.000000 0.096711
O O13 0.209683 0.618952 0.500000
O O14 0.254657 0.681354 0.638633
O O15 1.000000 0.633552 0.627664
O O16 0.209683 0.618952 0.000000
O O17 0.756058 0.136014 0.750000
O O18 0.000000 0.079154 0.750000
O O19 0.758338 0.780003 0.159178
O O20 0.709708 0.744119 0.000000
O O21 0.000000 0.804682 0.750000
#
# Coordination Sequence:
#
# PCOD8204197 Si02
#       8
#     8   8   8   8   8   8   8   8
#     4  10  21  37  56  77 104 141 181 216 255 311
#     4  11  24  39  56  80 110 144 179 215 259 314
#     4   8  13  25  44  63  91 132 172 210 254 306
#     4  10  21  38  60  83 107 137 175 221 269 314
#     4  10  21  38  60  83 107 137 175 221 269 314
#     4   8  16  27  40  67 101 132 168 207 256 313
#     4  10  21  37  56  77 104 141 181 216 255 311
#     4  11  21  32  50  78 113 143 169 214 268 315
#
# _framework density 18.869959999999999
#
# number of rings (size 3 to 8) (size 9 to 14) (size 15 to 20)
#    0.000    2.250    0.000    3.750    0.000    5.500 
#    0.000    5.000    0.000    0.000    0.000    7.000 
#    0.000   12.000    0.000    0.000    0.000    0.000 
#
# Total GULP energy -793712.269203 kJ/mol
# GULP energy per Si atom -12401.754206 kJ/mol
# Density = 1.882701 g / cm^3
# Si number density = 18.869960 Si / 1000 Ang^3
#
#
#
# Elastic Constant Matrix: (Units=GPa)
#
#
# Indices 1 2 3 4 5 6 
#
# 1 87.3637 63.2171 43.4900 0.0000 0.0000 0.0000
# 2 63.2171 167.6821 83.0443 0.0000 0.0000 0.0000
# 3 43.4900 83.0443 130.0687 0.0000 0.0000 0.0000
# 4 0.0000 0.0000 0.0000 17.2254 0.0000 0.0000
# 5 0.0000 0.0000 0.0000 0.0000 27.8258 0.0000
# 6 0.0000 0.0000 0.0000 0.0000 0.0000 -0.8769
#
#
#
# Elastic Compliance Matrix: (Units=1/GPa)
#
#
# Indices 1 2 3 4 5 6 
#
# 1 0.016165 -0.004998 -0.002214 0.000000 0.000000 0.000000
# 2 -0.004998 0.010267 -0.004884 0.000000 0.000000 0.000000
# 3 -0.002214 -0.004884 0.011547 0.000000 0.000000 0.000000
# 4 0.000000 0.000000 0.000000 0.058054 0.000000 0.000000
# 5 0.000000 0.000000 0.000000 0.000000 0.035938 0.000000
# 6 0.000000 0.000000 0.000000 0.000000 0.000000 -1.140324
#
#
# Mechanical properties :
#
#
# Convention : Reuss Voigt Hill
#
# Bulk Modulus (GPa) = 72.53205 84.95748 78.74476
# Shear Modulus (GPa) = -5.10429 21.85905 8.37738
#
# Velocity S-wave (km/s) = -1.64647 3.40723 2.10931
# Velocity P-wave (km/s) = 5.90820 7.78455 6.91036
#
# Compressibility (1/GPa) = 0.01378701
#
# Stress axis : x y z
#
# Youngs Moduli (GPa) = 61.86195 97.40372 86.60527
#
# Poissons Ratio (x) = 0.48681 0.19175
# Poissons Ratio (y) = 0.30917 0.42296
# Poissons Ratio (z) = 0.13696 0.47570
#
# Static dielectric constant tensor:
#      x y z
#    x 3.322500 0.000000 0.000000 
#    y 0.000000 3.580460 0.000000 
#    z 0.000000 0.000000 3.600990 
# 
# 
# High freq. dielectric constant tensor:
#      x y z
#    x 1.719880 0.000000 0.000000 
#    y 0.000000 1.732980 0.000000 
#    z 0.000000 0.000000 1.746340 
# 
# From -- ./inp_files/12096.got.cif
#   From: 2010.03.12/outbox.cif.g09.slc.cpg/sg49_7_cif.got.tgz:12096.got - 2010.04.14 03:58:27.
