data_PCOD8204359
_publ_section_title
;
Structure prediction by ZEFSAII (Michael W. Deem and Ramdas Pophale) SiO2 
 PCOD8204359
Probable space group: P C C M
;
_chemical_formula_sum "Si O2"
_cell_formula_units_Z 58
_cell_length_a 13.649957
_cell_length_b 12.517451
_cell_length_c 18.006234
_cell_angle_alpha 90.000000
_cell_angle_beta 90.000000
_cell_angle_gamma 90.000000
_cell_volume 3076.593180
_symmetry_space_group_name_H-M "P C C M"
_symmetry_group_IT_number 49
_symmetry_cell_setting 'orthorhombic'
loop_
_space_group_symop_operation_xyz
x,y,z
-x,-y,z
x,-y,1/2-z
-x,y,1/2-z
-x,-y,-z
x,y,-z
-x,y,1/2+z
x,-y,1/2+z
loop_
_atom_site_type_symbol
_atom_site_label
_atom_site_fract_x
_atom_site_fract_y
_atom_site_fract_z
Si Si1 0.821165 0.367316 0.584455
Si Si2 0.009038 0.373292 0.332026
Si Si3 0.000000 0.000000 0.250000
Si Si4 0.286305 0.154039 0.086260
Si Si5 0.679339 0.197517 0.913742
Si Si6 0.489319 0.874677 0.666338
Si Si7 0.191334 0.029628 0.328180
Si Si8 0.801083 0.604481 0.585512
O O1 0.851402 0.381078 0.500000
O O2 0.740521 0.277646 0.596359
O O3 0.781142 0.482764 0.613653
O O4 0.918282 0.324612 0.624051
O O5 0.111692 0.340173 0.368229
O O6 0.000000 0.500000 0.332983
O O7 0.000000 0.325144 0.250000
O O8 0.923382 0.059920 0.192931
O O9 0.384343 0.147782 0.132780
O O10 0.202993 0.074118 0.118465
O O11 0.303144 0.124802 0.000000
O O12 0.569925 0.180942 0.885413
O O13 0.756953 0.129420 0.866474
O O14 0.704867 0.322895 0.903020
O O15 0.686389 0.163535 0.000000
O O16 0.500000 0.829491 0.750000
O O17 0.500000 0.000000 0.665263
O O18 0.245758 0.000000 0.250000
O O19 0.833791 0.604573 0.500000
#
# Coordination Sequence:
#
# PCOD8204359 Si02
#       8
#     8   8   2   8   8   8   8   8
#     4   9  19  36  56  81 116 155 192 235 289 344
#     4   9  17  30  51  80 110 148 199 241 276 327
#     4   8  24  40  58  78 122 164 186 224 296 360
#     4  11  22  37  62  90 115 148 197 248 287 338
#     4  11  22  37  62  90 115 148 197 248 287 338
#     4  11  23  39  62  89 113 149 192 241 299 354
#     4  10  21  40  58  82 115 159 188 229 292 347
#     4   9  19  36  56  81 116 155 192 235 289 344
#
# _framework density 18.852021000000001
#
# number of rings (size 3 to 8) (size 9 to 14) (size 15 to 20)
#    0.414    1.655    1.379    2.069    0.000    5.517 
#    2.483    3.448    0.000    4.138    0.000    0.000 
#    0.000    0.000    0.000    0.000    0.000    0.000 
#
# Total GULP energy -718700.895941 kJ/mol
# GULP energy per Si atom -12391.394758 kJ/mol
# Density = 1.880911 g / cm^3
# Si number density = 18.852021 Si / 1000 Ang^3
#
#
#
# Elastic Constant Matrix: (Units=GPa)
#
#
# Indices 1 2 3 4 5 6 
#
# 1 108.9676 32.0603 50.3078 0.0000 0.0000 0.0000
# 2 32.0603 77.3326 38.7166 0.0000 0.0000 0.0000
# 3 50.3078 38.7166 109.1404 0.0000 0.0000 0.0000
# 4 0.0000 0.0000 0.0000 18.3903 0.0000 0.0000
# 5 0.0000 0.0000 0.0000 0.0000 49.1235 0.0000
# 6 0.0000 0.0000 0.0000 0.0000 0.0000 22.9820
#
#
#
# Elastic Compliance Matrix: (Units=1/GPa)
#
#
# Indices 1 2 3 4 5 6 
#
# 1 0.012106 -0.002706 -0.004621 0.000000 0.000000 0.000000
# 2 -0.002706 0.016328 -0.004545 0.000000 0.000000 0.000000
# 3 -0.004621 -0.004545 0.012905 0.000000 0.000000 0.000000
# 4 0.000000 0.000000 0.000000 0.054377 0.000000 0.000000
# 5 0.000000 0.000000 0.000000 0.000000 0.020357 0.000000
# 6 0.000000 0.000000 0.000000 0.000000 0.000000 0.043512
#
#
# Mechanical properties :
#
#
# Convention : Reuss Voigt Hill
#
# Bulk Modulus (GPa) = 56.82924 59.73445 58.28184
# Shear Modulus (GPa) = 26.42797 29.72288 28.07542
#
# Velocity S-wave (km/s) = 3.74821 3.97500 3.86327
# Velocity P-wave (km/s) = 6.99589 7.26789 7.13319
#
# Compressibility (1/GPa) = 0.01759658
#
# Stress axis : x y z
#
# Youngs Moduli (GPa) = 82.60165 61.24281 77.49129
#
# Poissons Ratio (x) = 0.16571 0.35805
# Poissons Ratio (y) = 0.22350 0.35221
# Poissons Ratio (z) = 0.38166 0.27836
#
# Static dielectric constant tensor:
#      x y z
#    x 3.350700 0.000000 0.000000 
#    y 0.000000 3.330040 0.000000 
#    z 0.000000 0.000000 3.736970 
# 
# 
# High freq. dielectric constant tensor:
#      x y z
#    x 1.721060 0.000000 0.000000 
#    y 0.000000 1.719620 0.000000 
#    z 0.000000 0.000000 1.745870 
# 
# From -- ./inp_files/17886.got.cif
#   From: 2010.03.12/outbox.cif.g09.slc.cpg/sg49_9_cif.got.tgz:17886.got - 2010.04.14 03:58:27.
