data_PCOD8204594
_publ_section_title
;
Structure prediction by ZEFSAII (Michael W. Deem and Ramdas Pophale) SiO2 
 PCOD8204594
Probable space group: P C C M
;
_chemical_formula_sum "Si O2"
_cell_formula_units_Z 56
_cell_length_a 10.289100
_cell_length_b 18.312187
_cell_length_c 14.712522
_cell_angle_alpha 90.000000
_cell_angle_beta 90.000000
_cell_angle_gamma 90.000000
_cell_volume 2772.073416
_symmetry_space_group_name_H-M "P C C M"
_symmetry_group_IT_number 49
_symmetry_cell_setting 'orthorhombic'
loop_
_space_group_symop_operation_xyz
x,y,z
-x,-y,z
x,-y,1/2-z
-x,y,1/2-z
-x,-y,-z
x,y,-z
-x,y,1/2+z
x,-y,1/2+z
loop_
_atom_site_type_symbol
_atom_site_label
_atom_site_fract_x
_atom_site_fract_y
_atom_site_fract_z
Si Si1 0.793075 0.414742 0.750000
Si Si2 0.651396 0.274293 0.750000
Si Si3 1.000000 0.585401 0.898915
Si Si4 0.000000 0.917710 0.392113
Si Si5 0.750499 0.170068 0.398212
Si Si6 0.500000 0.085215 0.855330
Si Si7 0.750499 0.170068 0.898212
O O1 0.751582 0.500000 0.750000
O O2 0.667952 0.362131 0.750000
O O3 0.873441 0.393723 0.840502
O O4 0.873441 0.393723 0.659498
O O5 0.500000 0.254979 0.750000
O O6 0.720577 0.240950 0.661630
O O7 0.720577 0.240950 0.838370
O O8 0.000000 0.500000 0.912974
O O9 0.000000 0.622806 0.000000
O O10 0.000000 0.922540 0.500000
O O11 0.872805 0.874475 0.357276
O O12 0.127195 0.874475 0.357276
O O13 0.000000 0.000000 0.351318
O O14 0.781593 0.197511 0.500000
O O15 0.627799 0.116623 0.401987
O O16 0.500000 0.107363 0.750000
O O17 0.627799 0.116623 0.901987
O O18 0.500000 0.000000 0.871714
O O19 0.781593 0.197511 0.000000
#
# Coordination Sequence:
#
# PCOD8204594 Si02
#       7
#     8   8   8   8   8   8   8
#     4   9  20  37  61  90 119 157 198 242 304 365
#     4  12  25  42  57  83 119 154 204 257 295 356
#     4   8  15  33  61  92 121 145 181 236 292 355
#     4   9  20  37  58  88 120 149 192 245 293 351
#     4  11  22  40  61  83 116 158 197 241 304 358
#     4  11  21  37  61  88 115 150 202 246 286 353
#     4  11  22  40  61  83 116 158 197 241 304 358
#
# _framework density 20.201485999999999
#
# number of rings (size 3 to 8) (size 9 to 14) (size 15 to 20)
#    0.000    1.857    2.857    2.143    0.000    6.571 
#    0.000    2.143    0.000    0.000    0.000    6.000 
#    0.000    0.000    0.000    0.000    0.000    0.000 
#
# Total GULP energy -694286.125326 kJ/mol
# GULP energy per Si atom -12397.966524 kJ/mol
# Density = 2.015551 g / cm^3
# Si number density = 20.201486 Si / 1000 Ang^3
#
#
#
# Elastic Constant Matrix: (Units=GPa)
#
#
# Indices 1 2 3 4 5 6 
#
# 1 134.2413 58.4461 16.8691 0.0000 0.0000 0.0000
# 2 58.4461 125.9733 34.2002 0.0000 0.0000 0.0000
# 3 16.8691 34.2002 120.1353 0.0000 0.0000 0.0000
# 4 0.0000 0.0000 0.0000 14.0186 0.0000 0.0000
# 5 0.0000 0.0000 0.0000 0.0000 21.6710 0.0000
# 6 0.0000 0.0000 0.0000 0.0000 0.0000 36.0604
#
#
#
# Elastic Compliance Matrix: (Units=1/GPa)
#
#
# Indices 1 2 3 4 5 6 
#
# 1 0.009336 -0.004308 -0.000084 0.000000 0.000000 0.000000
# 2 -0.004308 0.010591 -0.002410 0.000000 0.000000 0.000000
# 3 -0.000084 -0.002410 0.009022 0.000000 0.000000 0.000000
# 4 0.000000 0.000000 0.000000 0.071334 0.000000 0.000000
# 5 0.000000 0.000000 0.000000 0.000000 0.046145 0.000000
# 6 0.000000 0.000000 0.000000 0.000000 0.000000 0.027731
#
#
# Mechanical properties :
#
#
# Convention : Reuss Voigt Hill
#
# Bulk Modulus (GPa) = 65.17609 66.59788 65.88698
# Shear Modulus (GPa) = 25.92300 32.40564 29.16432
#
# Velocity S-wave (km/s) = 3.58610 4.00949 3.80369
# Velocity P-wave (km/s) = 7.03419 7.38059 7.20947
#
# Compressibility (1/GPa) = 0.01534305
#
# Stress axis : x y z
#
# Youngs Moduli (GPa) = 107.11584 94.41567 110.84103
#
# Poissons Ratio (x) = 0.40678 0.00935
# Poissons Ratio (y) = 0.46150 0.26715
# Poissons Ratio (z) = 0.00904 0.22756
#
# Static dielectric constant tensor:
#      x y z
#    x 3.661770 0.000000 0.000000 
#    y 0.000000 3.423390 0.000000 
#    z 0.000000 0.000000 4.033650 
# 
# 
# High freq. dielectric constant tensor:
#      x y z
#    x 1.782190 0.000000 0.000000 
#    y 0.000000 1.776480 0.000000 
#    z 0.000000 0.000000 1.795090 
# 
# From -- ./inp_files/11983.got.cif
#   From: 2010.03.12/outbox.cif.g09.slc.cpg/sg49_6_cif.got.tgz:11983.got - 2010.04.14 03:58:27.
