data_PCOD8204623
_publ_section_title
;
Structure prediction by ZEFSAII (Michael W. Deem and Ramdas Pophale) SiO2 
 PCOD8204623
Probable space group: P C C M
;
_chemical_formula_sum "Si O2"
_cell_formula_units_Z 48
_cell_length_a 30.343661
_cell_length_b 9.361788
_cell_length_c 8.380409
_cell_angle_alpha 90.000000
_cell_angle_beta 90.000000
_cell_angle_gamma 90.000000
_cell_volume 2380.630507
_symmetry_space_group_name_H-M "P C C M"
_symmetry_group_IT_number 49
_symmetry_cell_setting 'orthorhombic'
loop_
_space_group_symop_operation_xyz
x,y,z
-x,-y,z
x,-y,1/2-z
-x,y,1/2-z
-x,-y,-z
x,y,-z
-x,y,1/2+z
x,-y,1/2+z
loop_
_atom_site_type_symbol
_atom_site_label
_atom_site_fract_x
_atom_site_fract_y
_atom_site_fract_z
Si Si1 0.783283 0.155221 0.813446
Si Si2 0.954628 0.343091 0.814869
Si Si3 0.374264 0.839808 0.811628
Si Si4 0.294520 0.658876 0.313070
Si Si5 0.549171 0.653813 0.809825
Si Si6 0.876562 0.842157 0.813503
O O1 0.745438 0.268958 0.781105
O O2 0.827438 0.211578 0.727476
O O3 0.768466 0.000000 0.750000
O O4 0.792849 0.141904 0.000000
O O5 0.947222 0.500000 0.750000
O O6 0.912205 0.252755 0.773189
O O7 0.000000 0.273343 0.750000
O O8 0.960170 0.353460 0.000000
O O9 0.338836 0.745195 0.719261
O O10 0.422085 0.778434 0.768684
O O11 0.370636 0.000000 0.750000
O O12 0.365584 0.834099 0.000000
O O13 0.301072 0.500000 0.250000
O O14 0.284060 0.658544 0.500000
O O15 0.566612 0.500000 0.750000
O O16 0.500000 0.680075 0.750000
O O17 0.551599 0.660626 0.000000
O O18 0.882661 0.000000 0.750000
O O19 0.884864 0.834572 0.000000
#
# Coordination Sequence:
#
# PCOD8204623 Si02
#       6
#     8   8   8   8   8   8
#     4  11  22  40  63  90 121 158 197 242 295 354
#     4  11  22  39  60  86 117 155 197 244 296 353
#     4  12  25  43  64  91 123 161 203 250 301 357
#     4  12  25  43  64  91 122 158 200 248 298 354
#     4  11  22  40  64  93 125 163 204 250 301 357
#     4  11  22  39  61  89 120 156 197 244 295 352
#
# _framework density 20.162724000000001
#
# number of rings (size 3 to 8) (size 9 to 14) (size 15 to 20)
#    0.000    0.667    0.000   12.000    0.000    1.333 
#    0.000    6.667    0.000    0.000    0.000    0.000 
#    0.000    0.000    0.000    0.000    0.000    0.000 
#
# Total GULP energy -595490.015474 kJ/mol
# GULP energy per Si atom -12406.041989 kJ/mol
# Density = 2.011683 g / cm^3
# Si number density = 20.162724 Si / 1000 Ang^3
#
#
#
# Elastic Constant Matrix: (Units=GPa)
#
#
# Indices 1 2 3 4 5 6 
#
# 1 105.0074 61.0806 4.0876 0.0000 0.0000 0.0000
# 2 61.0806 102.2036 2.9285 0.0000 0.0000 0.0000
# 3 4.0876 2.9285 108.5543 0.0000 0.0000 0.0000
# 4 0.0000 0.0000 0.0000 36.4103 0.0000 0.0000
# 5 0.0000 0.0000 0.0000 0.0000 40.0960 0.0000
# 6 0.0000 0.0000 0.0000 0.0000 0.0000 27.3761
#
#
#
# Elastic Compliance Matrix: (Units=1/GPa)
#
#
# Indices 1 2 3 4 5 6 
#
# 1 0.014609 -0.008722 -0.000315 0.000000 0.000000 0.000000
# 2 -0.008722 0.014999 -0.000076 0.000000 0.000000 0.000000
# 3 -0.000315 -0.000076 0.009226 0.000000 0.000000 0.000000
# 4 0.000000 0.000000 0.000000 0.027465 0.000000 0.000000
# 5 0.000000 0.000000 0.000000 0.000000 0.024940 0.000000
# 6 0.000000 0.000000 0.000000 0.000000 0.000000 0.036528
#
#
# Mechanical properties :
#
#
# Convention : Reuss Voigt Hill
#
# Bulk Modulus (GPa) = 48.52451 50.21765 49.37108
# Shear Modulus (GPa) = 32.70943 37.28772 34.99858
#
# Velocity S-wave (km/s) = 4.03211 4.30506 4.17082
# Velocity P-wave (km/s) = 6.76727 7.04781 6.90896
#
# Compressibility (1/GPa) = 0.02060814
#
# Stress axis : x y z
#
# Youngs Moduli (GPa) = 68.45302 66.67147 108.39064
#
# Poissons Ratio (x) = 0.58148 0.03412
# Poissons Ratio (y) = 0.59702 0.00826
# Poissons Ratio (z) = 0.02155 0.00508
#
# Static dielectric constant tensor:
#      x y z
#    x 4.062680 0.000000 0.000000 
#    y 0.000000 3.846620 0.000000 
#    z 0.000000 0.000000 3.923730 
# 
# 
# High freq. dielectric constant tensor:
#      x y z
#    x 1.803100 0.000000 0.000000 
#    y 0.000000 1.787400 0.000000 
#    z 0.000000 0.000000 1.815120 
# 
# From -- ./inp_files/6888.got.cif
#   From: 2010.03.12/outbox.cif.g09.slc.cpg/sg49_4_cif.got.tgz:6888.got - 2010.04.14 03:58:27.
