data_PCOD8204604
_publ_section_title
;
Structure prediction by ZEFSAII (Michael W. Deem and Ramdas Pophale) SiO2 
 PCOD8204604
Probable space group: P C C M
;
_chemical_formula_sum "Si O2"
_cell_formula_units_Z 64
_cell_length_a 11.109860
_cell_length_b 15.276186
_cell_length_c 17.530890
_cell_angle_alpha 90.000000
_cell_angle_beta 90.000000
_cell_angle_gamma 90.000000
_cell_volume 2975.277573
_symmetry_space_group_name_H-M "P C C M"
_symmetry_group_IT_number 49
_symmetry_cell_setting 'orthorhombic'
loop_
_space_group_symop_operation_xyz
x,y,z
-x,-y,z
x,-y,1/2-z
-x,y,1/2-z
-x,-y,-z
x,y,-z
-x,y,1/2+z
x,-y,1/2+z
loop_
_atom_site_type_symbol
_atom_site_label
_atom_site_fract_x
_atom_site_fract_y
_atom_site_fract_z
Si Si1 0.824514 0.534379 0.171787
Si Si2 0.194005 0.045499 0.589638
Si Si3 0.443084 0.914559 0.164523
Si Si4 0.438172 0.589892 0.326690
Si Si5 0.061755 0.870053 0.587940
Si Si6 0.210641 0.355616 0.410710
Si Si7 0.024353 0.302050 0.161239
Si Si8 0.451584 0.733943 0.911289
O O1 0.885259 0.500000 0.250000
O O2 0.699434 0.577640 0.194978
O O3 0.803940 0.456178 0.113244
O O4 0.908323 0.609070 0.135126
O O5 0.231256 0.059885 0.500000
O O6 0.298268 0.076290 0.649206
O O7 0.073302 0.099326 0.608657
O O8 0.161647 0.943972 0.605071
O O9 0.500000 0.913911 0.250000
O O10 0.486720 0.824929 0.127372
O O11 0.500000 0.000000 0.122962
O O12 0.500000 0.500000 0.355246
O O13 0.500000 0.625267 0.250000
O O14 0.445454 0.662850 0.392631
O O15 0.067409 0.843617 0.500000
O O16 0.097552 0.785068 0.637978
O O17 0.221159 0.354502 0.500000
O O18 0.329203 0.308563 0.377059
O O19 0.100305 0.297008 0.383851
O O20 0.000000 0.302890 0.250000
O O21 0.443043 0.751749 0.000000
#
# Coordination Sequence:
#
# PCOD8204604 Si02
#       8
#     8   8   8   8   8   8   8   8
#     4  12  23  41  61  89 130 175 221 264 329 387
#     4   9  19  43  76  98 130 176 218 269 336 404
#     4  11  25  44  63  98 139 177 218 271 328 403
#     4  11  21  40  68  93 125 172 220 276 329 384
#     4   9  20  43  72 103 130 166 220 279 337 399
#     4  11  24  42  66  93 125 171 221 269 323 391
#     4  12  25  38  60  96 137 173 212 270 326 401
#     4  11  24  43  70  98 126 170 224 273 329 395
#
# _framework density 21.510598999999999
#
# number of rings (size 3 to 8) (size 9 to 14) (size 15 to 20)
#    0.000    1.250    3.750    3.000    0.000    6.250 
#   11.250    1.875    0.000    0.000    0.000    0.000 
#    0.000    0.000    0.000    0.000    0.000    0.000 
#
# Total GULP energy -793368.830076 kJ/mol
# GULP energy per Si atom -12396.387970 kJ/mol
# Density = 2.146164 g / cm^3
# Si number density = 21.510599 Si / 1000 Ang^3
#
#
#
# Elastic Constant Matrix: (Units=GPa)
#
#
# Indices 1 2 3 4 5 6 
#
# 1 71.5848 16.6905 30.1923 0.0000 0.0000 0.0000
# 2 16.6905 161.7565 49.4716 0.0000 0.0000 0.0000
# 3 30.1923 49.4716 70.8995 0.0000 0.0000 0.0000
# 4 0.0000 0.0000 0.0000 38.6953 0.0000 0.0000
# 5 0.0000 0.0000 0.0000 0.0000 22.1124 0.0000
# 6 0.0000 0.0000 0.0000 0.0000 0.0000 29.0964
#
#
#
# Elastic Compliance Matrix: (Units=1/GPa)
#
#
# Indices 1 2 3 4 5 6 
#
# 1 0.017072 0.000587 -0.007680 0.000000 0.000000 0.000000
# 2 0.000587 0.007880 -0.005748 0.000000 0.000000 0.000000
# 3 -0.007680 -0.005748 0.021386 0.000000 0.000000 0.000000
# 4 0.000000 0.000000 0.000000 0.025843 0.000000 0.000000
# 5 0.000000 0.000000 0.000000 0.000000 0.045223 0.000000
# 6 0.000000 0.000000 0.000000 0.000000 0.000000 0.034369
#
#
# Mechanical properties :
#
#
# Convention : Reuss Voigt Hill
#
# Bulk Modulus (GPa) = 48.41282 55.21664 51.81473
# Shear Modulus (GPa) = 27.12406 31.83991 29.48199
#
# Velocity S-wave (km/s) = 3.55486 3.85151 3.70615
# Velocity P-wave (km/s) = 6.27732 6.74567 6.51570
#
# Compressibility (1/GPa) = 0.02065569
#
# Stress axis : x y z
#
# Youngs Moduli (GPa) = 58.57699 126.91037 46.76006
#
# Poissons Ratio (x) = -0.07453 0.35910
# Poissons Ratio (y) = -0.03440 0.26879
# Poissons Ratio (z) = 0.44985 0.72951
#
# Static dielectric constant tensor:
#      x y z
#    x 3.888640 0.000000 0.000000 
#    y 0.000000 4.388300 0.000000 
#    z 0.000000 0.000000 3.694420 
# 
# 
# High freq. dielectric constant tensor:
#      x y z
#    x 1.840580 0.000000 0.000000 
#    y 0.000000 1.863610 0.000000 
#    z 0.000000 0.000000 1.826300 
# 
# From -- ./inp_files/17342.got.cif
#   From: 2010.03.12/outbox.cif.g09.slc.cpg/sg49_9_cif.got.tgz:17342.got - 2010.04.14 03:58:27.
