data_PCOD8204121
_publ_section_title
;
Structure prediction by ZEFSAII (Michael W. Deem and Ramdas Pophale) SiO2 
 PCOD8204121
Probable space group: P C C M
;
_chemical_formula_sum "Si O2"
_cell_formula_units_Z 36
_cell_length_a 11.304636
_cell_length_b 18.277636
_cell_length_c 8.940647
_cell_angle_alpha 90.000000
_cell_angle_beta 90.000000
_cell_angle_gamma 90.000000
_cell_volume 1847.334560
_symmetry_space_group_name_H-M "P C C M"
_symmetry_group_IT_number 49
_symmetry_cell_setting 'orthorhombic'
loop_
_space_group_symop_operation_xyz
x,y,z
-x,-y,z
x,-y,1/2-z
-x,y,1/2-z
-x,-y,-z
x,y,-z
-x,y,1/2+z
x,-y,1/2+z
loop_
_atom_site_type_symbol
_atom_site_label
_atom_site_fract_x
_atom_site_fract_y
_atom_site_fract_z
Si Si1 0.500000 0.810283 0.250000
Si Si2 0.716325 0.285687 0.170096
Si Si3 0.125675 0.169251 0.179239
Si Si4 0.371666 0.573937 0.320557
Si Si5 0.332281 0.930371 0.338491
O O1 0.407082 0.759200 0.163319
O O2 0.427446 0.864886 0.357490
O O3 0.823264 0.242522 0.246851
O O4 0.707719 0.358187 0.270370
O O5 0.750298 0.305621 0.000000
O O6 0.210952 0.102414 0.228904
O O7 0.000000 0.151235 0.250000
O O8 0.120035 0.178119 0.000000
O O9 0.316081 0.500000 0.250000
O O10 0.500000 0.585808 0.250000
O O11 0.379385 0.568956 0.500000
O O12 0.304803 0.962412 0.500000
O O13 0.381243 0.000000 0.250000
#
# Coordination Sequence:
#
# PCOD8204121 Si02
#       5
#     4   8   8   8   8
#     4  10  21  34  55  80 114 146 188 224 275 338
#     4  11  21  35  58  84 114 150 187 230 282 332
#     4  10  22  40  59  81 108 141 188 236 284 335
#     4  11  21  34  53  81 118 155 191 228 273 327
#     4  10  22  37  54  79 109 144 182 228 280 337
#
# _framework density 19.487538000000001
#
# number of rings (size 3 to 8) (size 9 to 14) (size 15 to 20)
#    0.000    1.556    1.111    5.000    0.000    8.444 
#    0.000    2.222    0.000    0.667    0.000    4.667 
#    0.000    0.000    0.000    0.000    0.000    0.000 
#
# Total GULP energy -446205.939469 kJ/mol
# GULP energy per Si atom -12394.609430 kJ/mol
# Density = 1.944318 g / cm^3
# Si number density = 19.487538 Si / 1000 Ang^3
#
#
#
# Elastic Constant Matrix: (Units=GPa)
#
#
# Indices 1 2 3 4 5 6 
#
# 1 81.9900 22.0577 18.0920 0.0000 0.0000 0.0000
# 2 22.0577 118.0557 43.4335 0.0000 0.0000 0.0000
# 3 18.0920 43.4335 135.2243 0.0000 0.0000 0.0000
# 4 0.0000 0.0000 0.0000 27.1860 0.0000 0.0000
# 5 0.0000 0.0000 0.0000 0.0000 16.8680 0.0000
# 6 0.0000 0.0000 0.0000 0.0000 0.0000 17.9326
#
#
#
# Elastic Compliance Matrix: (Units=1/GPa)
#
#
# Indices 1 2 3 4 5 6 
#
# 1 0.012981 -0.002026 -0.001086 0.000000 0.000000 0.000000
# 2 -0.002026 0.009922 -0.002916 0.000000 0.000000 0.000000
# 3 -0.001086 -0.002916 0.008477 0.000000 0.000000 0.000000
# 4 0.000000 0.000000 0.000000 0.036784 0.000000 0.000000
# 5 0.000000 0.000000 0.000000 0.000000 0.059284 0.000000
# 6 0.000000 0.000000 0.000000 0.000000 0.000000 0.055764
#
#
# Mechanical properties :
#
#
# Convention : Reuss Voigt Hill
#
# Bulk Modulus (GPa) = 51.74762 55.82626 53.78694
# Shear Modulus (GPa) = 24.78818 29.17644 26.98231
#
# Velocity S-wave (km/s) = 3.57038 3.87354 3.72505
# Velocity P-wave (km/s) = 6.60369 6.97962 6.79426
#
# Compressibility (1/GPa) = 0.01932456
#
# Stress axis : x y z
#
# Youngs Moduli (GPa) = 77.03396 100.78777 117.96653
#
# Poissons Ratio (x) = 0.20418 0.12812
# Poissons Ratio (y) = 0.15606 0.34397
# Poissons Ratio (z) = 0.08367 0.29388
#
# Static dielectric constant tensor:
#      x y z
#    x 3.382530 0.000000 0.000000 
#    y 0.000000 3.761780 0.000000 
#    z 0.000000 0.000000 3.503600 
# 
# 
# High freq. dielectric constant tensor:
#      x y z
#    x 1.732310 0.000000 0.000000 
#    y 0.000000 1.765010 0.000000 
#    z 0.000000 0.000000 1.768290 
# 
# From -- ./inp_files/2677.got.cif
#   From: 2010.03.12/outbox.cif.g09.slc.cpg/sg49_2_cif.got.tgz:2677.got - 2010.04.14 03:58:27.
