data_PCOD8204112
_publ_section_title
;
Structure prediction by ZEFSAII (Michael W. Deem and Ramdas Pophale) SiO2 
 PCOD8204112
Probable space group: P C C M
;
_chemical_formula_sum "Si O2"
_cell_formula_units_Z 42
_cell_length_a 11.345777
_cell_length_b 7.826931
_cell_length_c 25.744829
_cell_angle_alpha 90.000000
_cell_angle_beta 90.000000
_cell_angle_gamma 90.000000
_cell_volume 2286.208105
_symmetry_space_group_name_H-M "P C C M"
_symmetry_group_IT_number 49
_symmetry_cell_setting 'orthorhombic'
loop_
_space_group_symop_operation_xyz
x,y,z
-x,-y,z
x,-y,1/2-z
-x,y,1/2-z
-x,-y,-z
x,y,-z
-x,y,1/2+z
x,-y,1/2+z
loop_
_atom_site_type_symbol
_atom_site_label
_atom_site_fract_x
_atom_site_fract_y
_atom_site_fract_z
Si Si1 0.616431 0.347318 0.654731
Si Si2 0.762534 0.791310 0.000000
Si Si3 0.365265 0.307448 0.607413
Si Si4 0.725191 0.416057 0.000000
Si Si5 0.247741 0.951353 0.611552
Si Si6 0.000000 0.000000 0.589216
Si Si7 0.036504 0.242703 0.500000
Si Si8 0.500000 0.500000 0.250000
O O1 0.504989 0.302203 0.617949
O O2 0.682865 0.521202 0.636053
O O3 0.702360 0.188044 0.651203
O O4 0.578143 0.374793 0.714300
O O5 0.689130 0.615478 0.000000
O O6 0.730514 0.901499 0.949061
O O7 0.897139 0.721777 0.000000
O O8 0.336308 0.321135 0.547267
O O9 0.303745 0.133360 0.627270
O O10 0.869691 0.397857 0.000000
O O11 0.108079 0.938709 0.624561
O O12 0.064517 0.138363 0.552291
#
# Coordination Sequence:
#
# PCOD8204112 Si02
#       8
#     8   4   8   4   8   4   4   2
#     4  10  22  40  58  82 106 133 190 227 287 344
#     4  10  21  29  50  76 117 164 194 220 262 304
#     4  10  21  33  53  78 115 148 182 228 263 321
#     4  12  17  32  47  76 118 155 193 225 266 306
#     4  11  19  36  53  83 117 153 188 221 266 322
#     4   9  18  30  52  76 117 152 188 229 252 297
#     4   9  17  30  44  70 115 162 201 220 240 305
#     4   8  20  44  66  82 102 130 168 252 290 336
#
# _framework density 18.371030999999999
#
# number of rings (size 3 to 8) (size 9 to 14) (size 15 to 20)
#    0.000    2.095    3.810    2.000    0.000    2.286 
#    0.000   10.476    0.000    0.000    0.000   16.000 
#    0.000    0.000    0.000    0.000    0.000    0.000 
#
# Total GULP energy -520401.899516 kJ/mol
# GULP energy per Si atom -12390.521417 kJ/mol
# Density = 1.832922 g / cm^3
# Si number density = 18.371031 Si / 1000 Ang^3
#
#
#
# Elastic Constant Matrix: (Units=GPa)
#
#
# Indices 1 2 3 4 5 6 
#
# 1 87.7584 53.4028 39.0276 0.0000 0.0000 0.0000
# 2 53.4028 148.8389 38.9276 0.0000 0.0000 0.0000
# 3 39.0276 38.9276 90.5118 0.0000 0.0000 0.0000
# 4 0.0000 0.0000 0.0000 17.4107 0.0000 0.0000
# 5 0.0000 0.0000 0.0000 0.0000 15.1252 0.0000
# 6 0.0000 0.0000 0.0000 0.0000 0.0000 30.0041
#
#
#
# Elastic Compliance Matrix: (Units=1/GPa)
#
#
# Indices 1 2 3 4 5 6 
#
# 1 0.016453 -0.004561 -0.005133 0.000000 0.000000 0.000000
# 2 -0.004561 0.008834 -0.001833 0.000000 0.000000 0.000000
# 3 -0.005133 -0.001833 0.014050 0.000000 0.000000 0.000000
# 4 0.000000 0.000000 0.000000 0.057436 0.000000 0.000000
# 5 0.000000 0.000000 0.000000 0.000000 0.066115 0.000000
# 6 0.000000 0.000000 0.000000 0.000000 0.000000 0.033329
#
#
# Mechanical properties :
#
#
# Convention : Reuss Voigt Hill
#
# Bulk Modulus (GPa) = 61.40977 65.53611 63.47294
# Shear Modulus (GPa) = 22.25210 25.55808 23.90509
#
# Velocity S-wave (km/s) = 3.48409 3.73395 3.61118
# Velocity P-wave (km/s) = 7.04878 7.37163 7.21201
#
# Compressibility (1/GPa) = 0.01628405
#
# Stress axis : x y z
#
# Youngs Moduli (GPa) = 60.77964 113.19290 71.17539
#
# Poissons Ratio (x) = 0.51625 0.36533
# Poissons Ratio (y) = 0.27720 0.13046
# Poissons Ratio (z) = 0.31197 0.20748
#
# Static dielectric constant tensor:
#      x y z
#    x 3.325230 0.000000 0.000000 
#    y 0.000000 3.578010 0.000000 
#    z 0.000000 0.000000 3.003450 
# 
# 
# High freq. dielectric constant tensor:
#      x y z
#    x 1.704400 0.000000 0.000000 
#    y 0.000000 1.725750 0.000000 
#    z 0.000000 0.000000 1.666690 
# 
# From -- ./inp_files/22831.got.cif
#   From: 2010.03.12/outbox.cif.g09.slc.cpg/sg49_12_cif.got.tgz:22831.got - 2010.04.14 03:58:27.
