data_PCOD8204663
_publ_section_title
;
Structure prediction by ZEFSAII (Michael W. Deem and Ramdas Pophale) SiO2 
 PCOD8204663
Probable space group: P C C M
;
_chemical_formula_sum "Si O2"
_cell_formula_units_Z 64
_cell_length_a 19.650056
_cell_length_b 8.501481
_cell_length_c 18.403066
_cell_angle_alpha 90.000000
_cell_angle_beta 90.000000
_cell_angle_gamma 90.000000
_cell_volume 3074.316420
_symmetry_space_group_name_H-M "P C C M"
_symmetry_group_IT_number 49
_symmetry_cell_setting 'orthorhombic'
loop_
_space_group_symop_operation_xyz
x,y,z
-x,-y,z
x,-y,1/2-z
-x,y,1/2-z
-x,-y,-z
x,y,-z
-x,y,1/2+z
x,-y,1/2+z
loop_
_atom_site_type_symbol
_atom_site_label
_atom_site_fract_x
_atom_site_fract_y
_atom_site_fract_z
Si Si1 0.907486 0.183580 0.914552
Si Si2 0.487587 0.826452 0.834934
Si Si3 0.218534 0.386408 0.414011
Si Si4 0.397822 0.333197 0.920085
Si Si5 0.635151 0.302712 0.917890
Si Si6 0.021714 0.682215 0.325814
Si Si7 0.247472 0.737114 0.585739
Si Si8 0.140828 0.904666 0.674078
O O1 0.848176 0.298845 0.882709
O O2 0.981482 0.248368 0.894306
O O3 0.901561 0.013031 0.880133
O O4 0.901341 0.169475 0.000000
O O5 0.500000 0.818672 0.750000
O O6 0.541392 0.704626 0.866544
O O7 0.410996 0.785366 0.858897
O O8 0.500000 0.000000 0.865623
O O9 0.216481 0.390815 0.500000
O O10 0.286464 0.290256 0.390705
O O11 0.221132 0.566273 0.387146
O O12 0.385403 0.516994 0.919267
O O13 0.327863 0.245181 0.899372
O O14 0.421089 0.279177 0.000000
O O15 0.626563 0.233090 0.000000
O O16 0.000000 0.500000 0.324502
O O17 0.000000 0.762045 0.250000
O O18 0.101000 0.735326 0.327273
O O19 0.231096 0.764143 0.500000
O O20 0.213544 0.868887 0.637144
O O21 0.149649 0.000000 0.750000
#
# Coordination Sequence:
#
# PCOD8204663 Si02
#       8
#     8   8   8   8   8   8   8   8
#     4  11  23  39  64  94 122 156 197 247 301 360
#     4  11  24  38  50  80 124 163 199 247 299 357
#     4   8  17  37  63  93 121 148 195 255 303 352
#     4   9  19  38  63  87 112 150 203 254 299 352
#     4   9  18  36  64  89 112 150 199 251 300 354
#     4  11  24  43  64  85 118 163 205 245 296 356
#     4   9  19  39  64  89 120 157 203 253 298 359
#     4  12  24  40  60  90 127 163 194 247 301 363
#
# _framework density 20.817636
#
# number of rings (size 3 to 8) (size 9 to 14) (size 15 to 20)
#    0.000    2.000    1.250    3.750    0.000    5.750 
#    4.500    2.500    0.000    0.000    0.000    0.000 
#    0.000    0.000    0.000    0.000    0.000    0.000 
#
# Total GULP energy -793119.303937 kJ/mol
# GULP energy per Si atom -12392.489124 kJ/mol
# Density = 2.077025 g / cm^3
# Si number density = 20.817636 Si / 1000 Ang^3
#
#
#
# Elastic Constant Matrix: (Units=GPa)
#
#
# Indices 1 2 3 4 5 6 
#
# 1 86.6765 17.5236 32.5385 0.0000 0.0000 0.0000
# 2 17.5236 50.9605 25.7821 0.0000 0.0000 0.0000
# 3 32.5385 25.7821 78.5633 0.0000 0.0000 0.0000
# 4 0.0000 0.0000 0.0000 130.1560 0.0000 0.0000
# 5 0.0000 0.0000 0.0000 0.0000 17.4933 0.0000
# 6 0.0000 0.0000 0.0000 0.0000 0.0000 30.1779
#
#
#
# Elastic Compliance Matrix: (Units=1/GPa)
#
#
# Indices 1 2 3 4 5 6 
#
# 1 0.013870 -0.002234 -0.005011 0.000000 0.000000 0.000000
# 2 -0.002234 0.023889 -0.006915 0.000000 0.000000 0.000000
# 3 -0.005011 -0.006915 0.017073 0.000000 0.000000 0.000000
# 4 0.000000 0.000000 0.000000 0.007683 0.000000 0.000000
# 5 0.000000 0.000000 0.000000 0.000000 0.057165 0.000000
# 6 0.000000 0.000000 0.000000 0.000000 0.000000 0.033137
#
#
# Mechanical properties :
#
#
# Convention : Reuss Voigt Hill
#
# Bulk Modulus (GPa) = 37.71754 40.87652 39.29703
# Shear Modulus (GPa) = 26.31923 44.92252 35.62087
#
# Velocity S-wave (km/s) = 3.55952 4.65037 4.14102
# Velocity P-wave (km/s) = 5.92039 6.96511 6.46389
#
# Compressibility (1/GPa) = 0.02651287
#
# Stress axis : x y z
#
# Youngs Moduli (GPa) = 72.09739 41.85945 58.57093
#
# Poissons Ratio (x) = 0.09352 0.29352
# Poissons Ratio (y) = 0.16107 0.40499
# Poissons Ratio (z) = 0.36131 0.28944
#
# Static dielectric constant tensor:
#      x y z
#    x 4.044520 0.000000 0.000000 
#    y 0.000000 3.791360 0.000000 
#    z 0.000000 0.000000 3.700750 
# 
# 
# High freq. dielectric constant tensor:
#      x y z
#    x 1.822230 0.000000 0.000000 
#    y 0.000000 1.810910 0.000000 
#    z 0.000000 0.000000 1.799730 
# 
# From -- ./inp_files/21076.got.cif
#   From: 2010.03.12/outbox.cif.g09.slc.cpg/sg49_11_cif.got.tgz:21076.got - 2010.04.14 03:58:27.
