data_PCOD8204299
_publ_section_title
;
Structure prediction by ZEFSAII (Michael W. Deem and Ramdas Pophale) SiO2 
 PCOD8204299
Probable space group: P C C M
;
_chemical_formula_sum "Si O2"
_cell_formula_units_Z 58
_cell_length_a 9.082990
_cell_length_b 15.901642
_cell_length_c 17.906819
_cell_angle_alpha 90.000000
_cell_angle_beta 90.000000
_cell_angle_gamma 90.000000
_cell_volume 2586.361648
_symmetry_space_group_name_H-M "P C C M"
_symmetry_group_IT_number 49
_symmetry_cell_setting 'orthorhombic'
loop_
_space_group_symop_operation_xyz
x,y,z
-x,-y,z
x,-y,1/2-z
-x,y,1/2-z
-x,-y,-z
x,y,-z
-x,y,1/2+z
x,-y,1/2+z
loop_
_atom_site_type_symbol
_atom_site_label
_atom_site_fract_x
_atom_site_fract_y
_atom_site_fract_z
Si Si1 0.485195 0.299925 0.164782
Si Si2 0.500000 0.000000 0.250000
Si Si3 0.961199 0.904532 0.413100
Si Si4 0.259746 0.393323 0.084729
Si Si5 0.886161 0.802716 0.805839
Si Si6 0.680035 0.145488 0.183058
Si Si7 0.013956 0.380713 0.330621
Si Si8 0.694924 0.420729 0.914482
O O1 0.500000 0.329473 0.250000
O O2 0.314810 0.313697 0.137155
O O3 0.556098 0.208479 0.149462
O O4 0.553242 0.367696 0.107918
O O5 0.396237 0.943407 0.197954
O O6 0.940469 0.887727 0.500000
O O7 0.811787 0.870040 0.374455
O O8 0.105194 0.853745 0.383671
O O9 0.000000 0.000000 0.394869
O O10 0.095934 0.422656 0.109726
O O11 0.347270 0.480986 0.094871
O O12 0.258577 0.361203 0.000000
O O13 0.728239 0.809113 0.762540
O O14 0.958650 0.713541 0.820573
O O15 0.000000 0.851270 0.750000
O O16 0.000000 0.426263 0.250000
O O17 0.178975 0.385596 0.359832
O O18 0.739150 0.402024 0.000000
#
# Coordination Sequence:
#
# PCOD8204299 Si02
#       8
#     8   2   8   8   8   8   8   8
#     4  12  24  42  65  93 128 166 226 280 324 385
#     4  12  24  40  68  88 122 176 216 264 316 408
#     4  10  21  38  62  94 128 160 204 268 339 404
#     4  11  25  42  61  91 134 179 222 271 332 403
#     4   9  19  37  61  90 121 157 207 266 322 399
#     4  11  23  41  66  94 128 171 220 265 331 403
#     4  11  22  38  64  95 128 167 218 281 337 381
#     4  11  24  42  64  92 130 179 227 270 332 402
#
# _framework density 22.425322999999999
#
# number of rings (size 3 to 8) (size 9 to 14) (size 15 to 20)
#    0.000    1.241    0.690    6.621    0.000   10.759 
#    0.000    0.345    0.000    0.000    0.000    0.000 
#    0.000    0.000    0.000    0.000    0.000    0.000 
#
# Total GULP energy -718831.098782 kJ/mol
# GULP energy per Si atom -12393.639634 kJ/mol
# Density = 2.237428 g / cm^3
# Si number density = 22.425323 Si / 1000 Ang^3
#
#
#
# Elastic Constant Matrix: (Units=GPa)
#
#
# Indices 1 2 3 4 5 6 
#
# 1 56.7916 11.8270 25.1062 0.0000 0.0000 0.0000
# 2 11.8270 107.2313 37.6565 0.0000 0.0000 0.0000
# 3 25.1062 37.6565 116.1087 0.0000 0.0000 0.0000
# 4 0.0000 0.0000 0.0000 43.7290 0.0000 0.0000
# 5 0.0000 0.0000 0.0000 0.0000 37.4373 0.0000
# 6 0.0000 0.0000 0.0000 0.0000 0.0000 32.7019
#
#
#
# Elastic Compliance Matrix: (Units=1/GPa)
#
#
# Indices 1 2 3 4 5 6 
#
# 1 0.019524 -0.000757 -0.003976 0.000000 0.000000 0.000000
# 2 -0.000757 0.010554 -0.003259 0.000000 0.000000 0.000000
# 3 -0.003976 -0.003259 0.010529 0.000000 0.000000 0.000000
# 4 0.000000 0.000000 0.000000 0.022868 0.000000 0.000000
# 5 0.000000 0.000000 0.000000 0.000000 0.026711 0.000000
# 6 0.000000 0.000000 0.000000 0.000000 0.000000 0.030579
#
#
# Mechanical properties :
#
#
# Convention : Reuss Voigt Hill
#
# Bulk Modulus (GPa) = 40.61373 47.70122 44.15747
# Shear Modulus (GPa) = 34.49296 36.47643 35.48470
#
# Velocity S-wave (km/s) = 3.92615 4.03746 3.98219
# Velocity P-wave (km/s) = 6.22116 6.56141 6.39355
#
# Compressibility (1/GPa) = 0.02462222
#
# Stress axis : x y z
#
# Youngs Moduli (GPa) = 51.21996 94.75422 94.97266
#
# Poissons Ratio (x) = 0.07173 0.37762
# Poissons Ratio (y) = 0.03878 0.30952
# Poissons Ratio (z) = 0.20365 0.30881
#
# Static dielectric constant tensor:
#      x y z
#    x 3.729640 0.000000 0.000000 
#    y 0.000000 3.979040 0.000000 
#    z 0.000000 0.000000 4.386080 
# 
# 
# High freq. dielectric constant tensor:
#      x y z
#    x 1.896920 0.000000 0.000000 
#    y 0.000000 1.887940 0.000000 
#    z 0.000000 0.000000 1.881280 
# 
# From -- ./inp_files/16495.got.cif
#   From: 2010.03.12/outbox.cif.g09.slc.cpg/sg49_9_cif.got.tgz:16495.got - 2010.04.14 03:58:27.
