data_PCOD8204776
_publ_section_title
;
Structure prediction by ZEFSAII (Michael W. Deem and Ramdas Pophale) SiO2 
 PCOD8204776
Probable space group: P B A N
;
_chemical_formula_sum "Si O2"
_cell_formula_units_Z 48
_cell_length_a 12.722720
_cell_length_b 18.114565
_cell_length_c 11.283281
_cell_angle_alpha 90.000000
_cell_angle_beta 90.000000
_cell_angle_gamma 90.000000
_cell_volume 2600.418714
_symmetry_space_group_name_H-M "P B A N"
_symmetry_group_IT_number 50
_space_group.IT_coordinate_system_code '2'
_symmetry_cell_setting 'orthorhombic'
loop_
_space_group_symop_operation_xyz
x,y,z
1/2-x,1/2-y,z
x,1/2-y,-z
1/2-x,y,-z
-x,-y,-z
1/2+x,1/2+y,-z
-x,1/2+y,z
1/2+x,-y,z
loop_
_atom_site_type_symbol
_atom_site_label
_atom_site_fract_x
_atom_site_fract_y
_atom_site_fract_z
Si Si1 0.483017 0.253960 0.135850
Si Si2 0.723285 0.603356 0.634641
Si Si3 0.164894 0.811033 0.277842
Si Si4 0.217036 0.945446 0.636841
Si Si5 0.933923 0.250000 0.500000
Si Si6 0.501723 0.369194 0.325901
Si Si7 0.750000 0.750000 0.782267
O O1 0.556745 0.192978 0.201963
O O2 0.508933 0.333686 0.194219
O O3 0.357031 0.241470 0.142262
O O4 0.517473 0.250000 0.000000
O O5 0.750000 0.619962 0.500000
O O6 0.781383 0.529957 0.682384
O O7 0.601408 0.582564 0.654174
O O8 0.751624 0.676296 0.705500
O O9 0.250000 0.750000 0.232272
O O10 0.212926 0.893499 0.276623
O O11 0.141821 0.796892 0.415754
O O12 0.250000 0.942110 0.500000
O O13 0.097746 0.921383 0.648013
O O14 0.007062 0.198009 0.419997
#
# Coordination Sequence:
#
# PCOD8204776 Si02
#       7
#     8   8   8   8   4   8   4
#     4  10  22  37  61  85 107 154 200 241 276 331
#     4  10  24  34  55  87 116 150 189 237 280 347
#     4  11  18  32  57  87 114 147 182 230 285 348
#     4  11  20  35  54  86 125 150 181 223 295 358
#     4  10  17  30  57  78 116 151 180 218 287 350
#     4  10  21  35  55  83 119 150 188 239 280 349
#     4  10  22  42  58  76 112 157 199 236 286 340
#
# _framework density 18.458566999999999
#
# number of rings (size 3 to 8) (size 9 to 14) (size 15 to 20)
#    0.000    1.667    5.000    0.750    7.000    4.333 
#    0.000    0.000    0.000   13.000    0.000    0.000 
#    0.000    0.000    0.000    0.000    0.000    0.000 
#
# Total GULP energy -594861.899510 kJ/mol
# GULP energy per Si atom -12392.956240 kJ/mol
# Density = 1.841655 g / cm^3
# Si number density = 18.458567 Si / 1000 Ang^3
#
#
#
# Elastic Constant Matrix: (Units=GPa)
#
#
# Indices 1 2 3 4 5 6 
#
# 1 101.2116 38.1553 36.7509 0.0000 0.0000 0.0000
# 2 38.1553 122.9231 34.6920 0.0000 0.0000 0.0000
# 3 36.7509 34.6920 97.0162 0.0000 0.0000 0.0000
# 4 0.0000 0.0000 0.0000 49.4842 0.0000 0.0000
# 5 0.0000 0.0000 0.0000 0.0000 18.4104 0.0000
# 6 0.0000 0.0000 0.0000 0.0000 0.0000 28.2554
#
#
#
# Elastic Compliance Matrix: (Units=1/GPa)
#
#
# Indices 1 2 3 4 5 6 
#
# 1 0.012251 -0.002773 -0.003649 0.000000 0.000000 0.000000
# 2 -0.002773 0.009676 -0.002410 0.000000 0.000000 0.000000
# 3 -0.003649 -0.002410 0.012552 0.000000 0.000000 0.000000
# 4 0.000000 0.000000 0.000000 0.020208 0.000000 0.000000
# 5 0.000000 0.000000 0.000000 0.000000 0.054317 0.000000
# 6 0.000000 0.000000 0.000000 0.000000 0.000000 0.035391
#
#
# Mechanical properties :
#
#
# Convention : Reuss Voigt Hill
#
# Bulk Modulus (GPa) = 59.47081 60.03860 59.75471
# Shear Modulus (GPa) = 29.82170 33.33352 31.57761
#
# Velocity S-wave (km/s) = 4.02382 4.25415 4.14058
# Velocity P-wave (km/s) = 7.34007 7.53174 7.43652
#
# Compressibility (1/GPa) = 0.01681497
#
# Stress axis : x y z
#
# Youngs Moduli (GPa) = 81.62862 103.34972 79.67116
#
# Poissons Ratio (x) = 0.28656 0.29074
# Poissons Ratio (y) = 0.22633 0.19198
# Poissons Ratio (z) = 0.29788 0.24904
#
# Static dielectric constant tensor:
#      x y z
#    x 3.617820 0.000000 0.000000 
#    y 0.000000 3.408450 0.000000 
#    z 0.000000 0.000000 3.106180 
# 
# 
# High freq. dielectric constant tensor:
#      x y z
#    x 1.734770 0.000000 0.000000 
#    y 0.000000 1.705530 0.000000 
#    z 0.000000 0.000000 1.682200 
# 
# From -- ./inp_files/20339.got.cif
#   From: 2010.03.12/outbox.cif.g09.slc.cpg/sg50_11_cif.got.tgz:20339.got - 2010.04.16 13:23:21.
