data_PCOD8204401
_publ_section_title
;
Structure prediction by ZEFSAII (Michael W. Deem and Ramdas Pophale) SiO2 
 PCOD8204401
Probable space group: P C C M
;
_chemical_formula_sum "Si O2"
_cell_formula_units_Z 48
_cell_length_a 18.898682
_cell_length_b 7.929048
_cell_length_c 16.718514
_cell_angle_alpha 90.000000
_cell_angle_beta 90.000000
_cell_angle_gamma 90.000000
_cell_volume 2505.245193
_symmetry_space_group_name_H-M "P C C M"
_symmetry_group_IT_number 49
_symmetry_cell_setting 'orthorhombic'
loop_
_space_group_symop_operation_xyz
x,y,z
-x,-y,z
x,-y,1/2-z
-x,y,1/2-z
-x,-y,-z
x,y,-z
-x,y,1/2+z
x,-y,1/2+z
loop_
_atom_site_type_symbol
_atom_site_label
_atom_site_fract_x
_atom_site_fract_y
_atom_site_fract_z
Si Si1 0.921232 0.023633 0.404972
Si Si2 0.306894 0.383889 0.825448
Si Si3 0.824457 0.275525 0.094246
Si Si4 0.831768 0.341858 0.594528
Si Si5 0.664753 0.701687 0.408752
Si Si6 0.423475 0.192959 0.736030
O O1 0.922005 0.008741 0.500000
O O2 0.892712 0.209406 0.380102
O O3 0.873526 0.871579 0.368144
O O4 0.000000 0.000000 0.370034
O O5 0.285984 0.500000 0.750000
O O6 0.238517 0.283530 0.857673
O O7 0.336132 0.499559 0.897824
O O8 0.368311 0.256798 0.801698
O O9 0.849957 0.464488 0.120543
O O10 0.743290 0.237924 0.119146
O O11 0.830345 0.266665 0.000000
O O12 0.817028 0.331617 0.500000
O O13 0.648413 0.750507 0.500000
O O14 0.604235 0.781942 0.353985
O O15 0.500000 0.283050 0.750000
O O16 0.434543 0.000000 0.750000
#
# Coordination Sequence:
#
# PCOD8204401 Si02
#       6
#     8   8   8   8   8   8
#     4   9  17  27  43  73 108 139 172 212 267 323
#     4   9  18  33  54  77 100 134 180 223 267 320
#     4   8  15  28  46  72 104 134 173 224 264 305
#     4   9  17  30  49  75 105 136 178 223 264 316
#     4   9  18  35  57  80 104 139 185 228 268 312
#     4  10  22  38  53  78 114 144 174 215 273 335
#
# _framework density 19.159801999999999
#
# number of rings (size 3 to 8) (size 9 to 14) (size 15 to 20)
#    0.000    3.000    0.000    1.500    2.333    3.667 
#    0.000    8.333    0.000    0.000    0.000   30.333 
#    0.000    0.000    0.000    0.000    0.000    0.000 
#
# Total GULP energy -594777.740023 kJ/mol
# GULP energy per Si atom -12391.202917 kJ/mol
# Density = 1.911619 g / cm^3
# Si number density = 19.159802 Si / 1000 Ang^3
#
#
#
# Elastic Constant Matrix: (Units=GPa)
#
#
# Indices 1 2 3 4 5 6 
#
# 1 153.5117 71.7499 49.0394 0.0000 0.0000 0.0000
# 2 71.7499 98.1901 23.4215 0.0000 0.0000 0.0000
# 3 49.0394 23.4215 42.8493 0.0000 0.0000 0.0000
# 4 0.0000 0.0000 0.0000 12.4075 0.0000 0.0000
# 5 0.0000 0.0000 0.0000 0.0000 33.2067 0.0000
# 6 0.0000 0.0000 0.0000 0.0000 0.0000 24.5224
#
#
#
# Elastic Compliance Matrix: (Units=1/GPa)
#
#
# Indices 1 2 3 4 5 6 
#
# 1 0.013563 -0.007139 -0.011620 0.000000 0.000000 0.000000
# 2 -0.007139 0.015469 -0.000285 0.000000 0.000000 0.000000
# 3 -0.011620 -0.000285 0.036792 0.000000 0.000000 0.000000
# 4 0.000000 0.000000 0.000000 0.080596 0.000000 0.000000
# 5 0.000000 0.000000 0.000000 0.000000 0.030114 0.000000
# 6 0.000000 0.000000 0.000000 0.000000 0.000000 0.040779
#
#
# Mechanical properties :
#
#
# Convention : Reuss Voigt Hill
#
# Bulk Modulus (GPa) = 36.05449 64.77475 50.41462
# Shear Modulus (GPa) = 18.89307 24.04999 21.47153
#
# Velocity S-wave (km/s) = 3.14360 3.54677 3.35125
# Velocity P-wave (km/s) = 5.65994 7.11715 6.42996
#
# Compressibility (1/GPa) = 0.02773579
#
# Stress axis : x y z
#
# Youngs Moduli (GPa) = 73.73071 64.64570 27.17971
#
# Poissons Ratio (x) = 0.46150 0.31583
# Poissons Ratio (y) = 0.52636 0.00775
# Poissons Ratio (z) = 0.85675 0.01843
#
# Static dielectric constant tensor:
#      x y z
#    x 3.799600 0.000000 0.000000 
#    y 0.000000 3.703730 0.000000 
#    z 0.000000 0.000000 3.518240 
# 
# 
# High freq. dielectric constant tensor:
#      x y z
#    x 1.739490 0.000000 0.000000 
#    y 0.000000 1.741500 0.000000 
#    z 0.000000 0.000000 1.717120 
# 
# From -- ./inp_files/18119.got.cif
#   From: 2010.03.12/outbox.cif.g09.slc.cpg/sg49_10_cif.got.tgz:18119.got - 2010.04.14 03:58:27.
