data_PCOD8204020
_publ_section_title
;
Structure prediction by ZEFSAII (Michael W. Deem and Ramdas Pophale) SiO2 
 PCOD8204020
Probable space group: P C C M
;
_chemical_formula_sum "Si O2"
_cell_formula_units_Z 48
_cell_length_a 18.564929
_cell_length_b 13.832285
_cell_length_c 9.772595
_cell_angle_alpha 90.000000
_cell_angle_beta 90.000000
_cell_angle_gamma 90.000000
_cell_volume 2509.557334
_symmetry_space_group_name_H-M "P C C M"
_symmetry_group_IT_number 49
_symmetry_cell_setting 'orthorhombic'
loop_
_space_group_symop_operation_xyz
x,y,z
-x,-y,z
x,-y,1/2-z
-x,y,1/2-z
-x,-y,-z
x,y,-z
-x,y,1/2+z
x,-y,1/2+z
loop_
_atom_site_type_symbol
_atom_site_label
_atom_site_fract_x
_atom_site_fract_y
_atom_site_fract_z
Si Si1 0.345136 0.797439 0.270945
Si Si2 0.698241 0.408597 0.338962
Si Si3 0.133358 0.587060 0.343792
Si Si4 0.569116 0.112441 0.500000
Si Si5 0.067587 0.208992 0.840239
Si Si6 0.206854 0.089729 0.844653
Si Si7 0.601710 0.896539 0.500000
O O1 0.343679 0.681373 0.271350
O O2 0.410819 0.829664 0.365175
O O3 0.269281 0.831281 0.332430
O O4 0.360114 0.843637 0.124880
O O5 0.672277 0.500000 0.250000
O O6 0.679067 0.421414 0.500000
O O7 0.782930 0.391796 0.318847
O O8 0.105022 0.500000 0.250000
O O9 0.119258 0.557130 0.500000
O O10 0.089175 0.681886 0.302848
O O11 0.483874 0.107640 0.500000
O O12 0.615007 0.011872 0.500000
O O13 0.132206 0.138011 0.798961
O O14 0.000000 0.176776 0.750000
O O15 0.048555 0.199564 0.000000
O O16 0.225593 0.000000 0.750000
O O17 0.201876 0.053080 0.000000
#
# Coordination Sequence:
#
# PCOD8204020 Si02
#       7
#     8   8   8   4   8   8   4
#     4  12  22  40  65  93 128 163 204 257 308 358
#     4  10  20  37  62  90 121 159 204 257 309 359
#     4   9  18  35  56  82 113 149 194 243 299 357
#     4  11  22  44  65  91 132 172 198 247 311 361
#     4  10  22  40  58  81 118 158 197 245 304 358
#     4  11  23  40  62  87 118 158 204 251 302 361
#     4  11  26  38  63 101 130 162 210 245 297 383
#
# _framework density 19.126878000000001
#
# number of rings (size 3 to 8) (size 9 to 14) (size 15 to 20)
#    0.000    1.500    3.333    2.000    2.333    3.333 
#    0.000    3.333    0.000    3.000    0.000    0.000 
#    0.000    0.000    0.000    0.000    0.000    0.000 
#
# Total GULP energy -595311.308264 kJ/mol
# GULP energy per Si atom -12402.318922 kJ/mol
# Density = 1.908334 g / cm^3
# Si number density = 19.126878 Si / 1000 Ang^3
#
#
#
# Elastic Constant Matrix: (Units=GPa)
#
#
# Indices 1 2 3 4 5 6 
#
# 1 55.0799 23.7450 21.1755 0.0000 0.0000 0.0000
# 2 23.7450 103.8275 31.2293 0.0000 0.0000 0.0000
# 3 21.1755 31.2293 80.3931 0.0000 0.0000 0.0000
# 4 0.0000 0.0000 0.0000 30.3664 0.0000 0.0000
# 5 0.0000 0.0000 0.0000 0.0000 37.4561 0.0000
# 6 0.0000 0.0000 0.0000 0.0000 0.0000 26.3000
#
#
#
# Elastic Compliance Matrix: (Units=1/GPa)
#
#
# Indices 1 2 3 4 5 6 
#
# 1 0.021333 -0.003611 -0.004217 0.000000 0.000000 0.000000
# 2 -0.003611 0.011517 -0.003523 0.000000 0.000000 0.000000
# 3 -0.004217 -0.003523 0.014918 0.000000 0.000000 0.000000
# 4 0.000000 0.000000 0.000000 0.032931 0.000000 0.000000
# 5 0.000000 0.000000 0.000000 0.000000 0.026698 0.000000
# 6 0.000000 0.000000 0.000000 0.000000 0.000000 0.038023
#
#
# Mechanical properties :
#
#
# Convention : Reuss Voigt Hill
#
# Bulk Modulus (GPa) = 39.89154 43.51111 41.70133
# Shear Modulus (GPa) = 28.33262 29.70121 29.01691
#
# Velocity S-wave (km/s) = 3.85294 3.94490 3.89919
# Velocity P-wave (km/s) = 6.37927 6.59907 6.49010
#
# Compressibility (1/GPa) = 0.02506797
#
# Stress axis : x y z
#
# Youngs Moduli (GPa) = 46.87575 86.83090 67.03334
#
# Poissons Ratio (x) = 0.31350 0.28265
# Poissons Ratio (y) = 0.16925 0.23614
# Poissons Ratio (z) = 0.19766 0.30588
#
# Static dielectric constant tensor:
#      x y z
#    x 3.341290 0.000000 0.000000 
#    y 0.000000 3.551280 0.000000 
#    z 0.000000 0.000000 3.419860 
# 
# 
# High freq. dielectric constant tensor:
#      x y z
#    x 1.734940 0.000000 0.000000 
#    y 0.000000 1.747390 0.000000 
#    z 0.000000 0.000000 1.749460 
# 
# From -- ./inp_files/3750.got.cif
#   From: 2010.03.12/outbox.cif.g09.slc.cpg/sg49_2_cif.got.tgz:3750.got - 2010.04.14 03:58:27.
