data_PCOD8204439
_publ_section_title
;
Structure prediction by ZEFSAII (Michael W. Deem and Ramdas Pophale) SiO2 
 PCOD8204439
Probable space group: P C C M
;
_chemical_formula_sum "Si O2"
_cell_formula_units_Z 64
_cell_length_a 10.044177
_cell_length_b 18.683351
_cell_length_c 17.694523
_cell_angle_alpha 90.000000
_cell_angle_beta 90.000000
_cell_angle_gamma 90.000000
_cell_volume 3320.534446
_symmetry_space_group_name_H-M "P C C M"
_symmetry_group_IT_number 49
_symmetry_cell_setting 'orthorhombic'
loop_
_space_group_symop_operation_xyz
x,y,z
-x,-y,z
x,-y,1/2-z
-x,y,1/2-z
-x,-y,-z
x,y,-z
-x,y,1/2+z
x,-y,1/2+z
loop_
_atom_site_type_symbol
_atom_site_label
_atom_site_fract_x
_atom_site_fract_y
_atom_site_fract_z
Si Si1 0.243844 0.847535 0.835432
Si Si2 0.848678 0.692035 0.338344
Si Si3 0.495914 0.917767 0.089475
Si Si4 0.997788 0.916305 0.415700
Si Si5 0.351490 0.416134 0.411979
Si Si6 0.850302 0.309141 0.340095
Si Si7 0.752605 0.845658 0.843566
Si Si8 0.651312 0.581982 0.087969
O O1 0.218180 0.766556 0.862843
O O2 0.373024 0.876943 0.875311
O O3 0.121681 0.895312 0.861402
O O4 0.261281 0.853476 0.745967
O O5 0.757557 0.627921 0.366813
O O6 0.857135 0.688097 0.249163
O O7 0.998526 0.686429 0.372466
O O8 0.622124 0.873092 0.115420
O O9 0.500000 0.000000 0.118261
O O10 0.483489 0.915976 0.000000
O O11 0.986241 0.881693 0.500000
O O12 0.130372 0.894408 0.373504
O O13 0.000000 0.000000 0.425396
O O14 0.334112 0.400011 0.500000
O O15 0.501881 0.395449 0.386371
O O16 0.325491 0.498947 0.394189
O O17 0.780648 0.236142 0.367497
O O18 0.763117 0.375246 0.367561
O O19 0.668552 0.597784 0.000000
#
# Coordination Sequence:
#
# PCOD8204439 Si02
#       8
#     8   8   8   8   8   8   8   8
#     4  11  23  41  62  87 120 159 202 246 296 359
#     4  10  22  40  59  85 121 156 194 242 292 345
#     4  11  25  43  61  87 122 155 196 253 309 360
#     4  11  23  39  61  89 120 155 198 249 301 352
#     4   9  20  39  61  88 121 155 195 241 288 344
#     4  10  22  40  59  85 121 156 194 242 292 345
#     4  11  23  41  62  87 120 159 202 246 296 359
#     4   9  20  39  61  88 121 155 195 241 288 344
#
# _framework density 19.274004999999999
#
# number of rings (size 3 to 8) (size 9 to 14) (size 15 to 20)
#    0.000    1.750    1.250    3.000    1.750    9.000 
#    0.000    3.750    0.000    0.000    0.000    0.000 
#    0.000    0.000    0.000    0.000    0.000    0.000 
#
# Total GULP energy -793666.293137 kJ/mol
# GULP energy per Si atom -12401.035830 kJ/mol
# Density = 1.923014 g / cm^3
# Si number density = 19.274005 Si / 1000 Ang^3
#
#
#
# Elastic Constant Matrix: (Units=GPa)
#
#
# Indices 1 2 3 4 5 6 
#
# 1 33.4288 61.0471 12.9417 0.0000 0.0000 0.0000
# 2 61.0471 104.3352 29.0089 0.0000 0.0000 0.0000
# 3 12.9417 29.0089 36.7641 0.0000 0.0000 0.0000
# 4 0.0000 0.0000 0.0000 5.6713 0.0000 0.0000
# 5 0.0000 0.0000 0.0000 0.0000 54.0399 0.0000
# 6 0.0000 0.0000 0.0000 0.0000 0.0000 40.2974
#
#
#
# Elastic Compliance Matrix: (Units=1/GPa)
#
#
# Indices 1 2 3 4 5 6 
#
# 1 -0.350074 0.218504 -0.049179 0.000000 0.000000 0.000000
# 2 0.218504 -0.124104 0.021008 0.000000 0.000000 0.000000
# 3 -0.049179 0.021008 0.027936 0.000000 0.000000 0.000000
# 4 0.000000 0.000000 0.000000 0.176328 0.000000 0.000000
# 5 0.000000 0.000000 0.000000 0.000000 0.018505 0.000000
# 6 0.000000 0.000000 0.000000 0.000000 0.000000 0.024816
#
#
# Mechanical properties :
#
#
# Convention : Reuss Voigt Hill
#
# Bulk Modulus (GPa) = -15.24919 42.28038 13.51559
# Shear Modulus (GPa) = -7.94764 24.77040 8.41138
#
# Velocity S-wave (km/s) = -2.03284 3.58882 2.09131
# Velocity P-wave (km/s) = 3.66591 6.25755 3.58595
#
# Compressibility (1/GPa) = -0.06557724
#
# Stress axis : x y z
#
# Youngs Moduli (GPa) = -2.85654 -8.05775 35.79587
#
# Poissons Ratio (x) = 1.76065 1.76041
# Poissons Ratio (y) = 0.62416 -0.75199
# Poissons Ratio (z) = -0.14048 0.16927
#
# Static dielectric constant tensor:
#      x y z
#    x 3.394550 0.000000 0.000000 
#    y 0.000000 3.676110 0.000000 
#    z 0.000000 0.000000 3.540030 
# 
# 
# High freq. dielectric constant tensor:
#      x y z
#    x 1.766400 0.000000 0.000000 
#    y 0.000000 1.757480 0.000000 
#    z 0.000000 0.000000 1.750440 
# 
# From -- ./inp_files/20013.got.cif
#   From: 2010.03.12/outbox.cif.g09.slc.cpg/sg49_11_cif.got.tgz:20013.got - 2010.04.14 03:58:27.
