data_PCOD8204100
_publ_section_title
;
Structure prediction by ZEFSAII (Michael W. Deem and Ramdas Pophale) SiO2 
 PCOD8204100
Probable space group: P C C M
;
_chemical_formula_sum "Si O2"
_cell_formula_units_Z 64
_cell_length_a 9.305163
_cell_length_b 15.318267
_cell_length_c 22.713725
_cell_angle_alpha 90.000000
_cell_angle_beta 90.000000
_cell_angle_gamma 90.000000
_cell_volume 3237.590996
_symmetry_space_group_name_H-M "P C C M"
_symmetry_group_IT_number 49
_symmetry_cell_setting 'orthorhombic'
loop_
_space_group_symop_operation_xyz
x,y,z
-x,-y,z
x,-y,1/2-z
-x,y,1/2-z
-x,-y,-z
x,y,-z
-x,y,1/2+z
x,-y,1/2+z
loop_
_atom_site_type_symbol
_atom_site_label
_atom_site_fract_x
_atom_site_fract_y
_atom_site_fract_z
Si Si1 0.825137 0.318410 0.111028
Si Si2 0.967418 0.905182 0.330524
Si Si3 0.338962 0.518925 0.068718
Si Si4 0.246476 0.795074 0.350211
Si Si5 0.476905 0.099354 0.646694
Si Si6 0.230334 0.867921 0.934102
Si Si7 0.256484 0.790235 0.780543
Si Si8 0.143149 0.647202 0.569779
O O1 0.711462 0.394100 0.100693
O O2 0.792129 0.236637 0.068861
O O3 0.798361 0.288817 0.178403
O O4 0.985866 0.354504 0.099620
O O5 0.876837 0.916920 0.390379
O O6 0.872936 0.860973 0.278912
O O7 0.098579 0.845929 0.349433
O O8 0.000000 0.000000 0.305649
O O9 0.500000 0.500000 0.092057
O O10 0.225317 0.442781 0.082698
O O11 0.343384 0.538333 0.000000
O O12 0.368552 0.862268 0.368328
O O13 0.281258 0.754943 0.285342
O O14 0.240287 0.720703 0.399554
O O15 0.390135 0.104410 0.585545
O O16 0.397708 0.159361 0.695758
O O17 0.500000 0.000000 0.669179
O O18 0.202972 0.900583 0.000000
O O19 0.129894 0.665055 0.500000
#
# Coordination Sequence:
#
# PCOD8204100 Si02
#       8
#     8   8   8   8   8   8   8   8
#     4  10  20  40  62  86 124 158 199 241 301 363
#     4  10  21  36  58  88 118 157 204 256 302 347
#     4  10  22  38  63  94 121 154 200 248 291 355
#     4  12  22  38  62  90 123 153 210 259 293 361
#     4  10  23  40  58  85 121 163 213 257 307 351
#     4  10  21  38  59  85 124 170 202 241 313 371
#     4  10  23  39  60  87 120 167 199 250 314 356
#     4  11  23  38  62  94 121 156 195 243 305 362
#
# _framework density 19.767783999999999
#
# number of rings (size 3 to 8) (size 9 to 14) (size 15 to 20)
#    0.000    1.875    2.500    3.750    3.500    5.000 
#    0.000    1.875    0.000    2.250    0.000    0.000 
#    0.000    0.000    0.000    0.000    0.000    0.000 
#
# Total GULP energy -793477.207212 kJ/mol
# GULP energy per Si atom -12398.081363 kJ/mol
# Density = 1.972279 g / cm^3
# Si number density = 19.767784 Si / 1000 Ang^3
#
#
#
# Elastic Constant Matrix: (Units=GPa)
#
#
# Indices 1 2 3 4 5 6 
#
# 1 91.4085 25.7756 25.6797 0.0000 0.0000 0.0000
# 2 25.7756 103.9525 24.5129 0.0000 0.0000 0.0000
# 3 25.6797 24.5129 84.7331 0.0000 0.0000 0.0000
# 4 0.0000 0.0000 0.0000 6.2617 0.0000 0.0000
# 5 0.0000 0.0000 0.0000 0.0000 8.1399 0.0000
# 6 0.0000 0.0000 0.0000 0.0000 0.0000 39.6235
#
#
#
# Elastic Compliance Matrix: (Units=1/GPa)
#
#
# Indices 1 2 3 4 5 6 
#
# 1 0.012476 -0.002363 -0.003098 0.000000 0.000000 0.000000
# 2 -0.002363 0.010772 -0.002400 0.000000 0.000000 0.000000
# 3 -0.003098 -0.002400 0.013435 0.000000 0.000000 0.000000
# 4 0.000000 0.000000 0.000000 0.159700 0.000000 0.000000
# 5 0.000000 0.000000 0.000000 0.000000 0.122852 0.000000
# 6 0.000000 0.000000 0.000000 0.000000 0.000000 0.025238
#
#
# Mechanical properties :
#
#
# Convention : Reuss Voigt Hill
#
# Bulk Modulus (GPa) = 47.70640 48.00340 47.85490
# Shear Modulus (GPa) = 13.61724 24.41341 19.01533
#
# Velocity S-wave (km/s) = 2.62746 3.51808 3.10487
# Velocity P-wave (km/s) = 5.77846 6.39053 6.09219
#
# Compressibility (1/GPa) = 0.02096155
#
# Stress axis : x y z
#
# Youngs Moduli (GPa) = 80.15078 92.83599 74.43337
#
# Poissons Ratio (x) = 0.21939 0.23056
# Poissons Ratio (y) = 0.18941 0.17864
# Poissons Ratio (z) = 0.24827 0.22281
#
# Static dielectric constant tensor:
#      x y z
#    x 3.921750 0.000000 0.000000 
#    y 0.000000 3.610360 0.000000 
#    z 0.000000 0.000000 3.492130 
# 
# 
# High freq. dielectric constant tensor:
#      x y z
#    x 1.790140 0.000000 0.000000 
#    y 0.000000 1.759340 0.000000 
#    z 0.000000 0.000000 1.761720 
# 
# From -- ./inp_files/22545.got.cif
#   From: 2010.03.12/outbox.cif.g09.slc.cpg/sg49_12_cif.got.tgz:22545.got - 2010.04.14 03:58:27.
