data_PCOD8204848
_publ_section_title
;
Structure prediction by ZEFSAII (Michael W. Deem and Ramdas Pophale) SiO2 
 PCOD8204848
Probable space group: P B A N
;
_chemical_formula_sum "Si O2"
_cell_formula_units_Z 42
_cell_length_a 15.128638
_cell_length_b 9.877456
_cell_length_c 14.074980
_cell_angle_alpha 90.000000
_cell_angle_beta 90.000000
_cell_angle_gamma 90.000000
_cell_volume 2103.258832
_symmetry_space_group_name_H-M "P B A N"
_symmetry_group_IT_number 50
_space_group.IT_coordinate_system_code '2'
_symmetry_cell_setting 'orthorhombic'
loop_
_space_group_symop_operation_xyz
x,y,z
1/2-x,1/2-y,z
x,1/2-y,-z
1/2-x,y,-z
-x,-y,-z
1/2+x,1/2+y,-z
-x,1/2+y,z
1/2+x,-y,z
loop_
_atom_site_type_symbol
_atom_site_label
_atom_site_fract_x
_atom_site_fract_y
_atom_site_fract_z
Si Si1 0.082701 0.140080 0.427170
Si Si2 0.392772 0.570970 0.578197
Si Si3 0.076981 0.135877 0.217608
Si Si4 0.756720 0.589641 0.107330
Si Si5 0.250000 0.750000 0.500000
Si Si6 0.909764 0.945748 0.225883
O O1 0.123504 0.250000 0.500000
O O2 0.123956 0.134328 0.322086
O O3 0.978192 0.167058 0.407993
O O4 0.098470 0.995474 0.474501
O O5 0.306404 0.662626 0.574562
O O6 0.387127 0.457891 0.661545
O O7 0.146098 0.059098 0.148970
O O8 0.058757 0.294893 0.196239
O O9 0.986133 0.054325 0.203754
O O10 0.750000 0.750000 0.113171
O O11 0.678567 0.517727 0.166884
O O12 0.750000 0.535304 0.000000
#
# Coordination Sequence:
#
# PCOD8204848 Si02
#       6
#     8   8   8   8   2   8
#     4  10  18  36  55  78 116 159 195 229 284 356
#     4  10  22  34  55  83 120 158 192 241 291 353
#     4  10  21  37  63  88 120 160 202 249 301 363
#     4   9  20  40  62  86 119 158 202 253 310 370
#     4  12  24  36  50  92 122 158 204 250 304 332
#     4  10  21  39  60  91 117 158 205 245 304 361
#
# _framework density 19.969011999999999
#
# number of rings (size 3 to 8) (size 9 to 14) (size 15 to 20)
#    0.000    2.095    2.857    0.000    2.667    0.762 
#    0.000    0.476    0.000    1.143    0.000    0.000 
#    0.000    0.000    0.000    0.000    0.000    0.000 
#
# Total GULP energy -520537.498587 kJ/mol
# GULP energy per Si atom -12393.749966 kJ/mol
# Density = 1.992356 g / cm^3
# Si number density = 19.969012 Si / 1000 Ang^3
#
#
#
# Elastic Constant Matrix: (Units=GPa)
#
#
# Indices 1 2 3 4 5 6 
#
# 1 112.9969 45.4892 42.7520 0.0000 0.0000 0.0000
# 2 45.4892 69.3808 18.3302 0.0000 0.0000 0.0000
# 3 42.7520 18.3302 104.0748 0.0000 0.0000 0.0000
# 4 0.0000 0.0000 0.0000 17.5810 0.0000 0.0000
# 5 0.0000 0.0000 0.0000 0.0000 30.7022 0.0000
# 6 0.0000 0.0000 0.0000 0.0000 0.0000 30.6564
#
#
#
# Elastic Compliance Matrix: (Units=1/GPa)
#
#
# Indices 1 2 3 4 5 6 
#
# 1 0.013577 -0.007791 -0.004205 0.000000 0.000000 0.000000
# 2 -0.007791 0.019587 -0.000249 0.000000 0.000000 0.000000
# 3 -0.004205 -0.000249 0.011380 0.000000 0.000000 0.000000
# 4 0.000000 0.000000 0.000000 0.056879 0.000000 0.000000
# 5 0.000000 0.000000 0.000000 0.000000 0.032571 0.000000
# 6 0.000000 0.000000 0.000000 0.000000 0.000000 0.032620
#
#
# Mechanical properties :
#
#
# Convention : Reuss Voigt Hill
#
# Bulk Modulus (GPa) = 49.86704 55.51058 52.68881
# Shear Modulus (GPa) = 25.27945 27.78002 26.52973
#
# Velocity S-wave (km/s) = 3.56186 3.73387 3.64888
# Velocity P-wave (km/s) = 6.47628 6.81526 6.64793
#
# Compressibility (1/GPa) = 0.02005333
#
# Stress axis : x y z
#
# Youngs Moduli (GPa) = 73.65332 51.05397 87.87521
#
# Poissons Ratio (x) = 0.39775 0.36952
# Poissons Ratio (y) = 0.57382 0.02192
# Poissons Ratio (z) = 0.30972 0.01274
#
# Static dielectric constant tensor:
#      x y z
#    x 3.619620 0.000000 0.000000 
#    y 0.000000 3.321930 0.000000 
#    z 0.000000 0.000000 3.767270 
# 
# 
# High freq. dielectric constant tensor:
#      x y z
#    x 1.772800 0.000000 0.000000 
#    y 0.000000 1.757560 0.000000 
#    z 0.000000 0.000000 1.771500 
# 
# From -- ./inp_files/26323.got.cif
#   From: 2010.03.12/outbox.cif.g09.slc.cpg/sg50_14_cif.got.tgz:26323.got - 2010.04.16 13:23:21.
