data_PCOD8204222
_publ_section_title
;
Structure prediction by ZEFSAII (Michael W. Deem and Ramdas Pophale) SiO2 
 PCOD8204222
Probable space group: P C C M
;
_chemical_formula_sum "Si O2"
_cell_formula_units_Z 32
_cell_length_a 19.140346
_cell_length_b 8.782290
_cell_length_c 9.664418
_cell_angle_alpha 90.000000
_cell_angle_beta 90.000000
_cell_angle_gamma 90.000000
_cell_volume 1624.550678
_symmetry_space_group_name_H-M "P C C M"
_symmetry_group_IT_number 49
_symmetry_cell_setting 'orthorhombic'
loop_
_space_group_symop_operation_xyz
x,y,z
-x,-y,z
x,-y,1/2-z
-x,y,1/2-z
-x,-y,-z
x,y,-z
-x,y,1/2+z
x,-y,1/2+z
loop_
_atom_site_type_symbol
_atom_site_label
_atom_site_fract_x
_atom_site_fract_y
_atom_site_fract_z
Si Si1 0.060204 0.342975 0.664146
Si Si2 0.347028 0.179140 0.264279
Si Si3 0.567047 0.309815 0.000000
Si Si4 0.402627 0.656113 0.500000
Si Si5 0.785950 0.645737 0.343759
O O1 0.063634 0.500000 0.750000
O O2 0.040905 0.360993 0.500000
O O3 0.138102 0.274271 0.680768
O O4 0.000000 0.247390 0.750000
O O5 0.409589 0.219212 0.366198
O O6 0.362550 0.271498 0.127007
O O7 0.271255 0.224895 0.320275
O O8 0.347038 0.000000 0.250000
O O9 0.484213 0.309262 0.000000
O O10 0.604825 0.474084 0.000000
O O11 0.771333 0.500000 0.250000
O O12 0.782035 0.584277 0.500000
#
# Coordination Sequence:
#
# PCOD8204222 Si02
#       5
#     8   8   4   4   8
#     4   9  16  28  49  80 115 149 191 243 292 338
#     4  12  25  40  60  89 123 158 196 243 297 352
#     4  11  23  45  65  87 120 149 200 247 293 358
#     4  11  25  41  67  91 112 157 196 245 299 350
#     4  10  21  37  59  85 118 160 202 245 292 352
#
# _framework density 19.697754
#
# number of rings (size 3 to 8) (size 9 to 14) (size 15 to 20)
#    0.000    1.500    1.250    5.250    1.750    6.000 
#    0.000    0.000    0.000    0.750    0.000    3.500 
#    0.000    0.000    0.000    0.000    0.000    0.000 
#
# Total GULP energy -396512.620174 kJ/mol
# GULP energy per Si atom -12391.019380 kJ/mol
# Density = 1.965292 g / cm^3
# Si number density = 19.697754 Si / 1000 Ang^3
#
#
#
# Elastic Constant Matrix: (Units=GPa)
#
#
# Indices 1 2 3 4 5 6 
#
# 1 105.6349 33.9839 35.6213 0.0000 0.0000 0.0000
# 2 33.9839 88.6850 24.3882 0.0000 0.0000 0.0000
# 3 35.6213 24.3882 139.7005 0.0000 0.0000 0.0000
# 4 0.0000 0.0000 0.0000 26.2814 0.0000 0.0000
# 5 0.0000 0.0000 0.0000 0.0000 39.3904 0.0000
# 6 0.0000 0.0000 0.0000 0.0000 0.0000 7.6781
#
#
#
# Elastic Compliance Matrix: (Units=1/GPa)
#
#
# Indices 1 2 3 4 5 6 
#
# 1 0.011439 -0.003762 -0.002260 0.000000 0.000000 0.000000
# 2 -0.003762 0.013082 -0.001325 0.000000 0.000000 0.000000
# 3 -0.002260 -0.001325 0.007966 0.000000 0.000000 0.000000
# 4 0.000000 0.000000 0.000000 0.038050 0.000000 0.000000
# 5 0.000000 0.000000 0.000000 0.000000 0.025387 0.000000
# 6 0.000000 0.000000 0.000000 0.000000 0.000000 0.130240
#
#
# Mechanical properties :
#
#
# Convention : Reuss Voigt Hill
#
# Bulk Modulus (GPa) = 56.20049 58.00081 57.10065
# Shear Modulus (GPa) = 20.26041 30.67180 25.46610
#
# Velocity S-wave (km/s) = 3.21060 3.95032 3.59951
# Velocity P-wave (km/s) = 6.50671 7.09338 6.80637
#
# Compressibility (1/GPa) = 0.01779344
#
# Stress axis : x y z
#
# Youngs Moduli (GPa) = 87.42100 76.44303 125.53888
#
# Poissons Ratio (x) = 0.28757 0.28372
# Poissons Ratio (y) = 0.32887 0.16628
# Poissons Ratio (z) = 0.19757 0.10125
#
# Static dielectric constant tensor:
#      x y z
#    x 4.622200 0.000000 0.000000 
#    y 0.000000 3.181130 0.000000 
#    z 0.000000 0.000000 3.883910 
# 
# 
# High freq. dielectric constant tensor:
#      x y z
#    x 1.799820 0.000000 0.000000 
#    y 0.000000 1.717040 0.000000 
#    z 0.000000 0.000000 1.790580 
# 
# From -- ./inp_files/1432.got.cif
#   From: 2010.03.12/outbox.cif.g09.slc.cpg/sg49_1_cif.got.tgz:1432.got - 2010.04.14 03:58:27.
