data_PCOD8204988
_publ_section_title
;
Structure prediction by ZEFSAII (Michael W. Deem and Ramdas Pophale) SiO2 
 PCOD8204988
Probable space group: P B A N
;
_chemical_formula_sum "Si O2"
_cell_formula_units_Z 38
_cell_length_a 13.700614
_cell_length_b 12.408992
_cell_length_c 11.010260
_cell_angle_alpha 90.000000
_cell_angle_beta 90.000000
_cell_angle_gamma 90.000000
_cell_volume 1871.863216
_symmetry_space_group_name_H-M "P B A N"
_symmetry_group_IT_number 50
_space_group.IT_coordinate_system_code '2'
_symmetry_cell_setting 'orthorhombic'
loop_
_space_group_symop_operation_xyz
x,y,z
1/2-x,1/2-y,z
x,1/2-y,-z
1/2-x,y,-z
-x,-y,-z
1/2+x,1/2+y,-z
-x,1/2+y,z
1/2+x,-y,z
loop_
_atom_site_type_symbol
_atom_site_label
_atom_site_fract_x
_atom_site_fract_y
_atom_site_fract_z
Si Si1 0.414395 0.635276 0.351036
Si Si2 0.575478 0.750000 0.500000
Si Si3 0.212719 0.128772 0.876389
Si Si4 0.984364 0.768957 0.137434
Si Si5 0.628225 0.897707 0.294037
Si Si6 0.750000 0.250000 0.500000
O O1 0.508168 0.665106 0.430025
O O2 0.424343 0.691808 0.218518
O O3 0.419448 0.507195 0.339594
O O4 0.315116 0.673857 0.414519
O O5 0.642741 0.815420 0.406063
O O6 0.250000 0.250000 0.880868
O O7 0.095959 0.133627 0.862530
O O8 0.264873 0.073024 0.760853
O O9 0.250000 0.069971 0.000000
O O10 0.940408 0.657812 0.191753
O O11 0.020760 0.750000 0.000000
#
# Coordination Sequence:
#
# PCOD8204988 Si02
#       6
#     8   4   8   8   8   2
#     4  10  22  41  62  82 116 166 202 244 305 357
#     4   9  20  39  60  84 122 150 203 263 281 347
#     4   9  15  33  55  83 125 152 172 239 310 340
#     4  10  19  38  62  89 124 152 195 256 296 354
#     4  10  19  36  59  93 115 160 199 235 308 361
#     4  10  24  52  56  74 130 164 194 262 312 336
#
# _framework density 20.300628
#
# number of rings (size 3 to 8) (size 9 to 14) (size 15 to 20)
#    0.000    2.316    4.211    0.632    0.000    0.842 
#   26.526    2.632    0.000    0.000    0.000    0.000 
#    0.000    0.000    0.000    0.000    0.000    0.000 
#
# Total GULP energy -471020.061840 kJ/mol
# GULP energy per Si atom -12395.264785 kJ/mol
# Density = 2.025442 g / cm^3
# Si number density = 20.300628 Si / 1000 Ang^3
#
#
#
# Elastic Constant Matrix: (Units=GPa)
#
#
# Indices 1 2 3 4 5 6 
#
# 1 77.5068 23.5448 53.0126 0.0000 0.0000 0.0000
# 2 23.5448 91.6297 49.4024 0.0000 0.0000 0.0000
# 3 53.0126 49.4024 168.8229 0.0000 0.0000 0.0000
# 4 0.0000 0.0000 0.0000 14.6101 0.0000 0.0000
# 5 0.0000 0.0000 0.0000 0.0000 30.8927 0.0000
# 6 0.0000 0.0000 0.0000 0.0000 0.0000 5.9928
#
#
#
# Elastic Compliance Matrix: (Units=1/GPa)
#
#
# Indices 1 2 3 4 5 6 
#
# 1 0.016660 -0.001734 -0.004724 0.000000 0.000000 0.000000
# 2 -0.001734 0.013138 -0.003300 0.000000 0.000000 0.000000
# 3 -0.004724 -0.003300 0.008373 0.000000 0.000000 0.000000
# 4 0.000000 0.000000 0.000000 0.068446 0.000000 0.000000
# 5 0.000000 0.000000 0.000000 0.000000 0.032370 0.000000
# 6 0.000000 0.000000 0.000000 0.000000 0.000000 0.166867
#
#
# Mechanical properties :
#
#
# Convention : Reuss Voigt Hill
#
# Bulk Modulus (GPa) = 53.60628 65.54211 59.57420
# Shear Modulus (GPa) = 15.07893 24.43243 19.75568
#
# Velocity S-wave (km/s) = 2.72836 3.47296 3.12293
# Velocity P-wave (km/s) = 6.03231 6.95972 6.51255
#
# Compressibility (1/GPa) = 0.01865453
#
# Stress axis : x y z
#
# Youngs Moduli (GPa) = 60.02424 76.11322 119.43851
#
# Poissons Ratio (x) = 0.13197 0.56423
# Poissons Ratio (y) = 0.10407 0.39417
# Poissons Ratio (z) = 0.28356 0.25119
#
# Static dielectric constant tensor:
#      x y z
#    x 3.680570 0.000000 0.000000 
#    y 0.000000 3.308860 0.000000 
#    z 0.000000 0.000000 4.271540 
# 
# 
# High freq. dielectric constant tensor:
#      x y z
#    x 1.766610 0.000000 0.000000 
#    y 0.000000 1.754980 0.000000 
#    z 0.000000 0.000000 1.815940 
# 
# From -- ./inp_files/20029.got.cif
#   From: 2010.03.12/outbox.cif.g09.slc.cpg/sg50_11_cif.got.tgz:20029.got - 2010.04.16 13:23:21.
