data_PCOD8204599
_publ_section_title
;
Structure prediction by ZEFSAII (Michael W. Deem and Ramdas Pophale) SiO2 
 PCOD8204599
Probable space group: P C C M
;
_chemical_formula_sum "Si O2"
_cell_formula_units_Z 48
_cell_length_a 14.479783
_cell_length_b 20.460100
_cell_length_c 8.590126
_cell_angle_alpha 90.000000
_cell_angle_beta 90.000000
_cell_angle_gamma 90.000000
_cell_volume 2544.891901
_symmetry_space_group_name_H-M "P C C M"
_symmetry_group_IT_number 49
_symmetry_cell_setting 'orthorhombic'
loop_
_space_group_symop_operation_xyz
x,y,z
-x,-y,z
x,-y,1/2-z
-x,y,1/2-z
-x,-y,-z
x,y,-z
-x,y,1/2+z
x,-y,1/2+z
loop_
_atom_site_type_symbol
_atom_site_label
_atom_site_fract_x
_atom_site_fract_y
_atom_site_fract_z
Si Si1 0.098543 0.069637 0.183095
Si Si2 0.406930 0.767289 0.182475
Si Si3 0.790060 0.430542 0.814732
Si Si4 0.210335 0.186067 0.316378
Si Si5 0.405861 0.379792 0.683485
Si Si6 0.102227 0.308868 0.815075
O O1 0.173820 0.122818 0.228306
O O2 0.000000 0.091829 0.250000
O O3 0.129958 0.000000 0.250000
O O4 0.089555 0.063776 0.000000
O O5 0.500000 0.800285 0.250000
O O6 0.318272 0.809952 0.228927
O O7 0.395502 0.693878 0.250150
O O8 0.416716 0.763071 0.000000
O O9 0.823291 0.500000 0.750000
O O10 0.683831 0.419927 0.761762
O O11 0.855084 0.377524 0.735050
O O12 0.801536 0.426138 0.000000
O O13 0.194828 0.178694 0.500000
O O14 0.161167 0.251247 0.259734
O O15 0.500000 0.412111 0.750000
O O16 0.412288 0.379736 0.500000
O O17 0.000000 0.303351 0.750000
O O18 0.101680 0.301824 0.000000
#
# Coordination Sequence:
#
# PCOD8204599 Si02
#       6
#     8   8   8   8   8   8
#     4  11  22  38  59  88 122 160 198 237 285 339
#     4   9  18  33  55  83 115 150 186 231 283 335
#     4  11  23  41  59  81 112 147 189 236 289 345
#     4  11  21  38  61  88 121 155 191 237 285 335
#     4   9  18  34  55  80 111 146 183 230 283 339
#     4  12  25  41  61  85 111 146 189 238 288 341
#
# _framework density 18.861312000000002
#
# number of rings (size 3 to 8) (size 9 to 14) (size 15 to 20)
#    0.000    1.500    1.667    5.000    0.000    3.333 
#    0.000    3.333    0.000    0.500    0.000    3.500 
#    0.000    0.000    0.000    0.000    0.000    0.000 
#
# Total GULP energy -595308.815773 kJ/mol
# GULP energy per Si atom -12402.266995 kJ/mol
# Density = 1.881838 g / cm^3
# Si number density = 18.861312 Si / 1000 Ang^3
#
#
#
# Elastic Constant Matrix: (Units=GPa)
#
#
# Indices 1 2 3 4 5 6 
#
# 1 116.1260 46.8442 34.6364 0.0000 0.0000 0.0000
# 2 46.8442 98.9384 20.7925 0.0000 0.0000 0.0000
# 3 34.6364 20.7925 68.0785 0.0000 0.0000 0.0000
# 4 0.0000 0.0000 0.0000 31.3935 0.0000 0.0000
# 5 0.0000 0.0000 0.0000 0.0000 33.9043 0.0000
# 6 0.0000 0.0000 0.0000 0.0000 0.0000 28.4610
#
#
#
# Elastic Compliance Matrix: (Units=1/GPa)
#
#
# Indices 1 2 3 4 5 6 
#
# 1 0.011863 -0.004646 -0.004616 0.000000 0.000000 0.000000
# 2 -0.004646 0.012620 -0.001491 0.000000 0.000000 0.000000
# 3 -0.004616 -0.001491 0.017493 0.000000 0.000000 0.000000
# 4 0.000000 0.000000 0.000000 0.031854 0.000000 0.000000
# 5 0.000000 0.000000 0.000000 0.000000 0.029495 0.000000
# 6 0.000000 0.000000 0.000000 0.000000 0.000000 0.035136
#
#
# Mechanical properties :
#
#
# Convention : Reuss Voigt Hill
#
# Bulk Modulus (GPa) = 48.85347 54.18770 51.52058
# Shear Modulus (GPa) = 29.97790 30.80975 30.39383
#
# Velocity S-wave (km/s) = 3.99104 4.04603 4.01863
# Velocity P-wave (km/s) = 6.86990 7.11471 6.99337
#
# Compressibility (1/GPa) = 0.02046937
#
# Stress axis : x y z
#
# Youngs Moduli (GPa) = 84.29920 79.23634 57.16650
#
# Poissons Ratio (x) = 0.36816 0.26389
# Poissons Ratio (y) = 0.39169 0.08521
# Poissons Ratio (z) = 0.38914 0.11811
#
# Static dielectric constant tensor:
#      x y z
#    x 3.695440 0.000000 0.000000 
#    y 0.000000 3.401720 0.000000 
#    z 0.000000 0.000000 3.505520 
# 
# 
# High freq. dielectric constant tensor:
#      x y z
#    x 1.741300 0.000000 0.000000 
#    y 0.000000 1.718020 0.000000 
#    z 0.000000 0.000000 1.742120 
# 
# From -- ./inp_files/3708.got.cif
#   From: 2010.03.12/outbox.cif.g09.slc.cpg/sg49_2_cif.got.tgz:3708.got - 2010.04.14 03:58:27.
