data_PCOD8204531
_publ_section_title
;
Structure prediction by ZEFSAII (Michael W. Deem and Ramdas Pophale) SiO2 
 PCOD8204531
Probable space group: P C C M
;
_chemical_formula_sum "Si O2"
_cell_formula_units_Z 30
_cell_length_a 25.338905
_cell_length_b 5.851340
_cell_length_c 8.893288
_cell_angle_alpha 90.000000
_cell_angle_beta 90.000000
_cell_angle_gamma 90.000000
_cell_volume 1318.577116
_symmetry_space_group_name_H-M "P C C M"
_symmetry_group_IT_number 49
_symmetry_cell_setting 'orthorhombic'
loop_
_space_group_symop_operation_xyz
x,y,z
-x,-y,z
x,-y,1/2-z
-x,y,1/2-z
-x,-y,-z
x,y,-z
-x,y,1/2+z
x,-y,1/2+z
loop_
_atom_site_type_symbol
_atom_site_label
_atom_site_fract_x
_atom_site_fract_y
_atom_site_fract_z
Si Si1 0.918462 0.000000 0.750000
Si Si2 0.298138 0.000000 0.250000
Si Si3 0.500000 0.000000 0.250000
Si Si4 0.047374 0.320555 0.000000
Si Si5 0.132179 0.304240 0.500000
Si Si6 0.747646 0.700049 0.500000
Si Si7 0.456291 0.307081 0.000000
Si Si8 0.660527 0.690359 0.000000
O O1 0.955955 0.160569 0.647466
O O2 0.881127 0.156816 0.852767
O O3 0.259885 0.151989 0.351155
O O4 0.335706 0.155889 0.148488
O O5 0.538075 0.154201 0.351639
O O6 0.101878 0.456497 0.000000
O O7 0.000000 0.500000 0.000000
O O8 0.192569 0.386713 0.500000
O O9 0.706534 0.493990 0.500000
O O10 0.500000 0.500000 0.000000
O O11 0.397930 0.421197 0.000000
#
# Coordination Sequence:
#
# PCOD8204531 Si02
#       8
#     4   4   2   4   4   4   4   4
#     4  10  25  45  69  99 135 173 217 269 324 384
#     4  10  24  42  63  91 131 169 212 266 324 382
#     4  10  24  42  64  90 128 168 208 266 328 386
#     4  11  26  46  70 100 135 175 220 268 324 385
#     4  11  24  43  69  98 133 174 218 267 322 383
#     4  11  24  42  66  97 130 171 218 266 320 382
#     4  11  24  42  65  93 125 165 214 264 322 388
#     4  11  24  42  65  93 127 169 214 265 322 385
#
# _framework density 22.751797
#
# number of rings (size 3 to 8) (size 9 to 14) (size 15 to 20)
#    0.000    1.333    0.000    3.600    0.000   22.400 
#    0.000    2.000    0.000    0.000    0.000    0.000 
#    0.000    0.000    0.000    0.000    0.000    0.000 
#
# Total GULP energy -372140.739107 kJ/mol
# GULP energy per Si atom -12404.691304 kJ/mol
# Density = 2.270001 g / cm^3
# Si number density = 22.751797 Si / 1000 Ang^3
#
#
#
# Elastic Constant Matrix: (Units=GPa)
#
#
# Indices 1 2 3 4 5 6 
#
# 1 198.2481 86.2661 64.0197 0.0000 0.0000 0.0000
# 2 86.2661 150.4909 74.4476 0.0000 0.0000 0.0000
# 3 64.0197 74.4476 174.6081 0.0000 0.0000 0.0000
# 4 0.0000 0.0000 0.0000 -24.7388 0.0000 0.0000
# 5 0.0000 0.0000 0.0000 0.0000 12.4972 0.0000
# 6 0.0000 0.0000 0.0000 0.0000 0.0000 40.9134
#
#
#
# Elastic Compliance Matrix: (Units=1/GPa)
#
#
# Indices 1 2 3 4 5 6 
#
# 1 0.006873 -0.003413 -0.001065 0.000000 0.000000 0.000000
# 2 -0.003413 0.010116 -0.003062 0.000000 0.000000 0.000000
# 3 -0.001065 -0.003062 0.007423 0.000000 0.000000 0.000000
# 4 0.000000 0.000000 0.000000 -0.040422 0.000000 0.000000
# 5 0.000000 0.000000 0.000000 0.000000 0.080018 0.000000
# 6 0.000000 0.000000 0.000000 0.000000 0.000000 0.024442
#
#
# Mechanical properties :
#
#
# Convention : Reuss Voigt Hill
#
# Bulk Modulus (GPa) = 107.14862 108.09042 107.61952
# Shear Modulus (GPa) = 46.88653 25.64194 36.26424
#
# Velocity S-wave (km/s) = 4.54451 3.36077 3.99671
# Velocity P-wave (km/s) = 8.64486 7.91652 8.28869
#
# Compressibility (1/GPa) = 0.00933283
#
# Stress axis : x y z
#
# Youngs Moduli (GPa) = 145.49119 98.85194 134.71735
#
# Poissons Ratio (x) = 0.33740 0.14344
# Poissons Ratio (y) = 0.49660 0.41247
# Poissons Ratio (z) = 0.15491 0.30266
#
# Static dielectric constant tensor:
#      x y z
#    x 3.786450 0.000000 0.000000 
#    y 0.000000 4.203560 0.000000 
#    z 0.000000 0.000000 4.778480 
# 
# 
# High freq. dielectric constant tensor:
#      x y z
#    x 1.892260 0.000000 0.000000 
#    y 0.000000 1.905080 0.000000 
#    z 0.000000 0.000000 1.923190 
# 
# From -- ./inp_files/6811.got.cif
#   From: 2010.03.12/outbox.cif.g09.slc.cpg/sg49_4_cif.got.tgz:6811.got - 2010.04.14 03:58:27.
