data_PCOD8204573
_publ_section_title
;
Structure prediction by ZEFSAII (Michael W. Deem and Ramdas Pophale) SiO2 
 PCOD8204573
Probable space group: P C C M
;
_chemical_formula_sum "Si O2"
_cell_formula_units_Z 56
_cell_length_a 15.553113
_cell_length_b 13.238711
_cell_length_c 15.361583
_cell_angle_alpha 90.000000
_cell_angle_beta 90.000000
_cell_angle_gamma 90.000000
_cell_volume 3162.998608
_symmetry_space_group_name_H-M "P C C M"
_symmetry_group_IT_number 49
_symmetry_cell_setting 'orthorhombic'
loop_
_space_group_symop_operation_xyz
x,y,z
-x,-y,z
x,-y,1/2-z
-x,y,1/2-z
-x,-y,-z
x,y,-z
-x,y,1/2+z
x,-y,1/2+z
loop_
_atom_site_type_symbol
_atom_site_label
_atom_site_fract_x
_atom_site_fract_y
_atom_site_fract_z
Si Si1 0.160393 0.242224 0.899997
Si Si2 0.500000 0.886224 0.647891
Si Si3 0.101464 0.382927 0.750000
Si Si4 0.317357 0.112675 0.600209
Si Si5 0.000000 0.881282 0.350982
Si Si6 0.682643 0.112675 0.600209
Si Si7 0.839608 0.242224 0.100003
O O1 0.141455 0.336925 0.838003
O O2 0.083616 0.162033 0.897746
O O3 0.245213 0.186858 0.860946
O O4 0.172702 0.279735 0.000000
O O5 0.500000 0.881111 0.750000
O O6 0.588386 0.835864 0.613557
O O7 0.411614 0.835864 0.613557
O O8 0.500000 0.000000 0.611019
O O9 0.124752 0.500000 0.750000
O O10 0.141455 0.336925 0.661997
O O11 0.000000 0.363259 0.750000
O O12 0.295716 0.100446 0.500000
O O13 0.245213 0.186858 0.639054
O O14 0.314173 1.000000 0.644226
O O15 0.000000 0.848801 0.250000
O O16 0.916384 0.837967 0.397746
O O17 0.000000 0.000000 0.363425
O O18 0.704284 0.100446 0.500000
O O19 0.827298 0.279735 0.000000
#
# Coordination Sequence:
#
# PCOD8204573 Si02
#       7
#     8   8   8   8   8   8   8
#     4  11  21  36  56  79 105 140 180 215 263 317
#     4   9  17  27  43  71 105 144 181 210 244 292
#     4  11  24  42  58  77 104 133 175 230 281 321
#     4   9  18  31  48  73 108 145 177 211 250 300
#     4  11  21  33  51  77 113 148 175 208 252 306
#     4   9  18  31  48  73 108 145 177 211 250 300
#     4  11  21  36  56  79 105 140 180 215 263 317
#
# _framework density 17.704719999999998
#
# number of rings (size 3 to 8) (size 9 to 14) (size 15 to 20)
#    0.000    1.857    2.857    1.714    2.000    4.571 
#    0.000    1.429    0.000    0.000    0.000    2.000 
#    0.000    4.571    0.000    0.000    0.000    0.000 
#
# Total GULP energy -694216.601126 kJ/mol
# GULP energy per Si atom -12396.725020 kJ/mol
# Density = 1.766442 g / cm^3
# Si number density = 17.704720 Si / 1000 Ang^3
#
#
#
# Elastic Constant Matrix: (Units=GPa)
#
#
# Indices 1 2 3 4 5 6 
#
# 1 162.7345 57.1775 26.4313 0.0000 0.0000 0.0000
# 2 57.1775 99.1055 39.3887 0.0000 0.0000 0.0000
# 3 26.4313 39.3887 79.4546 0.0000 0.0000 0.0000
# 4 0.0000 0.0000 0.0000 14.6569 0.0000 0.0000
# 5 0.0000 0.0000 0.0000 0.0000 46.7959 0.0000
# 6 0.0000 0.0000 0.0000 0.0000 0.0000 21.6837
#
#
#
# Elastic Compliance Matrix: (Units=1/GPa)
#
#
# Indices 1 2 3 4 5 6 
#
# 1 0.007720 -0.004276 -0.000449 0.000000 0.000000 0.000000
# 2 -0.004276 0.014934 -0.005981 0.000000 0.000000 0.000000
# 3 -0.000449 -0.005981 0.015700 0.000000 0.000000 0.000000
# 4 0.000000 0.000000 0.000000 0.068227 0.000000 0.000000
# 5 0.000000 0.000000 0.000000 0.000000 0.021369 0.000000
# 6 0.000000 0.000000 0.000000 0.000000 0.000000 0.046118
#
#
# Mechanical properties :
#
#
# Convention : Reuss Voigt Hill
#
# Bulk Modulus (GPa) = 59.01903 65.25438 62.13671
# Shear Modulus (GPa) = 24.85986 31.18045 28.02015
#
# Velocity S-wave (km/s) = 3.75125 4.20114 3.98255
# Velocity P-wave (km/s) = 7.22288 7.77624 7.50466
#
# Compressibility (1/GPa) = 0.01694369
#
# Stress axis : x y z
#
# Youngs Moduli (GPa) = 129.53149 66.96022 63.69400
#
# Poissons Ratio (x) = 0.28631 0.02857
# Poissons Ratio (y) = 0.55385 0.38096
# Poissons Ratio (z) = 0.05810 0.40050
#
# Static dielectric constant tensor:
#      x y z
#    x 3.587060 0.000000 0.000000 
#    y 0.000000 2.976340 0.000000 
#    z 0.000000 0.000000 3.244540 
# 
# 
# High freq. dielectric constant tensor:
#      x y z
#    x 1.698540 0.000000 0.000000 
#    y 0.000000 1.630560 0.000000 
#    z 0.000000 0.000000 1.692350 
# 
# From -- ./inp_files/13695.got.cif
#   From: 2010.03.12/outbox.cif.g09.slc.cpg/sg49_7_cif.got.tgz:13695.got - 2010.04.14 03:58:27.
