data_PCOD8204773
_publ_section_title
;
Structure prediction by ZEFSAII (Michael W. Deem and Ramdas Pophale) SiO2 
 PCOD8204773
Probable space group: P B A N
;
_chemical_formula_sum "Si O2"
_cell_formula_units_Z 56
_cell_length_a 18.723530
_cell_length_b 19.149968
_cell_length_c 8.264488
_cell_angle_alpha 90.000000
_cell_angle_beta 90.000000
_cell_angle_gamma 90.000000
_cell_volume 2963.273498
_symmetry_space_group_name_H-M "P B A N"
_symmetry_group_IT_number 50
_space_group.IT_coordinate_system_code '2'
_symmetry_cell_setting 'orthorhombic'
loop_
_space_group_symop_operation_xyz
x,y,z
1/2-x,1/2-y,z
x,1/2-y,-z
1/2-x,y,-z
-x,-y,-z
1/2+x,1/2+y,-z
-x,1/2+y,z
1/2+x,-y,z
loop_
_atom_site_type_symbol
_atom_site_label
_atom_site_fract_x
_atom_site_fract_y
_atom_site_fract_z
Si Si1 0.968707 0.595914 0.827920
Si Si2 0.527857 0.239430 0.191408
Si Si3 0.508969 0.889899 0.199580
Si Si4 0.116840 0.976020 0.694453
Si Si5 0.592222 0.007914 0.326919
Si Si6 0.731676 0.446342 0.823067
Si Si7 0.684291 0.286979 0.825868
O O1 0.900245 0.555651 0.752745
O O2 0.975770 0.675268 0.761512
O O3 0.041266 0.555646 0.782942
O O4 0.959708 0.600445 0.020433
O O5 0.495143 0.310383 0.263562
O O6 0.607790 0.224193 0.261151
O O7 0.534061 0.250000 0.000000
O O8 0.429289 0.922376 0.198349
O O9 0.560978 0.929410 0.324335
O O10 0.093338 0.965387 0.509764
O O11 0.199018 0.954743 0.710639
O O12 0.671175 0.005310 0.253886
O O13 0.701624 0.368395 0.837485
O O14 0.750000 0.475493 0.000000
O O15 0.750000 0.250000 0.728248
O O16 0.680809 0.250000 0.000000
#
# Coordination Sequence:
#
# PCOD8204773 Si02
#       7
#     8   8   8   8   8   8   8
#     4  10  18  36  58  81 106 143 192 234 274 332
#     4   9  18  30  55  85 110 138 182 241 279 320
#     4  10  19  35  59  83 105 144 196 233 276 329
#     4  11  23  35  52  79 116 151 184 233 286 326
#     4  11  22  37  51  78 117 148 186 234 280 331
#     4  12  21  35  59  81 106 149 191 230 273 333
#     4  10  17  29  51  83 113 138 177 227 281 318
#
# _framework density 18.898019999999999
#
# number of rings (size 3 to 8) (size 9 to 14) (size 15 to 20)
#    0.000    1.571    2.857    6.429    2.000    0.000 
#    0.000    2.857    0.000    1.714    0.000    6.000 
#    0.000    0.000    0.000    0.000    0.000    0.000 
#
# Total GULP energy -694196.007937 kJ/mol
# GULP energy per Si atom -12396.357285 kJ/mol
# Density = 1.885501 g / cm^3
# Si number density = 18.898020 Si / 1000 Ang^3
#
#
#
# Elastic Constant Matrix: (Units=GPa)
#
#
# Indices 1 2 3 4 5 6 
#
# 1 89.0596 47.4238 9.6166 0.0000 0.0000 0.0000
# 2 47.4238 136.0247 10.1478 0.0000 0.0000 0.0000
# 3 9.6166 10.1478 46.9023 0.0000 0.0000 0.0000
# 4 0.0000 0.0000 0.0000 8.6279 0.0000 0.0000
# 5 0.0000 0.0000 0.0000 0.0000 22.2498 0.0000
# 6 0.0000 0.0000 0.0000 0.0000 0.0000 20.2824
#
#
#
# Elastic Compliance Matrix: (Units=1/GPa)
#
#
# Indices 1 2 3 4 5 6 
#
# 1 0.013942 -0.004724 -0.001837 0.000000 0.000000 0.000000
# 2 -0.004724 0.009073 -0.000994 0.000000 0.000000 0.000000
# 3 -0.001837 -0.000994 0.021913 0.000000 0.000000 0.000000
# 4 0.000000 0.000000 0.000000 0.115903 0.000000 0.000000
# 5 0.000000 0.000000 0.000000 0.000000 0.044944 0.000000
# 6 0.000000 0.000000 0.000000 0.000000 0.000000 0.049304
#
#
# Mechanical properties :
#
#
# Convention : Reuss Voigt Hill
#
# Bulk Modulus (GPa) = 33.53693 45.15144 39.34419
# Shear Modulus (GPa) = 17.84905 23.88526 20.86715
#
# Velocity S-wave (km/s) = 3.07659 3.55900 3.32655
# Velocity P-wave (km/s) = 5.51411 6.39004 5.96817
#
# Compressibility (1/GPa) = 0.02981787
#
# Stress axis : x y z
#
# Youngs Moduli (GPa) = 71.72497 110.22073 45.63575
#
# Poissons Ratio (x) = 0.52066 0.08381
# Poissons Ratio (y) = 0.33881 0.04538
# Poissons Ratio (z) = 0.13173 0.10961
#
# Static dielectric constant tensor:
#      x y z
#    x 3.630170 0.000000 0.000000 
#    y 0.000000 3.758830 0.000000 
#    z 0.000000 0.000000 3.252320 
# 
# 
# High freq. dielectric constant tensor:
#      x y z
#    x 1.721360 0.000000 0.000000 
#    y 0.000000 1.730330 0.000000 
#    z 0.000000 0.000000 1.714170 
# 
# From -- ./inp_files/15557.got.cif
#   From: 2010.03.12/outbox.cif.g09.slc.cpg/sg50_8_cif.got.tgz:15557.got - 2010.04.16 13:23:21.
