data_PCOD8204443
_publ_section_title
;
Structure prediction by ZEFSAII (Michael W. Deem and Ramdas Pophale) SiO2 
 PCOD8204443
Probable space group: P C C M
;
_chemical_formula_sum "Si O2"
_cell_formula_units_Z 44
_cell_length_a 16.056627
_cell_length_b 13.088697
_cell_length_c 9.958742
_cell_angle_alpha 90.000000
_cell_angle_beta 90.000000
_cell_angle_gamma 90.000000
_cell_volume 2092.932462
_symmetry_space_group_name_H-M "P C C M"
_symmetry_group_IT_number 49
_symmetry_cell_setting 'orthorhombic'
loop_
_space_group_symop_operation_xyz
x,y,z
-x,-y,z
x,-y,1/2-z
-x,y,1/2-z
-x,-y,-z
x,y,-z
-x,y,1/2+z
x,-y,1/2+z
loop_
_atom_site_type_symbol
_atom_site_label
_atom_site_fract_x
_atom_site_fract_y
_atom_site_fract_z
Si Si1 0.818779 0.193616 0.752335
Si Si2 0.926606 0.141088 0.000000
Si Si3 0.596825 0.583898 0.852266
Si Si4 0.649317 0.901648 0.654612
Si Si5 0.788782 0.588616 0.845974
Si Si6 0.890144 0.095260 0.500000
Si Si7 0.500000 0.233018 0.750000
O O1 0.887460 0.189324 0.867655
O O2 0.727259 0.170673 0.810147
O O3 0.831151 0.305257 0.690417
O O4 0.836177 0.114088 0.633131
O O5 0.025542 0.162749 0.000000
O O6 0.910911 0.022071 0.000000
O O7 0.559828 0.500000 0.750000
O O8 0.691880 0.605673 0.816683
O O9 0.549357 0.692175 0.850618
O O10 0.587907 0.535577 0.000000
O O11 0.656776 0.938070 0.500000
O O12 0.564440 0.837548 0.669359
O O13 0.646669 0.000000 0.750000
O O14 0.824892 0.500000 0.750000
O O15 0.807121 0.558719 0.000000
#
# Coordination Sequence:
#
# PCOD8204443 Si02
#       7
#     8   4   8   8   8   4   4
#     4  12  23  43  70 101 137 179 223 276 340 405
#     4  11  24  42  71 108 138 175 217 280 333 407
#     4  10  22  40  61  89 125 167 219 279 335 386
#     4  12  28  45  66  95 132 183 230 275 330 397
#     4  10  22  41  67  97 130 174 226 280 335 400
#     4  11  24  44  71 104 142 173 221 270 343 403
#     4  12  24  42  64  92 130 174 226 282 326 388
#
# _framework density 21.023135
#
# number of rings (size 3 to 8) (size 9 to 14) (size 15 to 20)
#    0.000    0.909    3.636    3.273    2.545    5.818 
#    0.000    0.000    0.000    3.273    0.000    0.000 
#    0.000    0.000    0.000    0.000    0.000    0.000 
#
# Total GULP energy -545701.669441 kJ/mol
# GULP energy per Si atom -12402.310669 kJ/mol
# Density = 2.097529 g / cm^3
# Si number density = 21.023135 Si / 1000 Ang^3
#
#
#
# Elastic Constant Matrix: (Units=GPa)
#
#
# Indices 1 2 3 4 5 6 
#
# 1 77.2257 16.8118 35.6381 0.0000 0.0000 0.0000
# 2 16.8118 103.9335 46.7335 0.0000 0.0000 0.0000
# 3 35.6381 46.7335 165.1162 0.0000 0.0000 0.0000
# 4 0.0000 0.0000 0.0000 41.0121 0.0000 0.0000
# 5 0.0000 0.0000 0.0000 0.0000 44.8557 0.0000
# 6 0.0000 0.0000 0.0000 0.0000 0.0000 24.8522
#
#
#
# Elastic Compliance Matrix: (Units=1/GPa)
#
#
# Indices 1 2 3 4 5 6 
#
# 1 0.014485 -0.001074 -0.002823 0.000000 0.000000 0.000000
# 2 -0.001074 0.011104 -0.002911 0.000000 0.000000 0.000000
# 3 -0.002823 -0.002911 0.007489 0.000000 0.000000 0.000000
# 4 0.000000 0.000000 0.000000 0.024383 0.000000 0.000000
# 5 0.000000 0.000000 0.000000 0.000000 0.022294 0.000000
# 6 0.000000 0.000000 0.000000 0.000000 0.000000 0.040238
#
#
# Mechanical properties :
#
#
# Convention : Reuss Voigt Hill
#
# Bulk Modulus (GPa) = 51.37690 60.51581 55.94635
# Shear Modulus (GPa) = 35.68963 38.61681 37.15322
#
# Velocity S-wave (km/s) = 4.12471 4.29052 4.20843
# Velocity P-wave (km/s) = 6.86845 7.30703 7.09113
#
# Compressibility (1/GPa) = 0.01946400
#
# Stress axis : x y z
#
# Youngs Moduli (GPa) = 69.03505 90.05593 133.52075
#
# Poissons Ratio (x) = 0.09672 0.37686
# Poissons Ratio (y) = 0.07414 0.38869
# Poissons Ratio (z) = 0.19485 0.26216
#
# Static dielectric constant tensor:
#      x y z
#    x 3.970500 0.000000 0.000000 
#    y 0.000000 3.742820 0.000000 
#    z 0.000000 0.000000 3.859790 
# 
# 
# High freq. dielectric constant tensor:
#      x y z
#    x 1.823510 0.000000 0.000000 
#    y 0.000000 1.819210 0.000000 
#    z 0.000000 0.000000 1.835190 
# 
# From -- ./inp_files/4851.got.cif
#   From: 2010.03.12/outbox.cif.g09.slc.cpg/sg49_3_cif.got.tgz:4851.got - 2010.04.14 03:58:27.
