data_PCOD8204345
_publ_section_title
;
Structure prediction by ZEFSAII (Michael W. Deem and Ramdas Pophale) SiO2 
 PCOD8204345
Probable space group: P C C M
;
_chemical_formula_sum "Si O2"
_cell_formula_units_Z 56
_cell_length_a 30.670699
_cell_length_b 4.986300
_cell_length_c 16.718667
_cell_angle_alpha 90.000000
_cell_angle_beta 90.000000
_cell_angle_gamma 90.000000
_cell_volume 2556.841023
_symmetry_space_group_name_H-M "P C C M"
_symmetry_group_IT_number 49
_symmetry_cell_setting 'orthorhombic'
loop_
_space_group_symop_operation_xyz
x,y,z
-x,-y,z
x,-y,1/2-z
-x,y,1/2-z
-x,-y,-z
x,y,-z
-x,y,1/2+z
x,-y,1/2+z
loop_
_atom_site_type_symbol
_atom_site_label
_atom_site_fract_x
_atom_site_fract_y
_atom_site_fract_z
Si Si1 0.449768 0.528534 0.156021
Si Si2 0.029022 0.740921 0.089406
Si Si3 0.835776 0.412089 0.408084
Si Si4 0.880991 0.906731 0.660088
Si Si5 0.691149 0.077507 0.159507
Si Si6 0.597718 0.980719 0.093625
Si Si7 0.263960 0.585497 0.590967
O O1 0.500000 0.500000 0.133023
O O2 0.441663 0.500000 0.250000
O O3 0.439930 0.824631 0.124507
O O4 0.418099 0.320643 0.110958
O O5 0.070286 0.805479 0.143605
O O6 0.000000 0.500000 0.126907
O O7 0.044751 0.657351 0.000000
O O8 0.000000 0.000000 0.085141
O O9 0.840498 0.500652 0.500000
O O10 0.849934 0.654261 0.351712
O O11 0.785893 0.360178 0.384087
O O12 0.865855 0.150358 0.396262
O O13 0.877085 0.000000 0.750000
O O14 0.639836 0.070048 0.143700
O O15 0.711558 0.370821 0.146343
O O16 0.701547 0.000000 0.250000
O O17 0.712945 0.870368 0.098754
O O18 0.607295 0.013200 0.000000
O O19 0.267371 0.484789 0.500000
#
# Coordination Sequence:
#
# PCOD8204345 Si02
#       7
#     8   8   8   8   8   8   8
#     4  11  24  43  66  93 127 165 207 258 318 382
#     4  10  21  39  64  90 119 160 206 249 300 368
#     4  11  24  43  67  92 127 173 215 258 314 384
#     4  12  25  41  64  97 133 166 210 268 322 373
#     4  12  25  42  65  93 128 167 209 260 320 381
#     4  12  25  42  65  93 127 166 211 262 313 374
#     4  11  24  43  66  94 126 165 214 264 315 373
#
# _framework density 21.902024999999998
#
# number of rings (size 3 to 8) (size 9 to 14) (size 15 to 20)
#    0.000    0.714    0.000    8.143    0.000   10.000 
#    0.000    0.714    0.000    0.000    0.000    0.000 
#    0.000    0.000    0.000    0.000    0.000    0.000 
#
# Total GULP energy -694753.396690 kJ/mol
# GULP energy per Si atom -12406.310655 kJ/mol
# Density = 2.185218 g / cm^3
# Si number density = 21.902025 Si / 1000 Ang^3
#
#
#
# Elastic Constant Matrix: (Units=GPa)
#
#
# Indices 1 2 3 4 5 6 
#
# 1 125.6072 41.8415 38.4378 0.0000 0.0000 0.0000
# 2 41.8415 113.0143 9.9269 0.0000 0.0000 0.0000
# 3 38.4378 9.9269 64.3413 0.0000 0.0000 0.0000
# 4 0.0000 0.0000 0.0000 39.7174 0.0000 0.0000
# 5 0.0000 0.0000 0.0000 0.0000 26.1701 0.0000
# 6 0.0000 0.0000 0.0000 0.0000 0.0000 94.5197
#
#
#
# Elastic Compliance Matrix: (Units=1/GPa)
#
#
# Indices 1 2 3 4 5 6 
#
# 1 0.010980 -0.003537 -0.006014 0.000000 0.000000 0.000000
# 2 -0.003537 0.010109 0.000553 0.000000 0.000000 0.000000
# 3 -0.006014 0.000553 0.019049 0.000000 0.000000 0.000000
# 4 0.000000 0.000000 0.000000 0.025178 0.000000 0.000000
# 5 0.000000 0.000000 0.000000 0.000000 0.038212 0.000000
# 6 0.000000 0.000000 0.000000 0.000000 0.000000 0.010580
#
#
# Mechanical properties :
#
#
# Convention : Reuss Voigt Hill
#
# Bulk Modulus (GPa) = 45.15935 53.70836 49.43386
# Shear Modulus (GPa) = 35.84652 46.26522 41.05587
#
# Velocity S-wave (km/s) = 4.04997 4.60104 4.33427
# Velocity P-wave (km/s) = 6.52175 7.26646 6.90416
#
# Compressibility (1/GPa) = 0.02214381
#
# Stress axis : x y z
#
# Youngs Moduli (GPa) = 91.07647 98.91882 52.49520
#
# Poissons Ratio (x) = 0.34986 0.31569
# Poissons Ratio (y) = 0.32212 -0.02904
# Poissons Ratio (z) = 0.54771 -0.05472
#
# Static dielectric constant tensor:
#      x y z
#    x 4.033990 0.000000 0.000000 
#    y 0.000000 4.100130 0.000000 
#    z 0.000000 0.000000 3.897370 
# 
# 
# High freq. dielectric constant tensor:
#      x y z
#    x 1.875460 0.000000 0.000000 
#    y 0.000000 1.876230 0.000000 
#    z 0.000000 0.000000 1.861970 
# 
# From -- ./inp_files/14604.got.cif
#   From: 2010.03.12/outbox.cif.g09.slc.cpg/sg49_8_cif.got.tgz:14604.got - 2010.04.14 03:58:27.
