data_PCOD8204515
_publ_section_title
;
Structure prediction by ZEFSAII (Michael W. Deem and Ramdas Pophale) SiO2 
 PCOD8204515
Probable space group: P C C M
;
_chemical_formula_sum "Si O2"
_cell_formula_units_Z 40
_cell_length_a 23.672316
_cell_length_b 9.176457
_cell_length_c 9.227746
_cell_angle_alpha 90.000000
_cell_angle_beta 90.000000
_cell_angle_gamma 90.000000
_cell_volume 2004.524715
_symmetry_space_group_name_H-M "P C C M"
_symmetry_group_IT_number 49
_symmetry_cell_setting 'orthorhombic'
loop_
_space_group_symop_operation_xyz
x,y,z
-x,-y,z
x,-y,1/2-z
-x,y,1/2-z
-x,-y,-z
x,y,-z
-x,y,1/2+z
x,-y,1/2+z
loop_
_atom_site_type_symbol
_atom_site_label
_atom_site_fract_x
_atom_site_fract_y
_atom_site_fract_z
Si Si1 0.054128 0.820230 0.500000
Si Si2 0.560686 0.352032 0.178057
Si Si3 0.920648 0.849338 0.500000
Si Si4 0.753226 0.644984 0.162469
Si Si5 0.349861 0.152063 0.826456
Si Si6 0.878248 0.673097 0.764251
O O1 0.071781 0.725653 0.635128
O O2 0.987227 0.826136 0.500000
O O3 0.086458 0.975941 0.500000
O O4 0.585335 0.500000 0.250000
O O5 0.500000 0.324197 0.250000
O O6 0.599415 0.223145 0.236032
O O7 0.558293 0.359211 0.000000
O O8 0.887535 0.770825 0.626028
O O9 0.742997 0.500000 0.250000
O O10 0.707971 0.764719 0.207540
O O11 0.815748 0.711143 0.180222
O O12 0.743548 0.594773 0.000000
O O13 0.340623 0.000000 0.750000
O O14 0.362639 0.142066 0.000000
O O15 0.884854 0.500000 0.750000
#
# Coordination Sequence:
#
# PCOD8204515 Si02
#       6
#     4   8   4   8   8   8
#     4  11  23  43  61  87 131 155 212 247 318 389
#     4  11  22  40  66  97 130 172 218 267 319 377
#     4  11  25  39  63  91 119 173 196 257 316 385
#     4  10  23  42  65  90 122 161 204 257 312 372
#     4  11  24  42  62  94 130 168 214 262 318 379
#     4  11  23  41  63  93 121 159 209 263 315 374
#
# _framework density 19.954854000000001
#
# number of rings (size 3 to 8) (size 9 to 14) (size 15 to 20)
#    0.000    1.200    1.000    5.400    4.200    9.200 
#    0.000    2.000    0.000    0.000    0.000    0.000 
#    0.000    0.000    0.000    0.000    0.000    0.000 
#
# Total GULP energy -495697.351778 kJ/mol
# GULP energy per Si atom -12392.433794 kJ/mol
# Density = 1.990944 g / cm^3
# Si number density = 19.954854 Si / 1000 Ang^3
#
#
#
# Elastic Constant Matrix: (Units=GPa)
#
#
# Indices 1 2 3 4 5 6 
#
# 1 75.3473 54.6882 28.0873 0.0000 0.0000 0.0000
# 2 54.6882 114.9652 34.8026 0.0000 0.0000 0.0000
# 3 28.0873 34.8026 109.3452 0.0000 0.0000 0.0000
# 4 0.0000 0.0000 0.0000 31.2988 0.0000 0.0000
# 5 0.0000 0.0000 0.0000 0.0000 53.3016 0.0000
# 6 0.0000 0.0000 0.0000 0.0000 0.0000 28.8300
#
#
#
# Elastic Compliance Matrix: (Units=1/GPa)
#
#
# Indices 1 2 3 4 5 6 
#
# 1 0.020839 -0.009177 -0.002432 0.000000 0.000000 0.000000
# 2 -0.009177 0.013667 -0.001993 0.000000 0.000000 0.000000
# 3 -0.002432 -0.001993 0.010404 0.000000 0.000000 0.000000
# 4 0.000000 0.000000 0.000000 0.031950 0.000000 0.000000
# 5 0.000000 0.000000 0.000000 0.000000 0.018761 0.000000
# 6 0.000000 0.000000 0.000000 0.000000 0.000000 0.034686
#
#
# Mechanical properties :
#
#
# Convention : Reuss Voigt Hill
#
# Bulk Modulus (GPa) = 56.47436 59.42375 57.94906
# Shear Modulus (GPa) = 30.59725 34.82472 32.71099
#
# Velocity S-wave (km/s) = 3.92002 4.18206 4.05316
# Velocity P-wave (km/s) = 6.98936 7.29131 7.14193
#
# Compressibility (1/GPa) = 0.01770715
#
# Stress axis : x y z
#
# Youngs Moduli (GPa) = 47.98653 73.16960 96.11398
#
# Poissons Ratio (x) = 0.67146 0.23376
# Poissons Ratio (y) = 0.44036 0.19152
# Poissons Ratio (z) = 0.11671 0.14580
#
# Static dielectric constant tensor:
#      x y z
#    x 3.763530 0.000000 0.000000 
#    y 0.000000 3.779900 0.000000 
#    z 0.000000 0.000000 3.854310 
# 
# 
# High freq. dielectric constant tensor:
#      x y z
#    x 1.791100 0.000000 0.000000 
#    y 0.000000 1.786160 0.000000 
#    z 0.000000 0.000000 1.798310 
# 
# From -- ./inp_files/1956.got.cif
#   From: 2010.03.12/outbox.cif.g09.slc.cpg/sg49_1_cif.got.tgz:1956.got - 2010.04.14 03:58:27.
