data_PCOD8204143
_publ_section_title
;
Structure prediction by ZEFSAII (Michael W. Deem and Ramdas Pophale) SiO2 
 PCOD8204143
Probable space group: P C C M
;
_chemical_formula_sum "Si O2"
_cell_formula_units_Z 48
_cell_length_a 15.619287
_cell_length_b 9.374039
_cell_length_c 14.914560
_cell_angle_alpha 90.000000
_cell_angle_beta 90.000000
_cell_angle_gamma 90.000000
_cell_volume 2183.727316
_symmetry_space_group_name_H-M "P C C M"
_symmetry_group_IT_number 49
_symmetry_cell_setting 'orthorhombic'
loop_
_space_group_symop_operation_xyz
x,y,z
-x,-y,z
x,-y,1/2-z
-x,y,1/2-z
-x,-y,-z
x,y,-z
-x,y,1/2+z
x,-y,1/2+z
loop_
_atom_site_type_symbol
_atom_site_label
_atom_site_fract_x
_atom_site_fract_y
_atom_site_fract_z
Si Si1 0.261940 0.091235 0.605765
Si Si2 0.581037 0.089218 0.607076
Si Si3 0.080797 0.427237 0.653652
Si Si4 0.072398 0.890533 0.105757
Si Si5 0.732440 0.594059 0.398027
Si Si6 0.580278 0.408891 0.607012
O O1 0.274936 0.101995 0.500000
O O2 0.165172 0.038954 0.627129
O O3 0.275505 0.249754 0.647601
O O4 0.331711 0.982127 0.645762
O O5 0.582329 0.090270 0.500000
O O6 0.574680 0.248961 0.645736
O O7 0.500000 0.000000 0.642796
O O8 0.086680 0.500000 0.750000
O O9 0.063577 0.257723 0.659074
O O10 0.170063 0.462016 0.604852
O O11 0.000000 0.500000 0.602066
O O12 0.063652 0.857140 0.000000
O O13 0.000000 0.000000 0.139229
O O14 0.703377 0.608947 0.500000
O O15 0.666755 0.481889 0.353498
O O16 0.500000 0.500000 0.642298
O O17 0.580762 0.401633 0.500000
#
# Coordination Sequence:
#
# PCOD8204143 Si02
#       6
#     8   8   8   8   8   8
#     4   8  14  25  40  62  93 126 159 198 249 302
#     4   9  15  22  35  58  91 127 158 194 244 301
#     4  10  21  36  52  74 105 141 178 217 267 329
#     4   9  18  33  55  81 106 134 173 224 277 324
#     4   9  17  30  49  71  98 132 169 214 263 311
#     4   9  16  25  40  67 100 130 162 205 260 315
#
# _framework density 21.980768000000001
#
# number of rings (size 3 to 8) (size 9 to 14) (size 15 to 20)
#    0.000    3.000    0.000    2.500    0.000    6.667 
#    0.000    5.000    0.000    0.500    0.000    0.000 
#    0.000    5.333    0.000    0.000    0.000    0.000 
#
# Total GULP energy -594872.866665 kJ/mol
# GULP energy per Si atom -12393.184722 kJ/mol
# Density = 2.193074 g / cm^3
# Si number density = 21.980768 Si / 1000 Ang^3
#
#
#
# Elastic Constant Matrix: (Units=GPa)
#
#
# Indices 1 2 3 4 5 6 
#
# 1 226.5062 130.0764 -3.3456 0.0000 0.0000 0.0000
# 2 130.0764 190.0727 17.3373 0.0000 0.0000 0.0000
# 3 -3.3456 17.3373 16.7813 0.0000 0.0000 0.0000
# 4 0.0000 0.0000 0.0000 15.3228 0.0000 0.0000
# 5 0.0000 0.0000 0.0000 0.0000 -6.2094 0.0000
# 6 0.0000 0.0000 0.0000 0.0000 0.0000 52.1143
#
#
#
# Elastic Compliance Matrix: (Units=1/GPa)
#
#
# Indices 1 2 3 4 5 6 
#
# 1 0.008179 -0.006344 0.008184 0.000000 0.000000 0.000000
# 2 -0.006344 0.010729 -0.012349 0.000000 0.000000 0.000000
# 3 0.008184 -0.012349 0.073980 0.000000 0.000000 0.000000
# 4 0.000000 0.000000 0.000000 0.065262 0.000000 0.000000
# 5 0.000000 0.000000 0.000000 0.000000 -0.161045 0.000000
# 6 0.000000 0.000000 0.000000 0.000000 0.000000 0.019189
#
#
# Mechanical properties :
#
#
# Convention : Reuss Voigt Hill
#
# Bulk Modulus (GPa) = 13.91382 80.16626 47.04004
# Shear Modulus (GPa) = 81.61035 31.53167 56.57101
#
# Velocity S-wave (km/s) = 6.09989 3.79160 5.07863
# Velocity P-wave (km/s) = 7.48033 7.46449 7.47241
#
# Compressibility (1/GPa) = 0.07187098
#
# Stress axis : x y z
#
# Youngs Moduli (GPa) = 122.26740 93.20650 13.51719
#
# Poissons Ratio (x) = 0.59127 -0.11063
# Poissons Ratio (y) = 0.77563 0.16692
# Poissons Ratio (z) = -1.00069 1.15101
#
# Static dielectric constant tensor:
#      x y z
#    x 4.493610 0.000000 0.000000 
#    y 0.000000 4.136740 0.000000 
#    z 0.000000 0.000000 3.206930 
# 
# 
# High freq. dielectric constant tensor:
#      x y z
#    x 1.882390 0.000000 0.000000 
#    y 0.000000 1.863300 0.000000 
#    z 0.000000 0.000000 1.808640 
# 
# From -- ./inp_files/17746.got.cif
#   From: 2010.03.12/outbox.cif.g09.slc.cpg/sg49_9_cif.got.tgz:17746.got - 2010.04.14 03:58:27.
