data_PCOD8204861
_publ_section_title
;
Structure prediction by ZEFSAII (Michael W. Deem and Ramdas Pophale) SiO2 
 PCOD8204861
Probable space group: P B A N
;
_chemical_formula_sum "Si O2"
_cell_formula_units_Z 52
_cell_length_a 26.465684
_cell_length_b 8.932322
_cell_length_c 12.137507
_cell_angle_alpha 90.000000
_cell_angle_beta 90.000000
_cell_angle_gamma 90.000000
_cell_volume 2869.306794
_symmetry_space_group_name_H-M "P B A N"
_symmetry_group_IT_number 50
_space_group.IT_coordinate_system_code '2'
_symmetry_cell_setting 'orthorhombic'
loop_
_space_group_symop_operation_xyz
x,y,z
1/2-x,1/2-y,z
x,1/2-y,-z
1/2-x,y,-z
-x,-y,-z
1/2+x,1/2+y,-z
-x,1/2+y,z
1/2+x,-y,z
loop_
_atom_site_type_symbol
_atom_site_label
_atom_site_fract_x
_atom_site_fract_y
_atom_site_fract_z
Si Si1 0.250000 0.499151 0.500000
Si Si2 0.359022 0.267158 0.733232
Si Si3 0.670415 0.250000 0.500000
Si Si4 0.550424 0.733012 0.872003
Si Si5 0.568288 0.607698 0.564385
Si Si6 0.893536 0.066478 0.359003
Si Si7 0.250000 0.250000 0.323658
Si Si8 0.507172 0.489381 0.255386
O O1 0.297427 0.603219 0.470847
O O2 0.237416 0.395115 0.396447
O O3 0.389543 0.235395 0.846940
O O4 0.385333 0.170033 0.637370
O O5 0.360142 0.442978 0.703954
O O6 0.300321 0.220199 0.749339
O O7 0.638295 0.284371 0.388078
O O8 0.524164 0.575939 0.846282
O O9 0.523669 0.845746 0.784549
O O10 0.540388 0.750000 0.000000
O O11 0.543342 0.750000 0.500000
O O12 0.589912 0.491389 0.478512
O O13 0.527179 0.515463 0.635105
O O14 0.941936 0.104615 0.283086
#
# Coordination Sequence:
#
# PCOD8204861 Si02
#       8
#     4   8   4   8   8   8   4   8
#     4  10  22  30  50  68 106 148 172 198 248 308
#     4   9  19  33  52  74  97 139 177 209 259 308
#     4  11  20  30  42  76 108 140 172 201 244 290
#     4  10  21  39  55  74 100 131 179 233 269 309
#     4   9  18  31  47  75 111 143 173 200 241 315
#     4  10  19  29  46  74 113 138 163 203 245 310
#     4  11  18  36  51  70 100 140 173 210 251 316
#     4  10  21  33  53  77 101 141 173 208 264 311
#
# _framework density 18.122843
#
# number of rings (size 3 to 8) (size 9 to 14) (size 15 to 20)
#    0.000    2.154    1.538    2.769    7.538    0.000 
#    0.000    0.385    0.000    0.000    0.000    0.000 
#    0.000    0.000    1.846    0.000    0.000    0.000 
#
# Total GULP energy -644386.965180 kJ/mol
# GULP energy per Si atom -12392.057023 kJ/mol
# Density = 1.808159 g / cm^3
# Si number density = 18.122843 Si / 1000 Ang^3
#
#
#
# Elastic Constant Matrix: (Units=GPa)
#
#
# Indices 1 2 3 4 5 6 
#
# 1 111.0852 21.0967 11.3392 0.0000 0.0000 0.0000
# 2 21.0967 51.0517 1.4370 0.0000 0.0000 0.0000
# 3 11.3392 1.4370 57.8131 0.0000 0.0000 0.0000
# 4 0.0000 0.0000 0.0000 16.1949 0.0000 0.0000
# 5 0.0000 0.0000 0.0000 0.0000 14.1728 0.0000
# 6 0.0000 0.0000 0.0000 0.0000 0.0000 24.2680
#
#
#
# Elastic Compliance Matrix: (Units=1/GPa)
#
#
# Indices 1 2 3 4 5 6 
#
# 1 0.009963 -0.004065 -0.001853 0.000000 0.000000 0.000000
# 2 -0.004065 0.021260 0.000269 0.000000 0.000000 0.000000
# 3 -0.001853 0.000269 0.017654 0.000000 0.000000 0.000000
# 4 0.000000 0.000000 0.000000 0.061748 0.000000 0.000000
# 5 0.000000 0.000000 0.000000 0.000000 0.070558 0.000000
# 6 0.000000 0.000000 0.000000 0.000000 0.000000 0.041206
#
#
# Mechanical properties :
#
#
# Convention : Reuss Voigt Hill
#
# Bulk Modulus (GPa) = 26.61077 31.96620 29.28849
# Shear Modulus (GPa) = 20.30751 23.33229 21.81990
#
# Velocity S-wave (km/s) = 3.35109 3.59200 3.47363
# Velocity P-wave (km/s) = 5.44872 5.90595 5.68193
#
# Compressibility (1/GPa) = 0.03757877
#
# Stress axis : x y z
#
# Youngs Moduli (GPa) = 100.36859 47.03607 56.64476
#
# Poissons Ratio (x) = 0.19121 0.10497
# Poissons Ratio (y) = 0.40801 -0.01523
# Poissons Ratio (z) = 0.18599 -0.01265
#
# Static dielectric constant tensor:
#      x y z
#    x 3.523790 0.000000 0.000000 
#    y 0.000000 3.340320 0.000000 
#    z 0.000000 0.000000 2.992020 
# 
# 
# High freq. dielectric constant tensor:
#      x y z
#    x 1.710250 0.000000 0.000000 
#    y 0.000000 1.698660 0.000000 
#    z 0.000000 0.000000 1.659010 
# 
# From -- ./inp_files/23133.got.cif
#   From: 2010.03.12/outbox.cif.g09.slc.cpg/sg50_12_cif.got.tgz:23133.got - 2010.04.16 13:23:21.
