data_PCOD8204674
_publ_section_title
;
Structure prediction by ZEFSAII (Michael W. Deem and Ramdas Pophale) SiO2 
 PCOD8204674
Probable space group: P C C M
;
_chemical_formula_sum "Si O2"
_cell_formula_units_Z 48
_cell_length_a 9.175135
_cell_length_b 28.729292
_cell_length_c 9.298069
_cell_angle_alpha 90.000000
_cell_angle_beta 90.000000
_cell_angle_gamma 90.000000
_cell_volume 2450.925731
_symmetry_space_group_name_H-M "P C C M"
_symmetry_group_IT_number 49
_symmetry_cell_setting 'orthorhombic'
loop_
_space_group_symop_operation_xyz
x,y,z
-x,-y,z
x,-y,1/2-z
-x,y,1/2-z
-x,-y,-z
x,y,-z
-x,y,1/2+z
x,-y,1/2+z
loop_
_atom_site_type_symbol
_atom_site_label
_atom_site_fract_x
_atom_site_fract_y
_atom_site_fract_z
Si Si1 0.352799 0.644236 0.835452
Si Si2 0.150935 0.932809 0.000000
Si Si3 0.827536 0.956870 0.000000
Si Si4 0.653600 0.458063 0.168799
Si Si5 0.648789 0.799409 0.165602
Si Si6 0.669522 0.904291 0.767480
Si Si7 0.150804 0.270068 0.671242
O O1 0.500000 0.652616 0.750000
O O2 0.277915 0.593373 0.808172
O O3 0.238432 0.683276 0.792115
O O4 0.399709 0.648568 0.000000
O O5 0.232393 0.906589 0.127071
O O6 0.976223 0.925801 0.000000
O O7 0.159047 0.988157 0.000000
O O8 0.733458 0.944942 0.137142
O O9 0.743338 0.500000 0.250000
O O10 0.500000 0.455989 0.250000
O O11 0.637112 0.469861 0.000000
O O12 0.500000 0.789367 0.250000
O O13 0.686850 0.853793 0.161775
O O14 0.774007 0.773900 0.254284
O O15 0.636804 0.781729 0.000000
O O16 0.500000 0.915991 0.750000
O O17 0.133547 0.261674 0.500000
O O18 0.000000 0.277266 0.750000
#
# Coordination Sequence:
#
# PCOD8204674 Si02
#       7
#     8   4   4   8   8   8   8
#     4   9  19  34  54  81 113 151 192 241 295 352
#     4  11  25  39  67  89 127 167 203 249 300 361
#     4  11  23  45  59  93 127 165 205 247 302 363
#     4   9  15  25  43  72 108 143 185 234 289 344
#     4  11  24  43  66  91 122 155 194 245 302 360
#     4  11  24  41  65  93 123 158 204 252 305 359
#     4  11  24  41  61  87 119 155 199 246 298 357
#
# _framework density 19.584437000000001
#
# number of rings (size 3 to 8) (size 9 to 14) (size 15 to 20)
#    0.000    1.667    0.833    4.000    4.667    8.000 
#    0.000    0.000    0.000    0.500    0.000    3.500 
#    0.000    0.000    0.000    0.000    0.000    0.000 
#
# Total GULP energy -594838.691774 kJ/mol
# GULP energy per Si atom -12392.472745 kJ/mol
# Density = 1.953986 g / cm^3
# Si number density = 19.584437 Si / 1000 Ang^3
#
#
#
# Elastic Constant Matrix: (Units=GPa)
#
#
# Indices 1 2 3 4 5 6 
#
# 1 112.7315 51.3457 49.1830 0.0000 0.0000 0.0000
# 2 51.3457 62.7236 31.9751 0.0000 0.0000 0.0000
# 3 49.1830 31.9751 134.7332 0.0000 0.0000 0.0000
# 4 0.0000 0.0000 0.0000 15.0601 0.0000 0.0000
# 5 0.0000 0.0000 0.0000 0.0000 30.6805 0.0000
# 6 0.0000 0.0000 0.0000 0.0000 0.0000 4.6140
#
#
#
# Elastic Compliance Matrix: (Units=1/GPa)
#
#
# Indices 1 2 3 4 5 6 
#
# 1 0.015099 -0.010865 -0.002933 0.000000 0.000000 0.000000
# 2 -0.010865 0.025955 -0.002194 0.000000 0.000000 0.000000
# 3 -0.002933 -0.002194 0.009013 0.000000 0.000000 0.000000
# 4 0.000000 0.000000 0.000000 0.066401 0.000000 0.000000
# 5 0.000000 0.000000 0.000000 0.000000 0.032594 0.000000
# 6 0.000000 0.000000 0.000000 0.000000 0.000000 0.216731
#
#
# Mechanical properties :
#
#
# Convention : Reuss Voigt Hill
#
# Bulk Modulus (GPa) = 55.29690 63.91066 59.60378
# Shear Modulus (GPa) = 12.38224 21.91657 17.14940
#
# Velocity S-wave (km/s) = 2.51718 3.34890 2.96237
# Velocity P-wave (km/s) = 6.06174 6.90346 6.49625
#
# Compressibility (1/GPa) = 0.01808420
#
# Stress axis : x y z
#
# Youngs Moduli (GPa) = 66.23002 38.52813 110.94539
#
# Poissons Ratio (x) = 0.41860 0.32543
# Poissons Ratio (y) = 0.71957 0.24338
# Poissons Ratio (z) = 0.19427 0.08452
#
# Static dielectric constant tensor:
#      x y z
#    x 3.554770 0.000000 0.000000 
#    y 0.000000 4.217240 0.000000 
#    z 0.000000 0.000000 3.740520 
# 
# 
# High freq. dielectric constant tensor:
#      x y z
#    x 1.737990 0.000000 0.000000 
#    y 0.000000 1.780400 0.000000 
#    z 0.000000 0.000000 1.781550 
# 
# From -- ./inp_files/2142.got.cif
#   From: 2010.03.12/outbox.cif.g09.slc.cpg/sg49_2_cif.got.tgz:2142.got - 2010.04.14 03:58:27.
