data_PCOD8204804
_publ_section_title
;
Structure prediction by ZEFSAII (Michael W. Deem and Ramdas Pophale) SiO2 
 PCOD8204804
Probable space group: P B A N
;
_chemical_formula_sum "Si O2"
_cell_formula_units_Z 48
_cell_length_a 4.991172
_cell_length_b 24.470272
_cell_length_c 21.236580
_cell_angle_alpha 90.000000
_cell_angle_beta 90.000000
_cell_angle_gamma 90.000000
_cell_volume 2593.736843
_symmetry_space_group_name_H-M "P B A N"
_symmetry_group_IT_number 50
_space_group.IT_coordinate_system_code '2'
_symmetry_cell_setting 'orthorhombic'
loop_
_space_group_symop_operation_xyz
x,y,z
1/2-x,1/2-y,z
x,1/2-y,-z
1/2-x,y,-z
-x,-y,-z
1/2+x,1/2+y,-z
-x,1/2+y,z
1/2+x,-y,z
loop_
_atom_site_type_symbol
_atom_site_label
_atom_site_fract_x
_atom_site_fract_y
_atom_site_fract_z
Si Si1 0.263072 0.814453 0.851129
Si Si2 0.754272 0.353519 0.714768
Si Si3 0.001684 0.608601 0.540629
Si Si4 0.267479 0.314503 0.069663
Si Si5 0.280898 0.187805 0.354530
Si Si6 0.183992 0.536308 0.650043
O O1 0.250000 0.750000 0.836151
O O2 0.187875 0.847474 0.788328
O O3 0.543180 0.833965 0.880729
O O4 0.050859 0.832302 0.903257
O O5 0.506739 0.313267 0.699639
O O6 0.654379 0.414945 0.700400
O O7 0.008055 0.338872 0.671283
O O8 0.750000 0.586705 0.500000
O O9 0.886144 0.655975 0.584694
O O10 0.250000 0.632584 0.500000
O O11 0.127221 0.558704 0.580032
O O12 0.250000 0.250000 0.062434
O O13 0.250000 0.341264 0.000000
O O14 0.250000 0.250000 0.375582
O O15 0.479656 0.513055 0.660981
#
# Coordination Sequence:
#
# PCOD8204804 Si02
#       6
#     8   8   8   8   8   8
#     4  10  18  29  49  75 105 142 175 208 249 298
#     4  11  22  37  56  81 108 135 183 224 258 321
#     4  11  23  39  57  81 104 130 175 215 255 326
#     4   9  17  28  43  69 108 148 179 205 239 288
#     4  11  22  38  57  78 110 145 170 211 265 310
#     4  11  23  40  59  77 102 134 167 222 284 318
#
# _framework density 18.506118000000001
#
# number of rings (size 3 to 8) (size 9 to 14) (size 15 to 20)
#    0.000    1.500    0.000    8.000    0.000    5.667 
#    0.000    2.500    0.000    0.000    0.000    0.000 
#    0.000   13.333    0.000    0.000    0.000    0.000 
#
# Total GULP energy -595200.675469 kJ/mol
# GULP energy per Si atom -12400.014072 kJ/mol
# Density = 1.846400 g / cm^3
# Si number density = 18.506118 Si / 1000 Ang^3
#
#
#
# Elastic Constant Matrix: (Units=GPa)
#
#
# Indices 1 2 3 4 5 6 
#
# 1 96.3467 23.6072 26.5600 0.0000 0.0000 0.0000
# 2 23.6072 69.1472 37.7970 0.0000 0.0000 0.0000
# 3 26.5600 37.7970 112.8170 0.0000 0.0000 0.0000
# 4 0.0000 0.0000 0.0000 11.2563 0.0000 0.0000
# 5 0.0000 0.0000 0.0000 0.0000 -46.4236 0.0000
# 6 0.0000 0.0000 0.0000 0.0000 0.0000 24.8192
#
#
#
# Elastic Compliance Matrix: (Units=1/GPa)
#
#
# Indices 1 2 3 4 5 6 
#
# 1 0.011592 -0.003019 -0.001718 0.000000 0.000000 0.000000
# 2 -0.003019 0.018490 -0.005484 0.000000 0.000000 0.000000
# 3 -0.001718 -0.005484 0.011106 0.000000 0.000000 0.000000
# 4 0.000000 0.000000 0.000000 0.088839 0.000000 0.000000
# 5 0.000000 0.000000 0.000000 0.000000 -0.021541 0.000000
# 6 0.000000 0.000000 0.000000 0.000000 0.000000 0.040291
#
#
# Mechanical properties :
#
#
# Convention : Reuss Voigt Hill
#
# Bulk Modulus (GPa) = 48.19958 50.47102 49.33530
# Shear Modulus (GPa) = 28.38734 10.62016 19.50375
#
# Velocity S-wave (km/s) = 3.92081 2.39816 3.24992
# Velocity P-wave (km/s) = 6.82633 5.91609 6.38744
#
# Compressibility (1/GPa) = 0.02074707
#
# Stress axis : x y z
#
# Youngs Moduli (GPa) = 86.26358 54.08276 90.04430
#
# Poissons Ratio (x) = 0.16326 0.15468
# Poissons Ratio (y) = 0.26041 0.49381
# Poissons Ratio (z) = 0.14818 0.29659
#
# Static dielectric constant tensor:
#      x y z
#    x 3.732970 0.000000 0.000000 
#    y 0.000000 3.116740 0.000000 
#    z 0.000000 0.000000 3.441030 
# 
# 
# High freq. dielectric constant tensor:
#      x y z
#    x 1.744690 0.000000 0.000000 
#    y 0.000000 1.675010 0.000000 
#    z 0.000000 0.000000 1.716580 
# 
# From -- ./inp_files/28283.got.cif
#   From: 2010.03.12/outbox.cif.g09.slc.cpg/sg50_15_cif.got.tgz:28283.got - 2010.04.16 13:23:21.
