data_PCOD8204631
_publ_section_title
;
Structure prediction by ZEFSAII (Michael W. Deem and Ramdas Pophale) SiO2 
 PCOD8204631
Probable space group: P C C M
;
_chemical_formula_sum "Si O2"
_cell_formula_units_Z 48
_cell_length_a 17.045511
_cell_length_b 9.097830
_cell_length_c 14.732764
_cell_angle_alpha 90.000000
_cell_angle_beta 90.000000
_cell_angle_gamma 90.000000
_cell_volume 2284.715220
_symmetry_space_group_name_H-M "P C C M"
_symmetry_group_IT_number 49
_symmetry_cell_setting 'orthorhombic'
loop_
_space_group_symop_operation_xyz
x,y,z
-x,-y,z
x,-y,1/2-z
-x,y,1/2-z
-x,-y,-z
x,y,-z
-x,y,1/2+z
x,-y,1/2+z
loop_
_atom_site_type_symbol
_atom_site_label
_atom_site_fract_x
_atom_site_fract_y
_atom_site_fract_z
Si Si1 0.590342 0.002852 0.150416
Si Si2 0.760160 0.344315 0.500000
Si Si3 0.255128 0.669520 0.000000
Si Si4 0.584028 0.763218 0.500000
Si Si5 0.160374 0.166848 0.356856
Si Si6 0.000619 0.666737 0.895141
Si Si7 0.597268 0.769927 0.000000
Si Si8 0.150738 0.169885 0.151232
O O1 0.605337 0.146791 0.090736
O O2 0.500000 0.000000 0.171843
O O3 0.633959 0.000000 0.250000
O O4 0.614085 0.862714 0.090778
O O5 0.789292 0.512951 0.500000
O O6 0.664956 0.352078 0.500000
O O7 0.792285 0.265129 0.410974
O O8 0.349514 0.637194 0.000000
O O9 0.232198 0.764718 0.087847
O O10 0.492987 0.708204 0.500000
O O11 0.184802 0.176734 0.252259
O O12 0.084154 0.260206 0.381036
O O13 0.146765 0.997137 0.385280
O O14 0.936498 0.763445 0.842798
O O15 0.000000 0.500000 0.857184
O O16 0.975736 0.666448 0.000000
#
# Coordination Sequence:
#
# PCOD8204631 Si02
#       8
#     8   4   4   4   8   8   4   8
#     4   8  15  31  58  89 117 146 189 248 306 362
#     4  12  26  42  61  89 128 167 206 258 316 373
#     4  12  26  42  61  89 128 167 206 258 316 373
#     4   9  20  37  59  88 120 158 205 255 309 370
#     4  11  25  43  66  94 124 164 212 259 307 362
#     4  11  22  39  66  97 130 167 202 247 309 371
#     4   9  20  37  59  88 120 158 205 255 309 370
#     4  11  25  43  66  94 124 164 212 259 307 362
#
# _framework density 21.009181999999999
#
# number of rings (size 3 to 8) (size 9 to 14) (size 15 to 20)
#    0.000    1.667    1.667    3.500    4.667    7.000 
#    0.000    0.000    0.000    0.000    0.000    7.000 
#    0.000    0.000    0.000    0.000    0.000    0.000 
#
# Total GULP energy -594922.848743 kJ/mol
# GULP energy per Si atom -12394.226015 kJ/mol
# Density = 2.096136 g / cm^3
# Si number density = 21.009182 Si / 1000 Ang^3
#
#
#
# Elastic Constant Matrix: (Units=GPa)
#
#
# Indices 1 2 3 4 5 6 
#
# 1 117.0420 35.9649 14.9031 0.0000 0.0000 0.0000
# 2 35.9649 138.2937 34.7302 0.0000 0.0000 0.0000
# 3 14.9031 34.7302 131.7171 0.0000 0.0000 0.0000
# 4 0.0000 0.0000 0.0000-5299.9388 0.0000 0.0000
# 5 0.0000 0.0000 0.0000 0.0000 -7.9029 0.0000
# 6 0.0000 0.0000 0.0000 0.0000 0.0000 30.2152
#
#
#
# Elastic Compliance Matrix: (Units=1/GPa)
#
#
# Indices 1 2 3 4 5 6 
#
# 1 0.009310 -0.002310 -0.000444 0.000000 0.000000 0.000000
# 2 -0.002310 0.008317 -0.001932 0.000000 0.000000 0.000000
# 3 -0.000444 -0.001932 0.008152 0.000000 0.000000 0.000000
# 4 0.000000 0.000000 0.000000 -0.000189 0.000000 0.000000
# 5 0.000000 0.000000 0.000000 0.000000 -0.126536 0.000000
# 6 0.000000 0.000000 0.000000 0.000000 0.000000 0.033096
#
#
# Mechanical properties :
#
#
# Convention : Reuss Voigt Hill
#
# Bulk Modulus (GPa) = 60.94833 62.02768 61.48801
# Shear Modulus (GPa) = -94.32277 -1035.42832 -564.87554
#
# Velocity S-wave (km/s) = -6.70771 -22.22421 -16.41507
# Velocity P-wave (km/s) = 5.56039 25.07919 18.16430
#
# Compressibility (1/GPa) = 0.01640734
#
# Stress axis : x y z
#
# Youngs Moduli (GPa) = 107.40868 120.23983 122.67505
#
# Poissons Ratio (x) = 0.27771 0.05452
# Poissons Ratio (y) = 0.24807 0.23696
# Poissons Ratio (z) = 0.04773 0.23225
#
# Static dielectric constant tensor:
#      x y z
#    x 3.672650 0.000000 0.000000 
#    y 0.000000 3.725850 0.000000 
#    z 0.000000 0.000000 4.387910 
# 
# 
# High freq. dielectric constant tensor:
#      x y z
#    x 1.825820 0.000000 0.000000 
#    y 0.000000 1.809330 0.000000 
#    z 0.000000 0.000000 1.834140 
# 
# From -- ./inp_files/14089.got.cif
#   From: 2010.03.12/outbox.cif.g09.slc.cpg/sg49_8_cif.got.tgz:14089.got - 2010.04.14 03:58:27.
