data_PCOD8204538
_publ_section_title
;
Structure prediction by ZEFSAII (Michael W. Deem and Ramdas Pophale) SiO2 
 PCOD8204538
Probable space group: P C C M
;
_chemical_formula_sum "Si O2"
_cell_formula_units_Z 30
_cell_length_a 5.477164
_cell_length_b 8.929303
_cell_length_c 28.143112
_cell_angle_alpha 90.000000
_cell_angle_beta 90.000000
_cell_angle_gamma 90.000000
_cell_volume 1376.402410
_symmetry_space_group_name_H-M "P C C M"
_symmetry_group_IT_number 49
_symmetry_cell_setting 'orthorhombic'
loop_
_space_group_symop_operation_xyz
x,y,z
-x,-y,z
x,-y,1/2-z
-x,y,1/2-z
-x,-y,-z
x,y,-z
-x,y,1/2+z
x,-y,1/2+z
loop_
_atom_site_type_symbol
_atom_site_label
_atom_site_fract_x
_atom_site_fract_y
_atom_site_fract_z
Si Si1 0.684424 0.757446 0.291966
Si Si2 0.000000 0.000000 0.750000
Si Si3 0.624468 0.345814 0.623629
Si Si4 0.751677 0.086666 0.555410
Si Si5 0.000000 0.500000 0.688103
O O1 0.500000 0.779135 0.250000
O O2 0.566133 0.749216 0.344319
O O3 0.822746 0.601920 0.279950
O O4 0.854365 0.901910 0.288410
O O5 0.500000 0.500000 0.604645
O O6 0.727089 0.247464 0.580591
O O7 0.854828 0.382872 0.655928
O O8 0.776941 0.120935 0.500000
O O9 0.500000 0.000000 0.566607
O O10 0.000000 0.000000 0.572432
#
# Coordination Sequence:
#
# PCOD8204538 Si02
#       5
#     8   2   8   8   4
#     4  11  25  43  61  93 129 173 226 274 338 401
#     4  12  26  42  60  90 134 178 230 284 330 406
#     4  10  24  43  67  98 131 178 230 281 346 412
#     4  10  24  46  72 104 141 181 228 286 356 420
#     4  10  24  43  65  90 128 174 219 282 334 407
#
# _framework density 21.795952
#
# number of rings (size 3 to 8) (size 9 to 14) (size 15 to 20)
#    0.000    1.600    0.000    2.000    7.467   17.600 
#    2.400    0.667    0.000    0.000    0.000    0.000 
#    0.000    0.000    0.000    0.000    0.000    0.000 
#
# Total GULP energy -371921.000875 kJ/mol
# GULP energy per Si atom -12397.366696 kJ/mol
# Density = 2.174634 g / cm^3
# Si number density = 21.795952 Si / 1000 Ang^3
#
#
#
# Elastic Constant Matrix: (Units=GPa)
#
#
# Indices 1 2 3 4 5 6 
#
# 1 137.8035 68.5001 37.2762 0.0000 0.0000 0.0000
# 2 68.5001 158.6737 70.5146 0.0000 0.0000 0.0000
# 3 37.2762 70.5146 73.9961 0.0000 0.0000 0.0000
# 4 0.0000 0.0000 0.0000 52.2297 0.0000 0.0000
# 5 0.0000 0.0000 0.0000 0.0000 -6.5885 0.0000
# 6 0.0000 0.0000 0.0000 0.0000 0.0000 44.2835
#
#
#
# Elastic Compliance Matrix: (Units=1/GPa)
#
#
# Indices 1 2 3 4 5 6 
#
# 1 0.009334 -0.003365 -0.001495 0.000000 0.000000 0.000000
# 2 -0.003365 0.012145 -0.009878 0.000000 0.000000 0.000000
# 3 -0.001495 -0.009878 0.023681 0.000000 0.000000 0.000000
# 4 0.000000 0.000000 0.000000 0.019146 0.000000 0.000000
# 5 0.000000 0.000000 0.000000 0.000000 -0.151781 0.000000
# 6 0.000000 0.000000 0.000000 0.000000 0.000000 0.022582
#
#
# Mechanical properties :
#
#
# Convention : Reuss Voigt Hill
#
# Bulk Modulus (GPa) = 63.76531 80.33943 72.05237
# Shear Modulus (GPa) = -165.62729 30.93044 -67.34843
#
# Velocity S-wave (km/s) = -8.72668 3.77117 -5.56476
# Velocity P-wave (km/s) = 8.49828 7.47677 2.85646
#
# Compressibility (1/GPa) = 0.01568251
#
# Stress axis : x y z
#
# Youngs Moduli (GPa) = 107.13666 82.33980 42.22778
#
# Poissons Ratio (x) = 0.27707 0.06315
# Poissons Ratio (y) = 0.36050 0.41714
# Poissons Ratio (z) = 0.16022 0.81338
#
# Static dielectric constant tensor:
#      x y z
#    x 4.191460 0.000000 0.000000 
#    y 0.000000 5.214000 0.000000 
#    z 0.000000 0.000000 3.639110 
# 
# 
# High freq. dielectric constant tensor:
#      x y z
#    x 1.882890 0.000000 0.000000 
#    y 0.000000 1.865900 0.000000 
#    z 0.000000 0.000000 1.836260 
# 
# From -- ./inp_files/25472.got.cif
#   From: 2010.03.12/outbox.cif.g09.slc.cpg/sg49_13_cif.got.tgz:25472.got - 2010.04.14 03:58:27.
