data_PCOD8204456
_publ_section_title
;
Structure prediction by ZEFSAII (Michael W. Deem and Ramdas Pophale) SiO2 
 PCOD8204456
Probable space group: P C C M
;
_chemical_formula_sum "Si O2"
_cell_formula_units_Z 32
_cell_length_a 5.100570
_cell_length_b 7.692203
_cell_length_c 36.261448
_cell_angle_alpha 90.000000
_cell_angle_beta 90.000000
_cell_angle_gamma 90.000000
_cell_volume 1422.704128
_symmetry_space_group_name_H-M "P C C M"
_symmetry_group_IT_number 49
_symmetry_cell_setting 'orthorhombic'
loop_
_space_group_symop_operation_xyz
x,y,z
-x,-y,z
x,-y,1/2-z
-x,y,1/2-z
-x,-y,-z
x,y,-z
-x,y,1/2+z
x,-y,1/2+z
loop_
_atom_site_type_symbol
_atom_site_label
_atom_site_fract_x
_atom_site_fract_y
_atom_site_fract_z
Si Si1 0.371970 0.186457 0.042083
Si Si2 0.242182 0.619791 0.160334
Si Si3 0.873161 0.683928 0.578482
Si Si4 0.251344 0.803560 0.766632
O O1 0.595164 0.314921 0.057572
O O2 0.096857 0.182287 0.064409
O O3 0.500000 0.000000 0.046304
O O4 0.307455 0.235006 0.000000
O O5 0.500000 0.500000 0.158146
O O6 0.184394 0.713020 0.121583
O O7 0.265339 0.781019 0.189134
O O8 0.000000 0.500000 0.172267
O O9 0.000000 0.500000 0.569990
O O10 0.500000 0.703002 0.750000
O O11 0.000000 0.706373 0.750000
O O12 0.252304 0.000000 0.750000
#
# Coordination Sequence:
#
# PCOD8204456 Si02
#       4
#     8   8   8   8
#     4  11  24  43  65  97 136 176 223 274 329 388
#     4  11  23  41  66  93 130 171 212 267 327 388
#     4  11  23  42  66  97 134 173 224 272 327 394
#     4  10  22  41  61  91 128 162 208 270 312 389
#
# _framework density 22.492380000000001
#
# number of rings (size 3 to 8) (size 9 to 14) (size 15 to 20)
#    0.000    1.250    0.000    6.750    0.000    8.000 
#   13.500    0.000    0.000    0.000    0.000    0.000 
#    0.000    0.000    0.000    0.000    0.000    0.000 
#
# Total GULP energy -396530.265946 kJ/mol
# GULP energy per Si atom -12391.570811 kJ/mol
# Density = 2.244119 g / cm^3
# Si number density = 22.492380 Si / 1000 Ang^3
#
#
#
# Elastic Constant Matrix: (Units=GPa)
#
#
# Indices 1 2 3 4 5 6 
#
# 1 198.1750 20.5297 81.4789 0.0000 0.0000 0.0000
# 2 20.5297 52.6350 67.9041 0.0000 0.0000 0.0000
# 3 81.4789 67.9041 212.6376 0.0000 0.0000 0.0000
# 4 0.0000 0.0000 0.0000 28.7216 0.0000 0.0000
# 5 0.0000 0.0000 0.0000 0.0000 37.1397 0.0000
# 6 0.0000 0.0000 0.0000 0.0000 0.0000 15.3001
#
#
#
# Elastic Compliance Matrix: (Units=1/GPa)
#
#
# Indices 1 2 3 4 5 6 
#
# 1 0.006025 0.001069 -0.002650 0.000000 0.000000 0.000000
# 2 0.001069 0.032499 -0.010788 0.000000 0.000000 0.000000
# 3 -0.002650 -0.010788 0.009163 0.000000 0.000000 0.000000
# 4 0.000000 0.000000 0.000000 0.034817 0.000000 0.000000
# 5 0.000000 0.000000 0.000000 0.000000 0.026925 0.000000
# 6 0.000000 0.000000 0.000000 0.000000 0.000000 0.065359
#
#
# Mechanical properties :
#
#
# Convention : Reuss Voigt Hill
#
# Bulk Modulus (GPa) = 43.57441 89.25256 66.41349
# Shear Modulus (GPa) = 24.13393 35.80125 29.96759
#
# Velocity S-wave (km/s) = 3.27920 3.99395 3.65409
# Velocity P-wave (km/s) = 5.80969 7.81257 6.88436
#
# Compressibility (1/GPa) = 0.02294925
#
# Stress axis : x y z
#
# Youngs Moduli (GPa) = 165.97990 30.76977 109.13137
#
# Poissons Ratio (x) = -0.03288 0.28919
# Poissons Ratio (y) = -0.17738 1.17730
# Poissons Ratio (z) = 0.43983 0.33194
#
# Static dielectric constant tensor:
#      x y z
#    x 5.186260 0.000000 0.000000 
#    y 0.000000 3.724550 0.000000 
#    z 0.000000 0.000000 4.161070 
# 
# 
# High freq. dielectric constant tensor:
#      x y z
#    x 1.926020 0.000000 0.000000 
#    y 0.000000 1.862840 0.000000 
#    z 0.000000 0.000000 1.891170 
# 
# From -- ./inp_files/25536.got.cif
#   From: 2010.03.12/outbox.cif.g09.slc.cpg/sg49_13_cif.got.tgz:25536.got - 2010.04.14 03:58:27.
