data_PCOD8204217
_publ_section_title
;
Structure prediction by ZEFSAII (Michael W. Deem and Ramdas Pophale) SiO2 
 PCOD8204217
Probable space group: P C C M
;
_chemical_formula_sum "Si O2"
_cell_formula_units_Z 40
_cell_length_a 24.738866
_cell_length_b 9.659068
_cell_length_c 8.708039
_cell_angle_alpha 90.000000
_cell_angle_beta 90.000000
_cell_angle_gamma 90.000000
_cell_volume 2080.824138
_symmetry_space_group_name_H-M "P C C M"
_symmetry_group_IT_number 49
_symmetry_cell_setting 'orthorhombic'
loop_
_space_group_symop_operation_xyz
x,y,z
-x,-y,z
x,-y,1/2-z
-x,y,1/2-z
-x,-y,-z
x,y,-z
-x,y,1/2+z
x,-y,1/2+z
loop_
_atom_site_type_symbol
_atom_site_label
_atom_site_fract_x
_atom_site_fract_y
_atom_site_fract_z
Si Si1 0.264141 0.354897 0.822223
Si Si2 0.944919 0.849105 0.681724
Si Si3 0.346835 0.848673 0.180736
Si Si4 0.137880 0.355407 0.821445
Si Si5 0.442803 0.353257 0.681302
O O1 0.283378 0.500000 0.750000
O O2 0.293765 0.226614 0.743766
O O3 0.201028 0.330215 0.793996
O O4 0.279239 0.359785 0.000000
O O5 0.949529 0.857102 0.500000
O O6 0.893147 0.762274 0.730091
O O7 0.000000 0.782450 0.750000
O O8 0.936568 0.000000 0.750000
O O9 0.399477 0.761768 0.229409
O O10 0.352190 0.000000 0.250000
O O11 0.341234 0.861410 0.000000
O O12 0.119337 0.500000 0.750000
O O13 0.122579 0.352168 0.000000
O O14 0.424117 0.500000 0.750000
O O15 0.500000 0.305859 0.750000
O O16 0.448189 0.369164 0.500000
#
# Coordination Sequence:
#
# PCOD8204217 Si02
#       5
#     8   8   8   8   8
#     4  10  21  38  61  85 113 148 187 231 279 333
#     4  11  22  38  59  83 113 150 189 231 279 334
#     4  11  24  39  57  83 115 150 189 232 282 334
#     4  10  21  38  59  86 115 146 186 232 281 332
#     4  10  21  37  59  85 111 145 186 230 277 331
#
# _framework density 19.223153
#
# number of rings (size 3 to 8) (size 9 to 14) (size 15 to 20)
#    0.000    1.600    0.000    6.000    0.000    8.800 
#    0.000    4.000    0.000    0.000    0.000    0.000 
#    0.000    0.000    0.000    0.000    0.000    0.000 
#
# Total GULP energy -496208.274297 kJ/mol
# GULP energy per Si atom -12405.206857 kJ/mol
# Density = 1.917940 g / cm^3
# Si number density = 19.223153 Si / 1000 Ang^3
#
#
#
# Elastic Constant Matrix: (Units=GPa)
#
#
# Indices 1 2 3 4 5 6 
#
# 1 89.2461 73.4543 62.5056 0.0000 0.0000 0.0000
# 2 73.4543 137.9745 68.1022 0.0000 0.0000 0.0000
# 3 62.5056 68.1022 141.0757 0.0000 0.0000 0.0000
# 4 0.0000 0.0000 0.0000 39.1664 0.0000 0.0000
# 5 0.0000 0.0000 0.0000 0.0000 29.7372 0.0000
# 6 0.0000 0.0000 0.0000 0.0000 0.0000 50.9361
#
#
#
# Elastic Compliance Matrix: (Units=1/GPa)
#
#
# Indices 1 2 3 4 5 6 
#
# 1 0.022868 -0.009417 -0.005586 0.000000 0.000000 0.000000
# 2 -0.009417 0.013393 -0.002293 0.000000 0.000000 0.000000
# 3 -0.005586 -0.002293 0.010670 0.000000 0.000000 0.000000
# 4 0.000000 0.000000 0.000000 0.025532 0.000000 0.000000
# 5 0.000000 0.000000 0.000000 0.000000 0.033628 0.000000
# 6 0.000000 0.000000 0.000000 0.000000 0.000000 0.019632
#
#
# Mechanical properties :
#
#
# Convention : Reuss Voigt Hill
#
# Bulk Modulus (GPa) = 81.04311 86.26897 83.65604
# Shear Modulus (GPa) = 30.40824 34.91689 32.66257
#
# Velocity S-wave (km/s) = 3.98157 4.26655 4.12652
# Velocity P-wave (km/s) = 7.96165 8.32143 8.14353
#
# Compressibility (1/GPa) = 0.01233911
#
# Stress axis : x y z
#
# Youngs Moduli (GPa) = 43.72875 74.66610 93.71927
#
# Poissons Ratio (x) = 0.70316 0.52352
# Poissons Ratio (y) = 0.41181 0.21488
# Poissons Ratio (z) = 0.24427 0.17119
#
# Static dielectric constant tensor:
#      x y z
#    x 3.643620 0.000000 0.000000 
#    y 0.000000 3.494740 0.000000 
#    z 0.000000 0.000000 3.706370 
# 
# 
# High freq. dielectric constant tensor:
#      x y z
#    x 1.756840 0.000000 0.000000 
#    y 0.000000 1.747530 0.000000 
#    z 0.000000 0.000000 1.769070 
# 
# From -- ./inp_files/1680.got.cif
#   From: 2010.03.12/outbox.cif.g09.slc.cpg/sg49_1_cif.got.tgz:1680.got - 2010.04.14 03:58:27.
