data_PCOD8204071
_publ_section_title
;
Structure prediction by ZEFSAII (Michael W. Deem and Ramdas Pophale) SiO2 
 PCOD8204071
Probable space group: P C C M
;
_chemical_formula_sum "Si O2"
_cell_formula_units_Z 56
_cell_length_a 16.831127
_cell_length_b 8.615500
_cell_length_c 19.633749
_cell_angle_alpha 90.000000
_cell_angle_beta 90.000000
_cell_angle_gamma 90.000000
_cell_volume 2847.061958
_symmetry_space_group_name_H-M "P C C M"
_symmetry_group_IT_number 49
_symmetry_cell_setting 'orthorhombic'
loop_
_space_group_symop_operation_xyz
x,y,z
-x,-y,z
x,-y,1/2-z
-x,y,1/2-z
-x,-y,-z
x,y,-z
-x,y,1/2+z
x,-y,1/2+z
loop_
_atom_site_type_symbol
_atom_site_label
_atom_site_fract_x
_atom_site_fract_y
_atom_site_fract_z
Si Si1 0.893325 0.845745 0.000000
Si Si2 0.377195 0.168232 0.077148
Si Si3 0.490968 0.681820 0.829307
Si Si4 0.205032 0.166985 0.741605
Si Si5 0.073473 0.206198 0.500000
Si Si6 0.214692 0.695308 0.610410
Si Si7 0.179956 0.663765 0.886924
Si Si8 0.329749 0.161957 0.634508
O O1 0.847136 0.796976 0.067823
O O2 0.979480 0.767360 0.000000
O O3 0.900722 0.029007 0.000000
O O4 0.444572 0.222505 0.128699
O O5 0.302644 0.284080 0.080623
O O6 0.350381 0.995765 0.096404
O O7 0.410580 0.168478 0.000000
O O8 0.500000 0.500000 0.842256
O O9 0.500000 0.724376 0.750000
O O10 0.405319 0.728620 0.856959
O O11 0.214458 0.251963 0.812245
O O12 0.157597 0.281311 0.690156
O O13 0.292285 0.129771 0.709318
O O14 0.160937 0.000000 0.750000
O O15 0.106959 0.288366 0.566623
O O16 0.189917 0.518426 0.606844
O O17 0.262729 0.746516 0.909858
#
# Coordination Sequence:
#
# PCOD8204071 Si02
#       8
#     4   8   8   8   4   8   8   8
#     4  11  25  41  73  90 131 174 209 269 313 409
#     4  12  25  41  64  92 133 171 224 269 328 398
#     4  11  25  42  62  90 128 171 223 284 337 389
#     4  10  20  38  66  95 124 170 215 264 311 392
#     4  11  23  47  63 100 127 168 221 253 333 385
#     4  12  21  41  63  99 129 167 214 261 330 376
#     4  10  24  37  67  95 130 166 208 272 315 392
#     4  10  23  39  61  92 122 173 214 267 322 382
#
# _framework density 19.6694
#
# number of rings (size 3 to 8) (size 9 to 14) (size 15 to 20)
#    0.857    0.286    2.143    4.714    1.000    4.286 
#    0.000    0.714    0.000    4.286    0.000    0.000 
#    0.000    0.000    0.000    0.000    0.000    0.000 
#
# Total GULP energy -694317.283115 kJ/mol
# GULP energy per Si atom -12398.522913 kJ/mol
# Density = 1.962463 g / cm^3
# Si number density = 19.669400 Si / 1000 Ang^3
#
#
#
# Elastic Constant Matrix: (Units=GPa)
#
#
# Indices 1 2 3 4 5 6 
#
# 1 76.7399 1.4580 34.5263 0.0000 0.0000 0.0000
# 2 1.4580 64.7880 24.9063 0.0000 0.0000 0.0000
# 3 34.5263 24.9063 132.8971 0.0000 0.0000 0.0000
# 4 0.0000 0.0000 0.0000 16.6858 0.0000 0.0000
# 5 0.0000 0.0000 0.0000 0.0000 1.7640 0.0000
# 6 0.0000 0.0000 0.0000 0.0000 0.0000 26.3203
#
#
#
# Elastic Compliance Matrix: (Units=1/GPa)
#
#
# Indices 1 2 3 4 5 6 
#
# 1 0.014847 0.001238 -0.004089 0.000000 0.000000 0.000000
# 2 0.001238 0.016737 -0.003458 0.000000 0.000000 0.000000
# 3 -0.004089 -0.003458 0.009235 0.000000 0.000000 0.000000
# 4 0.000000 0.000000 0.000000 0.059931 0.000000 0.000000
# 5 0.000000 0.000000 0.000000 0.000000 0.566897 0.000000
# 6 0.000000 0.000000 0.000000 0.000000 0.000000 0.037993
#
#
# Mechanical properties :
#
#
# Convention : Reuss Voigt Hill
#
# Bulk Modulus (GPa) = 35.46123 44.02291 39.74207
# Shear Modulus (GPa) = 6.87135 23.18965 15.03050
#
# Velocity S-wave (km/s) = 1.87110 3.43734 2.76734
# Velocity P-wave (km/s) = 4.76820 6.17930 5.51904
#
# Compressibility (1/GPa) = 0.02819981
#
# Stress axis : x y z
#
# Youngs Moduli (GPa) = 67.35215 59.74950 108.28241
#
# Poissons Ratio (x) = -0.07396 0.44280
# Poissons Ratio (y) = -0.08338 0.37446
# Poissons Ratio (z) = 0.27542 0.20663
#
# Static dielectric constant tensor:
#      x y z
#    x 3.509690 0.000000 0.000000 
#    y 0.000000 3.740630 0.000000 
#    z 0.000000 0.000000 3.549260 
# 
# 
# High freq. dielectric constant tensor:
#      x y z
#    x 1.749750 0.000000 0.000000 
#    y 0.000000 1.783470 0.000000 
#    z 0.000000 0.000000 1.775240 
# 
# From -- ./inp_files/20913.got.cif
#   From: 2010.03.12/outbox.cif.g09.slc.cpg/sg49_11_cif.got.tgz:20913.got - 2010.04.14 03:58:27.
