data_PCOD8204028
_publ_section_title
;
Structure prediction by ZEFSAII (Michael W. Deem and Ramdas Pophale) SiO2 
 PCOD8204028
Probable space group: P C C M
;
_chemical_formula_sum "Si O2"
_cell_formula_units_Z 64
_cell_length_a 15.305465
_cell_length_b 23.448104
_cell_length_c 8.652888
_cell_angle_alpha 90.000000
_cell_angle_beta 90.000000
_cell_angle_gamma 90.000000
_cell_volume 3105.384226
_symmetry_space_group_name_H-M "P C C M"
_symmetry_group_IT_number 49
_symmetry_cell_setting 'orthorhombic'
loop_
_space_group_symop_operation_xyz
x,y,z
-x,-y,z
x,-y,1/2-z
-x,y,1/2-z
-x,-y,-z
x,y,-z
-x,y,1/2+z
x,-y,1/2+z
loop_
_atom_site_type_symbol
_atom_site_label
_atom_site_fract_x
_atom_site_fract_y
_atom_site_fract_z
Si Si1 0.745599 0.561325 0.183704
Si Si2 0.851282 0.248290 0.819785
Si Si3 0.407118 0.115872 0.180714
Si Si4 0.334137 0.761532 0.320985
Si Si5 0.590859 0.358395 0.320012
Si Si6 0.910619 0.136656 0.681200
Si Si7 0.906321 0.625673 0.317198
Si Si8 0.239583 0.060557 0.317430
O O1 0.721473 0.500000 0.250000
O O2 0.671081 0.604466 0.245734
O O3 0.838532 0.580934 0.247968
O O4 0.749796 0.559760 0.000000
O O5 0.749347 0.239415 0.788472
O O6 0.907395 0.203754 0.719933
O O7 0.880219 0.310746 0.764474
O O8 0.870291 0.238038 0.000000
O O9 0.500000 0.098712 0.250000
O O10 0.389296 0.182172 0.215708
O O11 0.336160 0.076085 0.261825
O O12 0.405345 0.102673 0.000000
O O13 0.303627 0.759576 0.500000
O O14 0.394246 0.707781 0.278171
O O15 0.500000 0.379761 0.250000
O O16 0.584385 0.368351 0.500000
O O17 0.907643 0.125872 0.500000
O O18 0.827307 0.107911 0.758790
O O19 0.000000 0.110409 0.750000
O O20 0.906946 0.619834 0.500000
O O21 0.000000 0.609393 0.250000
O O22 0.236797 0.058108 0.500000
O O23 0.210506 0.000000 0.250000
#
# Coordination Sequence:
#
# PCOD8204028 Si02
#       8
#     8   8   8   8   8   8   8   8
#     4  11  24  43  65  89 122 163 210 262 314 370
#     4  11  22  37  63  97 130 168 208 253 313 376
#     4  11  23  40  65  97 131 171 212 261 317 378
#     4  10  20  37  62  92 129 168 207 253 314 376
#     4  10  22  39  62  92 125 166 207 255 312 370
#     4  12  25  43  67  97 132 170 212 260 314 376
#     4  11  24  41  64  95 127 164 207 255 311 374
#     4  12  26  46  69  95 127 167 216 267 320 378
#
# _framework density 20.609365
#
# number of rings (size 3 to 8) (size 9 to 14) (size 15 to 20)
#    0.000    1.000    2.500    4.500    0.000    5.500 
#    0.000    5.000    0.000    0.000    0.000    0.000 
#    0.000    0.000    0.000    0.000    0.000    0.000 
#
# Total GULP energy -794073.240621 kJ/mol
# GULP energy per Si atom -12407.394385 kJ/mol
# Density = 2.056246 g / cm^3
# Si number density = 20.609365 Si / 1000 Ang^3
#
#
#
# Elastic Constant Matrix: (Units=GPa)
#
#
# Indices 1 2 3 4 5 6 
#
# 1 124.7877 10.5476 36.3766 0.0000 0.0000 0.0000
# 2 10.5476 77.7077 28.2627 0.0000 0.0000 0.0000
# 3 36.3766 28.2627 108.7939 0.0000 0.0000 0.0000
# 4 0.0000 0.0000 0.0000 27.2254 0.0000 0.0000
# 5 0.0000 0.0000 0.0000 0.0000 39.2484 0.0000
# 6 0.0000 0.0000 0.0000 0.0000 0.0000 14.5592
#
#
#
# Elastic Compliance Matrix: (Units=1/GPa)
#
#
# Indices 1 2 3 4 5 6 
#
# 1 0.008880 -0.000139 -0.002933 0.000000 0.000000 0.000000
# 2 -0.000139 0.014214 -0.003646 0.000000 0.000000 0.000000
# 3 -0.002933 -0.003646 0.011120 0.000000 0.000000 0.000000
# 4 0.000000 0.000000 0.000000 0.036730 0.000000 0.000000
# 5 0.000000 0.000000 0.000000 0.000000 0.025479 0.000000
# 6 0.000000 0.000000 0.000000 0.000000 0.000000 0.068685
#
#
# Mechanical properties :
#
#
# Convention : Reuss Voigt Hill
#
# Bulk Modulus (GPa) = 48.12819 51.29589 49.71204
# Shear Modulus (GPa) = 26.95857 31.94677 29.45267
#
# Velocity S-wave (km/s) = 3.62065 3.94141 3.78443
# Velocity P-wave (km/s) = 6.39391 6.75697 6.57795
#
# Compressibility (1/GPa) = 0.02077784
#
# Stress axis : x y z
#
# Youngs Moduli (GPa) = 112.60766 70.35485 89.93073
#
# Poissons Ratio (x) = 0.00975 0.26379
# Poissons Ratio (y) = 0.01560 0.32790
# Poissons Ratio (z) = 0.33031 0.25652
#
# Static dielectric constant tensor:
#      x y z
#    x 3.832590 0.000000 0.000000 
#    y 0.000000 3.830350 0.000000 
#    z 0.000000 0.000000 3.718460 
# 
# 
# High freq. dielectric constant tensor:
#      x y z
#    x 1.817650 0.000000 0.000000 
#    y 0.000000 1.806920 0.000000 
#    z 0.000000 0.000000 1.812060 
# 
# From -- ./inp_files/4326.got.cif
#   From: 2010.03.12/outbox.cif.g09.slc.cpg/sg49_3_cif.got.tgz:4326.got - 2010.04.14 03:58:27.
