data_PCOD8204620
_publ_section_title
;
Structure prediction by ZEFSAII (Michael W. Deem and Ramdas Pophale) SiO2 
 PCOD8204620
Probable space group: P C C M
;
_chemical_formula_sum "Si O2"
_cell_formula_units_Z 64
_cell_length_a 14.933128
_cell_length_b 8.626064
_cell_length_c 23.762982
_cell_angle_alpha 90.000000
_cell_angle_beta 90.000000
_cell_angle_gamma 90.000000
_cell_volume 3061.007564
_symmetry_space_group_name_H-M "P C C M"
_symmetry_group_IT_number 49
_symmetry_cell_setting 'orthorhombic'
loop_
_space_group_symop_operation_xyz
x,y,z
-x,-y,z
x,-y,1/2-z
-x,y,1/2-z
-x,-y,-z
x,y,-z
-x,y,1/2+z
x,-y,1/2+z
loop_
_atom_site_type_symbol
_atom_site_label
_atom_site_fract_x
_atom_site_fract_y
_atom_site_fract_z
Si Si1 0.658595 0.680217 0.147004
Si Si2 0.980554 0.336241 0.408259
Si Si3 0.302951 0.681220 0.147337
Si Si4 0.755012 0.180897 0.255561
Si Si5 0.833975 0.181216 0.066588
Si Si6 0.511839 0.182408 0.815331
Si Si7 0.801033 0.831500 0.936429
Si Si8 0.078707 0.656051 0.715902
O O1 0.671771 0.497605 0.147189
O O2 0.673556 0.749702 0.209262
O O3 0.554449 0.727248 0.140847
O O4 0.723934 0.753195 0.100752
O O5 0.069316 0.230630 0.409339
O O6 0.000000 0.500000 0.439737
O O7 0.896538 0.254082 0.437266
O O8 0.952776 0.385699 0.345815
O O9 0.234238 0.728243 0.196852
O O10 0.249647 0.718500 0.089993
O O11 0.390357 0.783082 0.159538
O O12 0.843378 0.218590 0.291211
O O13 0.739185 0.000000 0.250000
O O14 0.817482 0.005007 0.085734
O O15 0.834778 0.202280 0.000000
O O16 0.500000 0.236464 0.750000
O O17 0.500000 0.000000 0.820523
O O18 0.764066 0.832819 0.000000
O O19 0.106424 0.500000 0.750000
O O20 0.000000 0.741317 0.750000
#
# Coordination Sequence:
#
# PCOD8204620 Si02
#       8
#     8   8   8   8   8   8   8   8
#     4  12  24  42  66  99 135 170 215 272 329 389
#     4  12  23  40  66  95 128 174 220 274 324 389
#     4  12  25  41  69  98 133 172 215 273 329 390
#     4  12  24  39  61  93 129 174 218 263 326 398
#     4  11  26  47  68  93 128 173 226 280 330 386
#     4  11  23  41  68 100 136 175 215 260 320 398
#     4  11  25  46  69  93 129 174 224 279 332 389
#     4  11  22  39  56  86 131 173 213 261 328 384
#
# _framework density 20.908148000000001
#
# number of rings (size 3 to 8) (size 9 to 14) (size 15 to 20)
#    0.000    0.500    3.750    6.000    0.000    4.250 
#    2.250    0.625    0.000    3.750    0.000    0.000 
#    0.000    0.000    0.000    0.000    0.000    0.000 
#
# Total GULP energy -793427.812018 kJ/mol
# GULP energy per Si atom -12397.309563 kJ/mol
# Density = 2.086056 g / cm^3
# Si number density = 20.908148 Si / 1000 Ang^3
#
#
#
# Elastic Constant Matrix: (Units=GPa)
#
#
# Indices 1 2 3 4 5 6 
#
# 1 127.7425 43.7936 33.0633 0.0000 0.0000 0.0000
# 2 43.7936 144.9656 39.4717 0.0000 0.0000 0.0000
# 3 33.0633 39.4717 70.1492 0.0000 0.0000 0.0000
# 4 0.0000 0.0000 0.0000 21.9356 0.0000 0.0000
# 5 0.0000 0.0000 0.0000 0.0000 21.4277 0.0000
# 6 0.0000 0.0000 0.0000 0.0000 0.0000 21.9691
#
#
#
# Elastic Compliance Matrix: (Units=1/GPa)
#
#
# Indices 1 2 3 4 5 6 
#
# 1 0.009347 -0.001918 -0.003326 0.000000 0.000000 0.000000
# 2 -0.001918 0.008540 -0.003901 0.000000 0.000000 0.000000
# 3 -0.003326 -0.003901 0.018018 0.000000 0.000000 0.000000
# 4 0.000000 0.000000 0.000000 0.045588 0.000000 0.000000
# 5 0.000000 0.000000 0.000000 0.000000 0.046669 0.000000
# 6 0.000000 0.000000 0.000000 0.000000 0.000000 0.045518
#
#
# Mechanical properties :
#
#
# Convention : Reuss Voigt Hill
#
# Bulk Modulus (GPa) = 56.77291 63.94607 60.35949
# Shear Modulus (GPa) = 25.27273 28.16840 26.72056
#
# Velocity S-wave (km/s) = 3.48048 3.67447 3.57879
# Velocity P-wave (km/s) = 6.58514 6.97517 6.78296
#
# Compressibility (1/GPa) = 0.01761403
#
# Stress axis : x y z
#
# Youngs Moduli (GPa) = 106.98988 117.09840 55.49944
#
# Poissons Ratio (x) = 0.22459 0.18460
# Poissons Ratio (y) = 0.20520 0.21652
# Poissons Ratio (z) = 0.35587 0.45683
#
# Static dielectric constant tensor:
#      x y z
#    x 3.982300 0.000000 0.000000 
#    y 0.000000 3.639660 0.000000 
#    z 0.000000 0.000000 3.777640 
# 
# 
# High freq. dielectric constant tensor:
#      x y z
#    x 1.831640 0.000000 0.000000 
#    y 0.000000 1.829120 0.000000 
#    z 0.000000 0.000000 1.809290 
# 
# From -- ./inp_files/23217.got.cif
#   From: 2010.03.12/outbox.cif.g09.slc.cpg/sg49_12_cif.got.tgz:23217.got - 2010.04.14 03:58:27.
