data_PCOD8204193
_publ_section_title
;
Structure prediction by ZEFSAII (Michael W. Deem and Ramdas Pophale) SiO2 
 PCOD8204193
Probable space group: P C C M
;
_chemical_formula_sum "Si O2"
_cell_formula_units_Z 64
_cell_length_a 20.658667
_cell_length_b 17.427814
_cell_length_c 9.022673
_cell_angle_alpha 90.000000
_cell_angle_beta 90.000000
_cell_angle_gamma 90.000000
_cell_volume 3248.481736
_symmetry_space_group_name_H-M "P C C M"
_symmetry_group_IT_number 49
_symmetry_cell_setting 'orthorhombic'
loop_
_space_group_symop_operation_xyz
x,y,z
-x,-y,z
x,-y,1/2-z
-x,y,1/2-z
-x,-y,-z
x,y,-z
-x,y,1/2+z
x,-y,1/2+z
loop_
_atom_site_type_symbol
_atom_site_label
_atom_site_fract_x
_atom_site_fract_y
_atom_site_fract_z
Si Si1 0.205627 0.787094 0.175368
Si Si2 0.299393 0.077690 0.678235
Si Si3 0.432787 0.877568 0.326639
Si Si4 0.091384 0.573575 0.827531
Si Si5 0.435883 0.302200 0.169814
Si Si6 0.225456 0.621253 0.831425
Si Si7 0.063050 0.253489 0.673207
Si Si8 0.635388 0.426366 0.832083
O O1 0.250421 0.856139 0.237687
O O2 0.236318 0.706906 0.235824
O O3 0.129843 0.788057 0.227324
O O4 0.209225 0.794141 0.000000
O O5 0.302785 0.073354 0.500000
O O6 0.372229 0.086721 0.741157
O O7 0.271253 0.000000 0.750000
O O8 0.500000 0.905047 0.250000
O O9 0.433298 0.901419 0.500000
O O10 0.424909 0.787014 0.307710
O O11 0.057166 0.500000 0.750000
O O12 0.164824 0.577065 0.760992
O O13 0.061106 0.655875 0.786227
O O14 0.087014 0.556865 0.000000
O O15 0.500000 0.331465 0.250000
O O16 0.378493 0.347384 0.248646
O O17 0.439864 0.326320 0.000000
O O18 0.287385 0.566861 0.823878
O O19 0.203962 0.638438 0.000000
O O20 0.055963 0.240970 0.500000
O O21 0.000000 0.215255 0.750000
O O22 0.604541 0.500000 0.750000
O O23 0.609650 0.424017 0.000000
#
# Coordination Sequence:
#
# PCOD8204193 Si02
#       8
#     8   8   8   8   8   8   8   8
#     4   8  16  33  56  78 103 139 178 216 264 322
#     4  11  22  37  59  86 116 147 178 214 261 316
#     4  10  21  38  60  86 115 146 181 219 260 312
#     4   9  17  29  45  67  99 135 171 212 258 309
#     4  10  21  37  55  74  97 127 167 213 259 309
#     4   8  15  29  49  71  94 126 169 212 255 309
#     4   9  18  33  52  75 102 136 180 225 268 316
#     4  11  21  32  48  70  97 129 169 217 270 321
#
# _framework density 19.701512000000001
#
# number of rings (size 3 to 8) (size 9 to 14) (size 15 to 20)
#    0.000    2.500    0.000    4.125    0.000    3.750 
#    0.000    5.625    0.000    3.375    0.000    2.625 
#    0.000    0.000    0.000    0.000    0.000    0.000 
#
# Total GULP energy -793008.382382 kJ/mol
# GULP energy per Si atom -12390.755975 kJ/mol
# Density = 1.965667 g / cm^3
# Si number density = 19.701512 Si / 1000 Ang^3
#
#
#
# Elastic Constant Matrix: (Units=GPa)
#
#
# Indices 1 2 3 4 5 6 
#
# 1 87.2793 35.9018 31.8861 0.0000 0.0000 0.0000
# 2 35.9018 83.0026 35.9347 0.0000 0.0000 0.0000
# 3 31.8861 35.9347 83.5037 0.0000 0.0000 0.0000
# 4 0.0000 0.0000 0.0000 27.7813 0.0000 0.0000
# 5 0.0000 0.0000 0.0000 0.0000 28.1633 0.0000
# 6 0.0000 0.0000 0.0000 0.0000 0.0000 -0.7903
#
#
#
# Elastic Compliance Matrix: (Units=1/GPa)
#
#
# Indices 1 2 3 4 5 6 
#
# 1 0.014745 -0.004842 -0.003547 0.000000 0.000000 0.000000
# 2 -0.004842 0.016397 -0.005207 0.000000 0.000000 0.000000
# 3 -0.003547 -0.005207 0.015571 0.000000 0.000000 0.000000
# 4 0.000000 0.000000 0.000000 0.035995 0.000000 0.000000
# 5 0.000000 0.000000 0.000000 0.000000 0.035507 0.000000
# 6 0.000000 0.000000 0.000000 0.000000 0.000000 -1.265331
#
#
# Mechanical properties :
#
#
# Convention : Reuss Voigt Hill
#
# Bulk Modulus (GPa) = 51.22867 51.24787 51.23827
# Shear Modulus (GPa) = -4.49068 21.03507 8.27220
#
# Velocity S-wave (km/s) = -1.51139 3.27109 2.05131
# Velocity P-wave (km/s) = 4.79720 6.35101 5.62799
#
# Compressibility (1/GPa) = 0.01952032
#
# Stress axis : x y z
#
# Youngs Moduli (GPa) = 67.81949 60.98827 64.22384
#
# Poissons Ratio (x) = 0.29533 0.22778
# Poissons Ratio (y) = 0.32841 0.33441
# Poissons Ratio (z) = 0.24053 0.31757
#
# Static dielectric constant tensor:
#      x y z
#    x 3.667700 0.000000 0.000000 
#    y 0.000000 3.558850 0.000000 
#    z 0.000000 0.000000 3.373250 
# 
# 
# High freq. dielectric constant tensor:
#      x y z
#    x 1.772150 0.000000 0.000000 
#    y 0.000000 1.755050 0.000000 
#    z 0.000000 0.000000 1.746300 
# 
# From -- ./inp_files/5988.got.cif
#   From: 2010.03.12/outbox.cif.g09.slc.cpg/sg49_3_cif.got.tgz:5988.got - 2010.04.14 03:58:27.
