data_PCOD8204090
_publ_section_title
;
Structure prediction by ZEFSAII (Michael W. Deem and Ramdas Pophale) SiO2 
 PCOD8204090
Probable space group: P C C M
;
_chemical_formula_sum "Si O2"
_cell_formula_units_Z 42
_cell_length_a 8.840004
_cell_length_b 11.129738
_cell_length_c 21.071225
_cell_angle_alpha 90.000000
_cell_angle_beta 90.000000
_cell_angle_gamma 90.000000
_cell_volume 2073.133106
_symmetry_space_group_name_H-M "P C C M"
_symmetry_group_IT_number 49
_symmetry_cell_setting 'orthorhombic'
loop_
_space_group_symop_operation_xyz
x,y,z
-x,-y,z
x,-y,1/2-z
-x,y,1/2-z
-x,-y,-z
x,y,-z
-x,y,1/2+z
x,-y,1/2+z
loop_
_atom_site_type_symbol
_atom_site_label
_atom_site_fract_x
_atom_site_fract_y
_atom_site_fract_z
Si Si1 0.626743 0.685635 0.155814
Si Si2 0.165234 0.468641 0.073504
Si Si3 0.829407 0.957132 0.571688
Si Si4 0.500000 0.500000 0.250000
Si Si5 0.335386 0.056987 0.188686
Si Si6 0.334494 0.715055 0.072118
O O1 0.760929 0.645226 0.108732
O O2 0.605718 0.579222 0.205443
O O3 0.671251 0.800081 0.198030
O O4 0.477693 0.727110 0.117708
O O5 0.268602 0.584058 0.084188
O O6 0.000000 0.500000 0.101244
O O7 0.151628 0.432209 0.000000
O O8 0.777617 0.987865 0.500000
O O9 0.795368 0.815667 0.585739
O O10 0.735059 0.034578 0.620408
O O11 0.000000 0.000000 0.581747
O O12 0.500000 0.000000 0.187809
O O13 0.248081 0.000000 0.250000
O O14 0.392244 0.726940 0.000000
#
# Coordination Sequence:
#
# PCOD8204090 Si02
#       6
#     8   8   8   2   8   8
#     4  12  23  40  67  90 121 169 211 261 314 382
#     4  10  22  39  63  96 129 162 204 261 325 380
#     4  10  23  41  64  94 129 168 210 263 323 383
#     4  12  24  40  62  88 120 164 214 252 300 368
#     4  11  24  42  64  93 126 163 212 268 322 383
#     4  10  20  39  64  92 126 161 207 262 315 380
#
# _framework density 20.25919
#
# number of rings (size 3 to 8) (size 9 to 14) (size 15 to 20)
#    0.000    1.333    3.810    1.714    2.667    3.810 
#    0.000    0.476    4.190    0.000    0.000    0.000 
#    0.000    0.000    0.000    0.000    0.000    0.000 
#
# Total GULP energy -520688.007777 kJ/mol
# GULP energy per Si atom -12397.333519 kJ/mol
# Density = 2.021308 g / cm^3
# Si number density = 20.259190 Si / 1000 Ang^3
#
#
#
# Elastic Constant Matrix: (Units=GPa)
#
#
# Indices 1 2 3 4 5 6 
#
# 1 91.2849 37.3231 50.5271 0.0000 0.0000 0.0000
# 2 37.3231 140.1246 58.4620 0.0000 0.0000 0.0000
# 3 50.5271 58.4620 113.3503 0.0000 0.0000 0.0000
# 4 0.0000 0.0000 0.0000 31.4235 0.0000 0.0000
# 5 0.0000 0.0000 0.0000 0.0000 19.2071 0.0000
# 6 0.0000 0.0000 0.0000 0.0000 0.0000 34.3457
#
#
#
# Elastic Compliance Matrix: (Units=1/GPa)
#
#
# Indices 1 2 3 4 5 6 
#
# 1 0.014791 -0.001515 -0.005812 0.000000 0.000000 0.000000
# 2 -0.001515 0.009248 -0.004095 0.000000 0.000000 0.000000
# 3 -0.005812 -0.004095 0.013525 0.000000 0.000000 0.000000
# 4 0.000000 0.000000 0.000000 0.031823 0.000000 0.000000
# 5 0.000000 0.000000 0.000000 0.000000 0.052064 0.000000
# 6 0.000000 0.000000 0.000000 0.000000 0.000000 0.029116
#
#
# Mechanical properties :
#
#
# Convention : Reuss Voigt Hill
#
# Bulk Modulus (GPa) = 67.92917 70.82048 69.37482
# Shear Modulus (GPa) = 28.03986 30.22511 29.13248
#
# Velocity S-wave (km/s) = 3.72433 3.86673 3.79620
# Velocity P-wave (km/s) = 7.21782 7.41408 7.31661
#
# Compressibility (1/GPa) = 0.01472122
#
# Stress axis : x y z
#
# Youngs Moduli (GPa) = 67.60840 108.12720 73.93800
#
# Poissons Ratio (x) = 0.16380 0.42972
# Poissons Ratio (y) = 0.10242 0.30275
# Poissons Ratio (z) = 0.39294 0.44275
#
# Static dielectric constant tensor:
#      x y z
#    x 3.525910 0.000000 0.000000 
#    y 0.000000 3.862270 0.000000 
#    z 0.000000 0.000000 4.198000 
# 
# 
# High freq. dielectric constant tensor:
#      x y z
#    x 1.770200 0.000000 0.000000 
#    y 0.000000 1.805250 0.000000 
#    z 0.000000 0.000000 1.799780 
# 
# From -- ./inp_files/22346.got.cif
#   From: 2010.03.12/outbox.cif.g09.slc.cpg/sg49_12_cif.got.tgz:22346.got - 2010.04.14 03:58:27.
