data_PCOD8204835
_publ_section_title
;
Structure prediction by ZEFSAII (Michael W. Deem and Ramdas Pophale) SiO2 
 PCOD8204835
Probable space group: P B A N
;
_chemical_formula_sum "Si O2"
_cell_formula_units_Z 58
_cell_length_a 12.085884
_cell_length_b 30.035250
_cell_length_c 8.644896
_cell_angle_alpha 90.000000
_cell_angle_beta 90.000000
_cell_angle_gamma 90.000000
_cell_volume 3138.119270
_symmetry_space_group_name_H-M "P B A N"
_symmetry_group_IT_number 50
_space_group.IT_coordinate_system_code '2'
_symmetry_cell_setting 'orthorhombic'
loop_
_space_group_symop_operation_xyz
x,y,z
1/2-x,1/2-y,z
x,1/2-y,-z
1/2-x,y,-z
-x,-y,-z
1/2+x,1/2+y,-z
-x,1/2+y,z
1/2+x,-y,z
loop_
_atom_site_type_symbol
_atom_site_label
_atom_site_fract_x
_atom_site_fract_y
_atom_site_fract_z
Si Si1 0.440416 0.795178 0.680012
Si Si2 0.891123 0.119342 0.841704
Si Si3 0.143219 0.979749 0.603924
Si Si4 0.750000 0.250000 0.500000
Si Si5 0.357682 0.600933 0.807484
Si Si6 0.536692 0.932533 0.600054
Si Si7 0.363905 0.233913 0.674207
Si Si8 0.963720 0.851765 0.595841
O O1 0.428516 0.829532 0.822019
O O2 0.323295 0.776994 0.622911
O O3 0.525306 0.757288 0.742429
O O4 0.485204 0.819100 0.528723
O O5 0.765755 0.118694 0.780979
O O6 0.971311 0.086934 0.746024
O O7 0.899453 0.103978 0.017688
O O8 0.250000 0.973205 0.500000
O O9 0.146608 0.951059 0.761152
O O10 0.043397 0.961002 0.505402
O O11 0.129764 0.031826 0.652955
O O12 0.439216 0.630477 0.704892
O O13 0.592062 0.893292 0.495493
O O14 0.250000 0.250000 0.760219
O O15 0.352615 0.250000 0.500000
O O16 0.375583 0.179593 0.687937
#
# Coordination Sequence:
#
# PCOD8204835 Si02
#       8
#     8   8   8   2   8   8   8   8
#     4  10  19  30  53  80 109 138 185 226 275 328
#     4  10  20  34  50  80 108 145 176 220 279 343
#     4  10  18  34  54  80 105 134 176 225 274 329
#     4  12  16  28  54  86 108 144 174 234 284 320
#     4  10  20  33  55  74 110 145 173 223 283 338
#     4   9  19  32  54  81 104 130 180 223 270 331
#     4   9  17  33  53  78 106 140 182 229 271 320
#     4   9  17  34  52  79  99 140 177 224 272 320
#
# _framework density 18.482406999999998
#
# number of rings (size 3 to 8) (size 9 to 14) (size 15 to 20)
#    0.000    2.345    3.448    0.828    0.000    0.552 
#    7.448    0.690    0.000    1.655    0.000    0.000 
#    0.000    0.000    0.000    0.000    0.000    0.000 
#
# Total GULP energy -718567.428853 kJ/mol
# GULP energy per Si atom -12389.093601 kJ/mol
# Density = 1.844034 g / cm^3
# Si number density = 18.482407 Si / 1000 Ang^3
#
#
#
# Elastic Constant Matrix: (Units=GPa)
#
#
# Indices 1 2 3 4 5 6 
#
# 1 74.6190 55.6049 24.0951 0.0000 0.0000 0.0000
# 2 55.6049 151.7385 47.9656 0.0000 0.0000 0.0000
# 3 24.0951 47.9656 74.1440 0.0000 0.0000 0.0000
# 4 0.0000 0.0000 0.0000 15.4501 0.0000 0.0000
# 5 0.0000 0.0000 0.0000 0.0000 11.1256 0.0000
# 6 0.0000 0.0000 0.0000 0.0000 0.0000 35.2965
#
#
#
# Elastic Compliance Matrix: (Units=1/GPa)
#
#
# Indices 1 2 3 4 5 6 
#
# 1 0.018684 -0.006194 -0.002065 0.000000 0.000000 0.000000
# 2 -0.006194 0.010338 -0.004675 0.000000 0.000000 0.000000
# 3 -0.002065 -0.004675 0.017183 0.000000 0.000000 0.000000
# 4 0.000000 0.000000 0.000000 0.064725 0.000000 0.000000
# 5 0.000000 0.000000 0.000000 0.000000 0.089883 0.000000
# 6 0.000000 0.000000 0.000000 0.000000 0.000000 0.028331
#
#
# Mechanical properties :
#
#
# Convention : Reuss Voigt Hill
#
# Bulk Modulus (GPa) = 49.17166 61.75917 55.46542
# Shear Modulus (GPa) = 19.09928 23.89682 21.49805
#
# Velocity S-wave (km/s) = 3.21810 3.59966 3.41422
# Velocity P-wave (km/s) = 6.36165 7.12491 6.75407
#
# Compressibility (1/GPa) = 0.02033692
#
# Stress axis : x y z
#
# Youngs Moduli (GPa) = 53.52215 96.73162 58.19852
#
# Poissons Ratio (x) = 0.59916 0.12016
# Poissons Ratio (y) = 0.33152 0.27207
# Poissons Ratio (z) = 0.11051 0.45221
#
# Static dielectric constant tensor:
#      x y z
#    x 3.863730 0.000000 0.000000 
#    y 0.000000 4.265220 0.000000 
#    z 0.000000 0.000000 3.027920 
# 
# 
# High freq. dielectric constant tensor:
#      x y z
#    x 1.709620 0.000000 0.000000 
#    y 0.000000 1.733690 0.000000 
#    z 0.000000 0.000000 1.678140 
# 
# From -- ./inp_files/11827.got.cif
#   From: 2010.03.12/outbox.cif.g09.slc.cpg/sg50_6_cif.got.tgz:11827.got - 2010.04.16 13:23:21.
