data_PCOD8204857
_publ_section_title
;
Structure prediction by ZEFSAII (Michael W. Deem and Ramdas Pophale) SiO2 
 PCOD8204857
Probable space group: P B A N
;
_chemical_formula_sum "Si O2"
_cell_formula_units_Z 48
_cell_length_a 12.856064
_cell_length_b 13.370497
_cell_length_c 13.258327
_cell_angle_alpha 90.000000
_cell_angle_beta 90.000000
_cell_angle_gamma 90.000000
_cell_volume 2278.999883
_symmetry_space_group_name_H-M "P B A N"
_symmetry_group_IT_number 50
_space_group.IT_coordinate_system_code '2'
_symmetry_cell_setting 'orthorhombic'
loop_
_space_group_symop_operation_xyz
x,y,z
1/2-x,1/2-y,z
x,1/2-y,-z
1/2-x,y,-z
-x,-y,-z
1/2+x,1/2+y,-z
-x,1/2+y,z
1/2+x,-y,z
loop_
_atom_site_type_symbol
_atom_site_label
_atom_site_fract_x
_atom_site_fract_y
_atom_site_fract_z
Si Si1 0.250000 0.250000 0.500000
Si Si2 0.642088 0.910031 0.129854
Si Si3 0.901946 0.194893 0.311095
Si Si4 0.700103 0.115395 0.392775
Si Si5 0.440622 0.822808 0.087490
Si Si6 0.250000 0.930265 0.000000
Si Si7 0.880356 0.603224 0.358795
Si Si8 0.750000 0.750000 0.000000
O O1 0.179203 0.319646 0.569908
O O2 0.518711 0.916577 0.105509
O O3 0.666745 0.892881 0.246706
O O4 0.677919 0.812706 0.072324
O O5 0.697894 0.007759 0.089508
O O6 0.797605 0.125234 0.314432
O O7 0.884969 0.298503 0.371045
O O8 0.927489 0.229687 0.196529
O O9 0.997422 0.131785 0.359435
O O10 0.750000 0.136968 0.500000
O O11 0.639260 0.010343 0.394692
O O12 0.329916 0.860465 0.054747
O O13 0.484267 0.750000 0.000000
#
# Coordination Sequence:
#
# PCOD8204857 Si02
#       8
#     2   8   8   8   8   4   8   2
#     4  12  26  44  68 106 132 168 234 288 336 406
#     4  10  22  41  62  92 129 175 220 257 336 397
#     4  10  25  43  69  98 137 177 220 278 341 397
#     4  11  24  46  70  98 130 177 228 271 342 412
#     4  11  23  39  62  98 131 174 217 272 326 389
#     4  11  23  37  67  94 136 170 223 275 319 393
#     4  11  25  44  67  99 134 174 223 284 335 400
#     4  10  18  40  62  84 126 176 204 264 316 402
#
# _framework density 21.061871
#
# number of rings (size 3 to 8) (size 9 to 14) (size 15 to 20)
#    0.000    1.333    1.667    3.250    9.333    2.000 
#    0.000    0.000    0.000    0.000    0.000    0.000 
#    0.000    0.000    0.000    0.000    0.000    0.000 
#
# Total GULP energy -595005.900674 kJ/mol
# GULP energy per Si atom -12395.956264 kJ/mol
# Density = 2.101393 g / cm^3
# Si number density = 21.061871 Si / 1000 Ang^3
#
#
#
# Elastic Constant Matrix: (Units=GPa)
#
#
# Indices 1 2 3 4 5 6 
#
# 1 97.1757 41.8520 32.4830 0.0000 0.0000 0.0000
# 2 41.8520 124.1366 38.6051 0.0000 0.0000 0.0000
# 3 32.4830 38.6051 132.3511 0.0000 0.0000 0.0000
# 4 0.0000 0.0000 0.0000 55.9914 0.0000 0.0000
# 5 0.0000 0.0000 0.0000 0.0000 33.8602 0.0000
# 6 0.0000 0.0000 0.0000 0.0000 0.0000 51.9866
#
#
#
# Elastic Compliance Matrix: (Units=1/GPa)
#
#
# Indices 1 2 3 4 5 6 
#
# 1 0.012513 -0.003589 -0.002024 0.000000 0.000000 0.000000
# 2 -0.003589 0.009889 -0.002004 0.000000 0.000000 0.000000
# 3 -0.002024 -0.002004 0.008637 0.000000 0.000000 0.000000
# 4 0.000000 0.000000 0.000000 0.017860 0.000000 0.000000
# 5 0.000000 0.000000 0.000000 0.000000 0.029533 0.000000
# 6 0.000000 0.000000 0.000000 0.000000 0.000000 0.019236
#
#
# Mechanical properties :
#
#
# Convention : Reuss Voigt Hill
#
# Bulk Modulus (GPa) = 63.27149 64.39372 63.83261
# Shear Modulus (GPa) = 42.31204 44.41586 43.36395
#
# Velocity S-wave (km/s) = 4.48698 4.59718 4.54242
# Velocity P-wave (km/s) = 7.54652 7.66934 7.60818
#
# Compressibility (1/GPa) = 0.01580491
#
# Stress axis : x y z
#
# Youngs Moduli (GPa) = 79.91641 101.12441 115.78290
#
# Poissons Ratio (x) = 0.36296 0.23436
# Poissons Ratio (y) = 0.28684 0.23197
# Poissons Ratio (z) = 0.16176 0.20261
#
# Static dielectric constant tensor:
#      x y z
#    x 4.062900 0.000000 0.000000 
#    y 0.000000 3.833580 0.000000 
#    z 0.000000 0.000000 4.000530 
# 
# 
# High freq. dielectric constant tensor:
#      x y z
#    x 1.836130 0.000000 0.000000 
#    y 0.000000 1.816320 0.000000 
#    z 0.000000 0.000000 1.843270 
# 
# From -- ./inp_files/21121.got.cif
#   From: 2010.03.12/outbox.cif.g09.slc.cpg/sg50_11_cif.got.tgz:21121.got - 2010.04.16 13:23:21.
