data_PCOD8204383
_publ_section_title
;
Structure prediction by ZEFSAII (Michael W. Deem and Ramdas Pophale) SiO2 
 PCOD8204383
Probable space group: P C C M
;
_chemical_formula_sum "Si O2"
_cell_formula_units_Z 64
_cell_length_a 11.217725
_cell_length_b 17.253651
_cell_length_c 15.350976
_cell_angle_alpha 90.000000
_cell_angle_beta 90.000000
_cell_angle_gamma 90.000000
_cell_volume 2971.130933
_symmetry_space_group_name_H-M "P C C M"
_symmetry_group_IT_number 49
_symmetry_cell_setting 'orthorhombic'
loop_
_space_group_symop_operation_xyz
x,y,z
-x,-y,z
x,-y,1/2-z
-x,y,1/2-z
-x,-y,-z
x,y,-z
-x,y,1/2+z
x,-y,1/2+z
loop_
_atom_site_type_symbol
_atom_site_label
_atom_site_fract_x
_atom_site_fract_y
_atom_site_fract_z
Si Si1 0.033189 0.154131 0.899152
Si Si2 0.635497 0.670185 0.754891
Si Si3 0.176119 0.948851 0.832860
Si Si4 0.730919 0.835475 0.790529
Si Si5 0.765363 0.593607 0.600384
Si Si6 0.614472 0.952739 0.098883
Si Si7 0.997652 0.328071 0.602093
Si Si8 0.759907 0.410834 0.599804
O O1 0.151025 0.141852 0.844173
O O2 0.982866 0.238445 0.871737
O O3 0.940732 0.084290 0.881433
O O4 0.068766 0.153391 0.000000
O O5 0.500000 0.697004 0.750000
O O6 0.715194 0.745036 0.775566
O O7 0.664736 0.628394 0.663361
O O8 0.651831 0.612082 0.836496
O O9 0.255512 0.875461 0.803214
O O10 0.136408 0.000000 0.750000
O O11 0.262638 0.997897 0.895533
O O12 0.621663 0.874588 0.843278
O O13 0.739716 0.619158 0.500000
O O14 0.776213 0.501988 0.606669
O O15 0.889283 0.626037 0.638473
O O16 0.500000 0.000000 0.133508
O O17 0.593665 0.927142 0.000000
O O18 0.992762 0.340118 0.500000
O O19 0.876121 0.366288 0.637978
O O20 0.731119 0.386187 0.500000
#
# Coordination Sequence:
#
# PCOD8204383 Si02
#       8
#     8   8   8   8   8   8   8   8
#     4  11  21  38  65  94 129 166 206 261 327 393
#     4  12  27  43  64  93 129 175 228 269 325 395
#     4  10  23  39  62  92 129 166 209 260 322 383
#     4  11  24  41  64  88 127 168 211 262 327 387
#     4  10  22  41  65  96 133 171 217 273 328 387
#     4  10  23  43  66  93 124 166 223 273 320 384
#     4   9  18  36  63  96 130 166 209 264 331 397
#     4  10  21  41  68  96 130 171 216 271 332 394
#
# _framework density 21.540619
#
# number of rings (size 3 to 8) (size 9 to 14) (size 15 to 20)
#    0.000    1.625    1.250    2.625    1.750    9.250 
#    0.000    6.250    0.000    0.000    0.000    0.000 
#    0.000    0.000    0.000    0.000    0.000    0.000 
#
# Total GULP energy -793498.506384 kJ/mol
# GULP energy per Si atom -12398.414162 kJ/mol
# Density = 2.149159 g / cm^3
# Si number density = 21.540619 Si / 1000 Ang^3
#
#
#
# Elastic Constant Matrix: (Units=GPa)
#
#
# Indices 1 2 3 4 5 6 
#
# 1 79.7401 22.1844 16.7747 0.0000 0.0000 0.0000
# 2 22.1844 105.9174 27.7502 0.0000 0.0000 0.0000
# 3 16.7747 27.7502 84.7866 0.0000 0.0000 0.0000
# 4 0.0000 0.0000 0.0000 26.2563 0.0000 0.0000
# 5 0.0000 0.0000 0.0000 0.0000 27.6280 0.0000
# 6 0.0000 0.0000 0.0000 0.0000 0.0000 33.9750
#
#
#
# Elastic Compliance Matrix: (Units=1/GPa)
#
#
# Indices 1 2 3 4 5 6 
#
# 1 0.013597 -0.002344 -0.001923 0.000000 0.000000 0.000000
# 2 -0.002344 0.010731 -0.003048 0.000000 0.000000 0.000000
# 3 -0.001923 -0.003048 0.013172 0.000000 0.000000 0.000000
# 4 0.000000 0.000000 0.000000 0.038086 0.000000 0.000000
# 5 0.000000 0.000000 0.000000 0.000000 0.036195 0.000000
# 6 0.000000 0.000000 0.000000 0.000000 0.000000 0.029433
#
#
# Mechanical properties :
#
#
# Convention : Reuss Voigt Hill
#
# Bulk Modulus (GPa) = 43.72573 44.87364 44.29969
# Shear Modulus (GPa) = 30.58668 31.15419 30.87044
#
# Velocity S-wave (km/s) = 3.77232 3.80715 3.78977
# Velocity P-wave (km/s) = 6.27033 6.34060 6.30556
#
# Compressibility (1/GPa) = 0.02286983
#
# Stress axis : x y z
#
# Youngs Moduli (GPa) = 73.54324 93.18812 75.91573
#
# Poissons Ratio (x) = 0.21845 0.14598
# Poissons Ratio (y) = 0.17240 0.23142
# Poissons Ratio (z) = 0.14142 0.28408
#
# Static dielectric constant tensor:
#      x y z
#    x 3.818170 0.000000 0.000000 
#    y 0.000000 4.037930 0.000000 
#    z 0.000000 0.000000 3.915520 
# 
# 
# High freq. dielectric constant tensor:
#      x y z
#    x 1.833300 0.000000 0.000000 
#    y 0.000000 1.858230 0.000000 
#    z 0.000000 0.000000 1.843940 
# 
# From -- ./inp_files/13100.got.cif
#   From: 2010.03.12/outbox.cif.g09.slc.cpg/sg49_7_cif.got.tgz:13100.got - 2010.04.14 03:58:27.
