data_PCOD8204880
_publ_section_title
;
Structure prediction by ZEFSAII (Michael W. Deem and Ramdas Pophale) SiO2 
 PCOD8204880
Probable space group: P B A N
;
_chemical_formula_sum "Si O2"
_cell_formula_units_Z 54
_cell_length_a 5.140642
_cell_length_b 16.765959
_cell_length_c 31.435807
_cell_angle_alpha 90.000000
_cell_angle_beta 90.000000
_cell_angle_gamma 90.000000
_cell_volume 2709.382827
_symmetry_space_group_name_H-M "P B A N"
_symmetry_group_IT_number 50
_space_group.IT_coordinate_system_code '2'
_symmetry_cell_setting 'orthorhombic'
loop_
_space_group_symop_operation_xyz
x,y,z
1/2-x,1/2-y,z
x,1/2-y,-z
1/2-x,y,-z
-x,-y,-z
1/2+x,1/2+y,-z
-x,1/2+y,z
1/2+x,-y,z
loop_
_atom_site_type_symbol
_atom_site_label
_atom_site_fract_x
_atom_site_fract_y
_atom_site_fract_z
Si Si1 0.250000 0.054191 0.500000
Si Si2 0.985847 0.555315 0.358729
Si Si3 0.125259 0.447899 0.823185
Si Si4 0.837306 0.549158 0.270369
Si Si5 0.250000 0.750000 0.500000
Si Si6 0.247884 0.155464 0.098148
Si Si7 0.389342 0.169809 0.566730
Si Si8 0.252261 0.655027 0.952211
O O1 0.204631 0.107156 0.542560
O O2 0.500000 0.000000 0.500000
O O3 0.753957 0.491947 0.364451
O O4 0.933797 0.597804 0.312292
O O5 0.005307 0.627354 0.391977
O O6 0.335000 0.518507 0.830080
O O7 0.126708 0.409160 0.775604
O O8 0.201487 0.377524 0.854876
O O9 0.531537 0.527745 0.272745
O O10 0.404876 0.809086 0.469575
O O11 0.250000 0.250000 0.101890
O O12 0.511215 0.123522 0.076062
O O13 0.015373 0.123562 0.068827
O O14 0.250000 0.250000 0.582424
O O15 0.250000 0.750000 0.953852
O O16 0.250000 0.620258 0.000000
#
# Coordination Sequence:
#
# PCOD8204880 Si02
#       8
#     4   8   8   8   2   8   8   8
#     4  12  24  40  61  85 110 146 198 238 268 312
#     4  10  22  40  63  90 112 144 193 240 273 322
#     4  10  19  33  55  79 107 144 177 216 272 341
#     4   8  16  33  56  81 108 138 179 224 269 321
#     4  12  24  44  60  80 128 162 194 214 286 350
#     4  10  19  31  50  78 103 135 179 231 275 315
#     4  12  25  41  60  86 119 159 185 231 287 341
#     4   9  17  30  49  72 101 138 184 228 271 321
#
# _framework density 19.930738999999999
#
# number of rings (size 3 to 8) (size 9 to 14) (size 15 to 20)
#    0.000    1.926    1.481    2.667    2.074    1.778 
#    0.000    0.741    0.000    8.889    5.778    0.000 
#    0.000    0.000    0.000    0.000    0.000    0.000 
#
# Total GULP energy -669029.163746 kJ/mol
# GULP energy per Si atom -12389.428958 kJ/mol
# Density = 1.988538 g / cm^3
# Si number density = 19.930739 Si / 1000 Ang^3
#
#
#
# Elastic Constant Matrix: (Units=GPa)
#
#
# Indices 1 2 3 4 5 6 
#
# 1 115.4214 20.9735 34.6187 0.0000 0.0000 0.0000
# 2 20.9735 52.0220 41.7213 0.0000 0.0000 0.0000
# 3 34.6187 41.7213 177.0947 0.0000 0.0000 0.0000
# 4 0.0000 0.0000 0.0000 27.7808 0.0000 0.0000
# 5 0.0000 0.0000 0.0000 0.0000 12.7220 0.0000
# 6 0.0000 0.0000 0.0000 0.0000 0.0000 11.4572
#
#
#
# Elastic Compliance Matrix: (Units=1/GPa)
#
#
# Indices 1 2 3 4 5 6 
#
# 1 0.009546 -0.002900 -0.001183 0.000000 0.000000 0.000000
# 2 -0.002900 0.024582 -0.005224 0.000000 0.000000 0.000000
# 3 -0.001183 -0.005224 0.007109 0.000000 0.000000 0.000000
# 4 0.000000 0.000000 0.000000 0.035996 0.000000 0.000000
# 5 0.000000 0.000000 0.000000 0.000000 0.078604 0.000000
# 6 0.000000 0.000000 0.000000 0.000000 0.000000 0.087281
#
#
# Mechanical properties :
#
#
# Convention : Reuss Voigt Hill
#
# Bulk Modulus (GPa) = 44.20469 59.90723 52.05596
# Shear Modulus (GPa) = 18.56860 26.87364 22.72112
#
# Velocity S-wave (km/s) = 3.05562 3.67597 3.38006
# Velocity P-wave (km/s) = 5.88866 6.93830 6.43492
#
# Compressibility (1/GPa) = 0.02262203
#
# Stress axis : x y z
#
# Youngs Moduli (GPa) = 104.76024 40.68089 140.67307
#
# Poissons Ratio (x) = 0.11797 0.16639
# Poissons Ratio (y) = 0.30379 0.73491
# Poissons Ratio (z) = 0.12391 0.21253
#
# Static dielectric constant tensor:
#      x y z
#    x 3.833870 0.000000 0.000000 
#    y 0.000000 2.881460 0.000000 
#    z 0.000000 0.000000 4.061380 
# 
# 
# High freq. dielectric constant tensor:
#      x y z
#    x 1.796430 0.000000 0.000000 
#    y 0.000000 1.722190 0.000000 
#    z 0.000000 0.000000 1.799600 
# 
# From -- ./inp_files/32404.got.cif
#   From: 2010.03.12/outbox.cif.g09.slc.cpg/sg50_17_cif.got.tgz:32404.got - 2010.04.16 13:23:21.
