data_PCOD8204920
_publ_section_title
;
Structure prediction by ZEFSAII (Michael W. Deem and Ramdas Pophale) SiO2 
 PCOD8204920
Probable space group: P B A N
;
_chemical_formula_sum "Si O2"
_cell_formula_units_Z 52
_cell_length_a 15.903530
_cell_length_b 8.103147
_cell_length_c 18.617001
_cell_angle_alpha 90.000000
_cell_angle_beta 90.000000
_cell_angle_gamma 90.000000
_cell_volume 2399.147626
_symmetry_space_group_name_H-M "P B A N"
_symmetry_group_IT_number 50
_space_group.IT_coordinate_system_code '2'
_symmetry_cell_setting 'orthorhombic'
loop_
_space_group_symop_operation_xyz
x,y,z
1/2-x,1/2-y,z
x,1/2-y,-z
1/2-x,y,-z
-x,-y,-z
1/2+x,1/2+y,-z
-x,1/2+y,z
1/2+x,-y,z
loop_
_atom_site_type_symbol
_atom_site_label
_atom_site_fract_x
_atom_site_fract_y
_atom_site_fract_z
Si Si1 0.250000 0.250000 0.000000
Si Si2 0.020845 0.045120 0.667355
Si Si3 0.375195 0.825602 0.252182
Si Si4 0.216620 0.018090 0.252042
Si Si5 0.010406 0.853871 0.165381
Si Si6 0.750000 0.750000 0.500000
Si Si7 0.873103 0.631390 0.115579
Si Si8 0.371326 0.348046 0.381186
O O1 0.187453 0.365202 0.953511
O O2 0.078133 0.175284 0.624675
O O3 0.001796 0.090015 0.751159
O O4 0.069276 0.868174 0.676643
O O5 0.936799 0.001785 0.622207
O O6 0.315010 0.983337 0.242401
O O7 0.328610 0.655231 0.265903
O O8 0.431122 0.810480 0.178644
O O9 0.188164 0.113714 0.182185
O O10 0.195821 0.139945 0.316964
O O11 0.925672 0.801619 0.124328
O O12 0.060995 0.979721 0.114277
O O13 0.686259 0.639463 0.547703
#
# Coordination Sequence:
#
# PCOD8204920 Si02
#       8
#     2   8   8   8   8   2   8   8
#     4  12  32  42  56 102 148 192 208 262 340 422
#     4  12  19  38  71 100 122 166 227 290 322 382
#     4  10  19  33  63 111 123 153 213 293 346 356
#     4  10  20  38  67  97 133 163 221 292 315 390
#     4  11  19  40  69 102 122 166 226 289 318 385
#     4  12  32  42  56  98 148 188 212 262 344 422
#     4  11  24  43  66  99 134 173 225 266 339 387
#     4  12  23  44  65 101 134 177 224 270 342 391
#
# _framework density 21.674365000000002
#
# number of rings (size 3 to 8) (size 9 to 14) (size 15 to 20)
#    0.000    0.923    7.692    0.923    2.154    1.846 
#    0.000    0.000    0.000   22.154    0.000    0.000 
#    0.000    0.000    0.000    0.000    0.000    0.000 
#
# Total GULP energy -644268.141282 kJ/mol
# GULP energy per Si atom -12389.771948 kJ/mol
# Density = 2.162503 g / cm^3
# Si number density = 21.674365 Si / 1000 Ang^3
#
#
#
# Elastic Constant Matrix: (Units=GPa)
#
#
# Indices 1 2 3 4 5 6 
#
# 1 139.5256 46.6618 72.1633 0.0000 0.0000 0.0000
# 2 46.6618 72.9365 44.3219 0.0000 0.0000 0.0000
# 3 72.1633 44.3219 118.9643 0.0000 0.0000 0.0000
# 4 0.0000 0.0000 0.0000 2.9835 0.0000 0.0000
# 5 0.0000 0.0000 0.0000 0.0000 54.2575 0.0000
# 6 0.0000 0.0000 0.0000 0.0000 0.0000 50.2263
#
#
#
# Elastic Compliance Matrix: (Units=1/GPa)
#
#
# Indices 1 2 3 4 5 6 
#
# 1 0.011259 -0.003946 -0.005359 0.000000 0.000000 0.000000
# 2 -0.003946 0.019106 -0.004725 0.000000 0.000000 0.000000
# 3 -0.005359 -0.004725 0.013417 0.000000 0.000000 0.000000
# 4 0.000000 0.000000 0.000000 0.335171 0.000000 0.000000
# 5 0.000000 0.000000 0.000000 0.000000 0.018431 0.000000
# 6 0.000000 0.000000 0.000000 0.000000 0.000000 0.019910
#
#
# Mechanical properties :
#
#
# Convention : Reuss Voigt Hill
#
# Bulk Modulus (GPa) = 63.60562 73.08002 68.34282
# Shear Modulus (GPa) = 11.09646 32.71209 21.90427
#
# Velocity S-wave (km/s) = 2.26511 3.88912 3.18245
# Velocity P-wave (km/s) = 6.02086 7.34558 6.71596
#
# Compressibility (1/GPa) = 0.01572188
#
# Stress axis : x y z
#
# Youngs Moduli (GPa) = 88.82005 52.33916 74.53219
#
# Poissons Ratio (x) = 0.20654 0.39944
# Poissons Ratio (y) = 0.35050 0.35213
# Poissons Ratio (z) = 0.47601 0.24728
#
# Static dielectric constant tensor:
#      x y z
#    x 4.824340 0.000000 0.000000 
#    y 0.000000 4.098100 0.000000 
#    z 0.000000 0.000000 3.492620 
# 
# 
# High freq. dielectric constant tensor:
#      x y z
#    x 1.890130 0.000000 0.000000 
#    y 0.000000 1.859950 0.000000 
#    z 0.000000 0.000000 1.790470 
# 
# From -- ./inp_files/29696.got.cif
#   From: 2010.03.12/outbox.cif.g09.slc.cpg/sg50_15_cif.got.tgz:29696.got - 2010.04.16 13:23:21.
