data_PCOD8204395
_publ_section_title
;
Structure prediction by ZEFSAII (Michael W. Deem and Ramdas Pophale) SiO2 
 PCOD8204395
Probable space group: P C C M
;
_chemical_formula_sum "Si O2"
_cell_formula_units_Z 48
_cell_length_a 13.565713
_cell_length_b 12.837155
_cell_length_c 14.225453
_cell_angle_alpha 90.000000
_cell_angle_beta 90.000000
_cell_angle_gamma 90.000000
_cell_volume 2477.293795
_symmetry_space_group_name_H-M "P C C M"
_symmetry_group_IT_number 49
_symmetry_cell_setting 'orthorhombic'
loop_
_space_group_symop_operation_xyz
x,y,z
-x,-y,z
x,-y,1/2-z
-x,y,1/2-z
-x,-y,-z
x,y,-z
-x,y,1/2+z
x,-y,1/2+z
loop_
_atom_site_type_symbol
_atom_site_label
_atom_site_fract_x
_atom_site_fract_y
_atom_site_fract_z
Si Si1 0.934245 0.900280 0.108795
Si Si2 0.422512 0.144843 0.895907
Si Si3 0.155947 0.614127 0.250549
Si Si4 0.995022 0.672998 0.107293
Si Si5 0.750872 0.823137 0.230864
Si Si6 0.364968 0.905845 0.104860
O O1 0.004190 0.798701 0.118851
O O2 0.837732 0.882944 0.174014
O O3 0.899574 0.913795 0.000000
O O4 0.000000 0.000000 0.141163
O O5 0.345473 0.202959 0.830270
O O6 0.536375 0.156666 0.862416
O O7 0.391920 0.025368 0.896189
O O8 0.413130 0.192219 0.000000
O O9 0.207380 0.500000 0.250000
O O10 0.111003 0.637230 0.353757
O O11 0.227597 0.708883 0.228034
O O12 0.074954 0.612825 0.168402
O O13 0.005462 0.638016 0.000000
O O14 0.724080 0.891669 0.322098
O O15 0.331849 0.870458 0.000000
#
# Coordination Sequence:
#
# PCOD8204395 Si02
#       6
#     8   8   8   8   8   8
#     4   9  19  34  51  77 113 144 170 204 248 305
#     4   9  18  34  55  80 107 133 164 205 252 305
#     4  10  22  36  49  72  99 125 172 228 263 293
#     4   9  18  35  56  72  93 133 176 212 254 297
#     4  11  20  32  54  77 101 139 176 206 255 313
#     4   9  19  34  53  80 110 134 163 205 250 305
#
# _framework density 19.375982
#
# number of rings (size 3 to 8) (size 9 to 14) (size 15 to 20)
#    0.000    2.500    0.000    3.500    0.000    6.667 
#    0.000    9.167    0.000    2.500    0.000    2.333 
#    0.000    0.000    0.000    0.000    0.000    0.000 
#
# Total GULP energy -594819.926713 kJ/mol
# GULP energy per Si atom -12392.081807 kJ/mol
# Density = 1.933188 g / cm^3
# Si number density = 19.375982 Si / 1000 Ang^3
#
#
#
# Elastic Constant Matrix: (Units=GPa)
#
#
# Indices 1 2 3 4 5 6 
#
# 1 69.2990 19.2366 42.2670 0.0000 0.0000 0.0000
# 2 19.2366 78.5917 21.0597 0.0000 0.0000 0.0000
# 3 42.2670 21.0597 110.6967 0.0000 0.0000 0.0000
# 4 0.0000 0.0000 0.0000 15.3430 0.0000 0.0000
# 5 0.0000 0.0000 0.0000 0.0000 17.9983 0.0000
# 6 0.0000 0.0000 0.0000 0.0000 0.0000 14.0606
#
#
#
# Elastic Compliance Matrix: (Units=1/GPa)
#
#
# Indices 1 2 3 4 5 6 
#
# 1 0.019425 -0.002916 -0.006862 0.000000 0.000000 0.000000
# 2 -0.002916 0.013845 -0.001521 0.000000 0.000000 0.000000
# 3 -0.006862 -0.001521 0.011943 0.000000 0.000000 0.000000
# 4 0.000000 0.000000 0.000000 0.065176 0.000000 0.000000
# 5 0.000000 0.000000 0.000000 0.000000 0.055561 0.000000
# 6 0.000000 0.000000 0.000000 0.000000 0.000000 0.071121
#
#
# Mechanical properties :
#
#
# Convention : Reuss Voigt Hill
#
# Bulk Modulus (GPa) = 44.21658 47.07933 45.64796
# Shear Modulus (GPa) = 18.71203 21.21530 19.96367
#
# Velocity S-wave (km/s) = 3.11100 3.31256 3.21336
# Velocity P-wave (km/s) = 5.98116 6.24350 6.11373
#
# Compressibility (1/GPa) = 0.02261595
#
# Stress axis : x y z
#
# Youngs Moduli (GPa) = 51.47988 72.22739 83.72959
#
# Poissons Ratio (x) = 0.21060 0.57458
# Poissons Ratio (y) = 0.15010 0.12733
# Poissons Ratio (z) = 0.35327 0.10983
#
# Static dielectric constant tensor:
#      x y z
#    x 3.833820 0.000000 0.000000 
#    y 0.000000 3.352950 0.000000 
#    z 0.000000 0.000000 3.881180 
# 
# 
# High freq. dielectric constant tensor:
#      x y z
#    x 1.732700 0.000000 0.000000 
#    y 0.000000 1.720990 0.000000 
#    z 0.000000 0.000000 1.769760 
# 
# From -- ./inp_files/12768.got.cif
#   From: 2010.03.12/outbox.cif.g09.slc.cpg/sg49_7_cif.got.tgz:12768.got - 2010.04.14 03:58:27.
