data_PCOD8204477
_publ_section_title
;
Structure prediction by ZEFSAII (Michael W. Deem and Ramdas Pophale) SiO2 
 PCOD8204477
Probable space group: P C C M
;
_chemical_formula_sum "Si O2"
_cell_formula_units_Z 32
_cell_length_a 8.670401
_cell_length_b 5.125505
_cell_length_c 31.798116
_cell_angle_alpha 90.000000
_cell_angle_beta 90.000000
_cell_angle_gamma 90.000000
_cell_volume 1413.114116
_symmetry_space_group_name_H-M "P C C M"
_symmetry_group_IT_number 49
_symmetry_cell_setting 'orthorhombic'
loop_
_space_group_symop_operation_xyz
x,y,z
-x,-y,z
x,-y,1/2-z
-x,y,1/2-z
-x,-y,-z
x,y,-z
-x,y,1/2+z
x,-y,1/2+z
loop_
_atom_site_type_symbol
_atom_site_label
_atom_site_fract_x
_atom_site_fract_y
_atom_site_fract_z
Si Si1 0.331233 0.416448 0.048548
Si Si2 0.569005 0.748441 0.703291
Si Si3 0.899800 0.238310 0.825559
Si Si4 0.831969 0.084816 0.080232
O O1 0.500000 0.500000 0.064536
O O2 0.219036 0.663833 0.053798
O O3 0.280069 0.163620 0.075081
O O4 0.334356 0.331813 0.000000
O O5 0.500000 0.500000 0.678489
O O6 0.500000 0.748713 0.750000
O O7 0.753848 0.732069 0.705134
O O8 0.500000 0.000000 0.679248
O O9 0.835560 0.168283 0.871318
O O10 0.000000 0.500000 0.826404
O O11 0.000000 0.000000 0.807558
O O12 0.000000 0.000000 0.063810
#
# Coordination Sequence:
#
# PCOD8204477 Si02
#       4
#     8   8   8   8
#     4  11  24  41  61  90 127 167 212 263 320 377
#     4  10  22  42  64  94 128 160 204 254 306 375
#     4  11  23  42  65  92 127 166 209 260 315 371
#     4  11  23  40  62  91 124 164 215 263 314 376
#
# _framework density 22.645023999999999
#
# number of rings (size 3 to 8) (size 9 to 14) (size 15 to 20)
#    0.000    1.250    0.000    6.750    0.000    8.000 
#    0.000   15.000    0.000    0.000    0.000    0.000 
#    0.000    0.000    0.000    0.000    0.000    0.000 
#
# Total GULP energy -396796.222377 kJ/mol
# GULP energy per Si atom -12399.881949 kJ/mol
# Density = 2.259348 g / cm^3
# Si number density = 22.645024 Si / 1000 Ang^3
#
#
#
# Elastic Constant Matrix: (Units=GPa)
#
#
# Indices 1 2 3 4 5 6 
#
# 1 176.4612 88.1097 60.3183 0.0000 0.0000 0.0000
# 2 88.1097 230.5740 35.3588 0.0000 0.0000 0.0000
# 3 60.3183 35.3588 57.1508 0.0000 0.0000 0.0000
# 4 0.0000 0.0000 0.0000 3.4785 0.0000 0.0000
# 5 0.0000 0.0000 0.0000 0.0000 31.9950 0.0000
# 6 0.0000 0.0000 0.0000 0.0000 0.0000 56.6679
#
#
#
# Elastic Compliance Matrix: (Units=1/GPa)
#
#
# Indices 1 2 3 4 5 6 
#
# 1 0.009956 -0.002423 -0.009009 0.000000 0.000000 0.000000
# 2 -0.002423 0.005381 -0.000772 0.000000 0.000000 0.000000
# 3 -0.009009 -0.000772 0.027483 0.000000 0.000000 0.000000
# 4 0.000000 0.000000 0.000000 0.287483 0.000000 0.000000
# 5 0.000000 0.000000 0.000000 0.000000 0.031255 0.000000
# 6 0.000000 0.000000 0.000000 0.000000 0.000000 0.017647
#
#
# Mechanical properties :
#
#
# Convention : Reuss Voigt Hill
#
# Bulk Modulus (GPa) = 54.30953 92.41774 73.36363
# Shear Modulus (GPa) = 12.20252 37.12155 24.66203
#
# Velocity S-wave (km/s) = 2.32386 4.05320 3.30369
# Velocity P-wave (km/s) = 5.58887 7.92494 6.85712
#
# Compressibility (1/GPa) = 0.01841298
#
# Stress axis : x y z
#
# Youngs Moduli (GPa) = 100.43871 185.82772 36.38550
#
# Poissons Ratio (x) = 0.45028 0.32780
# Poissons Ratio (y) = 0.24337 0.02809
# Poissons Ratio (z) = 0.90485 0.14346
#
# Static dielectric constant tensor:
#      x y z
#    x 4.291480 0.000000 0.000000 
#    y 0.000000 2.843190 0.000000 
#    z 0.000000 0.000000 3.641470 
# 
# 
# High freq. dielectric constant tensor:
#      x y z
#    x 1.906560 0.000000 0.000000 
#    y 0.000000 1.927060 0.000000 
#    z 0.000000 0.000000 1.864460 
# 
# From -- ./inp_files/26003.got.cif
#   From: 2010.03.12/outbox.cif.g09.slc.cpg/sg49_14_cif.got.tgz:26003.got - 2010.04.14 03:58:27.
