data_PCOD8204859
_publ_section_title
;
Structure prediction by ZEFSAII (Michael W. Deem and Ramdas Pophale) SiO2 
 PCOD8204859
Probable space group: P B A N
;
_chemical_formula_sum "Si O2"
_cell_formula_units_Z 56
_cell_length_a 5.123214
_cell_length_b 25.995699
_cell_length_c 22.869085
_cell_angle_alpha 90.000000
_cell_angle_beta 90.000000
_cell_angle_gamma 90.000000
_cell_volume 3045.739708
_symmetry_space_group_name_H-M "P B A N"
_symmetry_group_IT_number 50
_space_group.IT_coordinate_system_code '2'
_symmetry_cell_setting 'orthorhombic'
loop_
_space_group_symop_operation_xyz
x,y,z
1/2-x,1/2-y,z
x,1/2-y,-z
1/2-x,y,-z
-x,-y,-z
1/2+x,1/2+y,-z
-x,1/2+y,z
1/2+x,-y,z
loop_
_atom_site_type_symbol
_atom_site_label
_atom_site_fract_x
_atom_site_fract_y
_atom_site_fract_z
Si Si1 0.819743 0.967133 0.059811
Si Si2 0.428421 0.478503 0.564305
Si Si3 0.248847 0.693097 0.403773
Si Si4 0.262682 0.129688 0.732817
Si Si5 0.768636 0.965771 0.814024
Si Si6 0.758253 0.869600 0.596214
Si Si7 0.248915 0.692944 0.267392
O O1 0.762614 0.938804 0.121593
O O2 0.622326 0.016335 0.058151
O O3 0.750000 0.934753 0.000000
O O4 0.500000 0.500000 0.500000
O O5 0.208542 0.514747 0.596742
O O6 0.318477 0.420996 0.561428
O O7 0.250000 0.750000 0.432490
O O8 0.532700 0.671137 0.415689
O O9 0.184545 0.698220 0.335647
O O10 0.024158 0.655396 0.430012
O O11 0.218417 0.076146 0.764826
O O12 0.285141 0.116578 0.664361
O O13 0.518614 0.157696 0.758870
O O14 0.023540 0.167201 0.745827
O O15 0.557139 0.011069 0.806713
O O16 0.250000 0.750000 0.239143
#
# Coordination Sequence:
#
# PCOD8204859 Si02
#       7
#     8   8   8   8   8   8   8
#     4   8  14  25  40  56  77 111 153 190 225 266
#     4  10  21  36  52  71  92 123 162 195 221 251
#     4   9  17  30  49  74  99 121 146 184 235 284
#     4  10  19  29  44  68  95 123 153 185 227 278
#     4  10  19  29  41  61  93 127 152 184 228 273
#     4  10  19  31  49  72  97 124 155 189 225 272
#     4   9  17  30  46  64  91 123 154 189 227 270
#
# _framework density 18.386337000000001
#
# number of rings (size 3 to 8) (size 9 to 14) (size 15 to 20)
#    0.000    2.571    0.000    2.571    0.000    4.571 
#    0.000    0.000    0.000    0.000    0.000   30.000 
#    0.000    3.429    0.000    0.000    0.000    0.000 
#
# Total GULP energy -693822.288073 kJ/mol
# GULP energy per Si atom -12389.683716 kJ/mol
# Density = 1.834449 g / cm^3
# Si number density = 18.386337 Si / 1000 Ang^3
#
#
#
# Elastic Constant Matrix: (Units=GPa)
#
#
# Indices 1 2 3 4 5 6 
#
# 1 91.3972 7.8269 13.3769 0.0000 0.0000 0.0000
# 2 7.8269 84.0537 29.3963 0.0000 0.0000 0.0000
# 3 13.3769 29.3963 54.3173 0.0000 0.0000 0.0000
# 4 0.0000 0.0000 0.0000 -1.3919 0.0000 0.0000
# 5 0.0000 0.0000 0.0000 0.0000 12.6732 0.0000
# 6 0.0000 0.0000 0.0000 0.0000 0.0000 27.6329
#
#
#
# Elastic Compliance Matrix: (Units=1/GPa)
#
#
# Indices 1 2 3 4 5 6 
#
# 1 0.011351 -0.000098 -0.002743 0.000000 0.000000 0.000000
# 2 -0.000098 0.014676 -0.007918 0.000000 0.000000 0.000000
# 3 -0.002743 -0.007918 0.023371 0.000000 0.000000 0.000000
# 4 0.000000 0.000000 0.000000 -0.718424 0.000000 0.000000
# 5 0.000000 0.000000 0.000000 0.000000 0.078907 0.000000
# 6 0.000000 0.000000 0.000000 0.000000 0.000000 0.036189
#
#
# Mechanical properties :
#
#
# Convention : Reuss Voigt Hill
#
# Bulk Modulus (GPa) = 35.86742 36.77426 36.32084
# Shear Modulus (GPa) = -9.55803 19.72738 5.08468
#
# Velocity S-wave (km/s) = -2.28248 3.27913 1.66477
# Velocity P-wave (km/s) = 3.55017 5.86355 4.84690
#
# Compressibility (1/GPa) = 0.02788046
#
# Stress axis : x y z
#
# Youngs Moduli (GPa) = 88.09782 68.14063 42.78793
#
# Poissons Ratio (x) = 0.00667 0.11735
# Poissons Ratio (y) = 0.00862 0.33881
# Poissons Ratio (z) = 0.24161 0.53955
#
# Static dielectric constant tensor:
#      x y z
#    x 2.392240 0.000000 0.000000 
#    y 0.000000 3.251630 0.000000 
#    z 0.000000 0.000000 3.268610 
# 
# 
# High freq. dielectric constant tensor:
#      x y z
#    x 1.747730 0.000000 0.000000 
#    y 0.000000 1.684430 0.000000 
#    z 0.000000 0.000000 1.672630 
# 
# From -- ./inp_files/31504.got.cif
#   From: 2010.03.12/outbox.cif.g09.slc.cpg/sg50_16_cif.got.tgz:31504.got - 2010.04.16 13:23:21.
