data_PCOD8204358
_publ_section_title
;
Structure prediction by ZEFSAII (Michael W. Deem and Ramdas Pophale) SiO2 
 PCOD8204358
Probable space group: P C C M
;
_chemical_formula_sum "Si O2"
_cell_formula_units_Z 34
_cell_length_a 8.770153
_cell_length_b 19.402033
_cell_length_c 9.464971
_cell_angle_alpha 90.000000
_cell_angle_beta 90.000000
_cell_angle_gamma 90.000000
_cell_volume 1610.548088
_symmetry_space_group_name_H-M "P C C M"
_symmetry_group_IT_number 49
_symmetry_cell_setting 'orthorhombic'
loop_
_space_group_symop_operation_xyz
x,y,z
-x,-y,z
x,-y,1/2-z
-x,y,1/2-z
-x,-y,-z
x,y,-z
-x,y,1/2+z
x,-y,1/2+z
loop_
_atom_site_type_symbol
_atom_site_label
_atom_site_fract_x
_atom_site_fract_y
_atom_site_fract_z
Si Si1 0.848287 0.598714 0.000000
Si Si2 0.854021 0.783215 0.662563
Si Si3 0.361425 0.132033 0.838692
Si Si4 0.679277 0.650897 0.268579
Si Si5 0.192733 0.436614 0.500000
Si Si6 0.500000 0.000000 0.750000
O O1 0.775034 0.639373 0.128197
O O2 0.814332 0.518157 0.000000
O O3 0.031471 0.604460 0.000000
O O4 0.891522 0.804430 0.500000
O O5 0.789797 0.848929 0.750594
O O6 0.732775 0.721462 0.659079
O O7 0.000000 0.757709 0.750000
O O8 0.500000 0.167283 0.750000
O O9 0.389434 0.049139 0.843853
O O10 0.353936 0.160227 0.000000
O O11 0.500000 0.655792 0.250000
O O12 0.712632 0.584669 0.363696
#
# Coordination Sequence:
#
# PCOD8204358 Si02
#       6
#     4   8   8   8   4   2
#     4  11  25  41  73  91 133 179 224 287 348 427
#     4  12  26  44  67  96 137 182 233 291 352 421
#     4  10  21  39  69 102 139 180 226 272 336 399
#     4  12  26  42  66  97 134 174 230 290 350 413
#     4  11  23  47  63  99 129 179 230 277 354 421
#     4   8  22  40  72 104 146 180 226 276 338 400
#
# _framework density 21.110825999999999
#
# number of rings (size 3 to 8) (size 9 to 14) (size 15 to 20)
#    0.706    0.235    1.176    6.000    3.294    4.706 
#    0.000    0.588    0.000    2.824    0.000    0.000 
#    0.000    0.000    0.000    0.000    0.000    0.000 
#
# Total GULP energy -421425.537332 kJ/mol
# GULP energy per Si atom -12394.868745 kJ/mol
# Density = 2.106278 g / cm^3
# Si number density = 21.110826 Si / 1000 Ang^3
#
#
#
# Elastic Constant Matrix: (Units=GPa)
#
#
# Indices 1 2 3 4 5 6 
#
# 1 123.9015 32.2610 41.1990 0.0000 0.0000 0.0000
# 2 32.2610 73.5799 23.9514 0.0000 0.0000 0.0000
# 3 41.1990 23.9514 178.6331 0.0000 0.0000 0.0000
# 4 0.0000 0.0000 0.0000 31.5185 0.0000 0.0000
# 5 0.0000 0.0000 0.0000 0.0000 34.7767 0.0000
# 6 0.0000 0.0000 0.0000 0.0000 0.0000 38.6468
#
#
#
# Elastic Compliance Matrix: (Units=1/GPa)
#
#
# Indices 1 2 3 4 5 6 
#
# 1 0.009593 -0.003645 -0.001724 0.000000 0.000000 0.000000
# 2 -0.003645 0.015596 -0.001250 0.000000 0.000000 0.000000
# 3 -0.001724 -0.001250 0.006163 0.000000 0.000000 0.000000
# 4 0.000000 0.000000 0.000000 0.031727 0.000000 0.000000
# 5 0.000000 0.000000 0.000000 0.000000 0.028755 0.000000
# 6 0.000000 0.000000 0.000000 0.000000 0.000000 0.025875
#
#
# Mechanical properties :
#
#
# Convention : Reuss Voigt Hill
#
# Bulk Modulus (GPa) = 55.20639 63.43747 59.32193
# Shear Modulus (GPa) = 36.49999 39.56862 38.03430
#
# Velocity S-wave (km/s) = 4.16260 4.33405 4.24919
# Velocity P-wave (km/s) = 7.02214 7.42700 7.22740
#
# Compressibility (1/GPa) = 0.01811385
#
# Stress axis : x y z
#
# Youngs Moduli (GPa) = 104.24072 64.11964 162.25081
#
# Poissons Ratio (x) = 0.23372 0.27969
# Poissons Ratio (y) = 0.37996 0.20289
# Poissons Ratio (z) = 0.17969 0.08018
#
# Static dielectric constant tensor:
#      x y z
#    x 3.854860 0.000000 0.000000 
#    y 0.000000 3.589030 0.000000 
#    z 0.000000 0.000000 3.883200 
# 
# 
# High freq. dielectric constant tensor:
#      x y z
#    x 1.824950 0.000000 0.000000 
#    y 0.000000 1.818050 0.000000 
#    z 0.000000 0.000000 1.842160 
# 
# From -- ./inp_files/1556.got.cif
#   From: 2010.03.12/outbox.cif.g09.slc.cpg/sg49_1_cif.got.tgz:1556.got - 2010.04.14 03:58:27.
