data_PCOD8204465
_publ_section_title
;
Structure prediction by ZEFSAII (Michael W. Deem and Ramdas Pophale) SiO2 
 PCOD8204465
Probable space group: P C C M
;
_chemical_formula_sum "Si O2"
_cell_formula_units_Z 48
_cell_length_a 13.403471
_cell_length_b 18.596796
_cell_length_c 9.192005
_cell_angle_alpha 90.000000
_cell_angle_beta 90.000000
_cell_angle_gamma 90.000000
_cell_volume 2291.214019
_symmetry_space_group_name_H-M "P C C M"
_symmetry_group_IT_number 49
_symmetry_cell_setting 'orthorhombic'
loop_
_space_group_symop_operation_xyz
x,y,z
-x,-y,z
x,-y,1/2-z
-x,y,1/2-z
-x,-y,-z
x,y,-z
-x,y,1/2+z
x,-y,1/2+z
loop_
_atom_site_type_symbol
_atom_site_label
_atom_site_fract_x
_atom_site_fract_y
_atom_site_fract_z
Si Si1 0.144905 0.427242 0.500000
Si Si2 0.909298 0.417416 0.500000
Si Si3 0.211140 0.656041 0.271491
Si Si4 0.411016 0.924675 0.832347
Si Si5 0.100951 0.208257 0.175482
Si Si6 0.599092 0.571789 0.832921
Si Si7 0.810706 0.923763 0.329551
O O1 0.164678 0.512707 0.500000
O O2 0.200472 0.385786 0.375672
O O3 0.026153 0.428359 0.500000
O O4 0.883376 0.371136 0.361513
O O5 0.194153 0.742009 0.270357
O O6 0.319485 0.635801 0.333885
O O7 0.500000 0.879623 0.750000
O O8 0.301280 0.890390 0.818399
O O9 0.405129 0.000000 0.750000
O O10 0.440816 0.934875 0.000000
O O11 0.117302 0.129417 0.242443
O O12 0.000000 0.238523 0.250000
O O13 0.092821 0.205574 0.000000
O O14 0.638310 0.500000 0.750000
O O15 0.500000 0.599617 0.750000
O O16 0.573346 0.552984 0.000000
O O17 0.841606 0.930900 0.500000
O O18 0.819804 0.000000 0.250000
#
# Coordination Sequence:
#
# PCOD8204465 Si02
#       7
#     4   4   8   8   8   8   8
#     4  11  24  34  65  91 130 168 213 258 315 373
#     4  11  20  42  57  95 128 168 211 262 309 377
#     4  12  25  40  64  93 131 171 214 267 325 385
#     4   9  16  28  52  86 123 158 195 243 301 365
#     4  12  26  45  67  92 126 169 212 263 327 397
#     4  11  23  41  65  95 129 171 224 275 327 385
#     4  10  22  41  65  95 127 164 215 271 324 389
#
# _framework density 20.949593
#
# number of rings (size 3 to 8) (size 9 to 14) (size 15 to 20)
#    0.000    1.167    1.667    6.000    4.667    3.667 
#    0.000    2.500    0.000    2.000    0.000    0.000 
#    0.000    0.000    0.000    0.000    0.000    0.000 
#
# Total GULP energy -594705.651402 kJ/mol
# GULP energy per Si atom -12389.701071 kJ/mol
# Density = 2.090191 g / cm^3
# Si number density = 20.949593 Si / 1000 Ang^3
#
#
#
# Elastic Constant Matrix: (Units=GPa)
#
#
# Indices 1 2 3 4 5 6 
#
# 1 88.5202 33.2508 31.8675 0.0000 0.0000 0.0000
# 2 33.2508 91.3439 23.9593 0.0000 0.0000 0.0000
# 3 31.8675 23.9593 133.1090 0.0000 0.0000 0.0000
# 4 0.0000 0.0000 0.0000 31.8669 0.0000 0.0000
# 5 0.0000 0.0000 0.0000 0.0000 35.3984 0.0000
# 6 0.0000 0.0000 0.0000 0.0000 0.0000 30.6566
#
#
#
# Elastic Compliance Matrix: (Units=1/GPa)
#
#
# Indices 1 2 3 4 5 6 
#
# 1 0.013852 -0.004379 -0.002528 0.000000 0.000000 0.000000
# 2 -0.004379 0.012875 -0.001269 0.000000 0.000000 0.000000
# 3 -0.002528 -0.001269 0.008346 0.000000 0.000000 0.000000
# 4 0.000000 0.000000 0.000000 0.031381 0.000000 0.000000
# 5 0.000000 0.000000 0.000000 0.000000 0.028250 0.000000
# 6 0.000000 0.000000 0.000000 0.000000 0.000000 0.032619
#
#
# Mechanical properties :
#
#
# Convention : Reuss Voigt Hill
#
# Bulk Modulus (GPa) = 53.41783 54.56980 53.99382
# Shear Modulus (GPa) = 33.35217 34.51074 33.93146
#
# Velocity S-wave (km/s) = 3.99434 4.06313 4.02888
# Velocity P-wave (km/s) = 6.84300 6.93662 6.88997
#
# Compressibility (1/GPa) = 0.01872034
#
# Stress axis : x y z
#
# Youngs Moduli (GPa) = 72.19209 77.67221 119.81385
#
# Poissons Ratio (x) = 0.34015 0.30289
# Poissons Ratio (y) = 0.31615 0.15204
# Poissons Ratio (z) = 0.18250 0.09856
#
# Static dielectric constant tensor:
#      x y z
#    x 4.266280 0.000000 0.000000 
#    y 0.000000 3.570710 0.000000 
#    z 0.000000 0.000000 3.901410 
# 
# 
# High freq. dielectric constant tensor:
#      x y z
#    x 1.827910 0.000000 0.000000 
#    y 0.000000 1.788390 0.000000 
#    z 0.000000 0.000000 1.841610 
# 
# From -- ./inp_files/3761.got.cif
#   From: 2010.03.12/outbox.cif.g09.slc.cpg/sg49_2_cif.got.tgz:3761.got - 2010.04.14 03:58:27.
