data_PCOD8204137
_publ_section_title
;
Structure prediction by ZEFSAII (Michael W. Deem and Ramdas Pophale) SiO2 
 PCOD8204137
Probable space group: P C C M
;
_chemical_formula_sum "Si O2"
_cell_formula_units_Z 48
_cell_length_a 16.345384
_cell_length_b 8.924627
_cell_length_c 15.181391
_cell_angle_alpha 90.000000
_cell_angle_beta 90.000000
_cell_angle_gamma 90.000000
_cell_volume 2214.607507
_symmetry_space_group_name_H-M "P C C M"
_symmetry_group_IT_number 49
_symmetry_cell_setting 'orthorhombic'
loop_
_space_group_symop_operation_xyz
x,y,z
-x,-y,z
x,-y,1/2-z
-x,y,1/2-z
-x,-y,-z
x,y,-z
-x,y,1/2+z
x,-y,1/2+z
loop_
_atom_site_type_symbol
_atom_site_label
_atom_site_fract_x
_atom_site_fract_y
_atom_site_fract_z
Si Si1 0.427264 0.394008 0.099785
Si Si2 0.974546 0.827770 0.903284
Si Si3 0.144397 0.228769 0.602376
Si Si4 0.801990 0.906957 0.105849
Si Si5 0.646690 0.163760 0.719526
Si Si6 0.712831 0.408844 0.164709
O O1 0.500000 0.500000 0.134558
O O2 0.423652 0.247879 0.162713
O O3 0.343607 0.490078 0.102260
O O4 0.443695 0.340951 0.000000
O O5 0.883919 0.818061 0.859798
O O6 0.052668 0.747308 0.854613
O O7 0.963333 0.757278 0.000000
O O8 0.000000 0.000000 0.910316
O O9 0.127365 0.201575 0.500000
O O10 0.202494 0.370995 0.615955
O O11 0.189689 0.079489 0.637798
O O12 0.725844 0.837546 0.156454
O O13 0.789696 0.893941 0.000000
O O14 0.664696 0.258022 0.807726
O O15 0.616390 0.000000 0.750000
O O16 0.738192 0.500000 0.250000
#
# Coordination Sequence:
#
# PCOD8204137 Si02
#       6
#     8   8   8   8   8   8
#     4  10  23  45  68  88 115 157 205 241 288 366
#     4   7  12  23  44  76 109 149 198 245 290 338
#     4   9  15  28  52  79 112 155 206 251 290 342
#     4   9  16  29  53  83 118 155 198 249 296 341
#     4  11  21  36  60  93 125 151 190 246 307 358
#     4  10  21  35  56  83 120 165 197 239 302 374
#
# _framework density 21.67427
#
# number of rings (size 3 to 8) (size 9 to 14) (size 15 to 20)
#    0.000    2.667    1.667    3.000    0.000    3.000 
#    0.000    2.500    0.000    9.000    0.000   15.167 
#    0.000    0.000    0.000    0.000    0.000    0.000 
#
# Total GULP energy -594668.486918 kJ/mol
# GULP energy per Si atom -12388.926811 kJ/mol
# Density = 2.162494 g / cm^3
# Si number density = 21.674270 Si / 1000 Ang^3
#
#
#
# Elastic Constant Matrix: (Units=GPa)
#
#
# Indices 1 2 3 4 5 6 
#
# 1 108.0468 39.0910 18.8982 0.0000 0.0000 0.0000
# 2 39.0910 99.5597 23.2980 0.0000 0.0000 0.0000
# 3 18.8982 23.2980 42.0433 0.0000 0.0000 0.0000
# 4 0.0000 0.0000 0.0000 24.8705 0.0000 0.0000
# 5 0.0000 0.0000 0.0000 0.0000 20.3002 0.0000
# 6 0.0000 0.0000 0.0000 0.0000 0.0000 36.5639
#
#
#
# Elastic Compliance Matrix: (Units=1/GPa)
#
#
# Indices 1 2 3 4 5 6 
#
# 1 0.011099 -0.003666 -0.002957 0.000000 0.000000 0.000000
# 2 -0.003666 0.012752 -0.005418 0.000000 0.000000 0.000000
# 3 -0.002957 -0.005418 0.028117 0.000000 0.000000 0.000000
# 4 0.000000 0.000000 0.000000 0.040208 0.000000 0.000000
# 5 0.000000 0.000000 0.000000 0.000000 0.049261 0.000000
# 6 0.000000 0.000000 0.000000 0.000000 0.000000 0.027349
#
#
# Mechanical properties :
#
#
# Convention : Reuss Voigt Hill
#
# Bulk Modulus (GPa) = 35.86294 45.80270 40.83282
# Shear Modulus (GPa) = 24.73245 27.57109 26.15177
#
# Velocity S-wave (km/s) = 3.38168 3.57047 3.47736
# Velocity P-wave (km/s) = 5.64180 6.17866 5.91632
#
# Compressibility (1/GPa) = 0.02788394
#
# Stress axis : x y z
#
# Youngs Moduli (GPa) = 90.09990 78.42214 35.56570
#
# Poissons Ratio (x) = 0.28747 0.10519
# Poissons Ratio (y) = 0.33028 0.19271
# Poissons Ratio (z) = 0.26647 0.42493
#
# Static dielectric constant tensor:
#      x y z
#    x 4.074760 0.000000 0.000000 
#    y 0.000000 3.746250 0.000000 
#    z 0.000000 0.000000 3.618540 
# 
# 
# High freq. dielectric constant tensor:
#      x y z
#    x 1.856900 0.000000 0.000000 
#    y 0.000000 1.820240 0.000000 
#    z 0.000000 0.000000 1.829740 
# 
# From -- ./inp_files/14045.got.cif
#   From: 2010.03.12/outbox.cif.g09.slc.cpg/sg49_8_cif.got.tgz:14045.got - 2010.04.14 03:58:27.
