data_PCOD8204252
_publ_section_title
;
Structure prediction by ZEFSAII (Michael W. Deem and Ramdas Pophale) SiO2 
 PCOD8204252
Probable space group: P C C M
;
_chemical_formula_sum "Si O2"
_cell_formula_units_Z 48
_cell_length_a 5.185756
_cell_length_b 26.889182
_cell_length_c 16.038204
_cell_angle_alpha 90.000000
_cell_angle_beta 90.000000
_cell_angle_gamma 90.000000
_cell_volume 2236.378984
_symmetry_space_group_name_H-M "P C C M"
_symmetry_group_IT_number 49
_symmetry_cell_setting 'orthorhombic'
loop_
_space_group_symop_operation_xyz
x,y,z
-x,-y,z
x,-y,1/2-z
-x,y,1/2-z
-x,-y,-z
x,y,-z
-x,y,1/2+z
x,-y,1/2+z
loop_
_atom_site_type_symbol
_atom_site_label
_atom_site_fract_x
_atom_site_fract_y
_atom_site_fract_z
Si Si1 0.761658 0.712383 0.698414
Si Si2 0.514411 0.443261 0.349552
Si Si3 0.025023 0.391768 0.654680
Si Si4 0.248625 0.978171 0.343509
Si Si5 0.703176 0.808803 0.403562
Si Si6 0.195006 0.870157 0.597765
O O1 0.500000 0.695793 0.750000
O O2 0.675987 0.754557 0.635250
O O3 0.000000 0.735629 0.750000
O O4 0.900509 0.666558 0.650183
O O5 0.500000 0.500000 0.379636
O O6 0.500000 0.439228 0.250000
O O7 0.755737 0.410757 0.386069
O O8 0.258485 0.419946 0.390104
O O9 0.000000 0.408660 0.750000
O O10 0.238088 0.918783 0.346031
O O11 0.500000 0.000000 0.390343
O O12 0.249694 0.000000 0.250000
O O13 0.000000 0.000000 0.391388
O O14 0.751980 0.800096 0.500000
O O15 0.436289 0.835355 0.383679
O O16 0.939238 0.842188 0.369453
O O17 0.176073 0.884482 0.500000
#
# Coordination Sequence:
#
# PCOD8204252 Si02
#       6
#     8   8   8   8   8   8
#     4  11  21  36  53  83 112 145 190 229 290 345
#     4   9  15  23  37  61  92 137 182 213 261 324
#     4   9  16  26  41  61  99 136 168 223 267 319
#     4  10  21  38  54  82 113 142 174 220 273 326
#     4  10  22  41  60  83 113 147 188 237 280 331
#     4  10  21  39  61  81 108 146 184 223 277 332
#
# _framework density 21.463267999999999
#
# number of rings (size 3 to 8) (size 9 to 14) (size 15 to 20)
#    0.000    2.167    0.000    5.000    0.000    2.667 
#   18.000    0.000    0.000    0.000    0.000    0.000 
#    0.000    4.000    0.000    0.000    0.000   48.000 
#
# Total GULP energy -594659.384691 kJ/mol
# GULP energy per Si atom -12388.737181 kJ/mol
# Density = 2.141442 g / cm^3
# Si number density = 21.463268 Si / 1000 Ang^3
#
#
#
# Elastic Constant Matrix: (Units=GPa)
#
#
# Indices 1 2 3 4 5 6 
#
# 1 163.6968 51.8620 12.4866 0.0000 0.0000 0.0000
# 2 51.8620 153.5616 32.6617 0.0000 0.0000 0.0000
# 3 12.4866 32.6617 20.8900 0.0000 0.0000 0.0000
# 4 0.0000 0.0000 0.0000 -1.6223 0.0000 0.0000
# 5 0.0000 0.0000 0.0000 0.0000 4.0740 0.0000
# 6 0.0000 0.0000 0.0000 0.0000 0.0000 39.6414
#
#
#
# Elastic Compliance Matrix: (Units=1/GPa)
#
#
# Indices 1 2 3 4 5 6 
#
# 1 0.006848 -0.002161 -0.000715 0.000000 0.000000 0.000000
# 2 -0.002161 0.010438 -0.015029 0.000000 0.000000 0.000000
# 3 -0.000715 -0.015029 0.071795 0.000000 0.000000 0.000000
# 4 0.000000 0.000000 0.000000 -0.616424 0.000000 0.000000
# 5 0.000000 0.000000 0.000000 0.000000 0.245461 0.000000
# 6 0.000000 0.000000 0.000000 0.000000 0.000000 0.025226
#
#
# Mechanical properties :
#
#
# Convention : Reuss Voigt Hill
#
# Bulk Modulus (GPa) = 18.77150 59.12989 38.95070
# Shear Modulus (GPa) = -24.61975 24.49449 -0.06263
#
# Velocity S-wave (km/s) = -3.39051 3.38187 -0.17101
# Velocity P-wave (km/s) = 2.56174 6.54665 4.26005
#
# Compressibility (1/GPa) = 0.05327223
#
# Stress axis : x y z
#
# Youngs Moduli (GPa) = 146.02959 95.80071 13.92850
#
# Poissons Ratio (x) = 0.20699 0.00996
# Poissons Ratio (y) = 0.31552 0.20933
# Poissons Ratio (z) = 0.10441 1.43979
#
# Static dielectric constant tensor:
#      x y z
#    x -30.210610 0.000000 0.000000 
#    y 0.000000 3.814850 0.000000 
#    z 0.000000 0.000000 3.205670 
# 
# 
# High freq. dielectric constant tensor:
#      x y z
#    x 1.878900 0.000000 0.000000 
#    y 0.000000 1.850870 0.000000 
#    z 0.000000 0.000000 1.774630 
# 
# From -- ./inp_files/10727.got.cif
#   From: 2010.03.12/outbox.cif.g09.slc.cpg/sg49_6_cif.got.tgz:10727.got - 2010.04.14 03:58:27.
