data_PCOD8204618
_publ_section_title
;
Structure prediction by ZEFSAII (Michael W. Deem and Ramdas Pophale) SiO2 
 PCOD8204618
Probable space group: P C C M
;
_chemical_formula_sum "Si O2"
_cell_formula_units_Z 48
_cell_length_a 18.993574
_cell_length_b 13.864845
_cell_length_c 8.978921
_cell_angle_alpha 90.000000
_cell_angle_beta 90.000000
_cell_angle_gamma 90.000000
_cell_volume 2364.535629
_symmetry_space_group_name_H-M "P C C M"
_symmetry_group_IT_number 49
_symmetry_cell_setting 'orthorhombic'
loop_
_space_group_symop_operation_xyz
x,y,z
-x,-y,z
x,-y,1/2-z
-x,y,1/2-z
-x,-y,-z
x,y,-z
-x,y,1/2+z
x,-y,1/2+z
loop_
_atom_site_type_symbol
_atom_site_label
_atom_site_fract_x
_atom_site_fract_y
_atom_site_fract_z
Si Si1 0.897959 0.095142 0.500000
Si Si2 0.159867 0.201450 0.271755
Si Si3 0.630222 0.599266 0.819698
Si Si4 0.570426 0.216886 0.179310
Si Si5 0.217372 0.599668 0.180826
Si Si6 0.702208 0.095339 0.163447
Si Si7 0.939091 0.874098 0.500000
O O1 0.849861 0.136811 0.371549
O O2 0.977427 0.132526 0.500000
O O3 0.903492 0.980061 0.500000
O O4 0.166097 0.316834 0.255789
O O5 0.231242 0.166409 0.350125
O O6 0.087900 0.182841 0.358529
O O7 0.601245 0.500000 0.750000
O O8 0.577545 0.680783 0.762146
O O9 0.706127 0.620604 0.748150
O O10 0.634214 0.595127 0.000000
O O11 0.500000 0.169719 0.250000
O O12 0.635493 0.150715 0.233148
O O13 0.567010 0.228096 0.000000
O O14 0.188065 0.500000 0.250000
O O15 0.219545 0.596831 0.000000
O O16 0.723099 0.000000 0.250000
O O17 0.680269 0.061672 0.000000
#
# Coordination Sequence:
#
# PCOD8204618 Si02
#       7
#     4   8   8   8   8   8   4
#     4  11  26  38  69  99 136 172 218 257 313 403
#     4  12  23  40  67  97 132 171 213 270 321 377
#     4  11  22  38  63  93 126 163 209 262 321 383
#     4  11  24  43  63  89 127 168 210 264 322 375
#     4  11  22  39  64  94 130 167 216 272 325 379
#     4  11  24  41  64  91 125 165 213 264 315 377
#     4  11  22  46  63  99 136 176 210 259 327 375
#
# _framework density 20.299968
#
# number of rings (size 3 to 8) (size 9 to 14) (size 15 to 20)
#    0.000    0.833    3.333    5.500    3.500    3.333 
#    0.000    3.333    0.000    3.000    0.000    0.000 
#    0.000    0.000    0.000    0.000    0.000    0.000 
#
# Total GULP energy -594951.617321 kJ/mol
# GULP energy per Si atom -12394.825361 kJ/mol
# Density = 2.025376 g / cm^3
# Si number density = 20.299968 Si / 1000 Ang^3
#
#
#
# Elastic Constant Matrix: (Units=GPa)
#
#
# Indices 1 2 3 4 5 6 
#
# 1 84.4221 36.7245 14.6244 0.0000 0.0000 0.0000
# 2 36.7245 104.6180 18.8059 0.0000 0.0000 0.0000
# 3 14.6244 18.8059 102.2654 0.0000 0.0000 0.0000
# 4 0.0000 0.0000 0.0000 18.1107 0.0000 0.0000
# 5 0.0000 0.0000 0.0000 0.0000 -74.8596 0.0000
# 6 0.0000 0.0000 0.0000 0.0000 0.0000 34.4135
#
#
#
# Elastic Compliance Matrix: (Units=1/GPa)
#
#
# Indices 1 2 3 4 5 6 
#
# 1 0.014108 -0.004747 -0.001145 0.000000 0.000000 0.000000
# 2 -0.004747 0.011482 -0.001433 0.000000 0.000000 0.000000
# 3 -0.001145 -0.001433 0.010206 0.000000 0.000000 0.000000
# 4 0.000000 0.000000 0.000000 0.055216 0.000000 0.000000
# 5 0.000000 0.000000 0.000000 0.000000 -0.013358 0.000000
# 6 0.000000 0.000000 0.000000 0.000000 0.000000 0.029058
#
#
# Mechanical properties :
#
#
# Convention : Reuss Voigt Hill
#
# Bulk Modulus (GPa) = 47.28550 47.95724 47.62137
# Shear Modulus (GPa) = 38.93769 10.27630 24.60699
#
# Velocity S-wave (km/s) = 4.38438 2.25238 3.48540
# Velocity P-wave (km/s) = 6.99817 5.51723 6.30136
#
# Compressibility (1/GPa) = 0.02114813
#
# Stress axis : x y z
#
# Youngs Moduli (GPa) = 70.87961 87.08978 97.98508
#
# Poissons Ratio (x) = 0.41340 0.11216
# Poissons Ratio (y) = 0.33645 0.14038
# Poissons Ratio (z) = 0.08113 0.12478
#
# Static dielectric constant tensor:
#      x y z
#    x 3.559950 0.000000 0.000000 
#    y 0.000000 3.812880 0.000000 
#    z 0.000000 0.000000 3.685570 
# 
# 
# High freq. dielectric constant tensor:
#      x y z
#    x 1.785600 0.000000 0.000000 
#    y 0.000000 1.795600 0.000000 
#    z 0.000000 0.000000 1.804590 
# 
# From -- ./inp_files/3773.got.cif
#   From: 2010.03.12/outbox.cif.g09.slc.cpg/sg49_2_cif.got.tgz:3773.got - 2010.04.14 03:58:27.
