data_PCOD8204603
_publ_section_title
;
Structure prediction by ZEFSAII (Michael W. Deem and Ramdas Pophale) SiO2 
 PCOD8204603
Probable space group: P C C M
;
_chemical_formula_sum "Si O2"
_cell_formula_units_Z 48
_cell_length_a 8.611099
_cell_length_b 9.877839
_cell_length_c 27.978214
_cell_angle_alpha 90.000000
_cell_angle_beta 90.000000
_cell_angle_gamma 90.000000
_cell_volume 2379.800291
_symmetry_space_group_name_H-M "P C C M"
_symmetry_group_IT_number 49
_symmetry_cell_setting 'orthorhombic'
loop_
_space_group_symop_operation_xyz
x,y,z
-x,-y,z
x,-y,1/2-z
-x,y,1/2-z
-x,-y,-z
x,y,-z
-x,y,1/2+z
x,-y,1/2+z
loop_
_atom_site_type_symbol
_atom_site_label
_atom_site_fract_x
_atom_site_fract_y
_atom_site_fract_z
Si Si1 0.334671 0.282901 0.400374
Si Si2 0.746098 0.500000 0.250000
Si Si3 0.544557 0.345159 0.000000
Si Si4 0.170242 0.472511 0.148050
Si Si5 0.360565 0.794023 0.651015
Si Si6 0.817649 0.992029 0.596329
Si Si7 0.344576 0.087911 0.000000
Si Si8 0.500000 0.281861 0.750000
O O1 0.344256 0.322287 0.455339
O O2 0.289197 0.413103 0.369301
O O3 0.498277 0.220925 0.385117
O O4 0.208219 0.166472 0.395960
O O5 0.853354 0.531196 0.205108
O O6 0.639954 0.624509 0.268119
O O7 0.500000 0.500000 0.000000
O O8 0.393161 0.246447 0.000000
O O9 0.243504 0.327240 0.136893
O O10 0.000000 0.500000 0.124878
O O11 0.267375 0.931392 0.640290
O O12 0.429847 0.802667 0.705166
O O13 0.756702 0.052239 0.546371
O O14 0.000000 0.000000 0.599912
O O15 0.500000 0.000000 0.000000
#
# Coordination Sequence:
#
# PCOD8204603 Si02
#       8
#     8   4   4   8   8   8   4   4
#     4  12  23  42  65  92 127 169 221 261 316 387
#     4   9  17  34  60  90 122 162 208 264 320 384
#     4  12  24  40  67  99 124 161 217 270 305 371
#     4  11  22  37  61  95 130 163 206 270 333 384
#     4  11  21  40  66  91 123 170 220 266 318 390
#     4  12  25  42  65  96 134 172 214 274 333 389
#     4  12  21  44  69  95 125 176 225 255 312 395
#     4   9  18  34  63  92 116 157 227 264 306 381
#
# _framework density 20.169758999999999
#
# number of rings (size 3 to 8) (size 9 to 14) (size 15 to 20)
#    0.000    0.833    5.000    3.500    0.000    0.000 
#    0.000    2.083    0.000    1.000    0.000    0.000 
#    0.000    0.000    0.000    0.000    0.000    0.000 
#
# Total GULP energy -595028.475514 kJ/mol
# GULP energy per Si atom -12396.426573 kJ/mol
# Density = 2.012385 g / cm^3
# Si number density = 20.169759 Si / 1000 Ang^3
#
#
#
# Elastic Constant Matrix: (Units=GPa)
#
#
# Indices 1 2 3 4 5 6 
#
# 1 115.4314 20.8116 35.0478 0.0000 0.0000 0.0000
# 2 20.8116 100.1075 39.2614 0.0000 0.0000 0.0000
# 3 35.0478 39.2614 112.5150 0.0000 0.0000 0.0000
# 4 0.0000 0.0000 0.0000 28.5207 0.0000 0.0000
# 5 0.0000 0.0000 0.0000 0.0000 24.6521 0.0000
# 6 0.0000 0.0000 0.0000 0.0000 0.0000 28.6857
#
#
#
# Elastic Compliance Matrix: (Units=1/GPa)
#
#
# Indices 1 2 3 4 5 6 
#
# 1 0.009647 -0.000958 -0.002671 0.000000 0.000000 0.000000
# 2 -0.000958 0.011668 -0.003773 0.000000 0.000000 0.000000
# 3 -0.002671 -0.003773 0.011036 0.000000 0.000000 0.000000
# 4 0.000000 0.000000 0.000000 0.035062 0.000000 0.000000
# 5 0.000000 0.000000 0.000000 0.000000 0.040564 0.000000
# 6 0.000000 0.000000 0.000000 0.000000 0.000000 0.034861
#
#
# Mechanical properties :
#
#
# Convention : Reuss Voigt Hill
#
# Bulk Modulus (GPa) = 56.98799 57.58839 57.28819
# Shear Modulus (GPa) = 30.58269 31.90058 31.24163
#
# Velocity S-wave (km/s) = 3.89815 3.98125 3.93992
# Velocity P-wave (km/s) = 6.96967 7.05320 7.01156
#
# Compressibility (1/GPa) = 0.01754756
#
# Stress axis : x y z
#
# Youngs Moduli (GPa) = 103.66187 85.70281 90.61110
#
# Poissons Ratio (x) = 0.08211 0.24198
# Poissons Ratio (y) = 0.09932 0.34189
# Poissons Ratio (z) = 0.27684 0.32337
#
# Static dielectric constant tensor:
#      x y z
#    x 3.606890 0.000000 0.000000 
#    y 0.000000 3.779930 0.000000 
#    z 0.000000 0.000000 3.756580 
# 
# 
# High freq. dielectric constant tensor:
#      x y z
#    x 1.785890 0.000000 0.000000 
#    y 0.000000 1.787330 0.000000 
#    z 0.000000 0.000000 1.793000 
# 
# From -- ./inp_files/26356.got.cif
#   From: 2010.03.12/outbox.cif.g09.slc.cpg/sg49_14_cif.got.tgz:26356.got - 2010.04.14 03:58:27.
