data_PCOD8204690
_publ_section_title
;
Structure prediction by ZEFSAII (Michael W. Deem and Ramdas Pophale) SiO2 
 PCOD8204690
Probable space group: P C C M
;
_chemical_formula_sum "Si O2"
_cell_formula_units_Z 34
_cell_length_a 7.414446
_cell_length_b 9.360872
_cell_length_c 20.326765
_cell_angle_alpha 90.000000
_cell_angle_beta 90.000000
_cell_angle_gamma 90.000000
_cell_volume 1410.792946
_symmetry_space_group_name_H-M "P C C M"
_symmetry_group_IT_number 49
_symmetry_cell_setting 'orthorhombic'
loop_
_space_group_symop_operation_xyz
x,y,z
-x,-y,z
x,-y,1/2-z
-x,y,1/2-z
-x,-y,-z
x,y,-z
-x,y,1/2+z
x,-y,1/2+z
loop_
_atom_site_type_symbol
_atom_site_label
_atom_site_fract_x
_atom_site_fract_y
_atom_site_fract_z
Si Si1 0.666430 0.309388 0.377493
Si Si2 0.256246 0.382328 0.377937
Si Si3 0.250025 0.119766 0.000000
Si Si4 0.802868 0.800899 0.260369
Si Si5 0.838665 0.189854 0.000000
Si Si6 0.500000 0.000000 0.750000
O O1 0.467428 0.366273 0.369685
O O2 0.790820 0.450346 0.391491
O O3 0.670655 0.195169 0.435749
O O4 0.726334 0.237415 0.310490
O O5 0.166507 0.332760 0.309048
O O6 0.184851 0.285570 0.436238
O O7 0.037847 0.132106 0.000000
O O8 0.295589 0.948835 0.000000
O O9 0.646268 0.904957 0.292250
O O10 0.000000 0.873505 0.250000
#
# Coordination Sequence:
#
# PCOD8204690 Si02
#       6
#     8   8   4   8   4   2
#     4  11  24  45  70 100 138 183 232 289 351 413
#     4  11  24  45  70 100 138 183 232 289 351 413
#     4  11  26  43  64  98 138 181 236 291 348 416
#     4  12  26  44  74 105 138 185 235 282 347 415
#     4  11  26  43  64  98 138 181 236 291 348 416
#     4  12  26  48  66 104 152 184 216 298 344 418
#
# _framework density 24.099921999999999
#
# number of rings (size 3 to 8) (size 9 to 14) (size 15 to 20)
#    0.000    0.706    2.353    3.882    3.294   11.294 
#    0.000    0.000    0.000    0.000    0.000    0.000 
#    0.000    0.000    0.000    0.000    0.000    0.000 
#
# Total GULP energy -421372.460267 kJ/mol
# GULP energy per Si atom -12393.307655 kJ/mol
# Density = 2.404507 g / cm^3
# Si number density = 24.099922 Si / 1000 Ang^3
#
#
#
# Elastic Constant Matrix: (Units=GPa)
#
#
# Indices 1 2 3 4 5 6 
#
# 1 85.5734 2.2976 -6.4954 0.0000 0.0000 0.0000
# 2 2.2976 140.1582 49.4951 0.0000 0.0000 0.0000
# 3 -6.4954 49.4951 170.4327 0.0000 0.0000 0.0000
# 4 0.0000 0.0000 0.0000 29.1731 0.0000 0.0000
# 5 0.0000 0.0000 0.0000 0.0000 41.6609 0.0000
# 6 0.0000 0.0000 0.0000 0.0000 0.0000 28.8941
#
#
#
# Elastic Compliance Matrix: (Units=1/GPa)
#
#
# Indices 1 2 3 4 5 6 
#
# 1 0.011739 -0.000390 0.000561 0.000000 0.000000 0.000000
# 2 -0.000390 0.007963 -0.002327 0.000000 0.000000 0.000000
# 3 0.000561 -0.002327 0.006565 0.000000 0.000000 0.000000
# 4 0.000000 0.000000 0.000000 0.034278 0.000000 0.000000
# 5 0.000000 0.000000 0.000000 0.000000 0.024003 0.000000
# 6 0.000000 0.000000 0.000000 0.000000 0.000000 0.034609
#
#
# Mechanical properties :
#
#
# Convention : Reuss Voigt Hill
#
# Bulk Modulus (GPa) = 45.55292 54.08432 49.81862
# Shear Modulus (GPa) = 38.22948 43.33675 40.78312
#
# Velocity S-wave (km/s) = 3.98715 4.24513 4.11816
# Velocity P-wave (km/s) = 6.33555 6.82046 6.58247
#
# Compressibility (1/GPa) = 0.02195249
#
# Stress axis : x y z
#
# Youngs Moduli (GPa) = 85.18664 125.57926 152.32998
#
# Poissons Ratio (x) = 0.04903 -0.08542
# Poissons Ratio (y) = 0.03326 0.35454
# Poissons Ratio (z) = -0.04777 0.29228
#
# Static dielectric constant tensor:
#      x y z
#    x 4.295030 0.000000 0.000000 
#    y 0.000000 5.539110 0.000000 
#    z 0.000000 0.000000 4.138080 
# 
# 
# High freq. dielectric constant tensor:
#      x y z
#    x 1.973380 0.000000 0.000000 
#    y 0.000000 1.976040 0.000000 
#    z 0.000000 0.000000 1.941280 
# 
# From -- ./inp_files/19477.got.cif
#   From: 2010.03.12/outbox.cif.g09.slc.cpg/sg49_10_cif.got.tgz:19477.got - 2010.04.14 03:58:27.
