data_PCOD8204750
_publ_section_title
;
Structure prediction by ZEFSAII (Michael W. Deem and Ramdas Pophale) SiO2 
 PCOD8204750
Probable space group: P B A N
;
_chemical_formula_sum "Si O2"
_cell_formula_units_Z 40
_cell_length_a 8.879017
_cell_length_b 14.480779
_cell_length_c 11.854507
_cell_angle_alpha 90.000000
_cell_angle_beta 90.000000
_cell_angle_gamma 90.000000
_cell_volume 1524.194220
_symmetry_space_group_name_H-M "P B A N"
_symmetry_group_IT_number 50
_space_group.IT_coordinate_system_code '2'
_symmetry_cell_setting 'orthorhombic'
loop_
_space_group_symop_operation_xyz
x,y,z
1/2-x,1/2-y,z
x,1/2-y,-z
1/2-x,y,-z
-x,-y,-z
1/2+x,1/2+y,-z
-x,1/2+y,z
1/2+x,-y,z
loop_
_atom_site_type_symbol
_atom_site_label
_atom_site_fract_x
_atom_site_fract_y
_atom_site_fract_z
Si Si1 0.468535 0.050647 0.770396
Si Si2 0.295368 0.020475 0.380655
Si Si3 0.585110 0.413179 0.946939
Si Si4 0.916894 0.709718 0.609616
Si Si5 0.071374 0.258847 0.854648
O O1 0.343305 0.075616 0.677265
O O2 0.476848 0.131861 0.868503
O O3 0.630061 0.050135 0.708071
O O4 0.415843 0.950628 0.817867
O O5 0.250000 0.972996 0.500000
O O6 0.419049 0.099172 0.406249
O O7 0.500672 0.312754 0.945775
O O8 0.750000 0.400761 0.000000
O O9 0.500000 0.500000 0.000000
O O10 0.750000 0.750000 0.608046
O O11 0.006214 0.750000 0.500000
O O12 0.991204 0.735416 0.729693
O O13 0.250000 0.250000 0.867617
#
# Coordination Sequence:
#
# PCOD8204750 Si02
#       5
#     8   8   8   8   8
#     4  12  24  44  73 106 148 197 252 317 389 465
#     4  12  22  39  68 112 152 196 248 312 379 472
#     4  12  27  49  77 112 151 201 268 332 397 470
#     4  10  16  33  67 103 140 192 255 288 367 459
#     4  11  21  44  74 105 148 201 258 323 391 471
#
# _framework density 26.243372999999998
#
# number of rings (size 3 to 8) (size 9 to 14) (size 15 to 20)
#    0.000    0.600    8.000    3.000    0.000    0.800 
#    0.000    9.000    0.000    1.200    0.000    0.000 
#    0.000    0.000    0.000    0.000    0.000    0.000 
#
# Total GULP energy -495683.671058 kJ/mol
# GULP energy per Si atom -12392.091776 kJ/mol
# Density = 2.618364 g / cm^3
# Si number density = 26.243373 Si / 1000 Ang^3
#
#
#
# Elastic Constant Matrix: (Units=GPa)
#
#
# Indices 1 2 3 4 5 6 
#
# 1 128.6937 60.5147 46.1684 0.0000 0.0000 0.0000
# 2 60.5147 177.5304 61.0666 0.0000 0.0000 0.0000
# 3 46.1684 61.0666 130.7206 0.0000 0.0000 0.0000
# 4 0.0000 0.0000 0.0000 34.4254 0.0000 0.0000
# 5 0.0000 0.0000 0.0000 0.0000 32.3029 0.0000
# 6 0.0000 0.0000 0.0000 0.0000 0.0000 22.7082
#
#
#
# Elastic Compliance Matrix: (Units=1/GPa)
#
#
# Indices 1 2 3 4 5 6 
#
# 1 0.009784 -0.002557 -0.002261 0.000000 0.000000 0.000000
# 2 -0.002557 0.007380 -0.002544 0.000000 0.000000 0.000000
# 3 -0.002261 -0.002544 0.009637 0.000000 0.000000 0.000000
# 4 0.000000 0.000000 0.000000 0.029048 0.000000 0.000000
# 5 0.000000 0.000000 0.000000 0.000000 0.030957 0.000000
# 6 0.000000 0.000000 0.000000 0.000000 0.000000 0.044037
#
#
# Mechanical properties :
#
#
# Convention : Reuss Voigt Hill
#
# Bulk Modulus (GPa) = 82.81079 85.82712 84.31896
# Shear Modulus (GPa) = 33.42400 35.83364 34.62882
#
# Velocity S-wave (km/s) = 3.57265 3.69919 3.63647
# Velocity P-wave (km/s) = 6.97437 7.14287 7.05913
#
# Compressibility (1/GPa) = 0.01207572
#
# Stress axis : x y z
#
# Youngs Moduli (GPa) = 102.20764 135.50619 103.76715
#
# Poissons Ratio (x) = 0.34654 0.23460
# Poissons Ratio (y) = 0.26138 0.26401
# Poissons Ratio (z) = 0.23108 0.34476
#
# Static dielectric constant tensor:
#      x y z
#    x 4.076200 0.000000 0.000000 
#    y 0.000000 6.225920 0.000000 
#    z 0.000000 0.000000 5.658120 
# 
# 
# High freq. dielectric constant tensor:
#      x y z
#    x 1.992670 0.000000 0.000000 
#    y 0.000000 2.061270 0.000000 
#    z 0.000000 0.000000 2.101490 
# 
# From -- ./inp_files/24655.got.cif
#   From: 2010.03.12/outbox.cif.g09.slc.cpg/sg50_13_cif.got.tgz:24655.got - 2010.04.16 13:23:21.
