data_PCOD8204066
_publ_section_title
;
Structure prediction by ZEFSAII (Michael W. Deem and Ramdas Pophale) SiO2 
 PCOD8204066
Probable space group: P C C M
;
_chemical_formula_sum "Si O2"
_cell_formula_units_Z 18
_cell_length_a 11.766708
_cell_length_b 7.071878
_cell_length_c 9.454572
_cell_angle_alpha 90.000000
_cell_angle_beta 90.000000
_cell_angle_gamma 90.000000
_cell_volume 786.740685
_symmetry_space_group_name_H-M "P C C M"
_symmetry_group_IT_number 49
_symmetry_cell_setting 'orthorhombic'
loop_
_space_group_symop_operation_xyz
x,y,z
-x,-y,z
x,-y,1/2-z
-x,y,1/2-z
-x,-y,-z
x,y,-z
-x,y,1/2+z
x,-y,1/2+z
loop_
_atom_site_type_symbol
_atom_site_label
_atom_site_fract_x
_atom_site_fract_y
_atom_site_fract_z
Si Si1 0.648975 0.334137 0.844163
Si Si2 0.500000 0.000000 0.250000
Si Si3 0.895126 0.802407 0.669484
O O1 0.594313 0.500000 0.750000
O O2 0.580635 0.136437 0.841507
O O3 0.779350 0.307135 0.798976
O O4 0.642419 0.416708 0.000000
O O5 0.916166 0.826048 0.500000
O O6 0.000000 0.695522 0.750000
O O7 0.883702 0.000000 0.750000
#
# Coordination Sequence:
#
# PCOD8204066 Si02
#       3
#     8   2   8
#     4  11  26  44  68  99 132 172 219 270 327 389
#     4  12  24  48  70  92 130 172 226 272 330 378
#     4  10  20  38  64  97 130 170 213 262 324 386
#
# _framework density 22.879204999999999
#
# number of rings (size 3 to 8) (size 9 to 14) (size 15 to 20)
#    0.000    1.333    2.222    4.000    0.000    9.778 
#    0.000    4.444    0.000    0.000    0.000    0.000 
#    0.000    0.000    0.000    0.000    0.000    0.000 
#
# Total GULP energy -223016.735716 kJ/mol
# GULP energy per Si atom -12389.818651 kJ/mol
# Density = 2.282713 g / cm^3
# Si number density = 22.879205 Si / 1000 Ang^3
#
#
#
# Elastic Constant Matrix: (Units=GPa)
#
#
# Indices 1 2 3 4 5 6 
#
# 1 151.3545 47.7429 63.8028 0.0000 0.0000 0.0000
# 2 47.7429 121.7944 55.7524 0.0000 0.0000 0.0000
# 3 63.8028 55.7524 144.5266 0.0000 0.0000 0.0000
# 4 0.0000 0.0000 0.0000 24.4848 0.0000 0.0000
# 5 0.0000 0.0000 0.0000 0.0000 30.5599 0.0000
# 6 0.0000 0.0000 0.0000 0.0000 0.0000 3.7217
#
#
#
# Elastic Compliance Matrix: (Units=1/GPa)
#
#
# Indices 1 2 3 4 5 6 
#
# 1 0.008485 -0.001957 -0.002991 0.000000 0.000000 0.000000
# 2 -0.001957 0.010423 -0.003157 0.000000 0.000000 0.000000
# 3 -0.002991 -0.003157 0.009457 0.000000 0.000000 0.000000
# 4 0.000000 0.000000 0.000000 0.040842 0.000000 0.000000
# 5 0.000000 0.000000 0.000000 0.000000 0.032723 0.000000
# 6 0.000000 0.000000 0.000000 0.000000 0.000000 0.268698
#
#
# Mechanical properties :
#
#
# Convention : Reuss Voigt Hill
#
# Bulk Modulus (GPa) = 82.26522 83.58572 82.92547
# Shear Modulus (GPa) = 12.79138 28.44512 20.61825
#
# Velocity S-wave (km/s) = 2.36706 3.52983 3.00522
# Velocity P-wave (km/s) = 6.59583 7.29560 6.95452
#
# Compressibility (1/GPa) = 0.01215581
#
# Stress axis : x y z
#
# Youngs Moduli (GPa) = 117.85326 95.94440 105.73913
#
# Poissons Ratio (x) = 0.18776 0.31626
# Poissons Ratio (y) = 0.23064 0.33379
# Poissons Ratio (z) = 0.35249 0.30287
#
# Static dielectric constant tensor:
#      x y z
#    x 5.244100 0.000000 0.000000 
#    y 0.000000 3.755820 0.000000 
#    z 0.000000 0.000000 4.038650 
# 
# 
# High freq. dielectric constant tensor:
#      x y z
#    x 1.936640 0.000000 0.000000 
#    y 0.000000 1.890460 0.000000 
#    z 0.000000 0.000000 1.901140 
# 
# From -- ./inp_files/942.got.cif
#   From: 2010.03.12/outbox.cif.g09.slc.cpg/sg49_1_cif.got.tgz:942.got - 2010.04.14 03:58:27.
