data_PCOD8204867
_publ_section_title
;
Structure prediction by ZEFSAII (Michael W. Deem and Ramdas Pophale) SiO2 
 PCOD8204867
Probable space group: P B A N
;
_chemical_formula_sum "Si O2"
_cell_formula_units_Z 64
_cell_length_a 24.443730
_cell_length_b 9.193792
_cell_length_c 16.506475
_cell_angle_alpha 90.000000
_cell_angle_beta 90.000000
_cell_angle_gamma 90.000000
_cell_volume 3709.509524
_symmetry_space_group_name_H-M "P B A N"
_symmetry_group_IT_number 50
_space_group.IT_coordinate_system_code '2'
_symmetry_cell_setting 'orthorhombic'
loop_
_space_group_symop_operation_xyz
x,y,z
1/2-x,1/2-y,z
x,1/2-y,-z
1/2-x,y,-z
-x,-y,-z
1/2+x,1/2+y,-z
-x,1/2+y,z
1/2+x,-y,z
loop_
_atom_site_type_symbol
_atom_site_label
_atom_site_fract_x
_atom_site_fract_y
_atom_site_fract_z
Si Si1 0.038687 0.776715 0.245169
Si Si2 0.457179 0.840468 0.574795
Si Si3 0.314251 0.753498 0.095051
Si Si4 0.892009 0.012949 0.854420
Si Si5 0.591974 0.747297 0.745790
Si Si6 0.070265 0.178275 0.426018
Si Si7 0.054961 0.415870 0.011949
Si Si8 0.392102 0.975989 0.171184
O O1 0.064708 0.801557 0.335107
O O2 0.055581 0.910508 0.187490
O O3 0.064195 0.631748 0.209483
O O4 0.973512 0.759957 0.242747
O O5 0.428452 0.750000 0.500000
O O6 0.520187 0.793312 0.577762
O O7 0.450194 0.013107 0.559334
O O8 0.250000 0.750000 0.107954
O O9 0.339426 0.617749 0.144019
O O10 0.337876 0.898726 0.137126
O O11 0.330102 0.750000 0.000000
O O12 0.879465 0.866614 0.805810
O O13 0.901926 0.973861 0.947256
O O14 0.605328 0.690959 0.655545
O O15 0.621559 0.902303 0.761015
O O16 0.105540 0.250000 0.500000
O O17 0.078938 0.435639 0.100259
O O18 0.040057 0.250000 0.000000
O O19 0.000000 0.500000 0.000000
#
# Coordination Sequence:
#
# PCOD8204867 Si02
#       8
#     8   8   8   8   8   8   8   8
#     4  10  21  32  48  74 110 151 180 209 260 307
#     4  10  19  30  45  67 102 148 195 221 247 296
#     4  10  22  42  61  75  98 133 179 230 283 322
#     4  11  21  36  50  75 105 138 178 220 259 317
#     4  11  20  33  50  75 113 143 176 219 258 307
#     4  10  20  30  46  69 104 150 189 218 254 299
#     4  12  24  33  48  75 113 148 178 210 246 304
#     4  11  23  34  52  77 103 142 181 217 266 312
#
# _framework density 17.252953999999999
#
# number of rings (size 3 to 8) (size 9 to 14) (size 15 to 20)
#    0.000    1.375    3.750    3.750   10.500    0.000 
#    0.000    0.625    0.000    2.250    0.000    0.000 
#    0.000   19.000    0.000    0.000    0.000    0.000 
#
# Total GULP energy -793214.712330 kJ/mol
# GULP energy per Si atom -12393.979880 kJ/mol
# Density = 1.721369 g / cm^3
# Si number density = 17.252954 Si / 1000 Ang^3
#
#
#
# Elastic Constant Matrix: (Units=GPa)
#
#
# Indices 1 2 3 4 5 6 
#
# 1 53.3591 29.0579 18.7525 0.0000 0.0000 0.0000
# 2 29.0579 136.1987 45.0334 0.0000 0.0000 0.0000
# 3 18.7525 45.0334 103.7131 0.0000 0.0000 0.0000
# 4 0.0000 0.0000 0.0000 32.3939 0.0000 0.0000
# 5 0.0000 0.0000 0.0000 0.0000 8.2872 0.0000
# 6 0.0000 0.0000 0.0000 0.0000 0.0000 10.6157
#
#
#
# Elastic Compliance Matrix: (Units=1/GPa)
#
#
# Indices 1 2 3 4 5 6 
#
# 1 0.021637 -0.003880 -0.002228 0.000000 0.000000 0.000000
# 2 -0.003880 0.009269 -0.003323 0.000000 0.000000 0.000000
# 3 -0.002228 -0.003323 0.011488 0.000000 0.000000 0.000000
# 4 0.000000 0.000000 0.000000 0.030870 0.000000 0.000000
# 5 0.000000 0.000000 0.000000 0.000000 0.120668 0.000000
# 6 0.000000 0.000000 0.000000 0.000000 0.000000 0.094200
#
#
# Mechanical properties :
#
#
# Convention : Reuss Voigt Hill
#
# Bulk Modulus (GPa) = 42.49466 53.21761 47.85613
# Shear Modulus (GPa) = 15.88132 23.62118 19.75125
#
# Velocity S-wave (km/s) = 3.03726 3.70416 3.38717
# Velocity P-wave (km/s) = 6.08143 7.01476 6.56470
#
# Compressibility (1/GPa) = 0.02353237
#
# Stress axis : x y z
#
# Youngs Moduli (GPa) = 46.21817 107.89012 87.04976
#
# Poissons Ratio (x) = 0.41857 0.19391
# Poissons Ratio (y) = 0.17931 0.28927
# Poissons Ratio (z) = 0.10295 0.35853
#
# Static dielectric constant tensor:
#      x y z
#    x 2.578870 0.000000 0.000000 
#    y 0.000000 3.313520 0.000000 
#    z 0.000000 0.000000 4.019520 
# 
# 
# High freq. dielectric constant tensor:
#      x y z
#    x 1.585820 0.000000 0.000000 
#    y 0.000000 1.690540 0.000000 
#    z 0.000000 0.000000 1.690210 
# 
# From -- ./inp_files/29974.got.cif
#   From: 2010.03.12/outbox.cif.g09.slc.cpg/sg50_15_cif.got.tgz:29974.got - 2010.04.16 13:23:21.
