data_PCOD8204230
_publ_section_title
;
Structure prediction by ZEFSAII (Michael W. Deem and Ramdas Pophale) SiO2 
 PCOD8204230
Probable space group: P C C M
;
_chemical_formula_sum "Si O2"
_cell_formula_units_Z 40
_cell_length_a 9.313473
_cell_length_b 26.180986
_cell_length_c 8.729456
_cell_angle_alpha 90.000000
_cell_angle_beta 90.000000
_cell_angle_gamma 90.000000
_cell_volume 2128.554815
_symmetry_space_group_name_H-M "P C C M"
_symmetry_group_IT_number 49
_symmetry_cell_setting 'orthorhombic'
loop_
_space_group_symop_operation_xyz
x,y,z
-x,-y,z
x,-y,1/2-z
-x,y,1/2-z
-x,-y,-z
x,y,-z
-x,y,1/2+z
x,-y,1/2+z
loop_
_atom_site_type_symbol
_atom_site_label
_atom_site_fract_x
_atom_site_fract_y
_atom_site_fract_z
Si Si1 0.848925 0.053251 0.179016
Si Si2 0.843237 0.659669 0.320176
Si Si3 0.158633 0.238862 0.818788
Si Si4 0.157125 0.450870 0.678503
Si Si5 0.656316 0.850822 0.679896
O O1 0.730773 0.095455 0.216761
O O2 0.000000 0.070829 0.250000
O O3 0.795086 0.000000 0.250000
O O4 0.872000 0.045712 0.000000
O O5 0.853289 0.671054 0.500000
O O6 0.766867 0.707754 0.237460
O O7 0.766314 0.604382 0.289183
O O8 0.000000 0.656066 0.250000
O O9 0.256492 0.193352 0.762088
O O10 0.000000 0.232787 0.750000
O O11 0.148363 0.237980 0.000000
O O12 0.242133 0.500000 0.750000
O O13 0.142339 0.460118 0.500000
O O14 0.000000 0.449321 0.750000
O O15 0.500000 0.853180 0.750000
O O16 0.649809 0.839548 0.500000
#
# Coordination Sequence:
#
# PCOD8204230 Si02
#       5
#     8   8   8   8   8
#     4  10  21  37  60  86 112 142 177 215 256 303
#     4   9  16  26  40  61  89 123 164 209 255 306
#     4  11  21  34  54  77 102 136 176 220 265 313
#     4   9  15  21  32  51  80 118 157 198 247 302
#     4  11  24  40  57  80 109 142 177 217 264 314
#
# _framework density 18.792095
#
# number of rings (size 3 to 8) (size 9 to 14) (size 15 to 20)
#    0.000    2.000    0.000    7.200    0.000    7.600 
#    0.000    2.000    0.000    0.000    0.000    0.000 
#    0.000    0.800    0.000    8.400    0.000    7.600 
#
# Total GULP energy -495671.088484 kJ/mol
# GULP energy per Si atom -12391.777212 kJ/mol
# Density = 1.874932 g / cm^3
# Si number density = 18.792095 Si / 1000 Ang^3
#
#
#
# Elastic Constant Matrix: (Units=GPa)
#
#
# Indices 1 2 3 4 5 6 
#
# 1 69.7663 66.0349 49.2405 0.0000 0.0000 0.0000
# 2 66.0349 180.7722 98.8390 0.0000 0.0000 0.0000
# 3 49.2405 98.8390 157.0994 0.0000 0.0000 0.0000
# 4 0.0000 0.0000 0.0000 26.7520 0.0000 0.0000
# 5 0.0000 0.0000 0.0000 0.0000 19.9444 0.0000
# 6 0.0000 0.0000 0.0000 0.0000 0.0000 -5.9870
#
#
#
# Elastic Compliance Matrix: (Units=1/GPa)
#
#
# Indices 1 2 3 4 5 6 
#
# 1 0.022743 -0.006723 -0.002899 0.000000 0.000000 0.000000
# 2 -0.006723 0.010420 -0.004448 0.000000 0.000000 0.000000
# 3 -0.002899 -0.004448 0.010073 0.000000 0.000000 0.000000
# 4 0.000000 0.000000 0.000000 0.037380 0.000000 0.000000
# 5 0.000000 0.000000 0.000000 0.000000 0.050139 0.000000
# 6 0.000000 0.000000 0.000000 0.000000 0.000000 -0.167028
#
#
# Mechanical properties :
#
#
# Convention : Reuss Voigt Hill
#
# Bulk Modulus (GPa) = 66.24597 92.87407 79.56002
# Shear Modulus (GPa) = -1612.45278 21.04343 -795.70467
#
# Velocity S-wave (km/s) = -29.32424 3.34998 -20.59962
# Velocity P-wave (km/s) = 33.33496 8.03071 22.87714
#
# Compressibility (1/GPa) = 0.01509526
#
# Stress axis : x y z
#
# Youngs Moduli (GPa) = 43.97000 95.97018 99.27820
#
# Poissons Ratio (x) = 0.64520 0.28778
# Poissons Ratio (y) = 0.29561 0.44164
# Poissons Ratio (z) = 0.12746 0.42692
#
# Static dielectric constant tensor:
#      x y z
#    x 2.929450 0.000000 0.000000 
#    y 0.000000 4.768160 0.000000 
#    z 0.000000 0.000000 3.689480 
# 
# 
# High freq. dielectric constant tensor:
#      x y z
#    x 1.660140 0.000000 0.000000 
#    y 0.000000 1.766440 0.000000 
#    z 0.000000 0.000000 1.752480 
# 
# From -- ./inp_files/1923.got.cif
#   From: 2010.03.12/outbox.cif.g09.slc.cpg/sg49_1_cif.got.tgz:1923.got - 2010.04.14 03:58:27.
