data_PCOD8204258
_publ_section_title
;
Structure prediction by ZEFSAII (Michael W. Deem and Ramdas Pophale) SiO2 
 PCOD8204258
Probable space group: P C C M
;
_chemical_formula_sum "Si O2"
_cell_formula_units_Z 58
_cell_length_a 14.550935
_cell_length_b 25.223363
_cell_length_c 8.839889
_cell_angle_alpha 90.000000
_cell_angle_beta 90.000000
_cell_angle_gamma 90.000000
_cell_volume 3244.447137
_symmetry_space_group_name_H-M "P C C M"
_symmetry_group_IT_number 49
_symmetry_cell_setting 'orthorhombic'
loop_
_space_group_symop_operation_xyz
x,y,z
-x,-y,z
x,-y,1/2-z
-x,y,1/2-z
-x,-y,-z
x,y,-z
-x,y,1/2+z
x,-y,1/2+z
loop_
_atom_site_type_symbol
_atom_site_label
_atom_site_fract_x
_atom_site_fract_y
_atom_site_fract_z
Si Si1 0.900775 0.550080 0.175855
Si Si2 0.172058 0.946339 0.179046
Si Si3 0.099485 0.667167 0.676758
Si Si4 0.593086 0.195021 0.820186
Si Si5 0.500000 0.000000 0.250000
Si Si6 0.358960 0.915474 0.330800
Si Si7 0.911426 0.847093 0.173387
Si Si8 0.235018 0.757207 0.673824
O O1 0.844986 0.500000 0.250000
O O2 0.858195 0.608274 0.207708
O O3 0.000000 0.551205 0.250000
O O4 0.909401 0.538855 0.000000
O O5 0.275234 0.938168 0.235903
O O6 0.105342 0.900117 0.232687
O O7 0.132041 0.000000 0.250000
O O8 0.173089 0.950146 0.000000
O O9 0.084296 0.677417 0.500000
O O10 0.174733 0.708462 0.739787
O O11 0.000000 0.675999 0.750000
O O12 0.500000 0.219393 0.750000
O O13 0.604406 0.136558 0.752156
O O14 0.674646 0.235134 0.774719
O O15 0.586481 0.190928 0.000000
O O16 0.436388 0.960873 0.348948
O O17 0.326295 0.899694 0.500000
O O18 0.823144 0.810486 0.188994
O O19 0.000000 0.818945 0.250000
O O20 0.932603 0.860358 0.000000
O O21 0.263079 0.746527 0.500000
#
# Coordination Sequence:
#
# PCOD8204258 Si02
#       8
#     8   8   8   8   2   8   8   8
#     4   9  15  24  40  65 101 144 190 229 271 313
#     4  12  25  41  60  80 105 133 168 208 258 314
#     4   9  18  31  49  76 109 149 190 232 272 316
#     4  12  25  40  60  82 107 138 174 213 262 320
#     4  12  26  36  64  86 112 132 166 204 260 320
#     4  12  24  39  58  82 109 134 165 205 256 315
#     4  11  23  39  60  82 107 137 174 216 264 316
#     4  10  21  38  58  79 109 143 178 222 270 316
#
# _framework density 17.876697
#
# number of rings (size 3 to 8) (size 9 to 14) (size 15 to 20)
#    0.000    1.241    2.759    4.759    0.000    3.034 
#    0.000    1.379    0.000    0.000    0.000    0.000 
#    0.000    0.552    0.000    6.345    0.000    1.931 
#
# Total GULP energy -719066.036322 kJ/mol
# GULP energy per Si atom -12397.690281 kJ/mol
# Density = 1.783601 g / cm^3
# Si number density = 17.876697 Si / 1000 Ang^3
#
#
#
# Elastic Constant Matrix: (Units=GPa)
#
#
# Indices 1 2 3 4 5 6 
#
# 1 79.0969 37.3188 40.2673 0.0000 0.0000 0.0000
# 2 37.3188 114.3529 47.4240 0.0000 0.0000 0.0000
# 3 40.2673 47.4240 137.9343 0.0000 0.0000 0.0000
# 4 0.0000 0.0000 0.0000 47.5903 0.0000 0.0000
# 5 0.0000 0.0000 0.0000 0.0000 24.5595 0.0000
# 6 0.0000 0.0000 0.0000 0.0000 0.0000 10.0466
#
#
#
# Elastic Compliance Matrix: (Units=1/GPa)
#
#
# Indices 1 2 3 4 5 6 
#
# 1 0.016202 -0.003879 -0.003396 0.000000 0.000000 0.000000
# 2 -0.003879 0.011128 -0.002694 0.000000 0.000000 0.000000
# 3 -0.003396 -0.002694 0.009167 0.000000 0.000000 0.000000
# 4 0.000000 0.000000 0.000000 0.021013 0.000000 0.000000
# 5 0.000000 0.000000 0.000000 0.000000 0.040718 0.000000
# 6 0.000000 0.000000 0.000000 0.000000 0.000000 0.099536
#
#
# Mechanical properties :
#
#
# Convention : Reuss Voigt Hill
#
# Bulk Modulus (GPa) = 60.38775 64.60047 62.49411
# Shear Modulus (GPa) = 22.39935 30.19754 26.29844
#
# Velocity S-wave (km/s) = 3.54360 4.11446 3.83966
# Velocity P-wave (km/s) = 7.11311 7.66726 7.39538
#
# Compressibility (1/GPa) = 0.01655965
#
# Stress axis : x y z
#
# Youngs Moduli (GPa) = 61.72145 89.86493 109.08284
#
# Poissons Ratio (x) = 0.34859 0.37046
# Poissons Ratio (y) = 0.23942 0.29382
# Poissons Ratio (z) = 0.20962 0.24205
#
# Static dielectric constant tensor:
#      x y z
#    x 3.253870 0.000000 0.000000 
#    y 0.000000 4.051010 0.000000 
#    z 0.000000 0.000000 3.382060 
# 
# 
# High freq. dielectric constant tensor:
#      x y z
#    x 1.668430 0.000000 0.000000 
#    y 0.000000 1.683230 0.000000 
#    z 0.000000 0.000000 1.703460 
# 
# From -- ./inp_files/4232.got.cif
#   From: 2010.03.12/outbox.cif.g09.slc.cpg/sg49_3_cif.got.tgz:4232.got - 2010.04.14 03:58:27.
