data_PCOD8204076
_publ_section_title
;
Structure prediction by ZEFSAII (Michael W. Deem and Ramdas Pophale) SiO2 
 PCOD8204076
Probable space group: P C C M
;
_chemical_formula_sum "Si O2"
_cell_formula_units_Z 34
_cell_length_a 5.386309
_cell_length_b 11.330078
_cell_length_c 27.935184
_cell_angle_alpha 90.000000
_cell_angle_beta 90.000000
_cell_angle_gamma 90.000000
_cell_volume 1704.808885
_symmetry_space_group_name_H-M "P C C M"
_symmetry_group_IT_number 49
_symmetry_cell_setting 'orthorhombic'
loop_
_space_group_symop_operation_xyz
x,y,z
-x,-y,z
x,-y,1/2-z
-x,y,1/2-z
-x,-y,-z
x,y,-z
-x,y,1/2+z
x,-y,1/2+z
loop_
_atom_site_type_symbol
_atom_site_label
_atom_site_fract_x
_atom_site_fract_y
_atom_site_fract_z
Si Si1 0.003898 0.359476 0.554755
Si Si2 0.495266 0.635994 0.601983
Si Si3 0.000000 0.500000 0.250000
Si Si4 0.340807 0.312601 0.703496
Si Si5 0.246050 0.048478 0.303824
O O1 0.007655 0.317788 0.500000
O O2 0.754739 0.306836 0.579688
O O3 0.000000 0.500000 0.559267
O O4 0.250591 0.307140 0.580674
O O5 0.500000 0.500000 0.587407
O O6 0.485177 0.652278 0.659144
O O7 0.153012 0.419262 0.286653
O O8 0.500000 0.291410 0.750000
O O9 0.209234 0.188853 0.693150
O O10 0.500000 0.000000 0.328935
O O11 0.248125 0.000000 0.250000
O O12 0.000000 0.000000 0.330612
#
# Coordination Sequence:
#
# PCOD8204076 Si02
#       5
#     8   8   2   8   8
#     4   9  18  34  54  75 106 150 193 239 285 335
#     4  10  21  33  52  80 116 149 195 230 282 353
#     4  12  26  36  54  78 126 172 194 214 294 364
#     4  12  25  38  56  83 123 164 199 233 291 352
#     4  10  20  39  59  77 101 152 199 255 281 312
#
# _framework density 19.943584000000001
#
# number of rings (size 3 to 8) (size 9 to 14) (size 15 to 20)
#    0.000    1.647    2.353    3.882    8.235    2.824 
#    0.000    0.000    0.000    0.000    0.000    0.000 
#    0.000   18.824    0.000    0.000    0.000    0.000 
#
# Total GULP energy -421434.198296 kJ/mol
# GULP energy per Si atom -12395.123479 kJ/mol
# Density = 1.989819 g / cm^3
# Si number density = 19.943584 Si / 1000 Ang^3
#
#
#
# Elastic Constant Matrix: (Units=GPa)
#
#
# Indices 1 2 3 4 5 6 
#
# 1 196.9763 39.3945 60.2989 0.0000 0.0000 0.0000
# 2 39.3945 95.9669 0.1994 0.0000 0.0000 0.0000
# 3 60.2989 0.1994 111.9357 0.0000 0.0000 0.0000
# 4 0.0000 0.0000 0.0000 -7.1413 0.0000 0.0000
# 5 0.0000 0.0000 0.0000 0.0000 -56.9131 0.0000
# 6 0.0000 0.0000 0.0000 0.0000 0.0000 18.6972
#
#
#
# Elastic Compliance Matrix: (Units=1/GPa)
#
#
# Indices 1 2 3 4 5 6 
#
# 1 0.006738 -0.002758 -0.003625 0.000000 0.000000 0.000000
# 2 -0.002758 0.011550 0.001465 0.000000 0.000000 0.000000
# 3 -0.003625 0.001465 0.010884 0.000000 0.000000 0.000000
# 4 0.000000 0.000000 0.000000 -0.140030 0.000000 0.000000
# 5 0.000000 0.000000 0.000000 0.000000 -0.017571 0.000000
# 6 0.000000 0.000000 0.000000 0.000000 0.000000 0.053484
#
#
# Mechanical properties :
#
#
# Convention : Reuss Voigt Hill
#
# Bulk Modulus (GPa) = 51.71810 67.18493 59.45152
# Shear Modulus (GPa) = -85.23089 11.26095 -36.98497
#
# Velocity S-wave (km/s) = -6.54437 2.37879 -4.31104
# Velocity P-wave (km/s) = 5.57822 6.42694 2.25710
#
# Compressibility (1/GPa) = 0.01933559
#
# Stress axis : x y z
#
# Youngs Moduli (GPa) = 148.41027 86.58336 91.88000
#
# Poissons Ratio (x) = 0.23884 0.33305
# Poissons Ratio (y) = 0.40938 -0.13464
# Poissons Ratio (z) = 0.53796 -0.12688
#
# Static dielectric constant tensor:
#      x y z
#    x 5.044230 0.000000 0.000000 
#    y 0.000000 3.481500 0.000000 
#    z 0.000000 0.000000 3.370820 
# 
# 
# High freq. dielectric constant tensor:
#      x y z
#    x 1.804520 0.000000 0.000000 
#    y 0.000000 1.730010 0.000000 
#    z 0.000000 0.000000 1.747490 
# 
# From -- ./inp_files/21629.got.cif
#   From: 2010.03.12/outbox.cif.g09.slc.cpg/sg49_11_cif.got.tgz:21629.got - 2010.04.14 03:58:27.
