data_PCOD8204660
_publ_section_title
;
Structure prediction by ZEFSAII (Michael W. Deem and Ramdas Pophale) SiO2 
 PCOD8204660
Probable space group: P C C M
;
_chemical_formula_sum "Si O2"
_cell_formula_units_Z 56
_cell_length_a 10.252046
_cell_length_b 18.383175
_cell_length_c 14.751084
_cell_angle_alpha 90.000000
_cell_angle_beta 90.000000
_cell_angle_gamma 90.000000
_cell_volume 2780.065343
_symmetry_space_group_name_H-M "P C C M"
_symmetry_group_IT_number 49
_symmetry_cell_setting 'orthorhombic'
loop_
_space_group_symop_operation_xyz
x,y,z
-x,-y,z
x,-y,1/2-z
-x,y,1/2-z
-x,-y,-z
x,y,-z
-x,y,1/2+z
x,-y,1/2+z
loop_
_atom_site_type_symbol
_atom_site_label
_atom_site_fract_x
_atom_site_fract_y
_atom_site_fract_z
Si Si1 0.792399 0.415116 0.749998
Si Si2 0.653290 0.274730 0.749995
Si Si3 0.000004 0.584894 0.899067
Si Si4 0.999882 0.916649 0.356785
Si Si5 0.741887 0.171228 0.396923
Si Si6 0.499847 0.079476 0.892484
Si Si7 0.741590 0.171217 0.896906
O O1 0.750377 0.500000 0.750000
O O2 0.666927 0.362475 0.749990
O O3 0.873163 0.394635 0.840463
O O4 0.873174 0.394633 0.659538
O O5 0.500000 0.255230 0.750000
O O6 0.731941 0.243664 0.663178
O O7 0.731959 0.243677 0.836819
O O8 0.000000 0.500000 0.914545
O O9 0.000003 0.622672 0.000000
O O10 0.123585 0.872266 0.391844
O O11 0.000000 0.918534 0.250000
O O12 0.875887 0.872488 0.391760
O O13 0.000000 0.000000 0.394780
O O14 0.715771 0.194977 0.500000
O O15 0.629361 0.119181 0.357877
O O16 0.628779 0.119400 0.857777
O O17 0.500000 0.000000 0.848252
O O18 0.500034 0.074534 0.000000
O O19 0.715621 0.194959 0.000000
#
# Coordination Sequence:
#
# PCOD8204660 Si02
#       7
#     8   8   8   8   8   8   8
#     4   9  20  37  61  92 123 157 202 250 302 371
#     4  12  25  42  61  85 121 162 208 261 311 366
#     4   8  15  33  61  91 121 149 184 239 300 358
#     4  11  23  39  62  94 129 161 201 256 311 364
#     4  11  23  41  62  86 120 163 205 248 309 370
#     4   9  18  35  61  87 110 148 204 248 288 357
#     4  11  23  41  62  86 120 163 205 248 309 370
#
# _framework density 20.143412000000001
#
# number of rings (size 3 to 8) (size 9 to 14) (size 15 to 20)
#    0.000    1.857    2.857    2.143    0.000    6.000 
#    0.000    0.714    0.000    0.000    0.000    6.000 
#    0.000    0.000    0.000    0.000    0.000    0.000 
#
# Total GULP energy -694119.489278 kJ/mol
# GULP energy per Si atom -12394.990880 kJ/mol
# Density = 2.009756 g / cm^3
# Si number density = 20.143412 Si / 1000 Ang^3
#
#
#
# Elastic Constant Matrix: (Units=GPa)
#
#
# Indices 1 2 3 4 5 6 
#
# 1 127.7722 51.8784 22.1856 0.0000 0.0000 0.0000
# 2 51.8784 124.6172 35.6914 0.0000 0.0000 0.0000
# 3 22.1856 35.6914 131.1999 0.0000 0.0000 0.0000
# 4 0.0000 0.0000 0.0000 6.4716 0.0000 0.0000
# 5 0.0000 0.0000 0.0000 0.0000 -85.7400 0.0000
# 6 0.0000 0.0000 0.0000 0.0000 0.0000 43.2162
#
#
#
# Elastic Compliance Matrix: (Units=1/GPa)
#
#
# Indices 1 2 3 4 5 6 
#
# 1 0.009458 -0.003773 -0.000573 0.000000 0.000000 0.000000
# 2 -0.003773 0.010208 -0.002139 0.000000 0.000000 0.000000
# 3 -0.000573 -0.002139 0.008301 0.000000 0.000000 0.000000
# 4 0.000000 0.000000 0.000000 0.154522 0.000000 0.000000
# 5 0.000000 0.000000 0.000000 0.000000 -0.011663 0.000000
# 6 0.000000 0.000000 0.000000 0.000000 0.000000 0.023139
#
#
# Mechanical properties :
#
#
# Convention : Reuss Voigt Hill
#
# Bulk Modulus (GPa) = 66.68200 67.01110 66.84655
# Shear Modulus (GPa) = 23.59225 11.04514 17.31870
#
# Velocity S-wave (km/s) = 3.42601 2.34418 2.93536
# Velocity P-wave (km/s) = 6.98753 6.37700 6.68923
#
# Compressibility (1/GPa) = 0.01499655
#
# Stress axis : x y z
#
# Youngs Moduli (GPa) = 105.73129 97.96231 120.47191
#
# Poissons Ratio (x) = 0.36964 0.06901
# Poissons Ratio (y) = 0.39896 0.25768
# Poissons Ratio (z) = 0.06057 0.20953
#
# Static dielectric constant tensor:
#      x y z
#    x 3.591980 0.000000 0.000000 
#    y 0.000000 3.524730 0.000000 
#    z 0.000000 0.000000 4.011170 
# 
# 
# High freq. dielectric constant tensor:
#      x y z
#    x 1.778280 0.000000 0.000000 
#    y 0.000000 1.774380 0.000000 
#    z 0.000000 0.000000 1.797460 
# 
# From -- ./inp_files/11985.got.cif
#   From: 2010.03.12/outbox.cif.g09.slc.cpg/sg49_6_cif.got.tgz:11985.got - 2010.04.14 03:58:27.
