data_PCOD8204710
_publ_section_title
;
Structure prediction by ZEFSAII (Michael W. Deem and Ramdas Pophale) SiO2 
 PCOD8204710
Probable space group: P C C M
;
_chemical_formula_sum "Si O2"
_cell_formula_units_Z 56
_cell_length_a 21.000000
_cell_length_b 15.000000
_cell_length_c 9.000000
_cell_angle_alpha 90.000000
_cell_angle_beta 90.000000
_cell_angle_gamma 90.000000
_cell_volume 2835.000000
_symmetry_space_group_name_H-M "P C C M"
_symmetry_group_IT_number 49
_symmetry_cell_setting 'orthorhombic'
loop_
_space_group_symop_operation_xyz
x,y,z
-x,-y,z
x,-y,1/2-z
-x,y,1/2-z
-x,-y,-z
x,y,-z
-x,y,1/2+z
x,-y,1/2+z
loop_
_atom_site_type_symbol
_atom_site_label
_atom_site_fract_x
_atom_site_fract_y
_atom_site_fract_z
Si Si1 0.742117 0.146030 0.328937
Si Si2 0.823586 0.405864 0.681326
Si Si3 0.395773 0.085613 0.834257
Si Si4 0.432113 0.282180 0.179889
Si Si5 0.700043 0.323680 0.179439
Si Si6 0.869182 0.087559 0.174861
Si Si7 0.069307 0.722816 0.176571
O O1 0.755206 0.178020 0.500000
O O2 0.680971 0.081835 0.327623
O O3 0.726729 0.227210 0.219900
O O4 0.802544 0.096470 0.261744
O O5 0.846135 0.500000 0.750000
O O6 0.823284 0.406289 0.500000
O O7 0.751861 0.389782 0.745151
O O8 0.875052 0.333601 0.741530
O O9 0.422490 0.179180 0.770698
O O10 0.424060 0.000000 0.750000
O O11 0.420989 0.076288 0.000000
O O12 0.500000 0.315151 0.250000
O O13 0.371611 0.336753 0.250300
O O14 0.431632 0.294028 0.000000
O O15 0.697668 0.336643 0.000000
O O16 0.914085 0.173075 0.200763
O O17 0.902069 0.000000 0.250000
O O18 0.856764 0.072173 0.000000
O O19 0.000000 0.702952 0.250000
O O20 0.067566 0.699736 0.000000
#
# Coordination Sequence:
#
# PCOD8204710 Si02
#       7
#     8   8   8   8   8   8   8
#     4  10  19  33  54  81 115 157 206 259 318 373
#     4  12  25  44  72 103 134 167 207 260 316 382
#     4   9  19  31  45  70 106 148 199 255 310 369
#     4  10  21  37  55  81 115 159 209 258 315 378
#     4  11  21  37  62  92 125 162 205 255 313 376
#     4  11  23  37  58  87 124 167 218 269 319 377
#     4  11  25  45  67  95 131 173 217 265 321 381
#
# _framework density 19.753086
#
# number of rings (size 3 to 8) (size 9 to 14) (size 15 to 20)
#    0.000    1.429    1.429    5.571    0.000    7.143 
#    0.000    4.286    0.000    0.429    0.000    3.000 
#    0.000    0.000    0.000    0.000    0.000    0.000 
#
# Total GULP energy -694093.044235 kJ/mol
# GULP energy per Si atom -12394.518647 kJ/mol
# Density = 1.970813 g / cm^3
# Si number density = 19.753086 Si / 1000 Ang^3
#
#
#
# Elastic Constant Matrix: (Units=GPa)
#
#
# Indices 1 2 3 4 5 6 
#
# 1 139.8873 29.6629 55.8866 0.0000 0.0000 0.0000
# 2 29.6629 82.3492 38.9513 0.0000 0.0000 0.0000
# 3 55.8866 38.9513 177.3547 0.0000 0.0000 0.0000
# 4 0.0000 0.0000 0.0000 35.4363 0.0000 0.0000
# 5 0.0000 0.0000 0.0000 0.0000 39.9792 0.0000
# 6 0.0000 0.0000 0.0000 0.0000 0.0000 21.3287
#
#
#
# Elastic Compliance Matrix: (Units=1/GPa)
#
#
# Indices 1 2 3 4 5 6 
#
# 1 0.008462 -0.001994 -0.002228 0.000000 0.000000 0.000000
# 2 -0.001994 0.014021 -0.002451 0.000000 0.000000 0.000000
# 3 -0.002228 -0.002451 0.006879 0.000000 0.000000 0.000000
# 4 0.000000 0.000000 0.000000 0.028220 0.000000 0.000000
# 5 0.000000 0.000000 0.000000 0.000000 0.025013 0.000000
# 6 0.000000 0.000000 0.000000 0.000000 0.000000 0.046885
#
#
# Mechanical properties :
#
#
# Convention : Reuss Voigt Hill
#
# Bulk Modulus (GPa) = 62.44228 72.06588 67.25408
# Shear Modulus (GPa) = 33.74625 37.68819 35.71722
#
# Velocity S-wave (km/s) = 4.13777 4.37276 4.25689
# Velocity P-wave (km/s) = 7.38297 7.87765 7.63431
#
# Compressibility (1/GPa) = 0.01601479
#
# Stress axis : x y z
#
# Youngs Moduli (GPa) = 118.17929 71.32173 145.37110
#
# Poissons Ratio (x) = 0.14221 0.32396
# Poissons Ratio (y) = 0.23564 0.35631
# Poissons Ratio (z) = 0.26336 0.17481
#
# Static dielectric constant tensor:
#      x y z
#    x 3.902730 0.000000 0.000000 
#    y 0.000000 3.562790 0.000000 
#    z 0.000000 0.000000 4.003160 
# 
# 
# High freq. dielectric constant tensor:
#      x y z
#    x 1.789570 0.000000 0.000000 
#    y 0.000000 1.760370 0.000000 
#    z 0.000000 0.000000 1.804030 
# 
# From -- ./inp_files/5808.got.cif
#   From: 2010.03.12/outbox.ucp.g09.slc.cvg/sg49_3_cif.got.tgz:5808.got - 2010.05.04 21:28:32.
