data_PCOD8204233
_publ_section_title
;
Structure prediction by ZEFSAII (Michael W. Deem and Ramdas Pophale) SiO2 
 PCOD8204233
Probable space group: P C C M
;
_chemical_formula_sum "Si O2"
_cell_formula_units_Z 48
_cell_length_a 30.036061
_cell_length_b 9.423165
_cell_length_c 8.662106
_cell_angle_alpha 90.000000
_cell_angle_beta 90.000000
_cell_angle_gamma 90.000000
_cell_volume 2451.677082
_symmetry_space_group_name_H-M "P C C M"
_symmetry_group_IT_number 49
_symmetry_cell_setting 'orthorhombic'
loop_
_space_group_symop_operation_xyz
x,y,z
-x,-y,z
x,-y,1/2-z
-x,y,1/2-z
-x,-y,-z
x,y,-z
-x,y,1/2+z
x,-y,1/2+z
loop_
_atom_site_type_symbol
_atom_site_label
_atom_site_fract_x
_atom_site_fract_y
_atom_site_fract_z
Si Si1 0.129308 0.343895 0.818196
Si Si2 0.455241 0.155295 0.317936
Si Si3 0.383061 0.350935 0.179564
Si Si4 0.792579 0.844093 0.317449
Si Si5 0.953038 0.149987 0.319202
Si Si6 0.279559 0.349263 0.820227
O O1 0.127955 0.500000 0.750000
O O2 0.168364 0.256882 0.739385
O O3 0.082763 0.269304 0.777417
O O4 0.138124 0.349722 0.000000
O O5 0.500000 0.229618 0.250000
O O6 0.459040 0.149309 0.500000
O O7 0.410682 0.234026 0.269218
O O8 0.451423 0.000000 0.250000
O O9 0.397370 0.500000 0.250000
O O10 0.331338 0.320349 0.209834
O O11 0.394912 0.348523 0.000000
O O12 0.793254 0.854679 0.500000
O O13 0.745857 0.778881 0.262354
O O14 0.799195 0.000000 0.250000
O O15 0.958576 0.129181 0.500000
O O16 0.000000 0.199926 0.250000
O O17 0.937250 0.000000 0.250000
O O18 0.264602 0.500000 0.750000
O O19 0.267572 0.351440 0.000000
#
# Coordination Sequence:
#
# PCOD8204233 Si02
#       6
#     8   8   8   8   8   8
#     4  11  24  41  61  87 118 155 196 239 290 344
#     4  11  22  38  59  83 114 151 192 238 288 342
#     4  10  21  38  60  87 117 151 191 235 285 340
#     4  12  25  41  62  87 117 152 193 240 288 342
#     4  10  21  37  60  87 117 153 193 238 288 343
#     4  10  21  39  62  87 118 153 190 234 285 342
#
# _framework density 19.578436
#
# number of rings (size 3 to 8) (size 9 to 14) (size 15 to 20)
#    0.000    1.333    0.000    7.000    0.000    7.333 
#    0.000    3.333    0.000    0.000    0.000    0.000 
#    0.000    0.000    0.000    0.000    0.000    0.000 
#
# Total GULP energy -595438.501052 kJ/mol
# GULP energy per Si atom -12404.968772 kJ/mol
# Density = 1.953387 g / cm^3
# Si number density = 19.578436 Si / 1000 Ang^3
#
#
#
# Elastic Constant Matrix: (Units=GPa)
#
#
# Indices 1 2 3 4 5 6 
#
# 1 106.1122 76.0572 69.8112 0.0000 0.0000 0.0000
# 2 76.0572 139.5653 72.2943 0.0000 0.0000 0.0000
# 3 69.8112 72.2943 167.9983 0.0000 0.0000 0.0000
# 4 0.0000 0.0000 0.0000 39.0707 0.0000 0.0000
# 5 0.0000 0.0000 0.0000 0.0000 26.5505 0.0000
# 6 0.0000 0.0000 0.0000 0.0000 0.0000 48.1219
#
#
#
# Elastic Compliance Matrix: (Units=1/GPa)
#
#
# Indices 1 2 3 4 5 6 
#
# 1 0.017368 -0.007369 -0.004046 0.000000 0.000000 0.000000
# 2 -0.007369 0.012347 -0.002251 0.000000 0.000000 0.000000
# 3 -0.004046 -0.002251 0.008602 0.000000 0.000000 0.000000
# 4 0.000000 0.000000 0.000000 0.025595 0.000000 0.000000
# 5 0.000000 0.000000 0.000000 0.000000 0.037664 0.000000
# 6 0.000000 0.000000 0.000000 0.000000 0.000000 0.020781
#
#
# Mechanical properties :
#
#
# Convention : Reuss Voigt Hill
#
# Bulk Modulus (GPa) = 91.03310 94.44459 92.73885
# Shear Modulus (GPa) = 32.60524 35.78282 34.19403
#
# Velocity S-wave (km/s) = 4.08532 4.27976 4.18367
# Velocity P-wave (km/s) = 8.29763 8.53027 8.41475
#
# Compressibility (1/GPa) = 0.01098502
#
# Stress axis : x y z
#
# Youngs Moduli (GPa) = 57.57874 80.99243 116.24539
#
# Poissons Ratio (x) = 0.59681 0.47034
# Poissons Ratio (y) = 0.42428 0.26168
# Poissons Ratio (z) = 0.23297 0.18232
#
# Static dielectric constant tensor:
#      x y z
#    x 3.887640 0.000000 0.000000 
#    y 0.000000 3.609110 0.000000 
#    z 0.000000 0.000000 3.773220 
# 
# 
# High freq. dielectric constant tensor:
#      x y z
#    x 1.776580 0.000000 0.000000 
#    y 0.000000 1.764370 0.000000 
#    z 0.000000 0.000000 1.785010 
# 
# From -- ./inp_files/2074.got.cif
#   From: 2010.03.12/outbox.cif.g09.slc.cpg/sg49_2_cif.got.tgz:2074.got - 2010.04.14 03:58:27.
