data_PCOD8204926
_publ_section_title
;
Structure prediction by ZEFSAII (Michael W. Deem and Ramdas Pophale) SiO2 
 PCOD8204926
Probable space group: P B A N
;
_chemical_formula_sum "Si O2"
_cell_formula_units_Z 40
_cell_length_a 16.715495
_cell_length_b 14.374408
_cell_length_c 9.396259
_cell_angle_alpha 90.000000
_cell_angle_beta 90.000000
_cell_angle_gamma 90.000000
_cell_volume 2257.689373
_symmetry_space_group_name_H-M "P B A N"
_symmetry_group_IT_number 50
_space_group.IT_coordinate_system_code '2'
_symmetry_cell_setting 'orthorhombic'
loop_
_space_group_symop_operation_xyz
x,y,z
1/2-x,1/2-y,z
x,1/2-y,-z
1/2-x,y,-z
-x,-y,-z
1/2+x,1/2+y,-z
-x,1/2+y,z
1/2+x,-y,z
loop_
_atom_site_type_symbol
_atom_site_label
_atom_site_fract_x
_atom_site_fract_y
_atom_site_fract_z
Si Si1 0.534985 0.620124 0.385218
Si Si2 0.782476 0.654531 0.159111
Si Si3 0.451733 0.918198 0.334653
Si Si4 0.961491 0.783622 0.842108
Si Si5 0.193861 0.469587 0.372619
O O1 0.484410 0.641290 0.528540
O O2 0.503859 0.519239 0.328084
O O3 0.527187 0.697894 0.265343
O O4 0.630167 0.610316 0.420776
O O5 0.750000 0.750000 0.227842
O O6 0.877870 0.661488 0.166307
O O7 0.748923 0.565819 0.243408
O O8 0.750000 0.644590 0.000000
O O9 0.471445 0.859793 0.194380
O O10 0.355878 0.936433 0.333849
O O11 0.977783 0.750000 0.000000
O O12 0.250000 0.498190 0.500000
#
# Coordination Sequence:
#
# PCOD8204926 Si02
#       5
#     8   8   8   8   8
#     4   9  19  37  53  82 112 140 186 233 277 330
#     4  11  19  34  49  85 122 139 176 224 290 349
#     4   9  21  36  52  84 110 145 191 225 283 332
#     4  12  21  35  58  84 119 152 179 230 285 342
#     4  10  19  34  54  79 108 140 185 231 280 329
#
# _framework density 17.717227999999999
#
# number of rings (size 3 to 8) (size 9 to 14) (size 15 to 20)
#    1.200    0.600    4.000    1.800    0.000    1.200 
#    0.000    0.000    0.000    2.400    0.000    1.400 
#    0.000    0.000    0.000    0.000    0.000    0.000 
#
# Total GULP energy -495523.944948 kJ/mol
# GULP energy per Si atom -12388.098624 kJ/mol
# Density = 1.767690 g / cm^3
# Si number density = 17.717228 Si / 1000 Ang^3
#
#
#
# Elastic Constant Matrix: (Units=GPa)
#
#
# Indices 1 2 3 4 5 6 
#
# 1 91.8543 60.2226 76.8165 0.0000 0.0000 0.0000
# 2 60.2226 70.9039 62.5002 0.0000 0.0000 0.0000
# 3 76.8165 62.5002 113.1226 0.0000 0.0000 0.0000
# 4 0.0000 0.0000 0.0000 20.1454 0.0000 0.0000
# 5 0.0000 0.0000 0.0000 0.0000 29.1968 0.0000
# 6 0.0000 0.0000 0.0000 0.0000 0.0000 33.7893
#
#
#
# Elastic Compliance Matrix: (Units=1/GPa)
#
#
# Indices 1 2 3 4 5 6 
#
# 1 0.032259 -0.015771 -0.013193 0.000000 0.000000 0.000000
# 2 -0.015771 0.035203 -0.008740 0.000000 0.000000 0.000000
# 3 -0.013193 -0.008740 0.022628 0.000000 0.000000 0.000000
# 4 0.000000 0.000000 0.000000 0.049639 0.000000 0.000000
# 5 0.000000 0.000000 0.000000 0.000000 0.034250 0.000000
# 6 0.000000 0.000000 0.000000 0.000000 0.000000 0.029595
#
#
# Mechanical properties :
#
#
# Convention : Reuss Voigt Hill
#
# Bulk Modulus (GPa) = 68.10854 74.99547 71.55200
# Shear Modulus (GPa) = 17.61331 21.71576 19.66453
#
# Velocity S-wave (km/s) = 3.15641 3.50478 3.33515
# Velocity P-wave (km/s) = 7.19787 7.66805 7.43668
#
# Compressibility (1/GPa) = 0.01468245
#
# Stress axis : x y z
#
# Youngs Moduli (GPa) = 30.99873 28.40660 44.19383
#
# Poissons Ratio (x) = 0.44799 0.58303
# Poissons Ratio (y) = 0.48887 0.38628
# Poissons Ratio (z) = 0.40895 0.24829
#
# Static dielectric constant tensor:
#      x y z
#    x 3.219180 0.000000 0.000000 
#    y 0.000000 3.161670 0.000000 
#    z 0.000000 0.000000 3.186400 
# 
# 
# High freq. dielectric constant tensor:
#      x y z
#    x 1.670600 0.000000 0.000000 
#    y 0.000000 1.667050 0.000000 
#    z 0.000000 0.000000 1.680220 
# 
# From -- ./inp_files/14077.got.cif
#   From: 2010.03.12/outbox.cif.g09.slc.cpg/sg50_8_cif.got.tgz:14077.got - 2010.04.16 13:23:21.
