data_PCOD8204852
_publ_section_title
;
Structure prediction by ZEFSAII (Michael W. Deem and Ramdas Pophale) SiO2 
 PCOD8204852
Probable space group: P B A N
;
_chemical_formula_sum "Si O2"
_cell_formula_units_Z 58
_cell_length_a 18.426753
_cell_length_b 12.968133
_cell_length_c 13.903900
_cell_angle_alpha 90.000000
_cell_angle_beta 90.000000
_cell_angle_gamma 90.000000
_cell_volume 3322.484059
_symmetry_space_group_name_H-M "P B A N"
_symmetry_group_IT_number 50
_space_group.IT_coordinate_system_code '2'
_symmetry_cell_setting 'orthorhombic'
loop_
_space_group_symop_operation_xyz
x,y,z
1/2-x,1/2-y,z
x,1/2-y,-z
1/2-x,y,-z
-x,-y,-z
1/2+x,1/2+y,-z
-x,1/2+y,z
1/2+x,-y,z
loop_
_atom_site_type_symbol
_atom_site_label
_atom_site_fract_x
_atom_site_fract_y
_atom_site_fract_z
Si Si1 0.775168 0.136718 0.831465
Si Si2 0.122079 0.955863 0.854473
Si Si3 0.250000 0.750000 0.500000
Si Si4 0.526693 0.507813 0.607636
Si Si5 0.035180 0.692398 0.287901
Si Si6 0.974717 0.619288 0.789101
Si Si7 0.587431 0.139839 0.044438
Si Si8 0.646161 0.364150 0.641383
O O1 0.750000 0.250000 0.803524
O O2 0.708362 0.060698 0.855452
O O3 0.829278 0.146399 0.920920
O O4 0.815978 0.095577 0.737913
O O5 0.084523 0.875809 0.781831
O O6 0.102232 0.073904 0.825520
O O7 0.086732 0.942606 0.959091
O O8 0.296963 0.673717 0.436089
O O9 0.500000 0.500000 0.500000
O O10 0.512610 0.625859 0.638284
O O11 0.489062 0.435119 0.686887
O O12 0.609712 0.469537 0.602410
O O13 0.088467 0.771931 0.341608
O O14 0.975164 0.757555 0.227202
O O15 0.037115 0.598016 0.869197
O O16 0.563224 0.250000 0.000000
#
# Coordination Sequence:
#
# PCOD8204852 Si02
#       8
#     8   8   2   8   8   8   8   8
#     4  12  19  33  51  83 120 145 173 229 288 352
#     4  11  21  31  55  83 115 149 182 228 283 343
#     4  12  20  28  56  76 118 146 176 234 296 340
#     4  10  21  35  55  79 109 145 187 232 286 341
#     4  10  18  37  55  77 113 143 182 232 276 336
#     4  10  21  36  52  81 111 146 194 230 276 335
#     4  12  19  33  55  82 116 153 184 228 291 346
#     4  11  20  35  52  85 110 144 183 233 293 340
#
# _framework density 17.456817999999998
#
# number of rings (size 3 to 8) (size 9 to 14) (size 15 to 20)
#    0.000    1.103    7.586    1.655    0.000    2.759 
#    0.000    0.000    0.000    0.828    0.000    0.000 
#    0.000    0.000    0.000    0.000    0.000    0.000 
#
# Total GULP energy -718665.008645 kJ/mol
# GULP energy per Si atom -12390.776011 kJ/mol
# Density = 1.741709 g / cm^3
# Si number density = 17.456818 Si / 1000 Ang^3
#
#
#
# Elastic Constant Matrix: (Units=GPa)
#
#
# Indices 1 2 3 4 5 6 
#
# 1 78.5772 38.7777 35.5189 0.0000 0.0000 0.0000
# 2 38.7777 65.4652 31.4658 0.0000 0.0000 0.0000
# 3 35.5189 31.4658 111.2171 0.0000 0.0000 0.0000
# 4 0.0000 0.0000 0.0000 21.7615 0.0000 0.0000
# 5 0.0000 0.0000 0.0000 0.0000 31.7798 0.0000
# 6 0.0000 0.0000 0.0000 0.0000 0.0000 36.5041
#
#
#
# Elastic Compliance Matrix: (Units=1/GPa)
#
#
# Indices 1 2 3 4 5 6 
#
# 1 0.018996 -0.009648 -0.003337 0.000000 0.000000 0.000000
# 2 -0.009648 0.022580 -0.003307 0.000000 0.000000 0.000000
# 3 -0.003337 -0.003307 0.010993 0.000000 0.000000 0.000000
# 4 0.000000 0.000000 0.000000 0.045953 0.000000 0.000000
# 5 0.000000 0.000000 0.000000 0.000000 0.031467 0.000000
# 6 0.000000 0.000000 0.000000 0.000000 0.000000 0.027394
#
#
# Mechanical properties :
#
#
# Convention : Reuss Voigt Hill
#
# Bulk Modulus (GPa) = 50.03951 51.86492 50.95221
# Shear Modulus (GPa) = 25.42868 27.97554 26.70211
#
# Velocity S-wave (km/s) = 3.82076 4.00754 3.91526
# Velocity P-wave (km/s) = 6.94199 7.15463 7.04911
#
# Compressibility (1/GPa) = 0.01998421
#
# Stress axis : x y z
#
# Youngs Moduli (GPa) = 52.64214 44.28719 90.96878
#
# Poissons Ratio (x) = 0.42730 0.30356
# Poissons Ratio (y) = 0.50791 0.30083
# Poissons Ratio (z) = 0.17567 0.14646
#
# Static dielectric constant tensor:
#      x y z
#    x 3.374180 0.000000 0.000000 
#    y 0.000000 3.505030 0.000000 
#    z 0.000000 0.000000 3.444430 
# 
# 
# High freq. dielectric constant tensor:
#      x y z
#    x 1.656900 0.000000 0.000000 
#    y 0.000000 1.650250 0.000000 
#    z 0.000000 0.000000 1.697130 
# 
# From -- ./inp_files/26034.got.cif
#   From: 2010.03.12/outbox.cif.g09.slc.cpg/sg50_14_cif.got.tgz:26034.got - 2010.04.16 13:23:21.
