data_PCOD8204068
_publ_section_title
;
Structure prediction by ZEFSAII (Michael W. Deem and Ramdas Pophale) SiO2 
 PCOD8204068
Probable space group: P C C M
;
_chemical_formula_sum "Si O2"
_cell_formula_units_Z 48
_cell_length_a 14.592022
_cell_length_b 8.949880
_cell_length_c 17.771273
_cell_angle_alpha 90.000000
_cell_angle_beta 90.000000
_cell_angle_gamma 90.000000
_cell_volume 2320.872201
_symmetry_space_group_name_H-M "P C C M"
_symmetry_group_IT_number 49
_symmetry_cell_setting 'orthorhombic'
loop_
_space_group_symop_operation_xyz
x,y,z
-x,-y,z
x,-y,1/2-z
-x,y,1/2-z
-x,-y,-z
x,y,-z
-x,y,1/2+z
x,-y,1/2+z
loop_
_atom_site_type_symbol
_atom_site_label
_atom_site_fract_x
_atom_site_fract_y
_atom_site_fract_z
Si Si1 0.127957 0.155882 0.649022
Si Si2 0.321078 0.811665 0.912633
Si Si3 0.964987 0.340019 0.412549
Si Si4 0.486507 0.663339 0.162124
Si Si5 0.166434 0.821489 0.683871
Si Si6 0.632421 0.907499 0.174891
O O1 0.215993 0.225709 0.606914
O O2 0.038031 0.211097 0.606219
O O3 0.121710 0.208213 0.735168
O O4 0.133444 0.976988 0.647450
O O5 0.384436 0.707979 0.860826
O O6 0.344628 0.982735 0.893520
O O7 0.340437 0.780890 0.000000
O O8 0.943364 0.341838 0.500000
O O9 0.000000 0.500000 0.384225
O O10 0.868667 0.308535 0.371004
O O11 0.500000 0.500000 0.123986
O O12 0.500000 0.645980 0.250000
O O13 0.557784 0.794361 0.139651
O O14 0.275843 0.816419 0.695953
O O15 0.599405 0.000000 0.250000
#
# Coordination Sequence:
#
# PCOD8204068 Si02
#       6
#     8   8   8   8   8   8
#     4  10  20  40  63  89 120 153 204 263 309 365
#     4  11  23  39  65  95 123 164 210 259 320 376
#     4  11  25  40  56  87 130 170 204 251 313 373
#     4  11  23  38  61  92 127 169 209 249 309 377
#     4  10  20  38  65  92 113 156 210 256 310 362
#     4  11  20  41  65  91 123 162 204 269 312 364
#
# _framework density 20.68188
#
# number of rings (size 3 to 8) (size 9 to 14) (size 15 to 20)
#    0.000    1.333    5.000    2.000    0.000    9.667 
#    0.000    0.000    0.000    0.000    0.000    0.000 
#    0.000    0.000    0.000    0.000    0.000    0.000 
#
# Total GULP energy -595142.339238 kJ/mol
# GULP energy per Si atom -12398.798734 kJ/mol
# Density = 2.063481 g / cm^3
# Si number density = 20.681880 Si / 1000 Ang^3
#
#
#
# Elastic Constant Matrix: (Units=GPa)
#
#
# Indices 1 2 3 4 5 6 
#
# 1 81.3970 29.6070 20.6345 0.0000 0.0000 0.0000
# 2 29.6070 72.4184 28.4305 0.0000 0.0000 0.0000
# 3 20.6345 28.4305 83.8667 0.0000 0.0000 0.0000
# 4 0.0000 0.0000 0.0000 20.2303 0.0000 0.0000
# 5 0.0000 0.0000 0.0000 0.0000 26.2313 0.0000
# 6 0.0000 0.0000 0.0000 0.0000 0.0000 25.4550
#
#
#
# Elastic Compliance Matrix: (Units=1/GPa)
#
#
# Indices 1 2 3 4 5 6 
#
# 1 0.014668 -0.005283 -0.001818 0.000000 0.000000 0.000000
# 2 -0.005283 0.017831 -0.004745 0.000000 0.000000 0.000000
# 3 -0.001818 -0.004745 0.013979 0.000000 0.000000 0.000000
# 4 0.000000 0.000000 0.000000 0.049431 0.000000 0.000000
# 5 0.000000 0.000000 0.000000 0.000000 0.038122 0.000000
# 6 0.000000 0.000000 0.000000 0.000000 0.000000 0.039285
#
#
# Mechanical properties :
#
#
# Convention : Reuss Voigt Hill
#
# Bulk Modulus (GPa) = 43.88483 43.89181 43.88832
# Shear Modulus (GPa) = 24.43737 24.98397 24.71067
#
# Velocity S-wave (km/s) = 3.44115 3.47942 3.46034
# Velocity P-wave (km/s) = 6.08717 6.11639 6.10180
#
# Compressibility (1/GPa) = 0.02278692
#
# Stress axis : x y z
#
# Youngs Moduli (GPa) = 68.17577 56.08109 71.53341
#
# Poissons Ratio (x) = 0.29628 0.13005
# Poissons Ratio (y) = 0.36018 0.33942
# Poissons Ratio (z) = 0.12394 0.26610
#
# Static dielectric constant tensor:
#      x y z
#    x 3.832890 0.000000 0.000000 
#    y 0.000000 3.952960 0.000000 
#    z 0.000000 0.000000 3.584180 
# 
# 
# High freq. dielectric constant tensor:
#      x y z
#    x 1.817500 0.000000 0.000000 
#    y 0.000000 1.797250 0.000000 
#    z 0.000000 0.000000 1.796790 
# 
# From -- ./inp_files/17681.got.cif
#   From: 2010.03.12/outbox.cif.g09.slc.cpg/sg49_9_cif.got.tgz:17681.got - 2010.04.14 03:58:27.
