data_PCOD8204291
_publ_section_title
;
Structure prediction by ZEFSAII (Michael W. Deem and Ramdas Pophale) SiO2 
 PCOD8204291
Probable space group: P C C M
;
_chemical_formula_sum "Si O2"
_cell_formula_units_Z 64
_cell_length_a 23.950558
_cell_length_b 8.839530
_cell_length_c 15.198977
_cell_angle_alpha 90.000000
_cell_angle_beta 90.000000
_cell_angle_gamma 90.000000
_cell_volume 3217.800894
_symmetry_space_group_name_H-M "P C C M"
_symmetry_group_IT_number 49
_symmetry_cell_setting 'orthorhombic'
loop_
_space_group_symop_operation_xyz
x,y,z
-x,-y,z
x,-y,1/2-z
-x,y,1/2-z
-x,-y,-z
x,y,-z
-x,y,1/2+z
x,-y,1/2+z
loop_
_atom_site_type_symbol
_atom_site_label
_atom_site_fract_x
_atom_site_fract_y
_atom_site_fract_z
Si Si1 0.613821 0.678466 0.102256
Si Si2 0.889105 0.671568 0.097877
Si Si3 0.687495 0.178890 0.750000
Si Si4 0.613821 0.678466 0.602256
Si Si5 1.000000 0.178050 0.151513
Si Si6 0.500000 0.830389 0.604095
Si Si7 0.193228 0.678501 0.750000
Si Si8 0.110895 0.671568 0.097877
O O1 0.661514 0.752878 0.161149
O O2 0.614144 0.500000 0.116434
O O3 0.554632 0.741816 0.136616
O O4 0.624572 0.720412 0.000000
O O5 0.944988 0.768857 0.101592
O O6 0.841980 0.728418 0.164721
O O7 0.905557 0.500000 0.121333
O O8 0.863805 0.685197 0.000000
O O9 0.661514 0.247122 0.838851
O O10 0.752005 0.221093 0.750000
O O11 0.679261 0.000000 0.750000
O O12 0.624572 0.720412 0.500000
O O13 0.554632 0.741816 0.636616
O O14 0.000000 0.245132 0.250000
O O15 0.944988 0.231143 0.101592
O O16 0.000000 0.000000 0.152511
O O17 0.500000 0.836326 0.500000
O O18 0.500000 0.000000 0.643708
O O19 0.207899 0.500000 0.750000
O O20 0.158020 0.728418 0.835279
O O21 0.136195 0.685197 0.000000
#
# Coordination Sequence:
#
# PCOD8204291 Si02
#       8
#     8   8   8   8   8   8   8   8
#     4  10  21  39  63  89 119 157 201 246 293 351
#     4  10  21  38  62  88 113 148 193 236 283 341
#     4  12  26  41  60  87 120 156 199 248 301 358
#     4  10  21  39  63  89 119 157 201 246 293 351
#     4  11  22  35  56  87 123 156 187 228 285 345
#     4   9  17  32  57  90 126 157 189 238 301 360
#     4  10  22  41  60  81 113 150 195 246 290 338
#     4  10  21  38  62  88 113 148 193 236 283 341
#
# _framework density 19.88936
#
# number of rings (size 3 to 8) (size 9 to 14) (size 15 to 20)
#    0.000    1.750    1.250    3.000    0.000    8.000 
#    0.000    5.000    0.000    0.000    0.000    0.000 
#    0.000    0.000    0.000    0.000    0.000    0.000 
#
# Total GULP energy -793806.420488 kJ/mol
# GULP energy per Si atom -12403.225320 kJ/mol
# Density = 1.984409 g / cm^3
# Si number density = 19.889360 Si / 1000 Ang^3
#
#
#
# Elastic Constant Matrix: (Units=GPa)
#
#
# Indices 1 2 3 4 5 6 
#
# 1 146.3643 57.0381 66.0398 0.0000 0.0000 0.0000
# 2 57.0381 107.4142 47.2539 0.0000 0.0000 0.0000
# 3 66.0398 47.2539 125.8397 0.0000 0.0000 0.0000
# 4 0.0000 0.0000 0.0000 24.4935 0.0000 0.0000
# 5 0.0000 0.0000 0.0000 0.0000 150.6682 0.0000
# 6 0.0000 0.0000 0.0000 0.0000 0.0000 7.6559
#
#
#
# Elastic Compliance Matrix: (Units=1/GPa)
#
#
# Indices 1 2 3 4 5 6 
#
# 1 0.009988 -0.003591 -0.003893 0.000000 0.000000 0.000000
# 2 -0.003591 0.012443 -0.002788 0.000000 0.000000 0.000000
# 3 -0.003893 -0.002788 0.011037 0.000000 0.000000 0.000000
# 4 0.000000 0.000000 0.000000 0.040827 0.000000 0.000000
# 5 0.000000 0.000000 0.000000 0.000000 0.006637 0.000000
# 6 0.000000 0.000000 0.000000 0.000000 0.000000 0.130619
#
#
# Mechanical properties :
#
#
# Convention : Reuss Voigt Hill
#
# Bulk Modulus (GPa) = 77.37868 80.03132 78.70500
# Shear Modulus (GPa) = 21.15023 50.51595 35.83309
#
# Velocity S-wave (km/s) = 3.26451 5.04516 4.24916
# Velocity P-wave (km/s) = 7.29372 8.61764 7.98317
#
# Compressibility (1/GPa) = 0.01292346
#
# Stress axis : x y z
#
# Youngs Moduli (GPa) = 100.11573 80.36536 90.60696
#
# Poissons Ratio (x) = 0.28861 0.35276
# Poissons Ratio (y) = 0.35954 0.25260
# Poissons Ratio (z) = 0.38978 0.22405
#
# Static dielectric constant tensor:
#      x y z
#    x 3.527700 0.000000 0.000000 
#    y 0.000000 3.621750 0.000000 
#    z 0.000000 0.000000 3.754270 
# 
# 
# High freq. dielectric constant tensor:
#      x y z
#    x 1.770080 0.000000 0.000000 
#    y 0.000000 1.776640 0.000000 
#    z 0.000000 0.000000 1.786090 
# 
# From -- ./inp_files/12147.got.cif
#   From: 2010.03.12/outbox.cif.g09.slc.cpg/sg49_7_cif.got.tgz:12147.got - 2010.04.14 03:58:27.
