data_PCOD8204566
_publ_section_title
;
Structure prediction by ZEFSAII (Michael W. Deem and Ramdas Pophale) SiO2 
 PCOD8204566
Probable space group: P C C M
;
_chemical_formula_sum "Si O2"
_cell_formula_units_Z 40
_cell_length_a 15.483811
_cell_length_b 9.502603
_cell_length_c 13.314621
_cell_angle_alpha 90.000000
_cell_angle_beta 90.000000
_cell_angle_gamma 90.000000
_cell_volume 1959.066851
_symmetry_space_group_name_H-M "P C C M"
_symmetry_group_IT_number 49
_symmetry_cell_setting 'orthorhombic'
loop_
_space_group_symop_operation_xyz
x,y,z
-x,-y,z
x,-y,1/2-z
-x,y,1/2-z
-x,-y,-z
x,y,-z
-x,y,1/2+z
x,-y,1/2+z
loop_
_atom_site_type_symbol
_atom_site_label
_atom_site_fract_x
_atom_site_fract_y
_atom_site_fract_z
Si Si1 0.759253 0.461481 0.500000
Si Si2 0.590221 0.428514 0.000000
Si Si3 0.124067 0.633536 0.322145
Si Si4 0.594754 0.660211 0.284807
Si Si5 0.758333 0.157150 0.213263
Si Si6 0.809148 0.225510 0.000000
Si Si7 0.002303 0.666703 0.500000
O O1 0.656404 0.436560 0.500000
O O2 0.800310 0.409462 0.397669
O O3 0.760379 0.628658 0.500000
O O4 0.500000 0.500000 0.000000
O O5 0.599322 0.329322 0.095728
O O6 0.097124 0.500000 0.250000
O O7 0.158019 0.759839 0.254181
O O8 0.048633 0.699167 0.392915
O O9 0.612389 0.500000 0.250000
O O10 0.500000 0.712724 0.250000
O O11 0.671512 0.762950 0.249073
O O12 0.752958 0.000000 0.250000
O O13 0.775635 0.139962 0.095298
O O14 0.912307 0.252594 0.000000
O O15 0.000000 0.500000 0.500000
#
# Coordination Sequence:
#
# PCOD8204566 Si02
#       7
#     4   4   8   8   8   4   4
#     4  11  20  37  66  94 130 164 213 276 318 384
#     4  12  19  33  60  98 127 160 195 264 325 366
#     4  11  21  39  66  98 126 166 220 271 332 384
#     4  11  22  38  65  98 125 160 217 267 313 373
#     4  12  26  44  65  90 134 182 213 255 326 395
#     4  12  23  44  64  94 131 163 213 273 333 384
#     4  11  22  37  65 105 126 155 216 292 328 378
#
# _framework density 20.417884000000001
#
# number of rings (size 3 to 8) (size 9 to 14) (size 15 to 20)
#    0.000    0.600    8.000    1.800    0.000    4.800 
#    0.000    5.000    0.000    2.400    0.000    0.000 
#    0.000    0.000    0.000    0.000    0.000    0.000 
#
# Total GULP energy -495670.365444 kJ/mol
# GULP energy per Si atom -12391.759136 kJ/mol
# Density = 2.037141 g / cm^3
# Si number density = 20.417884 Si / 1000 Ang^3
#
#
#
# Elastic Constant Matrix: (Units=GPa)
#
#
# Indices 1 2 3 4 5 6 
#
# 1 135.9721 38.3899 32.7475 0.0000 0.0000 0.0000
# 2 38.3899 111.6328 39.4245 0.0000 0.0000 0.0000
# 3 32.7475 39.4245 137.1355 0.0000 0.0000 0.0000
# 4 0.0000 0.0000 0.0000 45.6313 0.0000 0.0000
# 5 0.0000 0.0000 0.0000 0.0000 14.5665 0.0000
# 6 0.0000 0.0000 0.0000 0.0000 0.0000 7.5750
#
#
#
# Elastic Compliance Matrix: (Units=1/GPa)
#
#
# Indices 1 2 3 4 5 6 
#
# 1 0.008349 -0.002412 -0.001300 0.000000 0.000000 0.000000
# 2 -0.002412 0.010667 -0.002491 0.000000 0.000000 0.000000
# 3 -0.001300 -0.002491 0.008319 0.000000 0.000000 0.000000
# 4 0.000000 0.000000 0.000000 0.021915 0.000000 0.000000
# 5 0.000000 0.000000 0.000000 0.000000 0.068651 0.000000
# 6 0.000000 0.000000 0.000000 0.000000 0.000000 0.132012
#
#
# Mechanical properties :
#
#
# Convention : Reuss Voigt Hill
#
# Bulk Modulus (GPa) = 66.98538 67.31826 67.15182
# Shear Modulus (GPa) = 18.70602 31.83314 25.26958
#
# Velocity S-wave (km/s) = 3.03010 3.95280 3.52180
# Velocity P-wave (km/s) = 6.71717 7.33994 7.03545
#
# Compressibility (1/GPa) = 0.01492863
#
# Stress axis : x y z
#
# Youngs Moduli (GPa) = 119.78137 93.74741 120.21286
#
# Poissons Ratio (x) = 0.22610 0.15631
# Poissons Ratio (y) = 0.28889 0.29941
# Poissons Ratio (z) = 0.15574 0.23349
#
# Static dielectric constant tensor:
#      x y z
#    x 4.225540 0.000000 0.000000 
#    y 0.000000 3.254730 0.000000 
#    z 0.000000 0.000000 4.068460 
# 
# 
# High freq. dielectric constant tensor:
#      x y z
#    x 1.820590 0.000000 0.000000 
#    y 0.000000 1.739610 0.000000 
#    z 0.000000 0.000000 1.826700 
# 
# From -- ./inp_files/13394.got.cif
#   From: 2010.03.12/outbox.cif.g09.slc.cpg/sg49_7_cif.got.tgz:13394.got - 2010.04.14 03:58:27.
