data_PCOD8204627
_publ_section_title
;
Structure prediction by ZEFSAII (Michael W. Deem and Ramdas Pophale) SiO2 
 PCOD8204627
Probable space group: P C C M
;
_chemical_formula_sum "Si O2"
_cell_formula_units_Z 32
_cell_length_a 9.463144
_cell_length_b 20.669257
_cell_length_c 8.656624
_cell_angle_alpha 90.000000
_cell_angle_beta 90.000000
_cell_angle_gamma 90.000000
_cell_volume 1693.202373
_symmetry_space_group_name_H-M "P C C M"
_symmetry_group_IT_number 49
_symmetry_cell_setting 'orthorhombic'
loop_
_space_group_symop_operation_xyz
x,y,z
-x,-y,z
x,-y,1/2-z
-x,y,1/2-z
-x,-y,-z
x,y,-z
-x,y,1/2+z
x,-y,1/2+z
loop_
_atom_site_type_symbol
_atom_site_label
_atom_site_fract_x
_atom_site_fract_y
_atom_site_fract_z
Si Si1 0.344868 0.821814 0.684022
Si Si2 0.844874 0.562664 0.819273
Si Si3 0.153730 0.295845 0.181168
Si Si4 0.851655 0.070743 0.184010
O O1 0.500000 0.815070 0.750000
O O2 0.346757 0.828610 0.500000
O O3 0.260848 0.758392 0.741582
O O4 0.274638 0.884464 0.759133
O O5 0.760325 0.500000 0.750000
O O6 0.780769 0.633181 0.775100
O O7 0.000000 0.562144 0.750000
O O8 0.852150 0.553127 0.000000
O O9 0.000000 0.283608 0.250000
O O10 0.133864 0.290480 0.000000
O O11 0.000000 0.097777 0.250000
O O12 0.821290 0.000000 0.250000
O O13 0.858651 0.068504 0.000000
#
# Coordination Sequence:
#
# PCOD8204627 Si02
#       4
#     8   8   8   8
#     4  11  23  39  56  79 109 144 182 224 269 319
#     4   9  15  25  42  69 100 131 165 210 261 312
#     4   9  19  33  52  76 105 137 175 218 265 317
#     4  11  22  39  62  88 114 143 177 218 263 314
#
# _framework density 18.899099
#
# number of rings (size 3 to 8) (size 9 to 14) (size 15 to 20)
#    0.000    2.000    0.000    6.000    0.000    5.500 
#    0.000    2.500    0.000    0.750    0.000    5.250 
#    0.000    0.000    0.000    0.000    0.000    0.000 
#
# Total GULP energy -396619.623068 kJ/mol
# GULP energy per Si atom -12394.363221 kJ/mol
# Density = 1.885608 g / cm^3
# Si number density = 18.899099 Si / 1000 Ang^3
#
#
#
# Elastic Constant Matrix: (Units=GPa)
#
#
# Indices 1 2 3 4 5 6 
#
# 1 110.9092 77.4077 41.5762 0.0000 0.0000 0.0000
# 2 77.4077 145.1935 57.3137 0.0000 0.0000 0.0000
# 3 41.5762 57.3137 106.3036 0.0000 0.0000 0.0000
# 4 0.0000 0.0000 0.0000 39.7263 0.0000 0.0000
# 5 0.0000 0.0000 0.0000 0.0000 25.5386 0.0000
# 6 0.0000 0.0000 0.0000 0.0000 0.0000 5.0086
#
#
#
# Elastic Compliance Matrix: (Units=1/GPa)
#
#
# Indices 1 2 3 4 5 6 
#
# 1 0.014665 -0.007056 -0.001931 0.000000 0.000000 0.000000
# 2 -0.007056 0.012144 -0.003788 0.000000 0.000000 0.000000
# 3 -0.001931 -0.003788 0.012205 0.000000 0.000000 0.000000
# 4 0.000000 0.000000 0.000000 0.025172 0.000000 0.000000
# 5 0.000000 0.000000 0.000000 0.000000 0.039156 0.000000
# 6 0.000000 0.000000 0.000000 0.000000 0.000000 0.199658
#
#
# Mechanical properties :
#
#
# Convention : Reuss Voigt Hill
#
# Bulk Modulus (GPa) = 74.27555 79.44460 76.86007
# Shear Modulus (GPa) = 15.01322 26.46193 20.73758
#
# Velocity S-wave (km/s) = 2.82155 3.74594 3.31611
# Velocity P-wave (km/s) = 7.07116 7.79980 7.44440
#
# Compressibility (1/GPa) = 0.01346338
#
# Stress axis : x y z
#
# Youngs Moduli (GPa) = 68.18923 82.34186 81.93574
#
# Poissons Ratio (x) = 0.58101 0.15824
# Poissons Ratio (y) = 0.48115 0.31037
# Poissons Ratio (z) = 0.13170 0.31191
#
# Static dielectric constant tensor:
#      x y z
#    x 3.172180 0.000000 0.000000 
#    y 0.000000 4.642610 0.000000 
#    z 0.000000 0.000000 3.582350 
# 
# 
# High freq. dielectric constant tensor:
#      x y z
#    x 1.690970 0.000000 0.000000 
#    y 0.000000 1.764340 0.000000 
#    z 0.000000 0.000000 1.747240 
# 
# From -- ./inp_files/1396.got.cif
#   From: 2010.03.12/outbox.cif.g09.slc.cpg/sg49_1_cif.got.tgz:1396.got - 2010.04.14 03:58:27.
