data_PCOD8204769
_publ_section_title
;
Structure prediction by ZEFSAII (Michael W. Deem and Ramdas Pophale) SiO2 
 PCOD8204769
Probable space group: P B A N
;
_chemical_formula_sum "Si O2"
_cell_formula_units_Z 48
_cell_length_a 11.617568
_cell_length_b 19.475881
_cell_length_c 12.123553
_cell_angle_alpha 90.000000
_cell_angle_beta 90.000000
_cell_angle_gamma 90.000000
_cell_volume 2743.103857
_symmetry_space_group_name_H-M "P B A N"
_symmetry_group_IT_number 50
_space_group.IT_coordinate_system_code '2'
_symmetry_cell_setting 'orthorhombic'
loop_
_space_group_symop_operation_xyz
x,y,z
1/2-x,1/2-y,z
x,1/2-y,-z
1/2-x,y,-z
-x,-y,-z
1/2+x,1/2+y,-z
-x,1/2+y,z
1/2+x,-y,z
loop_
_atom_site_type_symbol
_atom_site_label
_atom_site_fract_x
_atom_site_fract_y
_atom_site_fract_z
Si Si1 0.004350 0.928679 0.298775
Si Si2 0.272222 0.076026 0.383558
Si Si3 0.865935 0.068940 0.472939
Si Si4 0.370463 0.830189 0.867915
Si Si5 0.107354 0.672051 0.119003
Si Si6 0.525798 0.579817 0.719373
O O1 0.066314 0.947008 0.414699
O O2 0.069784 0.876462 0.222302
O O3 0.880757 0.892173 0.318791
O O4 0.992901 0.002963 0.240632
O O5 0.250000 0.115166 0.500000
O O6 0.161852 0.082321 0.304844
O O7 0.313860 0.998872 0.413985
O O8 0.750000 0.114281 0.500000
O O9 0.953449 0.104601 0.388389
O O10 0.237284 0.851624 0.856792
O O11 0.397389 0.751002 0.843505
O O12 0.418051 0.842602 0.990746
O O13 0.008907 0.631012 0.183432
#
# Coordination Sequence:
#
# PCOD8204769 Si02
#       6
#     8   8   8   8   8   8
#     4  11  19  30  56  82 112 142 183 224 262 326
#     4  10  17  31  47  80 113 149 173 202 271 330
#     4  10  17  28  49  81 110 143 175 216 269 319
#     4   9  20  40  58  79 103 143 187 231 284 324
#     4   9  20  39  61  75 105 145 184 232 284 325
#     4  11  19  31  55  83 110 145 182 222 268 329
#
# _framework density 17.498425999999998
#
# number of rings (size 3 to 8) (size 9 to 14) (size 15 to 20)
#    0.000    2.000    5.000    3.000    2.333    0.667 
#    0.000    2.500    0.000    6.000    0.000    0.000 
#    0.000    0.000    0.000    0.000    0.000    0.000 
#
# Total GULP energy -594640.582017 kJ/mol
# GULP energy per Si atom -12388.345459 kJ/mol
# Density = 1.745860 g / cm^3
# Si number density = 17.498426 Si / 1000 Ang^3
#
#
#
# Elastic Constant Matrix: (Units=GPa)
#
#
# Indices 1 2 3 4 5 6 
#
# 1 134.5662 34.1676 53.2534 0.0000 0.0000 0.0000
# 2 34.1676 47.9396 47.1426 0.0000 0.0000 0.0000
# 3 53.2534 47.1426 91.4769 0.0000 0.0000 0.0000
# 4 0.0000 0.0000 0.0000 -54.7809 0.0000 0.0000
# 5 0.0000 0.0000 0.0000 0.0000 27.1290 0.0000
# 6 0.0000 0.0000 0.0000 0.0000 0.0000 24.0804
#
#
#
# Elastic Compliance Matrix: (Units=1/GPa)
#
#
# Indices 1 2 3 4 5 6 
#
# 1 0.009837 -0.002797 -0.004285 0.000000 0.000000 0.000000
# 2 -0.002797 0.043088 -0.020577 0.000000 0.000000 0.000000
# 3 -0.004285 -0.020577 0.024031 0.000000 0.000000 0.000000
# 4 0.000000 0.000000 0.000000 -0.018255 0.000000 0.000000
# 5 0.000000 0.000000 0.000000 0.000000 0.036861 0.000000
# 6 0.000000 0.000000 0.000000 0.000000 0.000000 0.041528
#
#
# Mechanical properties :
#
#
# Convention : Reuss Voigt Hill
#
# Bulk Modulus (GPa) = 46.21680 60.34556 53.28118
# Shear Modulus (GPa) = 25.04734 8.58032 16.81383
#
# Velocity S-wave (km/s) = 3.78750 2.21678 3.10316
# Velocity P-wave (km/s) = 6.75249 6.41197 6.58443
#
# Compressibility (1/GPa) = 0.02163715
#
# Stress axis : x y z
#
# Youngs Moduli (GPa) = 101.65280 23.20818 41.61332
#
# Poissons Ratio (x) = 0.06492 0.17832
# Poissons Ratio (y) = 0.28436 0.85628
# Poissons Ratio (z) = 0.43561 0.47756
#
# Static dielectric constant tensor:
#      x y z
#    x 3.859340 0.000000 0.000000 
#    y 0.000000 2.816990 0.000000 
#    z 0.000000 0.000000 3.263920 
# 
# 
# High freq. dielectric constant tensor:
#      x y z
#    x 1.694320 0.000000 0.000000 
#    y 0.000000 1.627160 0.000000 
#    z 0.000000 0.000000 1.671600 
# 
# From -- ./inp_files/20323.got.cif
#   From: 2010.03.12/outbox.cif.g09.slc.cpg/sg50_11_cif.got.tgz:20323.got - 2010.04.16 13:23:21.
