data_PCOD8204756
_publ_section_title
;
Structure prediction by ZEFSAII (Michael W. Deem and Ramdas Pophale) SiO2 
 PCOD8204756
Probable space group: P B A N
;
_chemical_formula_sum "Si O2"
_cell_formula_units_Z 44
_cell_length_a 13.035865
_cell_length_b 18.670124
_cell_length_c 9.077301
_cell_angle_alpha 90.000000
_cell_angle_beta 90.000000
_cell_angle_gamma 90.000000
_cell_volume 2209.244555
_symmetry_space_group_name_H-M "P B A N"
_symmetry_group_IT_number 50
_space_group.IT_coordinate_system_code '2'
_symmetry_cell_setting 'orthorhombic'
loop_
_space_group_symop_operation_xyz
x,y,z
1/2-x,1/2-y,z
x,1/2-y,-z
1/2-x,y,-z
-x,-y,-z
1/2+x,1/2+y,-z
-x,1/2+y,z
1/2+x,-y,z
loop_
_atom_site_type_symbol
_atom_site_label
_atom_site_fract_x
_atom_site_fract_y
_atom_site_fract_z
Si Si1 0.103254 0.586245 0.703472
Si Si2 0.594356 0.419215 0.039892
Si Si3 0.298367 0.826417 0.266028
Si Si4 0.750000 0.542072 0.000000
Si Si5 0.500999 0.171557 0.541198
Si Si6 0.103597 0.426249 0.764153
O O1 0.213831 0.620101 0.667018
O O2 0.015306 0.620996 0.601381
O O3 0.111977 0.501121 0.675822
O O4 0.073085 0.603031 0.872048
O O5 0.658862 0.355077 0.111486
O O6 0.657789 0.492318 0.056278
O O7 0.489010 0.432982 0.121947
O O8 0.250000 0.750000 0.235271
O O9 0.389274 0.820022 0.382593
O O10 0.793274 0.588894 0.138097
O O11 0.458989 0.250000 0.500000
O O12 0.415180 0.136981 0.647853
#
# Coordination Sequence:
#
# PCOD8204756 Si02
#       6
#     8   8   8   4   8   8
#     4  11  19  35  56  83 127 162 201 250 307 378
#     4  10  20  35  58  89 122 155 207 260 311 364
#     4  11  20  34  54  88 132 168 195 249 326 388
#     4  10  16  36  57  84 115 154 210 270 292 354
#     4  11  23  37  54  88 135 163 201 253 319 386
#     4  10  22  37  60  88 121 162 210 259 313 367
#
# _framework density 19.916311
#
# number of rings (size 3 to 8) (size 9 to 14) (size 15 to 20)
#    0.000    1.455    5.455    3.273    0.000    1.455 
#    0.000    0.000    0.000    0.000    0.000   15.273 
#    0.000    0.000    0.000    0.000    0.000    0.000 
#
# Total GULP energy -545569.346273 kJ/mol
# GULP energy per Si atom -12399.303324 kJ/mol
# Density = 1.987098 g / cm^3
# Si number density = 19.916311 Si / 1000 Ang^3
#
#
#
# Elastic Constant Matrix: (Units=GPa)
#
#
# Indices 1 2 3 4 5 6 
#
# 1 69.7660 49.0138 54.1440 0.0000 0.0000 0.0000
# 2 49.0138 138.1022 62.9017 0.0000 0.0000 0.0000
# 3 54.1440 62.9017 124.0666 0.0000 0.0000 0.0000
# 4 0.0000 0.0000 0.0000 31.9051 0.0000 0.0000
# 5 0.0000 0.0000 0.0000 0.0000 15.9378 0.0000
# 6 0.0000 0.0000 0.0000 0.0000 0.0000 27.3985
#
#
#
# Elastic Compliance Matrix: (Units=1/GPa)
#
#
# Indices 1 2 3 4 5 6 
#
# 1 0.023947 -0.004862 -0.007986 0.000000 0.000000 0.000000
# 2 -0.004862 0.010402 -0.003152 0.000000 0.000000 0.000000
# 3 -0.007986 -0.003152 0.013143 0.000000 0.000000 0.000000
# 4 0.000000 0.000000 0.000000 0.031343 0.000000 0.000000
# 5 0.000000 0.000000 0.000000 0.000000 0.062744 0.000000
# 6 0.000000 0.000000 0.000000 0.000000 0.000000 0.036498
#
#
# Mechanical properties :
#
#
# Convention : Reuss Voigt Hill
#
# Bulk Modulus (GPa) = 64.54483 73.78376 69.16430
# Shear Modulus (GPa) = 23.22972 26.10662 24.66817
#
# Velocity S-wave (km/s) = 3.41892 3.62445 3.52318
# Velocity P-wave (km/s) = 6.93280 7.39208 7.16612
#
# Compressibility (1/GPa) = 0.01549311
#
# Stress axis : x y z
#
# Youngs Moduli (GPa) = 41.75923 96.13334 76.08350
#
# Poissons Ratio (x) = 0.46737 0.60759
# Poissons Ratio (y) = 0.20302 0.23983
# Poissons Ratio (z) = 0.33348 0.30303
#
# Static dielectric constant tensor:
#      x y z
#    x 3.694230 0.000000 0.000000 
#    y 0.000000 3.671850 0.000000 
#    z 0.000000 0.000000 3.876700 
# 
# 
# High freq. dielectric constant tensor:
#      x y z
#    x 1.760810 0.000000 0.000000 
#    y 0.000000 1.762940 0.000000 
#    z 0.000000 0.000000 1.785530 
# 
# From -- ./inp_files/12892.got.cif
#   From: 2010.03.12/outbox.cif.g09.slc.cpg/sg50_7_cif.got.tgz:12892.got - 2010.04.16 13:23:21.
