data_PCOD8204719
_publ_section_title
;
Structure prediction by ZEFSAII (Michael W. Deem and Ramdas Pophale) SiO2 
 PCOD8204719
Probable space group: P B A N
;
_chemical_formula_sum "Si O2"
_cell_formula_units_Z 48
_cell_length_a 12.305398
_cell_length_b 5.389453
_cell_length_c 26.366971
_cell_angle_alpha 90.000000
_cell_angle_beta 90.000000
_cell_angle_gamma 90.000000
_cell_volume 1748.640752
_symmetry_space_group_name_H-M "P B A N"
_symmetry_group_IT_number 50
_space_group.IT_coordinate_system_code '2'
_symmetry_cell_setting 'orthorhombic'
loop_
_space_group_symop_operation_xyz
x,y,z
1/2-x,1/2-y,z
x,1/2-y,-z
1/2-x,y,-z
-x,-y,-z
1/2+x,1/2+y,-z
-x,1/2+y,z
1/2+x,-y,z
loop_
_atom_site_type_symbol
_atom_site_label
_atom_site_fract_x
_atom_site_fract_y
_atom_site_fract_z
Si Si1 0.876130 0.605258 0.139266
Si Si2 0.882181 0.110667 0.179938
Si Si3 0.384687 0.616780 0.701805
Si Si4 0.370663 0.121538 0.660859
Si Si5 0.131165 0.497100 0.978225
Si Si6 0.566794 0.766673 0.444297
O O1 0.821392 0.877923 0.151048
O O2 0.867956 0.515661 0.081975
O O3 0.000590 0.659612 0.154585
O O4 0.822778 0.380047 0.172725
O O5 0.898749 0.064167 0.238964
O O6 0.316989 0.378942 0.681272
O O7 0.501584 0.639835 0.674894
O O8 0.322295 0.873241 0.687621
O O9 0.350803 0.149606 0.600257
O O10 0.074800 0.750000 0.000000
O O11 0.250000 0.495477 0.000000
O O12 0.070721 0.250000 0.000000
O O13 0.622691 0.750000 0.500000
O O14 0.522967 0.485432 0.438445
#
# Coordination Sequence:
#
# PCOD8204719 Si02
#       6
#     8   8   8   8   8   8
#     4  10  18  32  48  65  90 112 135 164 205 255
#     4  10  19  30  43  67  90 114 134 166 215 267
#     4  10  16  23  36  49  73  96 127 158 196 260
#     4  10  14  22  31  46  61  94 128 163 205 255
#     4  10  21  37  54  70  87 111 142 172 200 239
#     4  10  16  22  28  39  59  85 124 175 220 254
#
# _framework density 27.449892999999999
#
# number of rings (size 3 to 8) (size 9 to 14) (size 15 to 20)
#    0.000    2.000    3.333    6.000    0.000    0.000 
#    0.000   10.000    0.000    0.000    0.000    0.000 
#    0.000    0.000    0.000    0.000    0.000    0.000 
#
# Total GULP energy -594677.940113 kJ/mol
# GULP energy per Si atom -12389.123752 kJ/mol
# Density = 2.738742 g / cm^3
# Si number density = 27.449893 Si / 1000 Ang^3
#
#
#
# Elastic Constant Matrix: (Units=GPa)
#
#
# Indices 1 2 3 4 5 6 
#
# 1 65.5777 33.0058 8.1637 0.0000 0.0000 0.0000
# 2 33.0058 289.8548 63.5349 0.0000 0.0000 0.0000
# 3 8.1637 63.5349 243.4942 0.0000 0.0000 0.0000
# 4 0.0000 0.0000 0.0000 61.0958 0.0000 0.0000
# 5 0.0000 0.0000 0.0000 0.0000 -14.7997 0.0000
# 6 0.0000 0.0000 0.0000 0.0000 0.0000 3045.1130
#
#
#
# Elastic Compliance Matrix: (Units=1/GPa)
#
#
# Indices 1 2 3 4 5 6 
#
# 1 0.016177 -0.001828 -0.000065 0.000000 0.000000 0.000000
# 2 -0.001828 0.003866 -0.000947 0.000000 0.000000 0.000000
# 3 -0.000065 -0.000947 0.004356 0.000000 0.000000 0.000000
# 4 0.000000 0.000000 0.000000 0.016368 0.000000 0.000000
# 5 0.000000 0.000000 0.000000 0.000000 -0.067569 0.000000
# 6 0.000000 0.000000 0.000000 0.000000 0.000000 0.000328
#
#
# Mechanical properties :
#
#
# Convention : Reuss Voigt Hill
#
# Bulk Modulus (GPa) = 53.42458 89.81506 71.61982
# Shear Modulus (GPa) = -343.57382 651.22996 153.82807
#
# Velocity S-wave (km/s) = -11.19981 15.41941 7.49408
# Velocity P-wave (km/s) = 12.15495 18.70298 10.05134
#
# Compressibility (1/GPa) = 0.01871797
#
# Stress axis : x y z
#
# Youngs Moduli (GPa) = 61.81556 258.67874 229.55361
#
# Poissons Ratio (x) = 0.47280 0.01503
# Poissons Ratio (y) = 0.11298 0.21748
# Poissons Ratio (z) = 0.00405 0.24508
#
# Static dielectric constant tensor:
#      x y z
#    x 4.853460 0.000000 0.000000 
#    y 0.000000 6.231320 0.000000 
#    z 0.000000 0.000000 4.369030 
# 
# 
# High freq. dielectric constant tensor:
#      x y z
#    x 2.145860 0.000000 0.000000 
#    y 0.000000 2.164570 0.000000 
#    z 0.000000 0.000000 2.092380 
# 
# From -- ./inp_files/31813.got.cif
#   From: 2010.03.12/outbox.cif.g09.slc.cpg/sg50_16_cif.got.tgz:31813.got - 2010.04.16 13:23:21.
