data_PCOD8204122
_publ_section_title
;
Structure prediction by ZEFSAII (Michael W. Deem and Ramdas Pophale) SiO2 
 PCOD8204122
Probable space group: P C C M
;
_chemical_formula_sum "Si O2"
_cell_formula_units_Z 48
_cell_length_a 8.924450
_cell_length_b 28.306217
_cell_length_c 9.919984
_cell_angle_alpha 90.000000
_cell_angle_beta 90.000000
_cell_angle_gamma 90.000000
_cell_volume 2505.960748
_symmetry_space_group_name_H-M "P C C M"
_symmetry_group_IT_number 49
_symmetry_cell_setting 'orthorhombic'
loop_
_space_group_symop_operation_xyz
x,y,z
-x,-y,z
x,-y,1/2-z
-x,y,1/2-z
-x,-y,-z
x,y,-z
-x,y,1/2+z
x,-y,1/2+z
loop_
_atom_site_type_symbol
_atom_site_label
_atom_site_fract_x
_atom_site_fract_y
_atom_site_fract_z
Si Si1 0.858378 0.131523 0.656443
Si Si2 0.828231 0.601256 0.000000
Si Si3 0.327686 0.444052 0.749746
Si Si4 0.649983 0.041760 0.338267
Si Si5 0.184344 0.285272 0.500000
Si Si6 0.827405 0.707523 0.000000
Si Si7 0.178488 0.768315 0.742335
Si Si8 0.815343 0.606527 0.500000
O O1 0.908211 0.139423 0.500000
O O2 0.747196 0.088299 0.669672
O O3 0.771018 0.177978 0.711685
O O4 0.000000 0.120432 0.750000
O O5 0.764634 0.573989 0.874629
O O6 0.767262 0.654494 0.000000
O O7 0.006604 0.602587 0.000000
O O8 0.315637 0.500000 0.750000
O O9 0.500000 0.427774 0.750000
O O10 0.247319 0.421100 0.625104
O O11 0.500000 0.050723 0.250000
O O12 0.623218 0.029332 0.500000
O O13 0.731463 0.000000 0.250000
O O14 0.246811 0.254317 0.623389
O O15 0.243391 0.339185 0.500000
O O16 0.006079 0.289074 0.500000
O O17 0.760157 0.733630 0.128499
O O18 0.000000 0.768850 0.750000
#
# Coordination Sequence:
#
# PCOD8204122 Si02
#       8
#     8   4   8   8   4   4   8   4
#     4  10  21  34  55  86 118 148 189 237 284 333
#     4  11  22  36  61  92 110 149 191 246 296 323
#     4  11  24  41  59  81 116 158 193 230 291 364
#     4  10  21  39  59  82 109 151 197 240 291 351
#     4   9  18  30  50  81 111 141 176 233 280 333
#     4   9  16  30  52  77 111 139 176 225 278 333
#     4   9  16  29  48  77 111 143 178 219 279 334
#     4  11  22  38  61  90 118 141 197 250 288 341
#
# _framework density 19.154330000000002
#
# number of rings (size 3 to 8) (size 9 to 14) (size 15 to 20)
#    0.000    2.000    0.833    3.500    3.500    7.667 
#    0.000    1.667    0.000    6.000    0.000    0.000 
#    0.000    0.000    0.000    0.000    0.000    0.000 
#
# Total GULP energy -594732.028548 kJ/mol
# GULP energy per Si atom -12390.250595 kJ/mol
# Density = 1.911073 g / cm^3
# Si number density = 19.154330 Si / 1000 Ang^3
#
#
#
# Elastic Constant Matrix: (Units=GPa)
#
#
# Indices 1 2 3 4 5 6 
#
# 1 56.6655 46.7861 42.9947 0.0000 0.0000 0.0000
# 2 46.7861 144.5263 76.5623 0.0000 0.0000 0.0000
# 3 42.9947 76.5623 192.1649 0.0000 0.0000 0.0000
# 4 0.0000 0.0000 0.0000 43.3830 0.0000 0.0000
# 5 0.0000 0.0000 0.0000 0.0000 33.3372 0.0000
# 6 0.0000 0.0000 0.0000 0.0000 0.0000 -12.0947
#
#
#
# Elastic Compliance Matrix: (Units=1/GPa)
#
#
# Indices 1 2 3 4 5 6 
#
# 1 0.025424 -0.006613 -0.003054 0.000000 0.000000 0.000000
# 2 -0.006613 0.010490 -0.002700 0.000000 0.000000 0.000000
# 3 -0.003054 -0.002700 0.006963 0.000000 0.000000 0.000000
# 4 0.000000 0.000000 0.000000 0.023050 0.000000 0.000000
# 5 0.000000 0.000000 0.000000 0.000000 0.029997 0.000000
# 6 0.000000 0.000000 0.000000 0.000000 0.000000 -0.082681
#
#
# Mechanical properties :
#
#
# Convention : Reuss Voigt Hill
#
# Bulk Modulus (GPa) = 55.11340 80.67146 67.89243
# Shear Modulus (GPa) = 113.57495 28.05935 70.81715
#
# Velocity S-wave (km/s) = 7.70866 3.83156 6.08705
# Velocity P-wave (km/s) = 10.39553 7.86019 9.21546
#
# Compressibility (1/GPa) = 0.01814441
#
# Stress axis : x y z
#
# Youngs Moduli (GPa) = 39.33263 95.32804 143.61967
#
# Poissons Ratio (x) = 0.63037 0.43858
# Poissons Ratio (y) = 0.26009 0.38777
# Poissons Ratio (z) = 0.12011 0.25738
#
# Static dielectric constant tensor:
#      x y z
#    x 3.151810 0.000000 0.000000 
#    y 0.000000 3.908670 0.000000 
#    z 0.000000 0.000000 3.939630 
# 
# 
# High freq. dielectric constant tensor:
#      x y z
#    x 1.701050 0.000000 0.000000 
#    y 0.000000 1.767990 0.000000 
#    z 0.000000 0.000000 1.770220 
# 
# From -- ./inp_files/2182.got.cif
#   From: 2010.03.12/outbox.cif.g09.slc.cpg/sg49_2_cif.got.tgz:2182.got - 2010.04.14 03:58:27.
