data_PCOD8204953
_publ_section_title
;
Structure prediction by ZEFSAII (Michael W. Deem and Ramdas Pophale) SiO2 
 PCOD8204953
Probable space group: P B A N
;
_chemical_formula_sum "Si O2"
_cell_formula_units_Z 48
_cell_length_a 14.112638
_cell_length_b 9.459358
_cell_length_c 17.789858
_cell_angle_alpha 90.000000
_cell_angle_beta 90.000000
_cell_angle_gamma 90.000000
_cell_volume 2374.883693
_symmetry_space_group_name_H-M "P B A N"
_symmetry_group_IT_number 50
_space_group.IT_coordinate_system_code '2'
_symmetry_cell_setting 'orthorhombic'
loop_
_space_group_symop_operation_xyz
x,y,z
1/2-x,1/2-y,z
x,1/2-y,-z
1/2-x,y,-z
-x,-y,-z
1/2+x,1/2+y,-z
-x,1/2+y,z
1/2+x,-y,z
loop_
_atom_site_type_symbol
_atom_site_label
_atom_site_fract_x
_atom_site_fract_y
_atom_site_fract_z
Si Si1 0.383186 0.154577 0.838250
Si Si2 0.881909 0.500498 0.685117
Si Si3 0.275377 0.407107 0.413972
Si Si4 0.549762 0.386023 0.050459
Si Si5 0.557342 0.816456 0.328997
Si Si6 0.310760 0.462549 0.851299
O O1 0.483053 0.132246 0.877472
O O2 0.395115 0.141700 0.749450
O O3 0.346799 0.305101 0.865992
O O4 0.303804 0.035977 0.857956
O O5 0.787531 0.484416 0.634475
O O6 0.937420 0.646041 0.663733
O O7 0.849268 0.488196 0.770825
O O8 0.948796 0.367039 0.666767
O O9 0.250000 0.250000 0.386999
O O10 0.250000 0.435976 0.500000
O O11 0.387340 0.407961 0.393890
O O12 0.650678 0.436776 0.082706
O O13 0.567461 0.250000 0.000000
O O14 0.500000 0.500000 0.000000
#
# Coordination Sequence:
#
# PCOD8204953 Si02
#       6
#     8   8   8   8   8   8
#     4  10  20  38  63  84 111 156 201 237 289 355
#     4  10  19  34  60  86 114 155 199 239 288 349
#     4   9  18  34  57  88 120 153 200 247 284 345
#     4  12  24  40  60  86 120 149 187 250 304 345
#     4  10  19  34  60  86 114 154 200 238 289 351
#     4  10  20  38  63  85 111 155 203 237 285 359
#
# _framework density 20.211517000000001
#
# number of rings (size 3 to 8) (size 9 to 14) (size 15 to 20)
#    0.000    1.833    5.000    0.000    0.000    1.333 
#    0.000    2.500    0.000    1.000    0.000    0.000 
#    0.000    0.000    0.000    0.000    0.000    0.000 
#
# Total GULP energy -594959.670261 kJ/mol
# GULP energy per Si atom -12394.993130 kJ/mol
# Density = 2.016551 g / cm^3
# Si number density = 20.211517 Si / 1000 Ang^3
#
#
#
# Elastic Constant Matrix: (Units=GPa)
#
#
# Indices 1 2 3 4 5 6 
#
# 1 61.7128 7.2829 7.7717 0.0000 0.0000 0.0000
# 2 7.2829 43.8544 21.2667 0.0000 0.0000 0.0000
# 3 7.7717 21.2667 88.3473 0.0000 0.0000 0.0000
# 4 0.0000 0.0000 0.0000 21.4399 0.0000 0.0000
# 5 0.0000 0.0000 0.0000 0.0000 32.1890 0.0000
# 6 0.0000 0.0000 0.0000 0.0000 0.0000 34.4749
#
#
#
# Elastic Compliance Matrix: (Units=1/GPa)
#
#
# Indices 1 2 3 4 5 6 
#
# 1 0.016591 -0.002318 -0.000901 0.000000 0.000000 0.000000
# 2 -0.002318 0.026140 -0.006088 0.000000 0.000000 0.000000
# 3 -0.000901 -0.006088 0.012864 0.000000 0.000000 0.000000
# 4 0.000000 0.000000 0.000000 0.046642 0.000000 0.000000
# 5 0.000000 0.000000 0.000000 0.000000 0.031066 0.000000
# 6 0.000000 0.000000 0.000000 0.000000 0.000000 0.029007
#
#
# Mechanical properties :
#
#
# Convention : Reuss Voigt Hill
#
# Bulk Modulus (GPa) = 27.04228 29.61746 28.32987
# Shear Modulus (GPa) = 25.87282 28.12698 26.99990
#
# Velocity S-wave (km/s) = 3.58173 3.73450 3.65892
# Velocity P-wave (km/s) = 5.52393 5.76896 5.64777
#
# Compressibility (1/GPa) = 0.03697913
#
# Stress axis : x y z
#
# Youngs Moduli (GPa) = 60.27296 38.25517 77.73716
#
# Poissons Ratio (x) = 0.08868 0.07008
# Poissons Ratio (y) = 0.13972 0.47330
# Poissons Ratio (z) = 0.05433 0.23292
#
# Static dielectric constant tensor:
#      x y z
#    x 3.662780 0.000000 0.000000 
#    y 0.000000 3.575100 0.000000 
#    z 0.000000 0.000000 3.566350 
# 
# 
# High freq. dielectric constant tensor:
#      x y z
#    x 1.793200 0.000000 0.000000 
#    y 0.000000 1.757360 0.000000 
#    z 0.000000 0.000000 1.790430 
# 
# From -- ./inp_files/28692.got.cif
#   From: 2010.03.12/outbox.cif.g09.slc.cpg/sg50_15_cif.got.tgz:28692.got - 2010.04.16 13:23:21.
