data_PCOD8204544
_publ_section_title
;
Structure prediction by ZEFSAII (Michael W. Deem and Ramdas Pophale) SiO2 
 PCOD8204544
Probable space group: P C C M
;
_chemical_formula_sum "Si O2"
_cell_formula_units_Z 56
_cell_length_a 12.126000
_cell_length_b 9.652719
_cell_length_c 21.445995
_cell_angle_alpha 90.000000
_cell_angle_beta 90.000000
_cell_angle_gamma 90.000000
_cell_volume 2510.229494
_symmetry_space_group_name_H-M "P C C M"
_symmetry_group_IT_number 49
_symmetry_cell_setting 'orthorhombic'
loop_
_space_group_symop_operation_xyz
x,y,z
-x,-y,z
x,-y,1/2-z
-x,y,1/2-z
-x,-y,-z
x,y,-z
-x,y,1/2+z
x,-y,1/2+z
loop_
_atom_site_type_symbol
_atom_site_label
_atom_site_fract_x
_atom_site_fract_y
_atom_site_fract_z
Si Si1 0.205015 0.977326 0.929115
Si Si2 0.559310 0.855794 0.571321
Si Si3 0.184005 0.260546 0.129475
Si Si4 0.452134 0.346981 0.315202
Si Si5 0.073566 0.779401 0.147716
Si Si6 0.127978 0.531915 0.932589
Si Si7 0.218181 0.654794 0.759479
O O1 0.234624 0.133957 0.909221
O O2 0.310580 0.880235 0.921725
O O3 0.107126 0.924332 0.884114
O O4 0.161432 0.978520 0.000000
O O5 0.532009 0.805654 0.500000
O O6 0.520016 0.745460 0.623694
O O7 0.500000 0.000000 0.585223
O O8 0.196972 0.398939 0.089099
O O9 0.253849 0.281474 0.192677
O O10 0.056242 0.237090 0.146404
O O11 0.500000 0.500000 0.327059
O O12 0.500000 0.284854 0.250000
O O13 0.320877 0.354288 0.306181
O O14 0.143191 0.659656 0.112903
O O15 0.122271 0.760436 0.217068
O O16 0.000000 0.500000 0.937683
O O17 0.174729 0.575856 0.000000
O O18 0.168055 0.500000 0.750000
#
# Coordination Sequence:
#
# PCOD8204544 Si02
#       7
#     8   8   8   8   8   8   8
#     4  11  24  43  66  95 134 176 222 279 336 400
#     4  10  24  47  71  99 136 173 217 280 354 414
#     4  11  24  37  63  92 131 179 223 267 328 395
#     4  11  24  44  74 102 129 169 222 282 339 406
#     4  11  22  40  62  90 129 181 220 274 329 386
#     4   9  18  33  55  84 115 160 221 269 314 375
#     4  12  23  42  65  94 134 169 218 278 335 395
#
# _framework density 22.308717000000001
#
# number of rings (size 3 to 8) (size 9 to 14) (size 15 to 20)
#    0.000    1.286    4.286    1.714    2.000    4.000 
#    0.000    1.429    0.000    0.000    0.000    0.000 
#    0.000    0.000    0.000    0.000    0.000    0.000 
#
# Total GULP energy -694269.153068 kJ/mol
# GULP energy per Si atom -12397.663448 kJ/mol
# Density = 2.225794 g / cm^3
# Si number density = 22.308717 Si / 1000 Ang^3
#
#
#
# Elastic Constant Matrix: (Units=GPa)
#
#
# Indices 1 2 3 4 5 6 
#
# 1 47.0613 0.1462 10.7665 0.0000 0.0000 0.0000
# 2 0.1462 100.2664 52.6724 0.0000 0.0000 0.0000
# 3 10.7665 52.6724 139.5644 0.0000 0.0000 0.0000
# 4 0.0000 0.0000 0.0000 42.7274 0.0000 0.0000
# 5 0.0000 0.0000 0.0000 0.0000 104.9037 0.0000
# 6 0.0000 0.0000 0.0000 0.0000 0.0000 27.5804
#
#
#
# Elastic Compliance Matrix: (Units=1/GPa)
#
#
# Indices 1 2 3 4 5 6 
#
# 1 0.021720 0.001058 -0.002075 0.000000 0.000000 0.000000
# 2 0.001058 0.012491 -0.004796 0.000000 0.000000 0.000000
# 3 -0.002075 -0.004796 0.009135 0.000000 0.000000 0.000000
# 4 0.000000 0.000000 0.000000 0.023404 0.000000 0.000000
# 5 0.000000 0.000000 0.000000 0.000000 0.009533 0.000000
# 6 0.000000 0.000000 0.000000 0.000000 0.000000 0.036258
#
#
# Mechanical properties :
#
#
# Convention : Reuss Voigt Hill
#
# Bulk Modulus (GPa) = 31.52416 46.00693 38.76554
# Shear Modulus (GPa) = 37.10843 49.92944 43.51894
#
# Velocity S-wave (km/s) = 4.08291 4.73600 4.42153
# Velocity P-wave (km/s) = 6.03228 7.11153 6.59403
#
# Compressibility (1/GPa) = 0.03172170
#
# Stress axis : x y z
#
# Youngs Moduli (GPa) = 46.03986 80.05561 109.46611
#
# Poissons Ratio (x) = -0.08473 0.22714
# Poissons Ratio (y) = -0.04873 0.52499
# Poissons Ratio (z) = 0.09553 0.38394
#
# Static dielectric constant tensor:
#      x y z
#    x 3.743240 0.000000 0.000000 
#    y 0.000000 3.968200 0.000000 
#    z 0.000000 0.000000 4.248290 
# 
# 
# High freq. dielectric constant tensor:
#      x y z
#    x 1.863560 0.000000 0.000000 
#    y 0.000000 1.869480 0.000000 
#    z 0.000000 0.000000 1.890890 
# 
# From -- ./inp_files/20868.got.cif
#   From: 2010.03.12/outbox.cif.g09.slc.cpg/sg49_11_cif.got.tgz:20868.got - 2010.04.14 03:58:27.
