data_PCOD8204640
_publ_section_title
;
Structure prediction by ZEFSAII (Michael W. Deem and Ramdas Pophale) SiO2 
 PCOD8204640
Probable space group: P C C M
;
_chemical_formula_sum "Si O2"
_cell_formula_units_Z 56
_cell_length_a 20.114671
_cell_length_b 15.329324
_cell_length_c 9.021062
_cell_angle_alpha 90.000000
_cell_angle_beta 90.000000
_cell_angle_gamma 90.000000
_cell_volume 2781.593128
_symmetry_space_group_name_H-M "P C C M"
_symmetry_group_IT_number 49
_symmetry_cell_setting 'orthorhombic'
loop_
_space_group_symop_operation_xyz
x,y,z
-x,-y,z
x,-y,1/2-z
-x,y,1/2-z
-x,-y,-z
x,y,-z
-x,y,1/2+z
x,-y,1/2+z
loop_
_atom_site_type_symbol
_atom_site_label
_atom_site_fract_x
_atom_site_fract_y
_atom_site_fract_z
Si Si1 0.164450 0.410250 0.674777
Si Si2 0.931262 0.273443 0.676081
Si Si3 0.751070 0.868101 0.669435
Si Si4 0.434192 0.725153 0.175417
Si Si5 0.119230 0.083846 0.826670
Si Si6 0.397273 0.916426 0.833095
Si Si7 0.292940 0.684004 0.827121
O O1 0.141912 0.500000 0.750000
O O2 0.148622 0.412554 0.500000
O O3 0.125992 0.331379 0.751201
O O4 0.243768 0.396984 0.704443
O O5 0.933012 0.288992 0.500000
O O6 0.918421 0.172646 0.717374
O O7 0.000000 0.303045 0.750000
O O8 0.777709 0.864797 0.500000
O O9 0.804842 0.914392 0.772317
O O10 0.682385 0.920237 0.678490
O O11 0.740201 0.771405 0.738402
O O12 0.500000 0.684709 0.250000
O O13 0.424682 0.824966 0.231371
O O14 0.368805 0.670160 0.230865
O O15 0.442600 0.719643 0.000000
O O16 0.083780 0.000000 0.750000
O O17 0.118362 0.068358 0.000000
O O18 0.427854 0.000000 0.750000
O O19 0.421570 0.924510 0.000000
O O20 0.300486 0.704289 0.000000
#
# Coordination Sequence:
#
# PCOD8204640 Si02
#       7
#     8   8   8   8   8   8   8
#     4  11  22  40  68  97 124 155 190 238 296 357
#     4  11  25  44  64  90 123 160 201 245 292 348
#     4   9  16  31  53  76 104 144 191 237 291 347
#     4   9  18  33  50  73 103 143 191 234 283 344
#     4  11  23  36  55  84 118 155 199 248 292 342
#     4   9  18  29  43  65  99 138 184 237 286 341
#     4   8  16  33  58  82 111 151 188 229 289 350
#
# _framework density 20.132348
#
# number of rings (size 3 to 8) (size 9 to 14) (size 15 to 20)
#    0.000    2.286    1.429    3.429    0.000    4.857 
#    0.000    7.857    0.000    0.429    0.000    3.000 
#    0.000    0.000    0.000    0.000    0.000    0.000 
#
# Total GULP energy -694132.835762 kJ/mol
# GULP energy per Si atom -12395.229210 kJ/mol
# Density = 2.008653 g / cm^3
# Si number density = 20.132348 Si / 1000 Ang^3
#
#
#
# Elastic Constant Matrix: (Units=GPa)
#
#
# Indices 1 2 3 4 5 6 
#
# 1 105.3439 27.3359 41.3550 0.0000 0.0000 0.0000
# 2 27.3359 84.0636 46.0575 0.0000 0.0000 0.0000
# 3 41.3550 46.0575 81.3962 0.0000 0.0000 0.0000
# 4 0.0000 0.0000 0.0000 20.8388 0.0000 0.0000
# 5 0.0000 0.0000 0.0000 0.0000 25.9331 0.0000
# 6 0.0000 0.0000 0.0000 0.0000 0.0000 8.9446
#
#
#
# Elastic Compliance Matrix: (Units=1/GPa)
#
#
# Indices 1 2 3 4 5 6 
#
# 1 0.011895 -0.000807 -0.005587 0.000000 0.000000 0.000000
# 2 -0.000807 0.017295 -0.009376 0.000000 0.000000 0.000000
# 3 -0.005587 -0.009376 0.020430 0.000000 0.000000 0.000000
# 4 0.000000 0.000000 0.000000 0.047987 0.000000 0.000000
# 5 0.000000 0.000000 0.000000 0.000000 0.038561 0.000000
# 6 0.000000 0.000000 0.000000 0.000000 0.000000 0.111800
#
#
# Mechanical properties :
#
#
# Convention : Reuss Voigt Hill
#
# Bulk Modulus (GPa) = 55.31117 55.58894 55.45006
# Shear Modulus (GPa) = 17.51089 21.54696 19.52893
#
# Velocity S-wave (km/s) = 2.95242 3.27504 3.11791
# Velocity P-wave (km/s) = 6.25746 6.47865 6.36901
#
# Compressibility (1/GPa) = 0.01807953
#
# Stress axis : x y z
#
# Youngs Moduli (GPa) = 84.06561 57.81860 48.94810
#
# Poissons Ratio (x) = 0.04667 0.27347
# Poissons Ratio (y) = 0.06785 0.45896
# Poissons Ratio (z) = 0.46968 0.54213
#
# Static dielectric constant tensor:
#      x y z
#    x 3.688860 0.000000 0.000000 
#    y 0.000000 3.491520 0.000000 
#    z 0.000000 0.000000 3.441510 
# 
# 
# High freq. dielectric constant tensor:
#      x y z
#    x 1.787690 0.000000 0.000000 
#    y 0.000000 1.766290 0.000000 
#    z 0.000000 0.000000 1.767960 
# 
# From -- ./inp_files/5769.got.cif
#   From: 2010.03.12/outbox.cif.g09.slc.cpg/sg49_3_cif.got.tgz:5769.got - 2010.04.14 03:58:27.
