data_PCOD8204666
_publ_section_title
;
Structure prediction by ZEFSAII (Michael W. Deem and Ramdas Pophale) SiO2 
 PCOD8204666
Probable space group: P C C M
;
_chemical_formula_sum "Si O2"
_cell_formula_units_Z 32
_cell_length_a 4.818524
_cell_length_b 11.689677
_cell_length_c 24.247118
_cell_angle_alpha 90.000000
_cell_angle_beta 90.000000
_cell_angle_gamma 90.000000
_cell_volume 1365.767153
_symmetry_space_group_name_H-M "P C C M"
_symmetry_group_IT_number 49
_symmetry_cell_setting 'orthorhombic'
loop_
_space_group_symop_operation_xyz
x,y,z
-x,-y,z
x,-y,1/2-z
-x,y,1/2-z
-x,-y,-z
x,y,-z
-x,y,1/2+z
x,-y,1/2+z
loop_
_atom_site_type_symbol
_atom_site_label
_atom_site_fract_x
_atom_site_fract_y
_atom_site_fract_z
Si Si1 0.264221 0.923303 0.852847
Si Si2 0.566609 0.762895 0.938474
Si Si3 0.236830 0.299457 0.711571
Si Si4 0.093749 0.374867 0.403702
O O1 0.416271 0.865544 0.905692
O O2 0.176523 0.830561 0.807513
O O3 0.500000 0.000000 0.824198
O O4 0.000000 0.000000 0.871488
O O5 0.339852 0.661851 0.944658
O O6 0.840073 0.716986 0.906261
O O7 0.652474 0.803080 0.000000
O O8 0.500000 0.312547 0.750000
O O9 0.236080 0.377733 0.656943
O O10 0.000000 0.346925 0.750000
O O11 0.000000 0.500000 0.422004
#
# Coordination Sequence:
#
# PCOD8204666 Si02
#       4
#     8   8   8   8
#     4  11  23  40  62  90 126 165 210 264 318 378
#     4  11  24  42  65  95 130 169 217 269 322 388
#     4  11  23  41  63  90 123 161 208 260 315 379
#     4  11  24  43  65  94 131 168 215 271 324 387
#
# _framework density 23.430053000000001
#
# number of rings (size 3 to 8) (size 9 to 14) (size 15 to 20)
#    0.000    1.000    0.000    9.000    0.000    7.500 
#    0.000    3.750    0.000    0.000    0.000    0.000 
#    0.000    0.000    0.000    0.000    0.000    0.000 
#
# Total GULP energy -396610.088845 kJ/mol
# GULP energy per Si atom -12394.065276 kJ/mol
# Density = 2.337672 g / cm^3
# Si number density = 23.430053 Si / 1000 Ang^3
#
#
#
# Elastic Constant Matrix: (Units=GPa)
#
#
# Indices 1 2 3 4 5 6 
#
# 1 142.8784 6.9113 37.1033 0.0000 0.0000 0.0000
# 2 6.9113 38.8325 -10.4982 0.0000 0.0000 0.0000
# 3 37.1033 -10.4982 101.0682 0.0000 0.0000 0.0000
# 4 0.0000 0.0000 0.0000 10.8482 0.0000 0.0000
# 5 0.0000 0.0000 0.0000 0.0000 33.4968 0.0000
# 6 0.0000 0.0000 0.0000 0.0000 0.0000 40.4877
#
#
#
# Elastic Compliance Matrix: (Units=1/GPa)
#
#
# Indices 1 2 3 4 5 6 
#
# 1 0.007925 -0.002260 -0.003144 0.000000 0.000000 0.000000
# 2 -0.002260 0.027140 0.003649 0.000000 0.000000 0.000000
# 3 -0.003144 0.003649 0.011428 0.000000 0.000000 0.000000
# 4 0.000000 0.000000 0.000000 0.092181 0.000000 0.000000
# 5 0.000000 0.000000 0.000000 0.000000 0.029854 0.000000
# 6 0.000000 0.000000 0.000000 0.000000 0.000000 0.024699
#
#
# Mechanical properties :
#
#
# Convention : Reuss Voigt Hill
#
# Bulk Modulus (GPa) = 23.26574 38.86800 31.06687
# Shear Modulus (GPa) = 23.68941 33.58404 28.63672
#
# Velocity S-wave (km/s) = 3.18318 3.79010 3.49982
# Velocity P-wave (km/s) = 4.84372 5.98148 5.44241
#
# Compressibility (1/GPa) = 0.04298165
#
# Stress axis : x y z
#
# Youngs Moduli (GPa) = 126.18666 36.84548 87.50774
#
# Poissons Ratio (x) = 0.08329 0.27513
# Poissons Ratio (y) = 0.28523 -0.31931
# Poissons Ratio (z) = 0.39674 -0.13445
#
# Static dielectric constant tensor:
#      x y z
#    x 4.430280 0.000000 0.000000 
#    y 0.000000 4.198980 0.000000 
#    z 0.000000 0.000000 4.020560 
# 
# 
# High freq. dielectric constant tensor:
#      x y z
#    x 1.948270 0.000000 0.000000 
#    y 0.000000 1.916710 0.000000 
#    z 0.000000 0.000000 1.921830 
# 
# From -- ./inp_files/18718.got.cif
#   From: 2010.03.12/outbox.cif.g09.slc.cpg/sg49_10_cif.got.tgz:18718.got - 2010.04.14 03:58:27.
