data_PCOD8204900
_publ_section_title
;
Structure prediction by ZEFSAII (Michael W. Deem and Ramdas Pophale) SiO2 
 PCOD8204900
Probable space group: P B A N
;
_chemical_formula_sum "Si O2"
_cell_formula_units_Z 48
_cell_length_a 18.041083
_cell_length_b 8.674085
_cell_length_c 15.682119
_cell_angle_alpha 90.000000
_cell_angle_beta 90.000000
_cell_angle_gamma 90.000000
_cell_volume 2454.093037
_symmetry_space_group_name_H-M "P B A N"
_symmetry_group_IT_number 50
_space_group.IT_coordinate_system_code '2'
_symmetry_cell_setting 'orthorhombic'
loop_
_space_group_symop_operation_xyz
x,y,z
1/2-x,1/2-y,z
x,1/2-y,-z
1/2-x,y,-z
-x,-y,-z
1/2+x,1/2+y,-z
-x,1/2+y,z
1/2+x,-y,z
loop_
_atom_site_type_symbol
_atom_site_label
_atom_site_fract_x
_atom_site_fract_y
_atom_site_fract_z
Si Si1 0.592596 0.294514 0.908103
Si Si2 0.543254 0.387325 0.334248
Si Si3 0.174074 0.323839 0.745981
Si Si4 0.963007 0.606821 0.161262
Si Si5 0.328829 0.809693 0.741161
Si Si6 0.908468 0.795849 0.406173
O O1 0.570430 0.471694 0.896267
O O2 0.516925 0.200278 0.899064
O O3 0.654581 0.252847 0.837821
O O4 0.626530 0.250000 0.000000
O O5 0.507496 0.452725 0.245792
O O6 0.607483 0.261343 0.318295
O O7 0.574904 0.523743 0.392593
O O8 0.481313 0.302600 0.388298
O O9 0.250000 0.250000 0.783072
O O10 0.105720 0.283487 0.809492
O O11 0.173953 0.507090 0.734768
O O12 0.159846 0.246275 0.654969
O O13 0.250000 0.750000 0.710111
O O14 0.881369 0.750000 0.500000
#
# Coordination Sequence:
#
# PCOD8204900 Si02
#       6
#     8   8   8   8   8   8
#     4  10  19  32  53  80 107 133 170 221 269 314
#     4  10  19  35  55  79 108 141 181 217 261 324
#     4  10  20  36  55  77 105 141 183 220 262 322
#     4   9  18  33  53  77 104 139 177 212 260 318
#     4  10  21  36  55  77 104 144 184 218 262 320
#     4  11  21  34  56  82 108 136 171 224 273 316
#
# _framework density 19.559159000000001
#
# number of rings (size 3 to 8) (size 9 to 14) (size 15 to 20)
#    0.000    2.000    0.000    7.000    0.000    2.000 
#    0.000    0.000    0.000    6.000    0.000    0.000 
#    0.000    0.000    0.000    0.000    0.000    0.000 
#
# Total GULP energy -595087.312932 kJ/mol
# GULP energy per Si atom -12397.652353 kJ/mol
# Density = 1.951464 g / cm^3
# Si number density = 19.559159 Si / 1000 Ang^3
#
#
#
# Elastic Constant Matrix: (Units=GPa)
#
#
# Indices 1 2 3 4 5 6 
#
# 1 67.2963 5.8933 -7.8971 0.0000 0.0000 0.0000
# 2 5.8933 82.2323 9.5965 0.0000 0.0000 0.0000
# 3 -7.8971 9.5965 59.9691 0.0000 0.0000 0.0000
# 4 0.0000 0.0000 0.0000 15.5968 0.0000 0.0000
# 5 0.0000 0.0000 0.0000 0.0000 17.3588 0.0000
# 6 0.0000 0.0000 0.0000 0.0000 0.0000 26.6359
#
#
#
# Elastic Compliance Matrix: (Units=1/GPa)
#
#
# Indices 1 2 3 4 5 6 
#
# 1 0.015239 -0.001352 0.002223 0.000000 0.000000 0.000000
# 2 -0.001352 0.012512 -0.002180 0.000000 0.000000 0.000000
# 3 0.002223 -0.002180 0.017317 0.000000 0.000000 0.000000
# 4 0.000000 0.000000 0.000000 0.064116 0.000000 0.000000
# 5 0.000000 0.000000 0.000000 0.000000 0.057608 0.000000
# 6 0.000000 0.000000 0.000000 0.000000 0.000000 0.037543
#
#
# Mechanical properties :
#
#
# Convention : Reuss Voigt Hill
#
# Bulk Modulus (GPa) = 23.55695 24.96478 24.26087
# Shear Modulus (GPa) = 22.61401 25.37863 23.99632
#
# Velocity S-wave (km/s) = 3.40396 3.60603 3.50645
# Velocity P-wave (km/s) = 5.24589 5.48903 5.36884
#
# Compressibility (1/GPa) = 0.04245031
#
# Stress axis : x y z
#
# Youngs Moduli (GPa) = 65.62160 79.92353 57.74711
#
# Poissons Ratio (x) = 0.10802 -0.12837
# Poissons Ratio (y) = 0.08869 0.12590
# Poissons Ratio (z) = -0.14588 0.17425
#
# Static dielectric constant tensor:
#      x y z
#    x 3.756310 0.000000 0.000000 
#    y 0.000000 3.504320 0.000000 
#    z 0.000000 0.000000 3.395060 
# 
# 
# High freq. dielectric constant tensor:
#      x y z
#    x 1.762120 0.000000 0.000000 
#    y 0.000000 1.765880 0.000000 
#    z 0.000000 0.000000 1.739140 
# 
# From -- ./inp_files/24970.got.cif
#   From: 2010.03.12/outbox.cif.g09.slc.cpg/sg50_13_cif.got.tgz:24970.got - 2010.04.16 13:23:21.
