data_PCOD8204987
_publ_section_title
;
Structure prediction by ZEFSAII (Michael W. Deem and Ramdas Pophale) SiO2 
 PCOD8204987
Probable space group: P B A N
;
_chemical_formula_sum "Si O2"
_cell_formula_units_Z 56
_cell_length_a 18.907644
_cell_length_b 14.750693
_cell_length_c 10.534008
_cell_angle_alpha 90.000000
_cell_angle_beta 90.000000
_cell_angle_gamma 90.000000
_cell_volume 2937.943806
_symmetry_space_group_name_H-M "P B A N"
_symmetry_group_IT_number 50
_space_group.IT_coordinate_system_code '2'
_symmetry_cell_setting 'orthorhombic'
loop_
_space_group_symop_operation_xyz
x,y,z
1/2-x,1/2-y,z
x,1/2-y,-z
1/2-x,y,-z
-x,-y,-z
1/2+x,1/2+y,-z
-x,1/2+y,z
1/2+x,-y,z
loop_
_atom_site_type_symbol
_atom_site_label
_atom_site_fract_x
_atom_site_fract_y
_atom_site_fract_z
Si Si1 0.501671 0.007078 0.316623
Si Si2 0.327351 0.239082 0.850802
Si Si3 0.290031 0.654319 0.612858
Si Si4 0.877243 0.925515 0.163437
Si Si5 0.109192 0.050652 0.123453
Si Si6 0.251657 0.950699 0.858200
Si Si7 0.049813 0.853011 0.513255
O O1 0.420882 0.029923 0.278369
O O2 0.544973 0.091486 0.380035
O O3 0.537704 0.982674 0.185311
O O4 0.500974 0.915595 0.400182
O O5 0.250000 0.250000 0.786517
O O6 0.377244 0.319657 0.800838
O O7 0.365082 0.145452 0.816864
O O8 0.318132 0.250000 0.000000
O O9 0.250000 0.750000 0.616189
O O10 0.250000 0.597518 0.500000
O O11 0.279222 0.616530 0.753390
O O12 0.372459 0.657789 0.575319
O O13 0.796442 0.959447 0.151316
O O14 0.910107 0.943329 0.024779
O O15 0.167719 0.977215 0.164206
O O16 0.250000 0.907062 0.000000
O O17 0.019612 0.750000 0.500000
#
# Coordination Sequence:
#
# PCOD8204987 Si02
#       7
#     8   8   8   8   8   8   8
#     4  11  24  39  62  84 120 158 197 251 303 362
#     4   9  16  30  53  82 113 148 187 230 289 359
#     4  11  21  38  64  84 112 158 208 251 289 358
#     4  10  19  36  58  86 122 155 191 244 304 365
#     4  10  20  34  58  90 119 152 194 241 304 370
#     4  10  20  36  60  89 123 155 199 255 302 357
#     4  11  24  43  59  85 114 159 210 248 299 351
#
# _framework density 19.060950999999999
#
# number of rings (size 3 to 8) (size 9 to 14) (size 15 to 20)
#    0.000    1.714    4.286    1.286    2.000    0.286 
#    0.000    0.000    0.000    0.000    0.000    4.000 
#    0.000    0.000    0.000    0.000    0.000    0.000 
#
# Total GULP energy -693764.860265 kJ/mol
# GULP energy per Si atom -12388.658219 kJ/mol
# Density = 1.901757 g / cm^3
# Si number density = 19.060951 Si / 1000 Ang^3
#
#
#
# Elastic Constant Matrix: (Units=GPa)
#
#
# Indices 1 2 3 4 5 6 
#
# 1 62.7733 23.1746 21.3413 0.0000 0.0000 0.0000
# 2 23.1746 105.4536 38.8564 0.0000 0.0000 0.0000
# 3 21.3413 38.8564 87.2872 0.0000 0.0000 0.0000
# 4 0.0000 0.0000 0.0000 22.4904 0.0000 0.0000
# 5 0.0000 0.0000 0.0000 0.0000 22.8733 0.0000
# 6 0.0000 0.0000 0.0000 0.0000 0.0000 10.5084
#
#
#
# Elastic Compliance Matrix: (Units=1/GPa)
#
#
# Indices 1 2 3 4 5 6 
#
# 1 0.018039 -0.002798 -0.003165 0.000000 0.000000 0.000000
# 2 -0.002798 0.011778 -0.004559 0.000000 0.000000 0.000000
# 3 -0.003165 -0.004559 0.014260 0.000000 0.000000 0.000000
# 4 0.000000 0.000000 0.000000 0.044463 0.000000 0.000000
# 5 0.000000 0.000000 0.000000 0.000000 0.043719 0.000000
# 6 0.000000 0.000000 0.000000 0.000000 0.000000 0.095162
#
#
# Mechanical properties :
#
#
# Convention : Reuss Voigt Hill
#
# Bulk Modulus (GPa) = 43.41619 46.91764 45.16691
# Shear Modulus (GPa) = 19.52042 22.65054 21.08548
#
# Velocity S-wave (km/s) = 3.20364 3.45094 3.32959
# Velocity P-wave (km/s) = 6.04246 6.36763 6.20717
#
# Compressibility (1/GPa) = 0.02303288
#
# Stress axis : x y z
#
# Youngs Moduli (GPa) = 55.43434 84.90757 70.12833
#
# Poissons Ratio (x) = 0.23759 0.22195
# Poissons Ratio (y) = 0.15511 0.31969
# Poissons Ratio (z) = 0.17544 0.38707
#
# Static dielectric constant tensor:
#      x y z
#    x 3.324120 0.000000 0.000000 
#    y 0.000000 3.558910 0.000000 
#    z 0.000000 0.000000 3.715900 
# 
# 
# High freq. dielectric constant tensor:
#      x y z
#    x 1.738530 0.000000 0.000000 
#    y 0.000000 1.735240 0.000000 
#    z 0.000000 0.000000 1.730860 
# 
# From -- ./inp_files/15341.got.cif
#   From: 2010.03.12/outbox.cif.g09.slc.cpg/sg50_8_cif.got.tgz:15341.got - 2010.04.16 13:23:21.
