data_PCOD8204247
_publ_section_title
;
Structure prediction by ZEFSAII (Michael W. Deem and Ramdas Pophale) SiO2 
 PCOD8204247
Probable space group: P C C M
;
_chemical_formula_sum "Si O2"
_cell_formula_units_Z 64
_cell_length_a 10.723089
_cell_length_b 14.928381
_cell_length_c 17.617136
_cell_angle_alpha 90.000000
_cell_angle_beta 90.000000
_cell_angle_gamma 90.000000
_cell_volume 2820.122205
_symmetry_space_group_name_H-M "P C C M"
_symmetry_group_IT_number 49
_symmetry_cell_setting 'orthorhombic'
loop_
_space_group_symop_operation_xyz
x,y,z
-x,-y,z
x,-y,1/2-z
-x,y,1/2-z
-x,-y,-z
x,y,-z
-x,y,1/2+z
x,-y,1/2+z
loop_
_atom_site_type_symbol
_atom_site_label
_atom_site_fract_x
_atom_site_fract_y
_atom_site_fract_z
Si Si1 0.366937 0.044434 0.327947
Si Si2 0.782068 0.493689 0.085367
Si Si3 0.688180 0.752936 0.330946
Si Si4 0.133960 0.029468 0.089799
Si Si5 0.542218 0.620600 0.583333
Si Si6 0.909325 0.309449 0.087461
Si Si7 0.685709 0.644342 0.178448
Si Si8 0.829743 0.227941 0.412554
O O1 0.374045 0.151490 0.311696
O O2 0.500000 0.000000 0.354841
O O3 0.326037 0.000000 0.250000
O O4 0.254317 0.028700 0.386387
O O5 0.639396 0.460720 0.083267
O O6 0.877002 0.413238 0.105855
O O7 0.788958 0.569390 0.151970
O O8 0.815082 0.531634 0.000000
O O9 0.613948 0.713811 0.402717
O O10 0.831788 0.758695 0.358489
O O11 0.682605 0.675460 0.265526
O O12 0.148834 0.129673 0.120425
O O13 0.127530 0.023900 0.000000
O O14 0.000000 0.000000 0.124032
O O15 0.477601 0.626079 0.500000
O O16 0.446499 0.605895 0.652023
O O17 0.053029 0.291870 0.104832
O O18 0.877842 0.287210 0.000000
O O19 0.710929 0.734521 0.131214
O O20 0.796019 0.223296 0.500000
#
# Coordination Sequence:
#
# PCOD8204247 Si02
#       8
#     8   8   8   8   8   8   8   8
#     4  11  26  43  64  89 132 175 214 273 334 403
#     4   9  19  38  62  91 125 168 214 253 308 378
#     4  11  24  40  63  87 120 167 209 255 321 382
#     4  10  22  42  68  98 129 165 221 282 331 392
#     4  10  22  39  62  87 120 164 208 254 304 373
#     4   9  20  41  64  89 125 168 213 254 307 381
#     4  12  23  35  59  92 129 160 203 262 313 365
#     4  10  21  37  62  92 124 163 207 261 319 373
#
# _framework density 22.694051000000002
#
# number of rings (size 3 to 8) (size 9 to 14) (size 15 to 20)
#    0.000    1.750    0.000    4.500    5.250    6.500 
#    0.000    6.875    0.000    3.000    0.000    0.000 
#    0.000    0.000    0.000    0.000    0.000    0.000 
#
# Total GULP energy -793069.274811 kJ/mol
# GULP energy per Si atom -12391.707419 kJ/mol
# Density = 2.264240 g / cm^3
# Si number density = 22.694051 Si / 1000 Ang^3
#
#
#
# Elastic Constant Matrix: (Units=GPa)
#
#
# Indices 1 2 3 4 5 6 
#
# 1 61.4019 18.4978 17.0306 0.0000 0.0000 0.0000
# 2 18.4978 122.4723 36.4431 0.0000 0.0000 0.0000
# 3 17.0306 36.4431 63.8555 0.0000 0.0000 0.0000
# 4 0.0000 0.0000 0.0000 30.7039 0.0000 0.0000
# 5 0.0000 0.0000 0.0000 0.0000 22.8491 0.0000
# 6 0.0000 0.0000 0.0000 0.0000 0.0000 19.3413
#
#
#
# Elastic Compliance Matrix: (Units=1/GPa)
#
#
# Indices 1 2 3 4 5 6 
#
# 1 0.017825 -0.001539 -0.003876 0.000000 0.000000 0.000000
# 2 -0.001539 0.009968 -0.005279 0.000000 0.000000 0.000000
# 3 -0.003876 -0.005279 0.019707 0.000000 0.000000 0.000000
# 4 0.000000 0.000000 0.000000 0.032569 0.000000 0.000000
# 5 0.000000 0.000000 0.000000 0.000000 0.043765 0.000000
# 6 0.000000 0.000000 0.000000 0.000000 0.000000 0.051703
#
#
# Mechanical properties :
#
#
# Convention : Reuss Voigt Hill
#
# Bulk Modulus (GPa) = 38.29478 43.51917 40.90698
# Shear Modulus (GPa) = 24.31581 26.29608 25.30594
#
# Velocity S-wave (km/s) = 3.27687 3.40769 3.34292
# Velocity P-wave (km/s) = 5.58822 5.89078 5.74149
#
# Compressibility (1/GPa) = 0.02611322
#
# Stress axis : x y z
#
# Youngs Moduli (GPa) = 56.10183 100.31864 50.74457
#
# Poissons Ratio (x) = 0.15438 0.19667
# Poissons Ratio (y) = 0.08634 0.26786
# Poissons Ratio (z) = 0.21743 0.52954
#
# Static dielectric constant tensor:
#      x y z
#    x 4.091890 0.000000 0.000000 
#    y 0.000000 4.213410 0.000000 
#    z 0.000000 0.000000 3.930920 
# 
# 
# High freq. dielectric constant tensor:
#      x y z
#    x 1.894740 0.000000 0.000000 
#    y 0.000000 1.900470 0.000000 
#    z 0.000000 0.000000 1.877790 
# 
# From -- ./inp_files/17264.got.cif
#   From: 2010.03.12/outbox.cif.g09.slc.cpg/sg49_9_cif.got.tgz:17264.got - 2010.04.14 03:58:27.
