data_PCOD8204283
_publ_section_title
;
Structure prediction by ZEFSAII (Michael W. Deem and Ramdas Pophale) SiO2 
 PCOD8204283
Probable space group: P C C M
;
_chemical_formula_sum "Si O2"
_cell_formula_units_Z 40
_cell_length_a 13.546591
_cell_length_b 9.065032
_cell_length_c 15.397585
_cell_angle_alpha 90.000000
_cell_angle_beta 90.000000
_cell_angle_gamma 90.000000
_cell_volume 1890.827763
_symmetry_space_group_name_H-M "P C C M"
_symmetry_group_IT_number 49
_symmetry_cell_setting 'orthorhombic'
loop_
_space_group_symop_operation_xyz
x,y,z
-x,-y,z
x,-y,1/2-z
-x,y,1/2-z
-x,-y,-z
x,y,-z
-x,y,1/2+z
x,-y,1/2+z
loop_
_atom_site_type_symbol
_atom_site_label
_atom_site_fract_x
_atom_site_fract_y
_atom_site_fract_z
Si Si1 0.595466 0.074452 0.902383
Si Si2 0.109645 0.566150 0.500000
Si Si3 0.562571 0.624911 0.338669
Si Si4 0.803441 0.924861 0.663497
Si Si5 0.792057 0.580986 0.334079
Si Si6 0.896238 0.921853 0.000000
O O1 0.567477 0.244968 0.907249
O O2 0.685790 0.050598 0.837463
O O3 0.500000 0.000000 0.860654
O O4 0.618959 0.017579 0.000000
O O5 0.170646 0.509470 0.417165
O O6 0.000000 0.500000 0.500000
O O7 0.101387 0.744043 0.500000
O O8 0.500000 0.500000 0.387993
O O9 0.500000 0.660935 0.250000
O O10 0.674495 0.572936 0.321571
O O11 0.830057 0.751074 0.658917
O O12 0.842791 0.018610 0.584377
O O13 0.846802 0.000000 0.750000
O O14 0.839412 0.500000 0.250000
O O15 0.000000 0.000000 0.000000
#
# Coordination Sequence:
#
# PCOD8204283 Si02
#       6
#     8   4   8   8   8   4
#     4  10  23  38  58  92 134 178 230 279 333 401
#     4  12  28  48  75 106 135 180 231 296 362 426
#     4  10  21  38  60  94 136 179 231 275 336 406
#     4  11  24  42  69 100 138 184 231 287 349 416
#     4  11  23  44  70 101 142 184 233 289 348 416
#     4  12  26  50  75 102 137 170 231 294 358 428
#
# _framework density 21.154754000000001
#
# number of rings (size 3 to 8) (size 9 to 14) (size 15 to 20)
#    0.000    1.200    3.000    3.000    9.800    2.800 
#    0.000    4.000    0.000    0.000    0.000    0.000 
#    0.000    0.000    0.000    0.000    0.000    0.000 
#
# Total GULP energy -495606.714037 kJ/mol
# GULP energy per Si atom -12390.167851 kJ/mol
# Density = 2.110660 g / cm^3
# Si number density = 21.154754 Si / 1000 Ang^3
#
#
#
# Elastic Constant Matrix: (Units=GPa)
#
#
# Indices 1 2 3 4 5 6 
#
# 1 84.2379 53.8963 41.6814 0.0000 0.0000 0.0000
# 2 53.8963 173.3437 65.6882 0.0000 0.0000 0.0000
# 3 41.6814 65.6882 143.7886 0.0000 0.0000 0.0000
# 4 0.0000 0.0000 0.0000 30.2817 0.0000 0.0000
# 5 0.0000 0.0000 0.0000 0.0000 101.1176 0.0000
# 6 0.0000 0.0000 0.0000 0.0000 0.0000 37.9563
#
#
#
# Elastic Compliance Matrix: (Units=1/GPa)
#
#
# Indices 1 2 3 4 5 6 
#
# 1 0.015704 -0.003819 -0.002808 0.000000 0.000000 0.000000
# 2 -0.003819 0.007905 -0.002504 0.000000 0.000000 0.000000
# 3 -0.002808 -0.002504 0.008913 0.000000 0.000000 0.000000
# 4 0.000000 0.000000 0.000000 0.033023 0.000000 0.000000
# 5 0.000000 0.000000 0.000000 0.000000 0.009889 0.000000
# 6 0.000000 0.000000 0.000000 0.000000 0.000000 0.026346
#
#
# Mechanical properties :
#
#
# Convention : Reuss Voigt Hill
#
# Bulk Modulus (GPa) = 70.12628 80.43355 75.27992
# Shear Modulus (GPa) = 40.06568 49.87810 44.97189
#
# Velocity S-wave (km/s) = 4.35666 4.86096 4.61570
# Velocity P-wave (km/s) = 7.65039 8.34322 8.00430
#
# Compressibility (1/GPa) = 0.01425999
#
# Stress axis : x y z
#
# Youngs Moduli (GPa) = 63.67975 126.49828 112.19973
#
# Poissons Ratio (x) = 0.48305 0.31502
# Poissons Ratio (y) = 0.24317 0.28100
# Poissons Ratio (z) = 0.17879 0.31681
#
# Static dielectric constant tensor:
#      x y z
#    x 4.284010 0.000000 0.000000 
#    y 0.000000 4.249200 0.000000 
#    z 0.000000 0.000000 3.708760 
# 
# 
# High freq. dielectric constant tensor:
#      x y z
#    x 1.827420 0.000000 0.000000 
#    y 0.000000 1.841760 0.000000 
#    z 0.000000 0.000000 1.832960 
# 
# From -- ./inp_files/13376.got.cif
#   From: 2010.03.12/outbox.cif.g09.slc.cpg/sg49_7_cif.got.tgz:13376.got - 2010.04.14 03:58:27.
