data_PCOD8204823
_publ_section_title
;
Structure prediction by ZEFSAII (Michael W. Deem and Ramdas Pophale) SiO2 
 PCOD8204823
Probable space group: P B A N
;
_chemical_formula_sum "Si O2"
_cell_formula_units_Z 48
_cell_length_a 10.672497
_cell_length_b 22.134384
_cell_length_c 9.017772
_cell_angle_alpha 90.000000
_cell_angle_beta 90.000000
_cell_angle_gamma 90.000000
_cell_volume 2130.260586
_symmetry_space_group_name_H-M "P B A N"
_symmetry_group_IT_number 50
_space_group.IT_coordinate_system_code '2'
_symmetry_cell_setting 'orthorhombic'
loop_
_space_group_symop_operation_xyz
x,y,z
1/2-x,1/2-y,z
x,1/2-y,-z
1/2-x,y,-z
-x,-y,-z
1/2+x,1/2+y,-z
-x,1/2+y,z
1/2+x,-y,z
loop_
_atom_site_type_symbol
_atom_site_label
_atom_site_fract_x
_atom_site_fract_y
_atom_site_fract_z
Si Si1 0.628706 0.896279 0.808454
Si Si2 0.599263 0.558705 0.890760
Si Si3 0.904769 0.481491 0.670595
Si Si4 0.684030 0.068533 0.138483
Si Si5 0.382710 0.181533 0.447455
Si Si6 0.616797 0.391995 0.563357
O O1 0.772065 0.909952 0.844945
O O2 0.617681 0.830246 0.732063
O O3 0.576333 0.946316 0.688288
O O4 0.548810 0.904375 0.962336
O O5 0.504739 0.561183 0.755086
O O6 0.613878 0.488136 0.941024
O O7 0.772531 0.462827 0.739678
O O8 0.904572 0.461164 0.497594
O O9 0.605450 0.111470 0.252924
O O10 0.750000 0.103996 0.000000
O O11 0.387442 0.250000 0.500000
O O12 0.250000 0.152334 0.500000
O O13 0.508519 0.149993 0.508713
O O14 0.750000 0.367206 0.500000
#
# Coordination Sequence:
#
# PCOD8204823 Si02
#       6
#     8   8   8   8   8   8
#     4  10  20  33  55  89 123 164 203 252 319 380
#     4  10  18  32  54  90 128 169 201 245 318 394
#     4  10  19  32  56  89 131 160 200 247 312 396
#     4  10  19  33  52  90 133 164 204 248 310 400
#     4  11  25  43  63  86 119 164 225 273 316 372
#     4  10  23  39  61  96 128 166 206 262 328 384
#
# _framework density 22.532453
#
# number of rings (size 3 to 8) (size 9 to 14) (size 15 to 20)
#    0.000    1.833    3.333    2.500    2.333    6.333 
#    0.000    0.000    0.000   17.000    0.000    1.167 
#    0.000    0.000    0.000    0.000    0.000    0.000 
#
# Total GULP energy -594628.776481 kJ/mol
# GULP energy per Si atom -12388.099510 kJ/mol
# Density = 2.248117 g / cm^3
# Si number density = 22.532453 Si / 1000 Ang^3
#
#
#
# Elastic Constant Matrix: (Units=GPa)
#
#
# Indices 1 2 3 4 5 6 
#
# 1 97.7347 36.1909 31.9702 0.0000 0.0000 0.0000
# 2 36.1909 85.0811 50.5698 0.0000 0.0000 0.0000
# 3 31.9702 50.5698 167.2145 0.0000 0.0000 0.0000
# 4 0.0000 0.0000 0.0000 30.2844 0.0000 0.0000
# 5 0.0000 0.0000 0.0000 0.0000 36.9569 0.0000
# 6 0.0000 0.0000 0.0000 0.0000 0.0000 23.3389
#
#
#
# Elastic Compliance Matrix: (Units=1/GPa)
#
#
# Indices 1 2 3 4 5 6 
#
# 1 0.012264 -0.004661 -0.000935 0.000000 0.000000 0.000000
# 2 -0.004661 0.016100 -0.003978 0.000000 0.000000 0.000000
# 3 -0.000935 -0.003978 0.007362 0.000000 0.000000 0.000000
# 4 0.000000 0.000000 0.000000 0.033020 0.000000 0.000000
# 5 0.000000 0.000000 0.000000 0.000000 0.027059 0.000000
# 6 0.000000 0.000000 0.000000 0.000000 0.000000 0.042847
#
#
# Mechanical properties :
#
#
# Convention : Reuss Voigt Hill
#
# Bulk Modulus (GPa) = 60.31987 65.27690 62.79839
# Shear Modulus (GPa) = 30.61362 33.53599 32.07481
#
# Velocity S-wave (km/s) = 3.68998 3.86209 3.77701
# Velocity P-wave (km/s) = 6.70693 6.99433 6.85214
#
# Compressibility (1/GPa) = 0.01657828
#
# Stress axis : x y z
#
# Youngs Moduli (GPa) = 81.54259 62.10998 135.82867
#
# Poissons Ratio (x) = 0.28948 0.12703
# Poissons Ratio (y) = 0.38004 0.54034
# Poissons Ratio (z) = 0.07626 0.24708
#
# Static dielectric constant tensor:
#      x y z
#    x 4.855560 0.000000 0.000000 
#    y 0.000000 3.244720 0.000000 
#    z 0.000000 0.000000 4.449870 
# 
# 
# High freq. dielectric constant tensor:
#      x y z
#    x 1.947830 0.000000 0.000000 
#    y 0.000000 1.782320 0.000000 
#    z 0.000000 0.000000 1.906530 
# 
# From -- ./inp_files/11555.got.cif
#   From: 2010.03.12/outbox.cif.g09.slc.cpg/sg50_6_cif.got.tgz:11555.got - 2010.04.16 13:23:21.
