data_PCOD8204634
_publ_section_title
;
Structure prediction by ZEFSAII (Michael W. Deem and Ramdas Pophale) SiO2 
 PCOD8204634
Probable space group: P C C M
;
_chemical_formula_sum "Si O2"
_cell_formula_units_Z 48
_cell_length_a 30.962511
_cell_length_b 9.140039
_cell_length_c 8.523196
_cell_angle_alpha 90.000000
_cell_angle_beta 90.000000
_cell_angle_gamma 90.000000
_cell_volume 2412.052178
_symmetry_space_group_name_H-M "P C C M"
_symmetry_group_IT_number 49
_symmetry_cell_setting 'orthorhombic'
loop_
_space_group_symop_operation_xyz
x,y,z
-x,-y,z
x,-y,1/2-z
-x,y,1/2-z
-x,-y,-z
x,y,-z
-x,y,1/2+z
x,-y,1/2+z
loop_
_atom_site_type_symbol
_atom_site_label
_atom_site_fract_x
_atom_site_fract_y
_atom_site_fract_z
Si Si1 0.042420 0.337958 0.683909
Si Si2 0.622650 0.840659 0.685084
Si Si3 0.452826 0.344382 0.185484
Si Si4 0.701404 0.661107 0.185346
Si Si5 0.136459 0.660246 0.815658
Si Si6 0.219002 0.162049 0.313237
O O1 0.041065 0.500000 0.750000
O O2 0.037967 0.340792 0.500000
O O3 0.089337 0.273782 0.735772
O O4 0.000000 0.250970 0.750000
O O5 0.617292 0.847848 0.500000
O O6 0.578257 0.785353 0.760663
O O7 0.660582 0.730980 0.729503
O O8 0.634189 0.000000 0.750000
O O9 0.435803 0.500000 0.250000
O O10 0.500000 0.307937 0.250000
O O11 0.454480 0.353361 0.000000
O O12 0.708084 0.500000 0.250000
O O13 0.743944 0.750116 0.226120
O O14 0.693355 0.659873 0.000000
O O15 0.145612 0.500000 0.750000
O O16 0.173260 0.770940 0.758655
O O17 0.137764 0.642437 0.000000
O O18 0.225798 0.167883 0.500000
O O19 0.220774 0.000000 0.250000
#
# Coordination Sequence:
#
# PCOD8204634 Si02
#       6
#     8   8   8   8   8   8
#     4   9  15  25  42  69 101 135 172 219 271 325
#     4  12  25  43  64  91 124 161 200 244 294 349
#     4  11  22  40  64  93 125 163 206 252 299 349
#     4  12  25  43  65  91 119 152 191 237 286 341
#     4   9  19  33  52  77 108 141 181 227 277 332
#     4  11  23  40  59  83 113 149 188 233 284 341
#
# _framework density 19.900067
#
# number of rings (size 3 to 8) (size 9 to 14) (size 15 to 20)
#    0.000    1.333    0.000    8.000    0.000    3.667 
#    0.000    1.667    0.000    0.500    0.000    3.500 
#    0.000    0.000    0.000    0.000    0.000    0.000 
#
# Total GULP energy -595146.039995 kJ/mol
# GULP energy per Si atom -12398.875833 kJ/mol
# Density = 1.985477 g / cm^3
# Si number density = 19.900067 Si / 1000 Ang^3
#
#
#
# Elastic Constant Matrix: (Units=GPa)
#
#
# Indices 1 2 3 4 5 6 
#
# 1 137.6085 54.1256 38.0876 0.0000 0.0000 0.0000
# 2 54.1256 109.1075 25.0556 0.0000 0.0000 0.0000
# 3 38.0876 25.0556 113.9163 0.0000 0.0000 0.0000
# 4 0.0000 0.0000 0.0000 29.1120 0.0000 0.0000
# 5 0.0000 0.0000 0.0000 0.0000 42.8571 0.0000
# 6 0.0000 0.0000 0.0000 0.0000 0.0000 9.7646
#
#
#
# Elastic Compliance Matrix: (Units=1/GPa)
#
#
# Indices 1 2 3 4 5 6 
#
# 1 0.009554 -0.004219 -0.002266 0.000000 0.000000 0.000000
# 2 -0.004219 0.011516 -0.001122 0.000000 0.000000 0.000000
# 3 -0.002266 -0.001122 0.009783 0.000000 0.000000 0.000000
# 4 0.000000 0.000000 0.000000 0.034350 0.000000 0.000000
# 5 0.000000 0.000000 0.000000 0.000000 0.023333 0.000000
# 6 0.000000 0.000000 0.000000 0.000000 0.000000 0.102411
#
#
# Mechanical properties :
#
#
# Convention : Reuss Voigt Hill
#
# Bulk Modulus (GPa) = 63.94891 66.12998 65.03945
# Shear Modulus (GPa) = 23.65474 32.57098 28.11286
#
# Velocity S-wave (km/s) = 3.45146 4.05004 3.76267
# Velocity P-wave (km/s) = 6.93457 7.42789 7.18546
#
# Compressibility (1/GPa) = 0.01563748
#
# Stress axis : x y z
#
# Youngs Moduli (GPa) = 104.67150 86.83646 102.21855
#
# Poissons Ratio (x) = 0.36636 0.23166
# Poissons Ratio (y) = 0.44160 0.11472
# Poissons Ratio (z) = 0.23722 0.09746
#
# Static dielectric constant tensor:
#      x y z
#    x 4.568900 0.000000 0.000000 
#    y 0.000000 3.449240 0.000000 
#    z 0.000000 0.000000 3.806430 
# 
# 
# High freq. dielectric constant tensor:
#      x y z
#    x 1.804500 0.000000 0.000000 
#    y 0.000000 1.753710 0.000000 
#    z 0.000000 0.000000 1.792460 
# 
# From -- ./inp_files/2017.got.cif
#   From: 2010.03.12/outbox.cif.g09.slc.cpg/sg49_2_cif.got.tgz:2017.got - 2010.04.14 03:58:27.
