data_PCOD8204873
_publ_section_title
;
Structure prediction by ZEFSAII (Michael W. Deem and Ramdas Pophale) SiO2 
 PCOD8204873
Probable space group: P B A N
;
_chemical_formula_sum "Si O2"
_cell_formula_units_Z 64
_cell_length_a 18.785532
_cell_length_b 23.169902
_cell_length_c 9.312707
_cell_angle_alpha 90.000000
_cell_angle_beta 90.000000
_cell_angle_gamma 90.000000
_cell_volume 4053.438935
_symmetry_space_group_name_H-M "P B A N"
_symmetry_group_IT_number 50
_space_group.IT_coordinate_system_code '2'
_symmetry_cell_setting 'orthorhombic'
loop_
_space_group_symop_operation_xyz
x,y,z
1/2-x,1/2-y,z
x,1/2-y,-z
1/2-x,y,-z
-x,-y,-z
1/2+x,1/2+y,-z
-x,1/2+y,z
1/2+x,-y,z
loop_
_atom_site_type_symbol
_atom_site_label
_atom_site_fract_x
_atom_site_fract_y
_atom_site_fract_z
Si Si1 0.395773 0.683912 0.330321
Si Si2 0.112439 0.021230 0.833731
Si Si3 0.524807 0.091108 0.834238
Si Si4 0.750000 0.370549 0.670024
Si Si5 0.895773 0.183912 0.330321
Si Si6 0.612439 0.521230 0.833731
Si Si7 0.750000 0.502853 0.670282
Si Si8 0.024807 0.908892 0.165762
O O1 0.319872 0.661604 0.270007
O O2 0.400124 0.675824 0.500000
O O3 0.405605 0.750000 0.284656
O O4 0.459134 0.647306 0.259984
O O5 0.056514 0.072586 0.806132
O O6 0.077120 0.960663 0.788143
O O7 0.180455 0.033701 0.734660
O O8 0.135272 0.019558 1.000000
O O9 0.540865 0.147306 0.740015
O O10 0.443486 0.072586 0.806132
O O11 0.536495 0.106378 1.000000
O O12 0.750000 0.366936 0.500000
O O13 0.819872 0.338396 0.729993
O O14 0.750000 0.436488 0.721942
O O15 0.680455 0.533701 0.734660
O O16 0.577120 0.460663 0.788143
O O17 0.750000 0.509601 0.500000
#
# Coordination Sequence:
#
# PCOD8204873 Si02
#       8
#     8   8   8   8   8   8   8   8
#     4  10  19  31  47  66  93 129 163 195 231 269
#     4   9  18  32  48  66  92 124 154 191 239 281
#     4   9  18  32  48  66  90 122 159 196 233 274
#     4   9  17  29  42  63  95 128 160 188 221 266
#     4  10  19  31  47  66  93 129 163 195 231 269
#     4   9  18  32  48  66  92 124 154 191 239 281
#     4  11  19  28  47  73  95 123 158 192 229 275
#     4   9  18  32  48  66  90 122 159 196 233 274
#
# _framework density 15.789063000000001
#
# number of rings (size 3 to 8) (size 9 to 14) (size 15 to 20)
#    0.000    2.500    2.500    2.250    0.000    3.000 
#    0.000    3.125    0.000    1.500    0.000    0.875 
#    0.000    7.000    0.000    0.000    0.000    0.000 
#
# Total GULP energy -793656.253402 kJ/mol
# GULP energy per Si atom -12400.878959 kJ/mol
# Density = 1.575313 g / cm^3
# Si number density = 15.789063 Si / 1000 Ang^3
#
#
#
# Elastic Constant Matrix: (Units=GPa)
#
#
# Indices 1 2 3 4 5 6 
#
# 1 108.1482 45.8296 48.9402 0.0000 0.0000 0.0000
# 2 45.8296 83.1140 33.4096 0.0000 0.0000 0.0000
# 3 48.9402 33.4096 50.1144 0.0000 0.0000 0.0000
# 4 0.0000 0.0000 0.0000 25.1754 0.0000 0.0000
# 5 0.0000 0.0000 0.0000 0.0000 27.7309 0.0000
# 6 0.0000 0.0000 0.0000 0.0000 0.0000 23.3851
#
#
#
# Elastic Compliance Matrix: (Units=1/GPa)
#
#
# Indices 1 2 3 4 5 6 
#
# 1 0.017394 -0.003775 -0.014470 0.000000 0.000000 0.000000
# 2 -0.003775 0.017255 -0.007817 0.000000 0.000000 0.000000
# 3 -0.014470 -0.007817 0.039297 0.000000 0.000000 0.000000
# 4 0.000000 0.000000 0.000000 0.039721 0.000000 0.000000
# 5 0.000000 0.000000 0.000000 0.000000 0.036061 0.000000
# 6 0.000000 0.000000 0.000000 0.000000 0.000000 0.042762
#
#
# Mechanical properties :
#
#
# Convention : Reuss Voigt Hill
#
# Bulk Modulus (GPa) = 45.82488 55.30392 50.56440
# Shear Modulus (GPa) = 19.84987 22.80476 21.32731
#
# Velocity S-wave (km/s) = 3.54954 3.80457 3.67926
# Velocity P-wave (km/s) = 6.77386 7.37580 7.08123
#
# Compressibility (1/GPa) = 0.02182221
#
# Stress axis : x y z
#
# Youngs Moduli (GPa) = 57.48957 57.95281 25.44699
#
# Poissons Ratio (x) = 0.21875 0.36823
# Poissons Ratio (y) = 0.21700 0.19893
# Poissons Ratio (z) = 0.83190 0.45304
#
# Static dielectric constant tensor:
#      x y z
#    x 2.980130 0.000000 0.000000 
#    y 0.000000 2.816280 0.000000 
#    z 0.000000 0.000000 2.817630 
# 
# 
# High freq. dielectric constant tensor:
#      x y z
#    x 1.603000 0.000000 0.000000 
#    y 0.000000 1.580090 0.000000 
#    z 0.000000 0.000000 1.597070 
# 
# From -- ./inp_files/14669.got.cif
#   From: 2010.03.12/outbox.cif.g09.slc.cpg/sg50_8_cif.got.tgz:14669.got - 2010.04.16 13:23:21.
