data_PCOD8204483
_publ_section_title
;
Structure prediction by ZEFSAII (Michael W. Deem and Ramdas Pophale) SiO2 
 PCOD8204483
Probable space group: P C C M
;
_chemical_formula_sum "Si O2"
_cell_formula_units_Z 36
_cell_length_a 15.838981
_cell_length_b 8.818245
_cell_length_c 13.196408
_cell_angle_alpha 90.000000
_cell_angle_beta 90.000000
_cell_angle_gamma 90.000000
_cell_volume 1843.168896
_symmetry_space_group_name_H-M "P C C M"
_symmetry_group_IT_number 49
_symmetry_cell_setting 'orthorhombic'
loop_
_space_group_symop_operation_xyz
x,y,z
-x,-y,z
x,-y,1/2-z
-x,y,1/2-z
-x,-y,-z
x,y,-z
-x,y,1/2+z
x,-y,1/2+z
loop_
_atom_site_type_symbol
_atom_site_label
_atom_site_fract_x
_atom_site_fract_y
_atom_site_fract_z
Si Si1 0.878298 0.918532 0.000000
Si Si2 0.958102 0.756306 0.500000
Si Si3 0.593866 0.749773 0.878198
Si Si4 0.500000 0.500000 0.250000
Si Si5 0.087902 0.331564 0.711166
Si Si6 0.500000 0.000000 0.750000
Si Si7 0.232082 0.856531 0.688904
O O1 0.820528 0.921739 0.097249
O O2 0.939353 0.769772 0.000000
O O3 0.929610 0.071776 0.000000
O O4 0.920554 0.660112 0.591291
O O5 0.556787 0.600116 0.825377
O O6 0.693380 0.750935 0.853723
O O7 0.554482 0.898432 0.826702
O O8 0.577798 0.747858 0.000000
O O9 0.098633 0.500000 0.750000
O O10 0.170270 0.237580 0.739146
O O11 0.000000 0.255073 0.750000
O O12 0.269730 0.000000 0.750000
#
# Coordination Sequence:
#
# PCOD8204483 Si02
#       7
#     4   4   8   2   8   2   8
#     4  11  22  37  66  93 122 173 224 272 311 380
#     4  11  22  40  63  88 125 180 227 261 324 374
#     4  11  23  43  69  97 130 167 209 264 326 398
#     4  10  26  46  68  96 134 170 214 258 332 408
#     4  11  25  40  59  88 129 171 214 265 315 375
#     4  10  22  42  68 100 122 162 206 266 328 388
#     4  12  23  40  65  97 128 163 217 267 321 373
#
# _framework density 19.531580999999999
#
# number of rings (size 3 to 8) (size 9 to 14) (size 15 to 20)
#    0.000    0.889    6.667    0.667    1.556    3.111 
#    0.000    0.000    4.889    0.000    0.000    0.000 
#    0.000    0.000    0.000    0.000    0.000    0.000 
#
# Total GULP energy -446338.677638 kJ/mol
# GULP energy per Si atom -12398.296601 kJ/mol
# Density = 1.948713 g / cm^3
# Si number density = 19.531581 Si / 1000 Ang^3
#
#
#
# Elastic Constant Matrix: (Units=GPa)
#
#
# Indices 1 2 3 4 5 6 
#
# 1 105.4847 43.9973 51.4417 0.0000 0.0000 0.0000
# 2 43.9973 106.3478 58.4634 0.0000 0.0000 0.0000
# 3 51.4417 58.4634 180.3875 0.0000 0.0000 0.0000
# 4 0.0000 0.0000 0.0000 38.1411 0.0000 0.0000
# 5 0.0000 0.0000 0.0000 0.0000 40.4908 0.0000
# 6 0.0000 0.0000 0.0000 0.0000 0.0000 17.0158
#
#
#
# Elastic Compliance Matrix: (Units=1/GPa)
#
#
# Indices 1 2 3 4 5 6 
#
# 1 0.012155 -0.003800 -0.002235 0.000000 0.000000 0.000000
# 2 -0.003800 0.012630 -0.003010 0.000000 0.000000 0.000000
# 3 -0.002235 -0.003010 0.007156 0.000000 0.000000 0.000000
# 4 0.000000 0.000000 0.000000 0.026218 0.000000 0.000000
# 5 0.000000 0.000000 0.000000 0.000000 0.024697 0.000000
# 6 0.000000 0.000000 0.000000 0.000000 0.000000 0.058769
#
#
# Mechanical properties :
#
#
# Convention : Reuss Voigt Hill
#
# Bulk Modulus (GPa) = 72.19082 77.78053 74.98567
# Shear Modulus (GPa) = 30.42634 35.01738 32.72186
#
# Velocity S-wave (km/s) = 3.95118 4.23881 4.09752
# Velocity P-wave (km/s) = 7.60639 7.99163 7.80138
#
# Compressibility (1/GPa) = 0.01385218
#
# Stress axis : x y z
#
# Youngs Moduli (GPa) = 82.27188 79.17806 139.73738
#
# Poissons Ratio (x) = 0.30089 0.31226
# Poissons Ratio (y) = 0.31264 0.42055
# Poissons Ratio (z) = 0.18385 0.23829
#
# Static dielectric constant tensor:
#      x y z
#    x 3.693220 0.000000 0.000000 
#    y 0.000000 3.412260 0.000000 
#    z 0.000000 0.000000 3.869490 
# 
# 
# High freq. dielectric constant tensor:
#      x y z
#    x 1.764430 0.000000 0.000000 
#    y 0.000000 1.756840 0.000000 
#    z 0.000000 0.000000 1.779700 
# 
# From -- ./inp_files/11501.got.cif
#   From: 2010.03.12/outbox.cif.g09.slc.cpg/sg49_6_cif.got.tgz:11501.got - 2010.04.14 03:58:27.
