data_PCOD8204529
_publ_section_title
;
Structure prediction by ZEFSAII (Michael W. Deem and Ramdas Pophale) SiO2 
 PCOD8204529
Probable space group: P C C M
;
_chemical_formula_sum "Si O2"
_cell_formula_units_Z 48
_cell_length_a 7.512857
_cell_length_b 8.465728
_cell_length_c 31.526382
_cell_angle_alpha 90.000000
_cell_angle_beta 90.000000
_cell_angle_gamma 90.000000
_cell_volume 2005.134765
_symmetry_space_group_name_H-M "P C C M"
_symmetry_group_IT_number 49
_symmetry_cell_setting 'orthorhombic'
loop_
_space_group_symop_operation_xyz
x,y,z
-x,-y,z
x,-y,1/2-z
-x,y,1/2-z
-x,-y,-z
x,y,-z
-x,y,1/2+z
x,-y,1/2+z
loop_
_atom_site_type_symbol
_atom_site_label
_atom_site_fract_x
_atom_site_fract_y
_atom_site_fract_z
Si Si1 0.708365 0.798451 0.609044
Si Si2 0.687508 0.576467 0.687734
Si Si3 0.815095 0.086147 0.657347
Si Si4 0.805943 0.719215 0.767100
Si Si5 0.936537 0.323685 0.591398
Si Si6 0.425373 0.325754 0.952333
O O1 0.742414 0.662652 0.644423
O O2 0.531542 0.782936 0.580955
O O3 0.888368 0.783991 0.580048
O O4 0.686592 0.968502 0.631496
O O5 0.500000 0.500000 0.678444
O O6 0.674066 0.701984 0.726725
O O7 0.821478 0.440622 0.704235
O O8 0.735383 0.137513 0.702950
O O9 0.840770 0.250839 0.632483
O O10 0.000000 0.000000 0.664924
O O11 0.000000 0.761826 0.750000
O O12 0.787920 0.320836 0.554372
O O13 0.000000 0.500000 0.600346
O O14 0.500000 0.500000 0.945535
O O15 0.462977 0.265859 0.000000
#
# Coordination Sequence:
#
# PCOD8204529 Si02
#       6
#     8   8   8   8   8   8
#     4  11  24  45  70 104 146 189 234 299 363 434
#     4  11  24  41  64  99 141 184 245 298 354 420
#     4  10  24  41  66 102 140 186 245 285 362 432
#     4  11  22  40  65  97 134 187 246 293 348 420
#     4  11  22  42  71 101 137 184 236 287 356 426
#     4  11  25  45  73 111 141 181 240 298 363 438
#
# _framework density 23.938541000000001
#
# number of rings (size 3 to 8) (size 9 to 14) (size 15 to 20)
#    0.000    1.167    1.667    5.500    2.333    5.333 
#    0.000    1.667    3.667    9.000    0.000    0.000 
#    0.000    0.000    0.000    0.000    0.000    0.000 
#
# Total GULP energy -594896.148992 kJ/mol
# GULP energy per Si atom -12393.669771 kJ/mol
# Density = 2.388406 g / cm^3
# Si number density = 23.938541 Si / 1000 Ang^3
#
#
#
# Elastic Constant Matrix: (Units=GPa)
#
#
# Indices 1 2 3 4 5 6 
#
# 1 103.5096 39.0299 42.8920 0.0000 0.0000 0.0000
# 2 39.0299 97.9729 69.5093 0.0000 0.0000 0.0000
# 3 42.8920 69.5093 138.8462 0.0000 0.0000 0.0000
# 4 0.0000 0.0000 0.0000 4.6029 0.0000 0.0000
# 5 0.0000 0.0000 0.0000 0.0000 30.9953 0.0000
# 6 0.0000 0.0000 0.0000 0.0000 0.0000 12.6926
#
#
#
# Elastic Compliance Matrix: (Units=1/GPa)
#
#
# Indices 1 2 3 4 5 6 
#
# 1 0.011712 -0.003255 -0.001989 0.000000 0.000000 0.000000
# 2 -0.003255 0.016734 -0.007372 0.000000 0.000000 0.000000
# 3 -0.001989 -0.007372 0.011507 0.000000 0.000000 0.000000
# 4 0.000000 0.000000 0.000000 0.217252 0.000000 0.000000
# 5 0.000000 0.000000 0.000000 0.000000 0.032263 0.000000
# 6 0.000000 0.000000 0.000000 0.000000 0.000000 0.078786
#
#
# Mechanical properties :
#
#
# Convention : Reuss Voigt Hill
#
# Bulk Modulus (GPa) = 67.92416 71.46566 69.69491
# Shear Modulus (GPa) = 12.55043 22.25132 17.40088
#
# Velocity S-wave (km/s) = 2.29219 3.05211 2.69903
# Velocity P-wave (km/s) = 5.95328 6.50685 6.23621
#
# Compressibility (1/GPa) = 0.01472230
#
# Stress axis : x y z
#
# Youngs Moduli (GPa) = 85.38008 59.75983 86.90395
#
# Poissons Ratio (x) = 0.19452 0.17282
# Poissons Ratio (y) = 0.27791 0.64063
# Poissons Ratio (z) = 0.16979 0.44053
#
# Static dielectric constant tensor:
#      x y z
#    x 4.302570 0.000000 0.000000 
#    y 0.000000 4.476100 0.000000 
#    z 0.000000 0.000000 4.394200 
# 
# 
# High freq. dielectric constant tensor:
#      x y z
#    x 1.947540 0.000000 0.000000 
#    y 0.000000 1.943440 0.000000 
#    z 0.000000 0.000000 1.932060 
# 
# From -- ./inp_files/26248.got.cif
#   From: 2010.03.12/outbox.cif.g09.slc.cpg/sg49_14_cif.got.tgz:26248.got - 2010.04.14 03:58:27.
