data_PCOD8204427
_publ_section_title
;
Structure prediction by ZEFSAII (Michael W. Deem and Ramdas Pophale) SiO2 
 PCOD8204427
Probable space group: P C C M
;
_chemical_formula_sum "Si O2"
_cell_formula_units_Z 40
_cell_length_a 8.745082
_cell_length_b 14.848872
_cell_length_c 15.055366
_cell_angle_alpha 90.000000
_cell_angle_beta 90.000000
_cell_angle_gamma 90.000000
_cell_volume 1955.008579
_symmetry_space_group_name_H-M "P C C M"
_symmetry_group_IT_number 49
_symmetry_cell_setting 'orthorhombic'
loop_
_space_group_symop_operation_xyz
x,y,z
-x,-y,z
x,-y,1/2-z
-x,y,1/2-z
-x,-y,-z
x,y,-z
-x,y,1/2+z
x,-y,1/2+z
loop_
_atom_site_type_symbol
_atom_site_label
_atom_site_fract_x
_atom_site_fract_y
_atom_site_fract_z
Si Si1 0.900362 0.414381 0.396394
Si Si2 0.569672 0.097882 0.000000
Si Si3 0.932082 0.218151 0.654807
Si Si4 0.431873 0.413255 0.152885
Si Si5 0.567899 0.216227 0.347853
Si Si6 0.066616 0.900585 0.000000
O O1 0.858141 0.414986 0.500000
O O2 0.981415 0.320198 0.371304
O O3 0.748756 0.424127 0.338769
O O4 0.000000 0.500000 0.369452
O O5 0.510159 0.145057 0.911374
O O6 0.751274 0.095366 0.000000
O O7 0.500000 0.000000 0.000000
O O8 0.750169 0.203788 0.653872
O O9 0.000000 0.193957 0.750000
O O10 0.008768 0.150137 0.586845
O O11 0.500000 0.500000 0.098942
O O12 0.500000 0.414551 0.250000
O O13 0.471555 0.315586 0.111465
O O14 0.500000 0.202892 0.250000
O O15 0.000000 0.000000 0.000000
#
# Coordination Sequence:
#
# PCOD8204427 Si02
#       6
#     8   4   8   8   8   4
#     4  10  22  39  61  93 132 174 220 270 322 382
#     4  12  26  44  69  94 123 168 207 262 326 386
#     4  11  23  42  69  96 131 172 217 269 323 385
#     4   9  20  37  59  89 129 169 214 261 313 372
#     4  10  22  42  64  95 131 166 213 263 318 379
#     4  12  26  46  69  98 131 164 213 268 330 392
#
# _framework density 20.460267000000002
#
# number of rings (size 3 to 8) (size 9 to 14) (size 15 to 20)
#    0.000    1.600    1.000    3.000    4.200   11.200 
#    0.000    4.000    0.000    0.000    0.000    0.000 
#    0.000    0.000    0.000    0.000    0.000    0.000 
#
# Total GULP energy -495879.126444 kJ/mol
# GULP energy per Si atom -12396.978161 kJ/mol
# Density = 2.041370 g / cm^3
# Si number density = 20.460267 Si / 1000 Ang^3
#
#
#
# Elastic Constant Matrix: (Units=GPa)
#
#
# Indices 1 2 3 4 5 6 
#
# 1 148.6156 93.5622 68.2870 0.0000 0.0000 0.0000
# 2 93.5622 211.9944 78.5912 0.0000 0.0000 0.0000
# 3 68.2870 78.5912 124.4123 0.0000 0.0000 0.0000
# 4 0.0000 0.0000 0.0000 10.7150 0.0000 0.0000
# 5 0.0000 0.0000 0.0000 0.0000 37.9178 0.0000
# 6 0.0000 0.0000 0.0000 0.0000 0.0000 38.3750
#
#
#
# Elastic Compliance Matrix: (Units=1/GPa)
#
#
# Indices 1 2 3 4 5 6 
#
# 1 0.010474 -0.003253 -0.003694 0.000000 0.000000 0.000000
# 2 -0.003253 0.007170 -0.002744 0.000000 0.000000 0.000000
# 3 -0.003694 -0.002744 0.011798 0.000000 0.000000 0.000000
# 4 0.000000 0.000000 0.000000 0.093327 0.000000 0.000000
# 5 0.000000 0.000000 0.000000 0.000000 0.026373 0.000000
# 6 0.000000 0.000000 0.000000 0.000000 0.000000 0.026059
#
#
# Mechanical properties :
#
#
# Convention : Reuss Voigt Hill
#
# Bulk Modulus (GPa) = 99.39421 107.32257 103.35839
# Shear Modulus (GPa) = 25.26064 33.70703 29.48383
#
# Velocity S-wave (km/s) = 3.51753 4.06327 3.80021
# Velocity P-wave (km/s) = 8.07353 8.63606 8.35953
#
# Compressibility (1/GPa) = 0.01006095
#
# Stress axis : x y z
#
# Youngs Moduli (GPa) = 95.47243 139.46873 84.75661
#
# Poissons Ratio (x) = 0.45373 0.31309
# Poissons Ratio (y) = 0.31060 0.23254
# Poissons Ratio (z) = 0.35267 0.38266
#
# Static dielectric constant tensor:
#      x y z
#    x 3.780580 0.000000 0.000000 
#    y 0.000000 4.464900 0.000000 
#    z 0.000000 0.000000 3.612610 
# 
# 
# High freq. dielectric constant tensor:
#      x y z
#    x 1.806400 0.000000 0.000000 
#    y 0.000000 1.817450 0.000000 
#    z 0.000000 0.000000 1.799390 
# 
# From -- ./inp_files/11623.got.cif
#   From: 2010.03.12/outbox.cif.g09.slc.cpg/sg49_6_cif.got.tgz:11623.got - 2010.04.14 03:58:27.
