data_PCOD8204187
_publ_section_title
;
Structure prediction by ZEFSAII (Michael W. Deem and Ramdas Pophale) SiO2 
 PCOD8204187
Probable space group: P C C M
;
_chemical_formula_sum "Si O2"
_cell_formula_units_Z 48
_cell_length_a 24.370873
_cell_length_b 13.682366
_cell_length_c 8.853000
_cell_angle_alpha 90.000000
_cell_angle_beta 90.000000
_cell_angle_gamma 90.000000
_cell_volume 2952.043510
_symmetry_space_group_name_H-M "P C C M"
_symmetry_group_IT_number 49
_symmetry_cell_setting 'orthorhombic'
loop_
_space_group_symop_operation_xyz
x,y,z
-x,-y,z
x,-y,1/2-z
-x,y,1/2-z
-x,-y,-z
x,y,-z
-x,y,1/2+z
x,-y,1/2+z
loop_
_atom_site_type_symbol
_atom_site_label
_atom_site_fract_x
_atom_site_fract_y
_atom_site_fract_z
Si Si1 0.617563 0.396750 0.320019
Si Si2 0.443294 0.781200 0.821346
Si Si3 0.281672 0.703703 0.178337
Si Si4 0.828043 0.395777 0.824159
Si Si5 0.947801 0.393808 0.822983
Si Si6 0.337291 0.101337 0.325192
O O1 0.600691 0.500000 0.250000
O O2 0.614805 0.400545 0.500000
O O3 0.573756 0.319594 0.257274
O O4 0.678926 0.369945 0.267437
O O5 0.500000 0.818268 0.750000
O O6 0.398684 0.864446 0.783032
O O7 0.448369 0.764312 0.000000
O O8 0.219084 0.680260 0.224915
O O9 0.294430 0.814984 0.227277
O O10 0.293062 0.689766 0.000000
O O11 0.817836 0.500000 0.750000
O O12 0.887816 0.347975 0.784561
O O13 0.824807 0.417125 0.000000
O O14 0.946942 0.500000 0.750000
O O15 0.000000 0.335226 0.750000
O O16 0.957784 0.400974 0.000000
O O17 0.331605 0.082599 0.500000
O O18 0.321475 0.000000 0.250000
#
# Coordination Sequence:
#
# PCOD8204187 Si02
#       6
#     8   8   8   8   8   8
#     4  11  21  33  49  69  93 123 153 183 218 260
#     4  10  21  37  53  72  94 117 146 182 218 259
#     4   9  18  33  48  66  91 118 149 187 224 265
#     4   9  17  27  41  61  88 120 154 185 219 257
#     4   9  15  23  35  53  79 115 152 186 217 251
#     4   9  19  34  52  70  91 115 141 176 222 270
#
# _framework density 16.259923000000001
#
# number of rings (size 3 to 8) (size 9 to 14) (size 15 to 20)
#    0.000    2.500    0.000    4.500    0.000    6.667 
#    0.000    3.333    0.000    0.000    0.000    0.000 
#    0.000    0.667    0.000    8.333    0.000    0.000 
#
# Total GULP energy -594922.635394 kJ/mol
# GULP energy per Si atom -12394.221571 kJ/mol
# Density = 1.622292 g / cm^3
# Si number density = 16.259923 Si / 1000 Ang^3
#
#
#
# Elastic Constant Matrix: (Units=GPa)
#
#
# Indices 1 2 3 4 5 6 
#
# 1 137.5196 36.1725 37.9294 0.0000 0.0000 0.0000
# 2 36.1725 77.7912 27.7800 0.0000 0.0000 0.0000
# 3 37.9294 27.7800 69.5362 0.0000 0.0000 0.0000
# 4 0.0000 0.0000 0.0000 23.5490 0.0000 0.0000
# 5 0.0000 0.0000 0.0000 0.0000 39.7858 0.0000
# 6 0.0000 0.0000 0.0000 0.0000 0.0000 11.5171
#
#
#
# Elastic Compliance Matrix: (Units=1/GPa)
#
#
# Indices 1 2 3 4 5 6 
#
# 1 0.009074 -0.002860 -0.003807 0.000000 0.000000 0.000000
# 2 -0.002860 0.015895 -0.004790 0.000000 0.000000 0.000000
# 3 -0.003807 -0.004790 0.018371 0.000000 0.000000 0.000000
# 4 0.000000 0.000000 0.000000 0.042465 0.000000 0.000000
# 5 0.000000 0.000000 0.000000 0.000000 0.025135 0.000000
# 6 0.000000 0.000000 0.000000 0.000000 0.000000 0.086828
#
#
# Mechanical properties :
#
#
# Convention : Reuss Voigt Hill
#
# Bulk Modulus (GPa) = 48.95635 54.29008 51.62322
# Shear Modulus (GPa) = 21.97892 27.16803 24.57347
#
# Velocity S-wave (km/s) = 3.68057 4.09205 3.89175
# Velocity P-wave (km/s) = 6.94522 7.46913 7.21193
#
# Compressibility (1/GPa) = 0.02042636
#
# Stress axis : x y z
#
# Youngs Moduli (GPa) = 110.20579 62.91123 54.43261
#
# Poissons Ratio (x) = 0.17992 0.20722
# Poissons Ratio (y) = 0.31517 0.26075
# Poissons Ratio (z) = 0.41955 0.30137
#
# Static dielectric constant tensor:
#      x y z
#    x 3.844590 0.000000 0.000000 
#    y 0.000000 2.864410 0.000000 
#    z 0.000000 0.000000 3.128520 
# 
# 
# High freq. dielectric constant tensor:
#      x y z
#    x 1.633000 0.000000 0.000000 
#    y 0.000000 1.584420 0.000000 
#    z 0.000000 0.000000 1.634580 
# 
# From -- ./inp_files/2968.got.cif
#   From: 2010.03.12/outbox.cif.g09.slc.cpg/sg49_2_cif.got.tgz:2968.got - 2010.04.14 03:58:27.
