data_PCOD8204075
_publ_section_title
;
Structure prediction by ZEFSAII (Michael W. Deem and Ramdas Pophale) SiO2 
 PCOD8204075
Probable space group: P C C M
;
_chemical_formula_sum "Si O2"
_cell_formula_units_Z 48
_cell_length_a 10.613674
_cell_length_b 9.515674
_cell_length_c 24.443400
_cell_angle_alpha 90.000000
_cell_angle_beta 90.000000
_cell_angle_gamma 90.000000
_cell_volume 2468.692024
_symmetry_space_group_name_H-M "P C C M"
_symmetry_group_IT_number 49
_symmetry_cell_setting 'orthorhombic'
loop_
_space_group_symop_operation_xyz
x,y,z
-x,-y,z
x,-y,1/2-z
-x,y,1/2-z
-x,-y,-z
x,y,-z
-x,y,1/2+z
x,-y,1/2+z
loop_
_atom_site_type_symbol
_atom_site_label
_atom_site_fract_x
_atom_site_fract_y
_atom_site_fract_z
Si Si1 0.242952 0.742481 0.667006
Si Si2 0.030628 0.663970 0.847965
Si Si3 0.646507 0.032994 0.134851
Si Si4 0.639613 0.523514 0.380286
Si Si5 0.715663 0.721859 0.709841
Si Si6 0.789854 0.245688 0.936923
O O1 0.280994 0.888632 0.641234
O O2 0.287356 0.622479 0.625547
O O3 0.308397 0.716096 0.725694
O O4 0.092559 0.744072 0.672794
O O5 0.138008 0.686357 0.802262
O O6 0.078927 0.737372 0.903980
O O7 0.000000 0.500000 0.856638
O O8 0.500000 0.000000 0.125152
O O9 0.670941 0.125345 0.189175
O O10 0.706160 0.113713 0.083001
O O11 0.500000 0.500000 0.402127
O O12 0.633399 0.605439 0.322098
O O13 0.710845 0.612721 0.426337
O O14 0.822590 0.226319 0.000000
#
# Coordination Sequence:
#
# PCOD8204075 Si02
#       6
#     8   8   8   8   8   8
#     4  12  20  35  61  86 119 163 198 231 296 356
#     4  10  20  39  58  90 121 152 198 253 294 354
#     4  10  23  41  58  86 124 158 200 246 290 356
#     4  10  21  36  56  89 119 151 199 251 287 351
#     4  10  22  34  56  88 125 164 190 234 291 358
#     4  10  23  44  63  83 116 158 201 260 320 347
#
# _framework density 19.443494999999999
#
# number of rings (size 3 to 8) (size 9 to 14) (size 15 to 20)
#    0.000    2.000    3.333    3.500    0.000    8.333 
#    0.000    5.833    0.000    0.000    0.000    0.000 
#    0.000    0.000    0.000    0.000    0.000    0.000 
#
# Total GULP energy -595163.340610 kJ/mol
# GULP energy per Si atom -12399.236263 kJ/mol
# Density = 1.939924 g / cm^3
# Si number density = 19.443495 Si / 1000 Ang^3
#
#
#
# Elastic Constant Matrix: (Units=GPa)
#
#
# Indices 1 2 3 4 5 6 
#
# 1 60.5500 23.9682 -1.0053 0.0000 0.0000 0.0000
# 2 23.9682 130.8047 18.5930 0.0000 0.0000 0.0000
# 3 -1.0053 18.5930 80.7124 0.0000 0.0000 0.0000
# 4 0.0000 0.0000 0.0000 18.0513 0.0000 0.0000
# 5 0.0000 0.0000 0.0000 0.0000 23.2221 0.0000
# 6 0.0000 0.0000 0.0000 0.0000 0.0000 18.0245
#
#
#
# Elastic Compliance Matrix: (Units=1/GPa)
#
#
# Indices 1 2 3 4 5 6 
#
# 1 0.017886 -0.003421 0.001011 0.000000 0.000000 0.000000
# 2 -0.003421 0.008558 -0.002014 0.000000 0.000000 0.000000
# 3 0.001011 -0.002014 0.012866 0.000000 0.000000 0.000000
# 4 0.000000 0.000000 0.000000 0.055398 0.000000 0.000000
# 5 0.000000 0.000000 0.000000 0.000000 0.043062 0.000000
# 6 0.000000 0.000000 0.000000 0.000000 0.000000 0.055480
#
#
# Mechanical properties :
#
#
# Convention : Reuss Voigt Hill
#
# Bulk Modulus (GPa) = 32.82775 39.46432 36.14604
# Shear Modulus (GPa) = 23.55675 27.22699 25.39187
#
# Velocity S-wave (km/s) = 3.48451 3.74614 3.61769
# Velocity P-wave (km/s) = 5.75407 6.24919 6.00674
#
# Compressibility (1/GPa) = 0.03046203
#
# Stress axis : x y z
#
# Youngs Moduli (GPa) = 55.90873 116.84769 77.72283
#
# Poissons Ratio (x) = 0.39975 -0.07857
# Poissons Ratio (y) = 0.19127 0.15654
# Poissons Ratio (z) = -0.05652 0.23534
#
# Static dielectric constant tensor:
#      x y z
#    x 3.637640 0.000000 0.000000 
#    y 0.000000 3.581140 0.000000 
#    z 0.000000 0.000000 3.362640 
# 
# 
# High freq. dielectric constant tensor:
#      x y z
#    x 1.766190 0.000000 0.000000 
#    y 0.000000 1.767960 0.000000 
#    z 0.000000 0.000000 1.724950 
# 
# From -- ./inp_files/22839.got.cif
#   From: 2010.03.12/outbox.cif.g09.slc.cpg/sg49_12_cif.got.tgz:22839.got - 2010.04.14 03:58:27.
