data_PCOD8204420
_publ_section_title
;
Structure prediction by ZEFSAII (Michael W. Deem and Ramdas Pophale) SiO2 
 PCOD8204420
Probable space group: P C C M
;
_chemical_formula_sum "Si O2"
_cell_formula_units_Z 64
_cell_length_a 24.014264
_cell_length_b 8.933854
_cell_length_c 15.023281
_cell_angle_alpha 90.000000
_cell_angle_beta 90.000000
_cell_angle_gamma 90.000000
_cell_volume 3223.093631
_symmetry_space_group_name_H-M "P C C M"
_symmetry_group_IT_number 49
_symmetry_cell_setting 'orthorhombic'
loop_
_space_group_symop_operation_xyz
x,y,z
-x,-y,z
x,-y,1/2-z
-x,y,1/2-z
-x,-y,-z
x,y,-z
-x,y,1/2+z
x,-y,1/2+z
loop_
_atom_site_type_symbol
_atom_site_label
_atom_site_fract_x
_atom_site_fract_y
_atom_site_fract_z
Si Si1 0.610445 0.674479 0.100949
Si Si2 0.886631 0.671541 0.100771
Si Si3 0.697608 0.325540 0.750001
Si Si4 0.610443 0.674476 0.600949
Si Si5 0.000001 0.172639 0.144744
Si Si6 0.499999 0.832135 0.605675
Si Si7 0.184941 0.822898 0.750001
Si Si8 0.113367 0.671540 0.100771
O O1 0.662907 0.715422 0.161848
O O2 0.597612 0.500002 0.104176
O O3 0.555730 0.753210 0.141277
O O4 0.623667 0.727436 0.000000
O O5 0.946652 0.747040 0.104617
O O6 0.843317 0.758426 0.161904
O O7 0.891363 0.500001 0.132918
O O8 0.864169 0.680148 0.000000
O O9 0.715100 0.500000 0.750000
O O10 0.662905 0.284579 0.838151
O O11 0.750846 0.220564 0.750004
O O12 0.623665 0.727435 0.500000
O O13 0.555728 0.753205 0.641277
O O14 0.000000 0.188937 0.250000
O O15 0.946655 0.252967 0.104616
O O16 0.000000 0.000000 0.115220
O O17 0.500000 0.823216 0.500000
O O18 0.500000 0.000000 0.642032
O O19 0.156680 0.758429 0.838096
O O20 0.177529 0.000000 0.750000
O O21 0.135830 0.680149 0.000000
#
# Coordination Sequence:
#
# PCOD8204420 Si02
#       8
#     8   8   8   8   8   8   8   8
#     4   9  18  34  56  80 108 144 185 230 282 340
#     4  11  24  42  66  93 121 159 204 247 293 349
#     4  10  22  39  58  81 109 146 195 244 286 340
#     4   9  18  34  56  80 108 144 185 230 282 340
#     4  11  22  37  62  97 132 163 192 237 301 357
#     4   9  17  30  51  80 113 145 178 223 281 342
#     4  12  26  43  62  87 120 158 199 248 305 356
#     4  11  24  42  66  93 121 159 204 247 293 349
#
# _framework density 19.856698000000002
#
# number of rings (size 3 to 8) (size 9 to 14) (size 15 to 20)
#    0.000    1.750    1.250    3.000    0.000    8.000 
#    0.000    5.000    0.000    0.000    0.000    0.000 
#    0.000    0.000    0.000    0.000    0.000    0.000 
#
# Total GULP energy -793812.399636 kJ/mol
# GULP energy per Si atom -12403.318744 kJ/mol
# Density = 1.981150 g / cm^3
# Si number density = 19.856698 Si / 1000 Ang^3
#
#
#
# Elastic Constant Matrix: (Units=GPa)
#
#
# Indices 1 2 3 4 5 6 
#
# 1 146.4636 75.2461 56.6006 0.0000 0.0000 0.0000
# 2 75.2461 140.9330 54.0088 0.0000 0.0000 0.0000
# 3 56.6006 54.0088 107.5749 0.0000 0.0000 0.0000
# 4 0.0000 0.0000 0.0000 15.5534 0.0000 0.0000
# 5 0.0000 0.0000 0.0000 0.0000 -37.1916 0.0000
# 6 0.0000 0.0000 0.0000 0.0000 0.0000 115.4354
#
#
#
# Elastic Compliance Matrix: (Units=1/GPa)
#
#
# Indices 1 2 3 4 5 6 
#
# 1 0.010265 -0.004224 -0.003281 0.000000 0.000000 0.000000
# 2 -0.004224 0.010524 -0.003061 0.000000 0.000000 0.000000
# 3 -0.003281 -0.003061 0.012559 0.000000 0.000000 0.000000
# 4 0.000000 0.000000 0.000000 0.064295 0.000000 0.000000
# 5 0.000000 0.000000 0.000000 0.000000 -0.026888 0.000000
# 6 0.000000 0.000000 0.000000 0.000000 0.000000 0.008663
#
#
# Mechanical properties :
#
#
# Convention : Reuss Voigt Hill
#
# Bulk Modulus (GPa) = 81.85333 85.18696 83.52014
# Shear Modulus (GPa) = 47.79153 32.70050 40.24601
#
# Velocity S-wave (km/s) = 4.91126 4.06251 4.50691
# Velocity P-wave (km/s) = 8.57159 8.06222 8.32080
#
# Compressibility (1/GPa) = 0.01221697
#
# Stress axis : x y z
#
# Youngs Moduli (GPa) = 97.41561 95.02305 79.62488
#
# Poissons Ratio (x) = 0.40134 0.26122
# Poissons Ratio (y) = 0.41144 0.24376
# Poissons Ratio (z) = 0.31958 0.29089
#
# Static dielectric constant tensor:
#      x y z
#    x 3.588710 0.000000 0.000000 
#    y 0.000000 3.701790 0.000000 
#    z 0.000000 0.000000 3.867610 
# 
# 
# High freq. dielectric constant tensor:
#      x y z
#    x 1.771270 0.000000 0.000000 
#    y 0.000000 1.778290 0.000000 
#    z 0.000000 0.000000 1.783130 
# 
# From -- ./inp_files/14514.got.cif
#   From: 2010.03.12/outbox.cif.g09.slc.cpg/sg49_8_cif.got.tgz:14514.got - 2010.04.14 03:58:27.
