data_PCOD8204530
_publ_section_title
;
Structure prediction by ZEFSAII (Michael W. Deem and Ramdas Pophale) SiO2 
 PCOD8204530
Probable space group: P C C M
;
_chemical_formula_sum "Si O2"
_cell_formula_units_Z 24
_cell_length_a 5.691857
_cell_length_b 19.813017
_cell_length_c 8.866272
_cell_angle_alpha 90.000000
_cell_angle_beta 90.000000
_cell_angle_gamma 90.000000
_cell_volume 999.874847
_symmetry_space_group_name_H-M "P C C M"
_symmetry_group_IT_number 49
_symmetry_cell_setting 'orthorhombic'
loop_
_space_group_symop_operation_xyz
x,y,z
-x,-y,z
x,-y,1/2-z
-x,y,1/2-z
-x,-y,-z
x,y,-z
-x,y,1/2+z
x,-y,1/2+z
loop_
_atom_site_type_symbol
_atom_site_label
_atom_site_fract_x
_atom_site_fract_y
_atom_site_fract_z
Si Si1 0.000000 0.721794 0.750000
Si Si2 0.000000 0.000000 0.750000
Si Si3 0.309157 0.789233 0.000000
Si Si4 0.686312 0.558024 0.500000
Si Si5 0.672555 0.679555 0.000000
Si Si6 0.695585 0.942648 0.500000
Si Si7 0.000000 0.500000 0.750000
O O1 0.840106 0.770157 0.647557
O O2 0.836624 0.672387 0.852061
O O3 0.846837 0.049908 0.850101
O O4 0.560513 0.753273 0.000000
O O5 0.395815 0.866474 0.000000
O O6 0.500000 0.500000 0.500000
O O7 0.547299 0.628329 0.500000
O O8 0.845037 0.550570 0.351387
O O9 0.500000 0.000000 0.500000
#
# Coordination Sequence:
#
# PCOD8204530 Si02
#       7
#     4   2   4   4   4   4   2
#     4  10  25  45  70 100 137 179 228 284 341 407
#     4  10  24  42  62  92 134 174 226 280 334 408
#     4  11  24  43  69  99 134 176 227 284 345 408
#     4  11  26  47  74 105 143 186 231 281 341 406
#     4  11  26  46  71 102 137 180 229 281 342 408
#     4  11  24  42  66  97 133 178 226 280 343 409
#     4  10  26  48  74 108 144 180 230 288 340 402
#
# _framework density 24.003005000000002
#
# number of rings (size 3 to 8) (size 9 to 14) (size 15 to 20)
#    0.000    1.333    0.000    3.000    0.000   24.000 
#    0.000    5.000    0.000    0.000    0.000    0.000 
#    0.000    0.000    0.000    0.000    0.000    0.000 
#
# Total GULP energy -297666.996362 kJ/mol
# GULP energy per Si atom -12402.791515 kJ/mol
# Density = 2.394837 g / cm^3
# Si number density = 24.003005 Si / 1000 Ang^3
#
#
#
# Elastic Constant Matrix: (Units=GPa)
#
#
# Indices 1 2 3 4 5 6 
#
# 1 160.0120 75.8556 86.6085 0.0000 0.0000 0.0000
# 2 75.8556 157.4612 65.0173 0.0000 0.0000 0.0000
# 3 86.6085 65.0173 192.8095 0.0000 0.0000 0.0000
# 4 0.0000 0.0000 0.0000 12.2674 0.0000 0.0000
# 5 0.0000 0.0000 0.0000 0.0000 1.1750 0.0000
# 6 0.0000 0.0000 0.0000 0.0000 0.0000 47.0934
#
#
#
# Elastic Compliance Matrix: (Units=1/GPa)
#
#
# Indices 1 2 3 4 5 6 
#
# 1 0.009519 -0.003276 -0.003171 0.000000 0.000000 0.000000
# 2 -0.003276 0.008506 -0.001397 0.000000 0.000000 0.000000
# 3 -0.003171 -0.001397 0.007082 0.000000 0.000000 0.000000
# 4 0.000000 0.000000 0.000000 0.081517 0.000000 0.000000
# 5 0.000000 0.000000 0.000000 0.000000 0.851045 0.000000
# 6 0.000000 0.000000 0.000000 0.000000 0.000000 0.021234
#
#
# Mechanical properties :
#
#
# Convention : Reuss Voigt Hill
#
# Bulk Modulus (GPa) = 106.17115 107.24949 106.71032
# Shear Modulus (GPa) = 5.01137 30.96060 17.98599
#
# Velocity S-wave (km/s) = 1.44649 3.59536 2.74034
# Velocity P-wave (km/s) = 6.86427 7.87491 7.38690
#
# Compressibility (1/GPa) = 0.00941875
#
# Stress axis : x y z
#
# Youngs Moduli (GPa) = 105.05165 117.56728 141.20685
#
# Poissons Ratio (x) = 0.38520 0.44778
# Poissons Ratio (y) = 0.34419 0.19720
# Poissons Ratio (z) = 0.33313 0.16418
#
# Static dielectric constant tensor:
#      x y z
#    x 4.624330 0.000000 0.000000 
#    y 0.000000 3.330210 0.000000 
#    z 0.000000 0.000000 4.708170 
# 
# 
# High freq. dielectric constant tensor:
#      x y z
#    x 1.968330 0.000000 0.000000 
#    y 0.000000 1.944460 0.000000 
#    z 0.000000 0.000000 1.976020 
# 
# From -- ./inp_files/823.got.cif
#   From: 2010.03.12/outbox.cif.g09.slc.cpg/sg49_1_cif.got.tgz:823.got - 2010.04.14 03:58:27.
