data_PCOD8204133
_publ_section_title
;
Structure prediction by ZEFSAII (Michael W. Deem and Ramdas Pophale) SiO2 
 PCOD8204133
Probable space group: P C C M
;
_chemical_formula_sum "Si O2"
_cell_formula_units_Z 58
_cell_length_a 22.912485
_cell_length_b 15.011402
_cell_length_c 8.858079
_cell_angle_alpha 90.000000
_cell_angle_beta 90.000000
_cell_angle_gamma 90.000000
_cell_volume 3046.723190
_symmetry_space_group_name_H-M "P C C M"
_symmetry_group_IT_number 49
_symmetry_cell_setting 'orthorhombic'
loop_
_space_group_symop_operation_xyz
x,y,z
-x,-y,z
x,-y,1/2-z
-x,y,1/2-z
-x,-y,-z
x,y,-z
-x,y,1/2+z
x,-y,1/2+z
loop_
_atom_site_type_symbol
_atom_site_label
_atom_site_fract_x
_atom_site_fract_y
_atom_site_fract_z
Si Si1 0.718818 0.907646 0.175352
Si Si2 0.761587 0.408490 0.325559
Si Si3 0.678527 0.268433 0.820374
Si Si4 0.500000 0.500000 0.250000
Si Si5 0.144336 0.092452 0.175387
Si Si6 0.940257 0.230833 0.179640
Si Si7 0.554541 0.328281 0.835077
Si Si8 0.101433 0.407773 0.824171
O O1 0.683320 0.831818 0.261902
O O2 0.787334 0.891353 0.197792
O O3 0.699452 0.000000 0.250000
O O4 0.701786 0.907891 0.000000
O O5 0.740318 0.500000 0.250000
O O6 0.744356 0.412085 0.500000
O O7 0.730557 0.325690 0.248291
O O8 0.829915 0.393631 0.301499
O O9 0.616909 0.307885 0.758921
O O10 0.683282 0.272062 0.000000
O O11 0.457304 0.564698 0.153651
O O12 0.113116 0.172436 0.260886
O O13 0.124369 0.000000 0.250000
O O14 0.126718 0.091800 0.000000
O O15 0.932600 0.331431 0.235816
O O16 0.000000 0.192207 0.250000
O O17 0.942705 0.227383 0.000000
O O18 0.500000 0.281649 0.750000
O O19 0.555934 0.285794 0.000000
O O20 0.081102 0.500000 0.750000
O O21 0.084263 0.406023 0.000000
#
# Coordination Sequence:
#
# PCOD8204133 Si02
#       8
#     8   8   8   2   8   8   8   8
#     4  10  21  38  61  88 115 149 185 228 281 334
#     4  10  21  35  53  80 113 149 185 227 279 335
#     4  11  22  35  53  84 118 149 189 235 280 336
#     4   8  18  36  54  72 108 148 198 232 280 320
#     4  10  21  39  62  88 117 146 183 224 275 337
#     4  12  25  40  59  83 111 145 186 230 279 329
#     4   9  20  34  52  77 108 148 191 233 276 323
#     4  10  21  39  59  80 109 144 186 232 280 333
#
# _framework density 19.036846000000001
#
# number of rings (size 3 to 8) (size 9 to 14) (size 15 to 20)
#    0.414    1.379    0.000    4.345    0.966    8.276 
#    0.000    2.759    0.000    0.414    0.000    2.897 
#    0.000    0.000    0.000    0.000    0.000    0.000 
#
# Total GULP energy -719217.230075 kJ/mol
# GULP energy per Si atom -12400.297070 kJ/mol
# Density = 1.899352 g / cm^3
# Si number density = 19.036846 Si / 1000 Ang^3
#
#
#
# Elastic Constant Matrix: (Units=GPa)
#
#
# Indices 1 2 3 4 5 6 
#
# 1 53.9362 34.2769 35.9255 0.0000 0.0000 0.0000
# 2 34.2769 109.3726 40.4628 0.0000 0.0000 0.0000
# 3 35.9255 40.4628 128.1835 0.0000 0.0000 0.0000
# 4 0.0000 0.0000 0.0000 38.0462 0.0000 0.0000
# 5 0.0000 0.0000 0.0000 0.0000 -12.0604 0.0000
# 6 0.0000 0.0000 0.0000 0.0000 0.0000 21.0543
#
#
#
# Elastic Compliance Matrix: (Units=1/GPa)
#
#
# Indices 1 2 3 4 5 6 
#
# 1 0.026027 -0.006180 -0.005344 0.000000 0.000000 0.000000
# 2 -0.006180 0.011819 -0.001999 0.000000 0.000000 0.000000
# 3 -0.005344 -0.001999 0.009930 0.000000 0.000000 0.000000
# 4 0.000000 0.000000 0.000000 0.026284 0.000000 0.000000
# 5 0.000000 0.000000 0.000000 0.000000 -0.082916 0.000000
# 6 0.000000 0.000000 0.000000 0.000000 0.000000 0.047496
#
#
# Mechanical properties :
#
#
# Convention : Reuss Voigt Hill
#
# Bulk Modulus (GPa) = 48.23616 56.98030 52.60823
# Shear Modulus (GPa) = 68.87438 21.46317 45.16877
#
# Velocity S-wave (km/s) = 6.02147 3.36140 4.87632
# Velocity P-wave (km/s) = 8.58705 6.71282 7.70712
#
# Compressibility (1/GPa) = 0.02073134
#
# Stress axis : x y z
#
# Youngs Moduli (GPa) = 38.42147 84.60734 100.70520
#
# Poissons Ratio (x) = 0.52286 0.53814
# Poissons Ratio (y) = 0.23744 0.20130
# Poissons Ratio (z) = 0.20532 0.16912
#
# Static dielectric constant tensor:
#      x y z
#    x 3.447560 0.000000 0.000000 
#    y 0.000000 3.437940 0.000000 
#    z 0.000000 0.000000 3.572850 
# 
# 
# High freq. dielectric constant tensor:
#      x y z
#    x 1.730820 0.000000 0.000000 
#    y 0.000000 1.736580 0.000000 
#    z 0.000000 0.000000 1.752970 
# 
# From -- ./inp_files/6466.got.cif
#   From: 2010.03.12/outbox.cif.g09.slc.cpg/sg49_4_cif.got.tgz:6466.got - 2010.04.14 03:58:27.
