data_PCOD8204795
_publ_section_title
;
Structure prediction by ZEFSAII (Michael W. Deem and Ramdas Pophale) SiO2 
 PCOD8204795
Probable space group: P B A N
;
_chemical_formula_sum "Si O2"
_cell_formula_units_Z 38
_cell_length_a 9.085680
_cell_length_b 21.258931
_cell_length_c 8.930707
_cell_angle_alpha 90.000000
_cell_angle_beta 90.000000
_cell_angle_gamma 90.000000
_cell_volume 1724.982527
_symmetry_space_group_name_H-M "P B A N"
_symmetry_group_IT_number 50
_space_group.IT_coordinate_system_code '2'
_symmetry_cell_setting 'orthorhombic'
loop_
_space_group_symop_operation_xyz
x,y,z
1/2-x,1/2-y,z
x,1/2-y,-z
1/2-x,y,-z
-x,-y,-z
1/2+x,1/2+y,-z
-x,1/2+y,z
1/2+x,-y,z
loop_
_atom_site_type_symbol
_atom_site_label
_atom_site_fract_x
_atom_site_fract_y
_atom_site_fract_z
Si Si1 0.009155 0.333265 0.067398
Si Si2 0.750000 0.750000 0.773433
Si Si3 0.893740 0.042946 0.405598
Si Si4 0.917807 0.861068 0.730900
Si Si5 0.674543 0.948573 0.842001
Si Si6 0.750000 0.250000 0.000000
O O1 0.147068 0.292089 0.119497
O O2 0.029968 0.403011 0.139869
O O3 0.855240 0.296259 0.101413
O O4 0.014811 0.341868 0.889812
O O5 0.844438 0.796830 0.667196
O O6 0.750000 0.054067 0.500000
O O7 0.958770 0.112867 0.380857
O O8 0.871927 0.012346 0.241114
O O9 0.000000 0.000000 0.500000
O O10 0.794949 0.915196 0.738719
O O11 0.750000 0.965729 0.000000
#
# Coordination Sequence:
#
# PCOD8204795 Si02
#       6
#     8   4   8   8   8   2
#     4  10  20  34  62  97 133 169 223 291 345 406
#     4  10  17  40  68  97 130 173 235 284 343 424
#     4  12  25  44  64  99 144 186 227 282 351 418
#     4  10  19  38  67  93 129 179 226 278 339 411
#     4   9  21  41  66  95 131 180 235 275 338 427
#     4  12  20  30  52 112 146 154 212 306 386 370
#
# _framework density 22.029208000000001
#
# number of rings (size 3 to 8) (size 9 to 14) (size 15 to 20)
#    0.000    1.684    4.211    2.526    0.000    5.053 
#    1.895    0.000    0.000   10.105    5.474    0.000 
#    0.000    0.000    0.000    0.000    0.000    0.000 
#
# Total GULP energy -470854.453419 kJ/mol
# GULP energy per Si atom -12390.906669 kJ/mol
# Density = 2.197907 g / cm^3
# Si number density = 22.029208 Si / 1000 Ang^3
#
#
#
# Elastic Constant Matrix: (Units=GPa)
#
#
# Indices 1 2 3 4 5 6 
#
# 1 140.0609 72.5611 48.1179 0.0000 0.0000 0.0000
# 2 72.5611 141.4027 64.9571 0.0000 0.0000 0.0000
# 3 48.1179 64.9571 68.8462 0.0000 0.0000 0.0000
# 4 0.0000 0.0000 0.0000 21.4595 0.0000 0.0000
# 5 0.0000 0.0000 0.0000 0.0000 26.6716 0.0000
# 6 0.0000 0.0000 0.0000 0.0000 0.0000 52.4419
#
#
#
# Elastic Compliance Matrix: (Units=1/GPa)
#
#
# Indices 1 2 3 4 5 6 
#
# 1 0.010286 -0.003487 -0.003899 0.000000 0.000000 0.000000
# 2 -0.003487 0.013664 -0.010455 0.000000 0.000000 0.000000
# 3 -0.003899 -0.010455 0.027115 0.000000 0.000000 0.000000
# 4 0.000000 0.000000 0.000000 0.046599 0.000000 0.000000
# 5 0.000000 0.000000 0.000000 0.000000 0.037493 0.000000
# 6 0.000000 0.000000 0.000000 0.000000 0.000000 0.019069
#
#
# Mechanical properties :
#
#
# Convention : Reuss Voigt Hill
#
# Bulk Modulus (GPa) = 65.00884 80.17578 72.59231
# Shear Modulus (GPa) = 25.63637 31.09285 28.36461
#
# Velocity S-wave (km/s) = 3.41507 3.76099 3.59219
# Velocity P-wave (km/s) = 6.71749 7.43870 7.08727
#
# Compressibility (1/GPa) = 0.01538252
#
# Stress axis : x y z
#
# Youngs Moduli (GPa) = 97.22193 73.18338 36.88054
#
# Poissons Ratio (x) = 0.25520 0.14379
# Poissons Ratio (y) = 0.33903 0.38559
# Poissons Ratio (z) = 0.37904 0.76514
#
# Static dielectric constant tensor:
#      x y z
#    x 4.196150 0.000000 0.000000 
#    y 0.000000 4.512810 0.000000 
#    z 0.000000 0.000000 3.509790 
# 
# 
# High freq. dielectric constant tensor:
#      x y z
#    x 1.866080 0.000000 0.000000 
#    y 0.000000 1.878520 0.000000 
#    z 0.000000 0.000000 1.821770 
# 
# From -- ./inp_files/9593.got.cif
#   From: 2010.03.12/outbox.cif.g09.slc.cpg/sg50_5_cif.got.tgz:9593.got - 2010.04.16 13:23:21.
