data_PCOD8204577
_publ_section_title
;
Structure prediction by ZEFSAII (Michael W. Deem and Ramdas Pophale) SiO2 
 PCOD8204577
Probable space group: P C C M
;
_chemical_formula_sum "Si O2"
_cell_formula_units_Z 64
_cell_length_a 9.449162
_cell_length_b 21.084268
_cell_length_c 18.105117
_cell_angle_alpha 90.000000
_cell_angle_beta 90.000000
_cell_angle_gamma 90.000000
_cell_volume 3607.058271
_symmetry_space_group_name_H-M "P C C M"
_symmetry_group_IT_number 49
_symmetry_cell_setting 'orthorhombic'
loop_
_space_group_symop_operation_xyz
x,y,z
-x,-y,z
x,-y,1/2-z
-x,y,1/2-z
-x,-y,-z
x,y,-z
-x,y,1/2+z
x,-y,1/2+z
loop_
_atom_site_type_symbol
_atom_site_label
_atom_site_fract_x
_atom_site_fract_y
_atom_site_fract_z
Si Si1 0.236210 0.532241 0.328274
Si Si2 0.044524 0.374371 0.915398
Si Si3 0.679476 0.868641 0.911648
Si Si4 0.730723 0.592225 0.415330
Si Si5 0.738428 0.270698 0.414522
Si Si6 0.413631 0.064591 0.580857
Si Si7 0.465658 0.362043 0.829942
Si Si8 0.842600 0.009520 0.411397
O O1 0.197212 0.500000 0.250000
O O2 0.108323 0.576480 0.356207
O O3 0.257463 0.480155 0.390744
O O4 0.380486 0.572089 0.321421
O O5 0.109377 0.304177 0.901629
O O6 0.877486 0.370516 0.902049
O O7 0.077733 0.396512 0.000000
O O8 0.736505 0.800870 0.882844
O O9 0.519623 0.884309 0.879937
O O10 0.789573 0.921746 0.883640
O O11 0.671778 0.870848 0.000000
O O12 0.685081 0.592469 0.500000
O O13 0.613762 0.628421 0.369581
O O14 0.697842 0.269793 0.500000
O O15 0.619026 0.310304 0.374510
O O16 0.376397 0.091794 0.500000
O O17 0.500000 0.000000 0.572399
O O18 0.263471 0.046239 0.620091
O O19 0.500000 0.333983 0.750000
O O20 0.840820 0.006333 0.500000
O O21 0.000000 0.000000 0.379555
#
# Coordination Sequence:
#
# PCOD8204577 Si02
#       8
#     8   8   8   8   8   8   8   8
#     4  11  21  35  53  77 101 128 162 202 251 311
#     4   9  20  36  51  73 102 131 165 204 249 302
#     4   8  13  23  40  59  83 125 169 195 228 289
#     4  11  22  35  54  76 100 128 159 205 258 306
#     4   9  18  34  52  67  93 136 176 202 240 304
#     4   7  10  17  30  51  81 114 150 189 227 272
#     4  11  22  37  51  72 100 125 162 211 254 296
#     4   8  12  18  31  57  92 123 152 196 249 286
#
# _framework density 17.742991
#
# number of rings (size 3 to 8) (size 9 to 14) (size 15 to 20)
#    0.000    2.750    1.250    3.000    0.000    4.000 
#    0.000    1.250    0.000    6.000    0.000    0.000 
#    0.000    4.500    0.000    1.500    0.000    1.625 
#
# Total GULP energy -793017.245249 kJ/mol
# GULP energy per Si atom -12390.894457 kJ/mol
# Density = 1.770261 g / cm^3
# Si number density = 17.742991 Si / 1000 Ang^3
#
#
#
# Elastic Constant Matrix: (Units=GPa)
#
#
# Indices 1 2 3 4 5 6 
#
# 1 130.7136 55.1297 37.4828 0.0000 0.0000 0.0000
# 2 55.1297 110.7880 29.0652 0.0000 0.0000 0.0000
# 3 37.4828 29.0652 59.3905 0.0000 0.0000 0.0000
# 4 0.0000 0.0000 0.0000 23.6063 0.0000 0.0000
# 5 0.0000 0.0000 0.0000 0.0000 46.6721 0.0000
# 6 0.0000 0.0000 0.0000 0.0000 0.0000 30.1307
#
#
#
# Elastic Compliance Matrix: (Units=1/GPa)
#
#
# Indices 1 2 3 4 5 6 
#
# 1 0.010748 -0.004094 -0.004779 0.000000 0.000000 0.000000
# 2 -0.004094 0.011916 -0.003247 0.000000 0.000000 0.000000
# 3 -0.004779 -0.003247 0.021443 0.000000 0.000000 0.000000
# 4 0.000000 0.000000 0.000000 0.042362 0.000000 0.000000
# 5 0.000000 0.000000 0.000000 0.000000 0.021426 0.000000
# 6 0.000000 0.000000 0.000000 0.000000 0.000000 0.033189
#
#
# Mechanical properties :
#
#
# Convention : Reuss Voigt Hill
#
# Bulk Modulus (GPa) = 50.34122 60.47195 55.40658
# Shear Modulus (GPa) = 29.07881 32.02945 30.55413
#
# Velocity S-wave (km/s) = 4.05271 4.25336 4.15425
# Velocity P-wave (km/s) = 7.09460 7.63398 7.36922
#
# Compressibility (1/GPa) = 0.01986444
#
# Stress axis : x y z
#
# Youngs Moduli (GPa) = 93.04364 83.92376 46.63458
#
# Poissons Ratio (x) = 0.34361 0.22288
# Poissons Ratio (y) = 0.38095 0.15144
# Poissons Ratio (z) = 0.44469 0.27253
#
# Static dielectric constant tensor:
#      x y z
#    x 3.609170 0.000000 0.000000 
#    y 0.000000 3.383630 0.000000 
#    z 0.000000 0.000000 2.965110 
# 
# 
# High freq. dielectric constant tensor:
#      x y z
#    x 1.696090 0.000000 0.000000 
#    y 0.000000 1.667620 0.000000 
#    z 0.000000 0.000000 1.646040 
# 
# From -- ./inp_files/20053.got.cif
#   From: 2010.03.12/outbox.cif.g09.slc.cpg/sg49_11_cif.got.tgz:20053.got - 2010.04.14 03:58:27.
