data_PCOD8204562
_publ_section_title
;
Structure prediction by ZEFSAII (Michael W. Deem and Ramdas Pophale) SiO2 
 PCOD8204562
Probable space group: P C C M
;
_chemical_formula_sum "Si O2"
_cell_formula_units_Z 56
_cell_length_a 15.627358
_cell_length_b 13.403924
_cell_length_c 15.068905
_cell_angle_alpha 90.000000
_cell_angle_beta 90.000000
_cell_angle_gamma 90.000000
_cell_volume 3156.452171
_symmetry_space_group_name_H-M "P C C M"
_symmetry_group_IT_number 49
_symmetry_cell_setting 'orthorhombic'
loop_
_space_group_symop_operation_xyz
x,y,z
-x,-y,z
x,-y,1/2-z
-x,y,1/2-z
-x,-y,-z
x,y,-z
-x,y,1/2+z
x,-y,1/2+z
loop_
_atom_site_type_symbol
_atom_site_label
_atom_site_fract_x
_atom_site_fract_y
_atom_site_fract_z
Si Si1 0.159804 0.242137 0.899134
Si Si2 0.500000 0.881684 0.903048
Si Si3 0.100919 0.384447 0.750000
Si Si4 0.316552 0.111634 0.606141
Si Si5 0.000000 0.883512 0.353746
Si Si6 0.683448 0.111634 0.606141
Si Si7 0.840196 0.242137 0.100866
O O1 0.140664 0.337322 0.838560
O O2 0.083451 0.162778 0.898219
O O3 0.244228 0.187686 0.860615
O O4 0.173257 0.279475 0.000000
O O5 0.409940 0.852280 0.855315
O O6 0.590060 0.852280 0.855315
O O7 0.500000 0.000000 0.913815
O O8 0.500000 0.830934 0.000000
O O9 0.124573 0.500000 0.750000
O O10 0.140664 0.337322 0.661440
O O11 0.000000 0.365458 0.750000
O O12 0.320262 0.109804 0.500000
O O13 0.244228 0.187686 0.639385
O O14 0.295020 1.000000 0.641101
O O15 0.000000 0.857905 0.250000
O O16 0.916549 0.837222 0.398219
O O17 0.000000 0.000000 0.373655
O O18 0.679738 0.109804 0.500000
O O19 0.826743 0.279475 0.000000
#
# Coordination Sequence:
#
# PCOD8204562 Si02
#       7
#     8   8   8   8   8   8   8
#     4  11  20  34  54  77 101 131 170 206 251 300
#     4   7  10  20  38  65 103 140 169 197 230 272
#     4  11  24  42  56  71  96 125 167 220 269 309
#     4   8  14  24  43  73 107 139 168 198 234 284
#     4  11  21  33  49  73 109 144 169 194 236 294
#     4   8  14  24  43  73 107 139 168 198 234 284
#     4  11  20  34  54  77 101 131 170 206 251 300
#
# _framework density 17.741437999999999
#
# number of rings (size 3 to 8) (size 9 to 14) (size 15 to 20)
#    0.000    2.429    2.857    3.000    0.000    2.857 
#    0.000    1.429    0.000    0.857    0.000    5.000 
#    0.000    5.714    0.000    0.000    0.000    0.000 
#
# Total GULP energy -693962.199110 kJ/mol
# GULP energy per Si atom -12392.182127 kJ/mol
# Density = 1.770106 g / cm^3
# Si number density = 17.741438 Si / 1000 Ang^3
#
#
#
# Elastic Constant Matrix: (Units=GPa)
#
#
# Indices 1 2 3 4 5 6 
#
# 1 166.1245 65.4184 23.8261 0.0000 0.0000 0.0000
# 2 65.4184 109.1995 38.6659 0.0000 0.0000 0.0000
# 3 23.8261 38.6659 70.1153 0.0000 0.0000 0.0000
# 4 0.0000 0.0000 0.0000 8.5276 0.0000 0.0000
# 5 0.0000 0.0000 0.0000 0.0000 -37.3119 0.0000
# 6 0.0000 0.0000 0.0000 0.0000 0.0000 12.9781
#
#
#
# Elastic Compliance Matrix: (Units=1/GPa)
#
#
# Indices 1 2 3 4 5 6 
#
# 1 0.007879 -0.004687 -0.000092 0.000000 0.000000 0.000000
# 2 -0.004687 0.014168 -0.006220 0.000000 0.000000 0.000000
# 3 -0.000092 -0.006220 0.017724 0.000000 0.000000 0.000000
# 4 0.000000 0.000000 0.000000 0.117266 0.000000 0.000000
# 5 0.000000 0.000000 0.000000 0.000000 -0.026801 0.000000
# 6 0.000000 0.000000 0.000000 0.000000 0.000000 0.077053
#
#
# Mechanical properties :
#
#
# Convention : Reuss Voigt Hill
#
# Bulk Modulus (GPa) = 56.27269 66.80669 61.53969
# Shear Modulus (GPa) = 21.25744 11.34069 16.29907
#
# Velocity S-wave (km/s) = 3.46523 2.53102 3.03430
# Velocity P-wave (km/s) = 6.91357 6.80286 6.85844
#
# Compressibility (1/GPa) = 0.01777061
#
# Stress axis : x y z
#
# Youngs Moduli (GPa) = 126.92632 70.58159 56.42083
#
# Poissons Ratio (x) = 0.33082 0.00522
# Poissons Ratio (y) = 0.59492 0.35096
# Poissons Ratio (z) = 0.01174 0.43904
#
# Static dielectric constant tensor:
#      x y z
#    x 3.873710 0.000000 0.000000 
#    y 0.000000 2.923410 0.000000 
#    z 0.000000 0.000000 3.103320 
# 
# 
# High freq. dielectric constant tensor:
#      x y z
#    x 1.703010 0.000000 0.000000 
#    y 0.000000 1.632690 0.000000 
#    z 0.000000 0.000000 1.676790 
# 
# From -- ./inp_files/13694.got.cif
#   From: 2010.03.12/outbox.cif.g09.slc.cpg/sg49_7_cif.got.tgz:13694.got - 2010.04.14 03:58:27.
