data_PCOD8204065
_publ_section_title
;
Structure prediction by ZEFSAII (Michael W. Deem and Ramdas Pophale) SiO2 
 PCOD8204065
Probable space group: P C C M
;
_chemical_formula_sum "Si O2"
_cell_formula_units_Z 64
_cell_length_a 23.475137
_cell_length_b 15.348854
_cell_length_c 8.435055
_cell_angle_alpha 90.000000
_cell_angle_beta 90.000000
_cell_angle_gamma 90.000000
_cell_volume 3039.289077
_symmetry_space_group_name_H-M "P C C M"
_symmetry_group_IT_number 49
_symmetry_cell_setting 'orthorhombic'
loop_
_space_group_symop_operation_xyz
x,y,z
-x,-y,z
x,-y,1/2-z
-x,y,1/2-z
-x,-y,-z
x,y,-z
-x,y,1/2+z
x,-y,1/2+z
loop_
_atom_site_type_symbol
_atom_site_label
_atom_site_fract_x
_atom_site_fract_y
_atom_site_fract_z
Si Si1 0.632766 0.408403 0.184653
Si Si2 0.938201 0.242197 0.314608
Si Si3 0.872481 0.407693 0.687606
Si Si4 0.372946 0.908546 0.813789
Si Si5 0.139318 0.907701 0.183933
Si Si6 0.438627 0.748142 0.314214
Si Si7 0.254193 0.151274 0.816230
Si Si8 0.747913 0.646073 0.185992
O O1 0.608821 0.500000 0.250000
O O2 0.604270 0.330634 0.281966
O O3 0.700433 0.404464 0.213523
O O4 0.618293 0.399237 0.000000
O O5 0.942821 0.251869 0.500000
O O6 0.913975 0.332870 0.242756
O O7 0.894456 0.166230 0.276152
O O8 0.000000 0.219617 0.250000
O O9 0.894915 0.500000 0.750000
O O10 0.873629 0.405757 0.500000
O O11 0.808274 0.390241 0.746684
O O12 0.419040 0.834656 0.776547
O O13 0.314612 0.890525 0.721903
O O14 0.397690 0.000000 0.750000
O O15 0.361315 0.911888 0.000000
O O16 0.206588 0.896603 0.212293
O O17 0.118310 0.000000 0.250000
O O18 0.124855 0.901481 0.000000
O O19 0.500000 0.720187 0.250000
O O20 0.440034 0.767622 0.500000
O O21 0.255576 0.252447 0.772471
O O22 0.239275 0.136900 0.000000
O O23 0.737893 0.629316 0.000000
#
# Coordination Sequence:
#
# PCOD8204065 Si02
#       8
#     8   8   8   8   8   8   8   8
#     4  12  25  42  66  98 133 172 216 265 320 385
#     4  11  24  45  66  91 125 165 214 267 320 376
#     4  10  22  40  63  92 128 166 208 258 313 375
#     4  12  25  43  67  99 133 172 217 264 321 384
#     4  12  25  42  66  96 129 168 212 261 319 383
#     4  12  26  47  70  96 129 169 217 271 324 382
#     4  11  21  39  66  96 134 172 210 261 320 382
#     4  10  20  38  64  94 130 171 209 259 322 381
#
# _framework density 21.057556999999999
#
# number of rings (size 3 to 8) (size 9 to 14) (size 15 to 20)
#    0.000    0.750    2.500    6.000    0.000    4.000 
#    0.000    5.000    0.000    0.000    0.000    0.000 
#    0.000    0.000    0.000    0.000    0.000    0.000 
#
# Total GULP energy -794106.335926 kJ/mol
# GULP energy per Si atom -12407.911499 kJ/mol
# Density = 2.100963 g / cm^3
# Si number density = 21.057557 Si / 1000 Ang^3
#
#
#
# Elastic Constant Matrix: (Units=GPa)
#
#
# Indices 1 2 3 4 5 6 
#
# 1 76.8445 12.9990 13.1118 0.0000 0.0000 0.0000
# 2 12.9990 132.4922 24.5994 0.0000 0.0000 0.0000
# 3 13.1118 24.5994 67.7071 0.0000 0.0000 0.0000
# 4 0.0000 0.0000 0.0000 32.5927 0.0000 0.0000
# 5 0.0000 0.0000 0.0000 0.0000 23.1899 0.0000
# 6 0.0000 0.0000 0.0000 0.0000 0.0000 -0.5012
#
#
#
# Elastic Compliance Matrix: (Units=1/GPa)
#
#
# Indices 1 2 3 4 5 6 
#
# 1 0.013558 -0.000904 -0.002297 0.000000 0.000000 0.000000
# 2 -0.000904 0.008154 -0.002787 0.000000 0.000000 0.000000
# 3 -0.002297 -0.002787 0.016227 0.000000 0.000000 0.000000
# 4 0.000000 0.000000 0.000000 0.030682 0.000000 0.000000
# 5 0.000000 0.000000 0.000000 0.000000 0.043122 0.000000
# 6 0.000000 0.000000 0.000000 0.000000 0.000000 -1.995172
#
#
# Mechanical properties :
#
#
# Convention : Reuss Voigt Hill
#
# Bulk Modulus (GPa) = 38.51746 42.05159 40.28453
# Shear Modulus (GPa) = -2.68413 26.14517 11.73052
#
# Velocity S-wave (km/s) = -1.13024 3.52746 2.36279
# Velocity P-wave (km/s) = 4.07774 6.05011 5.15906
#
# Compressibility (1/GPa) = 0.02596225
#
# Stress axis : x y z
#
# Youngs Moduli (GPa) = 73.75646 122.64197 61.62525
#
# Poissons Ratio (x) = 0.11083 0.14157
# Poissons Ratio (y) = 0.06665 0.17178
# Poissons Ratio (z) = 0.16944 0.34186
#
# Static dielectric constant tensor:
#      x y z
#    x 3.859160 0.000000 0.000000 
#    y 0.000000 4.086730 0.000000 
#    z 0.000000 0.000000 3.788970 
# 
# 
# High freq. dielectric constant tensor:
#      x y z
#    x 1.820070 0.000000 0.000000 
#    y 0.000000 1.842840 0.000000 
#    z 0.000000 0.000000 1.828420 
# 
# From -- ./inp_files/6546.got.cif
#   From: 2010.03.12/outbox.cif.g09.slc.cpg/sg49_4_cif.got.tgz:6546.got - 2010.04.14 03:58:27.
