data_PCOD8204771
_publ_section_title
;
Structure prediction by ZEFSAII (Michael W. Deem and Ramdas Pophale) SiO2 
 PCOD8204771
Probable space group: P B A N
;
_chemical_formula_sum "Si O2"
_cell_formula_units_Z 56
_cell_length_a 21.055763
_cell_length_b 29.347398
_cell_length_c 4.985112
_cell_angle_alpha 90.000000
_cell_angle_beta 90.000000
_cell_angle_gamma 90.000000
_cell_volume 3080.459515
_symmetry_space_group_name_H-M "P B A N"
_symmetry_group_IT_number 50
_space_group.IT_coordinate_system_code '2'
_symmetry_cell_setting 'orthorhombic'
loop_
_space_group_symop_operation_xyz
x,y,z
1/2-x,1/2-y,z
x,1/2-y,-z
1/2-x,y,-z
-x,-y,-z
1/2+x,1/2+y,-z
-x,1/2+y,z
1/2+x,-y,z
loop_
_atom_site_type_symbol
_atom_site_label
_atom_site_fract_x
_atom_site_fract_y
_atom_site_fract_z
Si Si1 0.642000 0.200567 0.464640
Si Si2 0.915385 0.997762 0.259076
Si Si3 0.001161 0.357582 0.985502
Si Si4 0.790737 0.447397 0.764819
Si Si5 0.498416 0.200634 0.469298
Si Si6 0.357175 0.858464 0.016277
Si Si7 0.540577 0.550566 0.748341
O O1 0.675890 0.250000 0.500000
O O2 0.570008 0.208721 0.361449
O O3 0.643644 0.177799 0.750346
O O4 0.673869 0.166906 0.243739
O O5 0.847129 0.019092 0.317345
O O6 0.967942 0.036569 0.312482
O O7 0.923955 0.954727 0.461967
O O8 0.923097 0.982625 0.952601
O O9 0.032449 0.334733 0.253360
O O10 0.001812 0.319114 0.763710
O O11 0.043490 0.399128 0.874014
O O12 0.929396 0.375036 0.046023
O O13 0.750000 0.436480 0.500000
O O14 0.815722 0.401482 0.903810
O O15 0.750000 0.471716 0.000000
O O16 0.463863 0.250000 0.500000
#
# Coordination Sequence:
#
# PCOD8204771 Si02
#       7
#     8   8   8   8   8   8   8
#     4   9  17  29  48  68  90 120 156 208 259 302
#     4  10  21  35  51  75  97 128 165 210 267 305
#     4  10  17  29  48  70  97 129 164 204 253 289
#     4  12  24  38  54  72  99 132 170 212 265 320
#     4   9  17  26  41  68 101 131 162 195 235 303
#     4  10  19  32  48  70  94 119 165 206 253 311
#     4  10  19  33  54  74 101 124 164 215 257 308
#
# _framework density 18.179106999999998
#
# number of rings (size 3 to 8) (size 9 to 14) (size 15 to 20)
#    0.000    2.000    1.429    3.429    0.000    3.429 
#    0.000    0.000    0.000    6.429    0.000    0.000 
#    0.000    0.000    0.000    0.000    0.000  150.000 
#
# Total GULP energy -694138.243799 kJ/mol
# GULP energy per Si atom -12395.325782 kJ/mol
# Density = 1.813773 g / cm^3
# Si number density = 18.179107 Si / 1000 Ang^3
#
#
#
# Elastic Constant Matrix: (Units=GPa)
#
#
# Indices 1 2 3 4 5 6 
#
# 1 43.7483 27.8493 13.9013 0.0000 0.0000 0.0000
# 2 27.8493 72.8830 6.4855 0.0000 0.0000 0.0000
# 3 13.9013 6.4855 82.7709 0.0000 0.0000 0.0000
# 4 0.0000 0.0000 0.0000 33.8547 0.0000 0.0000
# 5 0.0000 0.0000 0.0000 0.0000 16.7461 0.0000
# 6 0.0000 0.0000 0.0000 0.0000 0.0000 5.6253
#
#
#
# Elastic Compliance Matrix: (Units=1/GPa)
#
#
# Indices 1 2 3 4 5 6 
#
# 1 0.031727 -0.011731 -0.004409 0.000000 0.000000 0.000000
# 2 -0.011731 0.018154 0.000548 0.000000 0.000000 0.000000
# 3 -0.004409 0.000548 0.012779 0.000000 0.000000 0.000000
# 4 0.000000 0.000000 0.000000 0.029538 0.000000 0.000000
# 5 0.000000 0.000000 0.000000 0.000000 0.059715 0.000000
# 6 0.000000 0.000000 0.000000 0.000000 0.000000 0.177768
#
#
# Mechanical properties :
#
#
# Convention : Reuss Voigt Hill
#
# Bulk Modulus (GPa) = 31.77077 32.87493 32.32285
# Shear Modulus (GPa) = 13.46412 21.32297 17.39354
#
# Velocity S-wave (km/s) = 2.72442 3.42853 3.09655
# Velocity P-wave (km/s) = 5.23556 5.81346 5.53206
#
# Compressibility (1/GPa) = 0.03147548
#
# Stress axis : x y z
#
# Youngs Moduli (GPa) = 31.51927 55.08340 78.25234
#
# Poissons Ratio (x) = 0.64617 0.34504
# Poissons Ratio (y) = 0.36974 -0.04286
# Poissons Ratio (z) = 0.13898 -0.03017
#
# Static dielectric constant tensor:
#      x y z
#    x 2.938010 0.000000 0.000000 
#    y 0.000000 3.310500 0.000000 
#    z 0.000000 0.000000 3.592890 
# 
# 
# High freq. dielectric constant tensor:
#      x y z
#    x 1.630240 0.000000 0.000000 
#    y 0.000000 1.700500 0.000000 
#    z 0.000000 0.000000 1.731400 
# 
# From -- ./inp_files/5519.got.cif
#   From: 2010.03.12/outbox.cif.g09.slc.cpg/sg50_3_cif.got.tgz:5519.got - 2010.04.16 13:23:21.
