data_PCOD8204922
_publ_section_title
;
Structure prediction by ZEFSAII (Michael W. Deem and Ramdas Pophale) SiO2 
 PCOD8204922
Probable space group: P B A N
;
_chemical_formula_sum "Si O2"
_cell_formula_units_Z 48
_cell_length_a 13.421781
_cell_length_b 12.928156
_cell_length_c 15.485411
_cell_angle_alpha 90.000000
_cell_angle_beta 90.000000
_cell_angle_gamma 90.000000
_cell_volume 2687.011151
_symmetry_space_group_name_H-M "P B A N"
_symmetry_group_IT_number 50
_space_group.IT_coordinate_system_code '2'
_symmetry_cell_setting 'orthorhombic'
loop_
_space_group_symop_operation_xyz
x,y,z
1/2-x,1/2-y,z
x,1/2-y,-z
1/2-x,y,-z
-x,-y,-z
1/2+x,1/2+y,-z
-x,1/2+y,z
1/2+x,-y,z
loop_
_atom_site_type_symbol
_atom_site_label
_atom_site_fract_x
_atom_site_fract_y
_atom_site_fract_z
Si Si1 0.903664 0.750000 0.500000
Si Si2 0.034783 0.178673 0.676572
Si Si3 0.027942 0.627281 0.230358
Si Si4 0.133874 0.738576 0.904507
Si Si5 0.813617 0.996934 0.319975
Si Si6 0.884584 0.054294 0.777169
Si Si7 0.750000 0.924002 0.500000
O O1 0.973190 0.789370 0.423094
O O2 0.838508 0.848241 0.531556
O O3 0.040640 0.281790 0.732883
O O4 0.934628 0.114682 0.696793
O O5 0.135436 0.114659 0.697938
O O6 0.091792 0.666580 0.150249
O O7 0.103344 0.585320 0.304415
O O8 0.952738 0.541376 0.195433
O O9 0.250000 0.750000 0.911231
O O10 0.114065 0.627442 0.861006
O O11 0.085910 0.750000 0.000000
O O12 0.723751 0.015890 0.253109
O O13 0.778512 0.998343 0.419831
#
# Coordination Sequence:
#
# PCOD8204922 Si02
#       7
#     4   8   8   8   8   8   4
#     4   9  16  32  46  71 106 142 182 213 250 309
#     4   9  20  32  51  76 105 142 179 216 260 299
#     4  10  20  35  55  79 105 137 175 214 260 314
#     4  10  20  37  59  79 104 136 168 212 264 315
#     4  10  19  34  50  77 108 137 182 218 253 311
#     4  10  20  34  56  80 103 140 172 213 265 308
#     4   9  18  28  50  71 102 148 176 213 262 291
#
# _framework density 17.863714999999999
#
# number of rings (size 3 to 8) (size 9 to 14) (size 15 to 20)
#    0.000    2.333    1.667    1.000    0.000    4.000 
#    0.000    5.000    0.000    3.000    0.000    1.167 
#    0.000    0.000    0.000    0.000    0.000    0.000 
#
# Total GULP energy -595044.385630 kJ/mol
# GULP energy per Si atom -12396.758034 kJ/mol
# Density = 1.782306 g / cm^3
# Si number density = 17.863715 Si / 1000 Ang^3
#
#
#
# Elastic Constant Matrix: (Units=GPa)
#
#
# Indices 1 2 3 4 5 6 
#
# 1 79.0742 45.7272 46.6007 0.0000 0.0000 0.0000
# 2 45.7272 113.2658 62.4957 0.0000 0.0000 0.0000
# 3 46.6007 62.4957 125.5107 0.0000 0.0000 0.0000
# 4 0.0000 0.0000 0.0000 24.3460 0.0000 0.0000
# 5 0.0000 0.0000 0.0000 0.0000 19.9180 0.0000
# 6 0.0000 0.0000 0.0000 0.0000 0.0000 21.3941
#
#
#
# Elastic Compliance Matrix: (Units=1/GPa)
#
#
# Indices 1 2 3 4 5 6 
#
# 1 0.017987 -0.004932 -0.004223 0.000000 0.000000 0.000000
# 2 -0.004932 0.013525 -0.004904 0.000000 0.000000 0.000000
# 3 -0.004223 -0.004904 0.011977 0.000000 0.000000 0.000000
# 4 0.000000 0.000000 0.000000 0.041075 0.000000 0.000000
# 5 0.000000 0.000000 0.000000 0.000000 0.050206 0.000000
# 6 0.000000 0.000000 0.000000 0.000000 0.000000 0.046742
#
#
# Mechanical properties :
#
#
# Convention : Reuss Voigt Hill
#
# Bulk Modulus (GPa) = 65.04820 69.72198 67.38509
# Shear Modulus (GPa) = 23.28269 24.00009 23.64139
#
# Velocity S-wave (km/s) = 3.61411 3.66937 3.64185
# Velocity P-wave (km/s) = 7.34223 7.55427 7.44901
#
# Compressibility (1/GPa) = 0.01537322
#
# Stress axis : x y z
#
# Youngs Moduli (GPa) = 55.59639 73.93490 83.49360
#
# Poissons Ratio (x) = 0.36462 0.35257
# Poissons Ratio (y) = 0.27418 0.40942
# Poissons Ratio (z) = 0.23477 0.36255
#
# Static dielectric constant tensor:
#      x y z
#    x 3.310560 0.000000 0.000000 
#    y 0.000000 3.528840 0.000000 
#    z 0.000000 0.000000 3.384040 
# 
# 
# High freq. dielectric constant tensor:
#      x y z
#    x 1.689890 0.000000 0.000000 
#    y 0.000000 1.699350 0.000000 
#    z 0.000000 0.000000 1.674930 
# 
# From -- ./inp_files/25905.got.cif
#   From: 2010.03.12/outbox.cif.g09.slc.cpg/sg50_13_cif.got.tgz:25905.got - 2010.04.16 13:23:21.
