data_PCOD8204149
_publ_section_title
;
Structure prediction by ZEFSAII (Michael W. Deem and Ramdas Pophale) SiO2 
 PCOD8204149
Probable space group: P C C M
;
_chemical_formula_sum "Si O2"
_cell_formula_units_Z 64
_cell_length_a 16.383227
_cell_length_b 9.414294
_cell_length_c 21.863743
_cell_angle_alpha 90.000000
_cell_angle_beta 90.000000
_cell_angle_gamma 90.000000
_cell_volume 3372.187539
_symmetry_space_group_name_H-M "P C C M"
_symmetry_group_IT_number 49
_symmetry_cell_setting 'orthorhombic'
loop_
_space_group_symop_operation_xyz
x,y,z
-x,-y,z
x,-y,1/2-z
-x,y,1/2-z
-x,-y,-z
x,y,-z
-x,y,1/2+z
x,-y,1/2+z
loop_
_atom_site_type_symbol
_atom_site_label
_atom_site_fract_x
_atom_site_fract_y
_atom_site_fract_z
Si Si1 0.907685 0.535928 0.650194
Si Si2 0.908682 0.201050 0.771482
Si Si3 0.503705 0.658649 0.071163
Si Si4 0.821656 0.238321 0.348056
Si Si5 0.092372 0.017456 0.391869
Si Si6 0.667722 0.173320 0.427952
Si Si7 0.357487 0.848690 0.927229
Si Si8 0.189658 0.741019 0.933481
O O1 0.907342 0.631700 0.711281
O O2 0.853603 0.397183 0.656407
O O3 0.866494 0.625804 0.597419
O O4 0.000000 0.500000 0.631236
O O5 0.838214 0.174976 0.720367
O O6 0.890710 0.097045 0.827492
O O7 0.000000 0.162395 0.750000
O O8 0.500000 0.500000 0.100467
O O9 0.591863 0.723796 0.082571
O O10 0.435367 0.764221 0.100166
O O11 0.483432 0.646267 0.000000
O O12 0.731675 0.230769 0.377131
O O13 0.875271 0.142711 0.393313
O O14 0.141258 0.109942 0.441114
O O15 0.000000 0.000000 0.411308
O O16 0.696570 0.180854 0.500000
O O17 0.641371 0.014405 0.408672
O O18 0.276135 0.772848 0.899943
O O19 0.356394 0.841902 0.000000
O O20 0.208956 0.679477 0.000000
#
# Coordination Sequence:
#
# PCOD8204149 Si02
#       8
#     8   8   8   8   8   8   8   8
#     4  11  23  38  56  80 110 155 198 244 292 338
#     4  11  21  38  60  79 109 141 191 255 295 329
#     4   9  18  32  56  85 112 147 186 226 275 336
#     4  12  22  33  58  86 112 144 192 241 296 335
#     4  11  21  36  57  84 108 147 196 246 288 327
#     4  10  21  36  54  84 121 149 181 229 286 350
#     4   9  17  34  56  77 112 155 188 226 275 328
#     4  10  22  38  54  79 120 159 193 231 281 346
#
# _framework density 18.978777999999998
#
# number of rings (size 3 to 8) (size 9 to 14) (size 15 to 20)
#    0.000    1.625    3.750    1.875    1.750    2.500 
#    0.000    1.250    0.000    0.000    0.000    3.500 
#    0.000    0.000    0.000    0.000    0.000    0.000 
#
# Total GULP energy -792963.852435 kJ/mol
# GULP energy per Si atom -12390.060194 kJ/mol
# Density = 1.893558 g / cm^3
# Si number density = 18.978778 Si / 1000 Ang^3
#
#
#
# Elastic Constant Matrix: (Units=GPa)
#
#
# Indices 1 2 3 4 5 6 
#
# 1 131.4968 46.7987 30.4275 0.0000 0.0000 0.0000
# 2 46.7987 115.3870 9.3517 0.0000 0.0000 0.0000
# 3 30.4275 9.3517 44.9965 0.0000 0.0000 0.0000
# 4 0.0000 0.0000 0.0000 -170.2057 0.0000 0.0000
# 5 0.0000 0.0000 0.0000 0.0000 15.5371 0.0000
# 6 0.0000 0.0000 0.0000 0.0000 0.0000 474.8242
#
#
#
# Elastic Compliance Matrix: (Units=1/GPa)
#
#
# Indices 1 2 3 4 5 6 
#
# 1 0.010365 -0.003698 -0.006240 0.000000 0.000000 0.000000
# 2 -0.003698 0.010134 0.000394 0.000000 0.000000 0.000000
# 3 -0.006240 0.000394 0.026362 0.000000 0.000000 0.000000
# 4 0.000000 0.000000 0.000000 -0.005875 0.000000 0.000000
# 5 0.000000 0.000000 0.000000 0.000000 0.064362 0.000000
# 6 0.000000 0.000000 0.000000 0.000000 0.000000 0.002106
#
#
# Mechanical properties :
#
#
# Convention : Reuss Voigt Hill
#
# Bulk Modulus (GPa) = 36.00599 51.67067 43.83833
# Shear Modulus (GPa) = 36.81904 77.71794 57.26849
#
# Velocity S-wave (km/s) = 4.40933 6.40615 5.49914
# Velocity P-wave (km/s) = 6.70342 9.05555 7.96677
#
# Compressibility (1/GPa) = 0.02777315
#
# Stress axis : x y z
#
# Youngs Moduli (GPa) = 96.48027 98.67416 37.93368
#
# Poissons Ratio (x) = 0.36490 0.23672
# Poissons Ratio (y) = 0.35679 -0.01496
# Poissons Ratio (z) = 0.60207 -0.03892
#
# Static dielectric constant tensor:
#      x y z
#    x 3.581070 0.000000 0.000000 
#    y 0.000000 3.794110 0.000000 
#    z 0.000000 0.000000 -2.159880 
# 
# 
# High freq. dielectric constant tensor:
#      x y z
#    x 1.734830 0.000000 0.000000 
#    y 0.000000 1.760970 0.000000 
#    z 0.000000 0.000000 1.693150 
# 
# From -- ./inp_files/23220.got.cif
#   From: 2010.03.12/outbox.cif.g09.slc.cpg/sg49_12_cif.got.tgz:23220.got - 2010.04.14 03:58:27.
