data_PCOD8204204
_publ_section_title
;
Structure prediction by ZEFSAII (Michael W. Deem and Ramdas Pophale) SiO2 
 PCOD8204204
Probable space group: P C C M
;
_chemical_formula_sum "Si O2"
_cell_formula_units_Z 34
_cell_length_a 11.960669
_cell_length_b 13.602763
_cell_length_c 9.066277
_cell_angle_alpha 90.000000
_cell_angle_beta 90.000000
_cell_angle_gamma 90.000000
_cell_volume 1475.066457
_symmetry_space_group_name_H-M "P C C M"
_symmetry_group_IT_number 49
_symmetry_cell_setting 'orthorhombic'
loop_
_space_group_symop_operation_xyz
x,y,z
-x,-y,z
x,-y,1/2-z
-x,y,1/2-z
-x,-y,-z
x,y,-z
-x,y,1/2+z
x,-y,1/2+z
loop_
_atom_site_type_symbol
_atom_site_label
_atom_site_fract_x
_atom_site_fract_y
_atom_site_fract_z
Si Si1 0.100846 0.639377 0.163840
Si Si2 0.652295 0.594788 0.669136
Si Si3 0.388668 0.198129 0.176771
Si Si4 0.000000 0.000000 0.750000
Si Si5 0.175841 0.152935 0.665622
O O1 0.214361 0.577707 0.170857
O O2 0.120767 0.748406 0.231062
O O3 0.000000 0.586270 0.250000
O O4 0.055399 0.650097 0.000000
O O5 0.598295 0.500000 0.750000
O O6 0.608965 0.604130 0.500000
O O7 0.620311 0.690759 0.761952
O O8 0.500000 0.151368 0.250000
O O9 0.283330 0.131229 0.230228
O O10 0.395213 0.197574 0.000000
O O11 0.083763 0.067019 0.654892
O O12 0.220846 0.173752 0.500000
#
# Coordination Sequence:
#
# PCOD8204204 Si02
#       5
#     8   8   8   2   8
#     4   9  18  33  52  77 116 161 203 249 300 361
#     4  10  21  37  56  86 122 160 209 262 310 363
#     4  11  23  42  67  91 122 166 210 258 313 370
#     4  12  22  40  70 102 132 164 200 252 306 364
#     4  10  22  39  61  94 130 164 205 253 307 371
#
# _framework density 23.049807999999999
#
# number of rings (size 3 to 8) (size 9 to 14) (size 15 to 20)
#    0.000    1.882    1.176    4.588    0.000    7.529 
#    0.000    5.294    0.000    2.824    0.000    0.000 
#    0.000    0.000    0.000    0.000    0.000    0.000 
#
# Total GULP energy -421369.179058 kJ/mol
# GULP energy per Si atom -12393.211149 kJ/mol
# Density = 2.299735 g / cm^3
# Si number density = 23.049808 Si / 1000 Ang^3
#
#
#
# Elastic Constant Matrix: (Units=GPa)
#
#
# Indices 1 2 3 4 5 6 
#
# 1 140.8546 14.1768 69.6205 0.0000 0.0000 0.0000
# 2 14.1768 71.8291 18.8808 0.0000 0.0000 0.0000
# 3 69.6205 18.8808 160.4093 0.0000 0.0000 0.0000
# 4 0.0000 0.0000 0.0000 1.9343 0.0000 0.0000
# 5 0.0000 0.0000 0.0000 0.0000 39.0440 0.0000
# 6 0.0000 0.0000 0.0000 0.0000 0.0000 -7.3772
#
#
#
# Elastic Compliance Matrix: (Units=1/GPa)
#
#
# Indices 1 2 3 4 5 6 
#
# 1 0.009081 -0.000780 -0.003849 0.000000 0.000000 0.000000
# 2 -0.000780 0.014433 -0.001360 0.000000 0.000000 0.000000
# 3 -0.003849 -0.001360 0.008065 0.000000 0.000000 0.000000
# 4 0.000000 0.000000 0.000000 0.516977 0.000000 0.000000
# 5 0.000000 0.000000 0.000000 0.000000 0.025612 0.000000
# 6 0.000000 0.000000 0.000000 0.000000 0.000000 -0.135553
#
#
# Mechanical properties :
#
#
# Convention : Reuss Voigt Hill
#
# Bulk Modulus (GPa) = 51.02247 64.27211 57.64729
# Shear Modulus (GPa) = 10.93785 24.74790 17.84287
#
# Velocity S-wave (km/s) = 2.18074 3.28025 2.78528
# Velocity P-wave (km/s) = 5.34084 6.50317 5.95046
#
# Compressibility (1/GPa) = 0.01959921
#
# Stress axis : x y z
#
# Youngs Moduli (GPa) = 110.12398 69.28327 123.99535
#
# Poissons Ratio (x) = 0.05407 0.47730
# Poissons Ratio (y) = 0.08594 0.16865
# Poissons Ratio (z) = 0.42390 0.09424
#
# Static dielectric constant tensor:
#      x y z
#    x 4.472240 0.000000 0.000000 
#    y 0.000000 3.794320 0.000000 
#    z 0.000000 0.000000 3.975890 
# 
# 
# High freq. dielectric constant tensor:
#      x y z
#    x 1.925130 0.000000 0.000000 
#    y 0.000000 1.885040 0.000000 
#    z 0.000000 0.000000 1.904850 
# 
# From -- ./inp_files/2562.got.cif
#   From: 2010.03.12/outbox.cif.g09.slc.cpg/sg49_2_cif.got.tgz:2562.got - 2010.04.14 03:58:27.
