data_PCOD8204171
_publ_section_title
;
Structure prediction by ZEFSAII (Michael W. Deem and Ramdas Pophale) SiO2 
 PCOD8204171
Probable space group: P C C M
;
_chemical_formula_sum "Si O2"
_cell_formula_units_Z 64
_cell_length_a 21.247489
_cell_length_b 9.074006
_cell_length_c 15.067890
_cell_angle_alpha 90.000000
_cell_angle_beta 90.000000
_cell_angle_gamma 90.000000
_cell_volume 2905.086821
_symmetry_space_group_name_H-M "P C C M"
_symmetry_group_IT_number 49
_symmetry_cell_setting 'orthorhombic'
loop_
_space_group_symop_operation_xyz
x,y,z
-x,-y,z
x,-y,1/2-z
-x,y,1/2-z
-x,-y,-z
x,y,-z
-x,y,1/2+z
x,-y,1/2+z
loop_
_atom_site_type_symbol
_atom_site_label
_atom_site_fract_x
_atom_site_fract_y
_atom_site_fract_z
Si Si1 0.632944 0.836634 0.605005
Si Si2 0.054882 0.393288 0.600538
Si Si3 0.597587 0.844575 0.105572
Si Si4 0.517422 0.659115 0.606090
Si Si5 0.770242 0.095881 0.894595
Si Si6 0.268564 0.779123 0.397673
Si Si7 0.111223 0.163920 0.279345
Si Si8 0.838642 0.591395 0.835249
O O1 0.631400 0.845583 0.500000
O O2 0.587373 0.705994 0.639510
O O3 0.706072 0.816848 0.632992
O O4 0.603967 0.989273 0.641572
O O5 0.041090 0.342833 0.500000
O O6 0.057553 0.247044 0.662262
O O7 0.119269 0.488239 0.602099
O O8 0.000000 0.500000 0.636954
O O9 0.534986 0.770601 0.145367
O O10 0.660469 0.756917 0.139546
O O11 0.592237 0.839987 0.000000
O O12 0.500000 0.500000 0.644831
O O13 0.516077 0.657814 0.500000
O O14 0.826755 0.167531 0.840518
O O15 0.764171 0.927289 0.859490
O O16 0.784234 0.107535 0.000000
O O17 0.276934 0.814803 0.500000
O O18 0.225974 0.635472 0.383680
O O19 0.123295 0.260409 0.191228
O O20 0.089351 0.000000 0.250000
O O21 0.818634 0.500000 0.750000
#
# Coordination Sequence:
#
# PCOD8204171 Si02
#       8
#     8   8   8   8   8   8   8   8
#     4   8  14  25  42  64  95 140 187 233 295 358
#     4  10  23  45  68  91 125 167 206 240 284 353
#     4   8  14  24  41  63  90 135 185 232 291 355
#     4   9  15  23  34  58  99 136 175 238 305 356
#     4   9  17  31  54  83 116 151 195 253 305 349
#     4   9  16  30  52  77 109 148 194 246 298 353
#     4  11  21  37  63  95 127 157 198 249 300 348
#     4  10  21  36  57  85 120 160 198 235 298 364
#
# _framework density 22.030321000000001
#
# number of rings (size 3 to 8) (size 9 to 14) (size 15 to 20)
#    0.000    2.750    1.250    2.625    0.000    3.750 
#    4.500    1.250    0.000    1.500    0.000    0.875 
#    0.000    0.000    0.000    0.000    0.000    0.000 
#
# Total GULP energy -793135.390290 kJ/mol
# GULP energy per Si atom -12392.740473 kJ/mol
# Density = 2.198018 g / cm^3
# Si number density = 22.030321 Si / 1000 Ang^3
#
#
#
# Elastic Constant Matrix: (Units=GPa)
#
#
# Indices 1 2 3 4 5 6 
#
# 1 105.3117 47.7997 13.3283 0.0000 0.0000 0.0000
# 2 47.7997 119.2713 18.1153 0.0000 0.0000 0.0000
# 3 13.3283 18.1153 32.3936 0.0000 0.0000 0.0000
# 4 0.0000 0.0000 0.0000 19.4791 0.0000 0.0000
# 5 0.0000 0.0000 0.0000 0.0000 11.4410 0.0000
# 6 0.0000 0.0000 0.0000 0.0000 0.0000 41.3829
#
#
#
# Elastic Compliance Matrix: (Units=1/GPa)
#
#
# Indices 1 2 3 4 5 6 
#
# 1 0.011777 -0.004354 -0.002411 0.000000 0.000000 0.000000
# 2 -0.004354 0.010772 -0.004233 0.000000 0.000000 0.000000
# 3 -0.002411 -0.004233 0.034229 0.000000 0.000000 0.000000
# 4 0.000000 0.000000 0.000000 0.051337 0.000000 0.000000
# 5 0.000000 0.000000 0.000000 0.000000 0.087405 0.000000
# 6 0.000000 0.000000 0.000000 0.000000 0.000000 0.024165
#
#
# Mechanical properties :
#
#
# Convention : Reuss Voigt Hill
#
# Bulk Modulus (GPa) = 28.74908 46.16256 37.45582
# Shear Modulus (GPa) = 19.74151 26.30947 23.02549
#
# Velocity S-wave (km/s) = 2.99675 3.45953 3.23642
# Velocity P-wave (km/s) = 5.00521 6.07926 5.56819
#
# Compressibility (1/GPa) = 0.03478372
#
# Stress axis : x y z
#
# Youngs Moduli (GPa) = 84.91293 92.83460 29.21476
#
# Poissons Ratio (x) = 0.40416 0.07043
# Poissons Ratio (y) = 0.36967 0.12365
# Poissons Ratio (z) = 0.20472 0.39293
#
# Static dielectric constant tensor:
#      x y z
#    x 4.080500 0.000000 0.000000 
#    y 0.000000 4.035440 0.000000 
#    z 0.000000 0.000000 3.526060 
# 
# 
# High freq. dielectric constant tensor:
#      x y z
#    x 1.866340 0.000000 0.000000 
#    y 0.000000 1.853290 0.000000 
#    z 0.000000 0.000000 1.836310 
# 
# From -- ./inp_files/18348.got.cif
#   From: 2010.03.12/outbox.cif.g09.slc.cpg/sg49_10_cif.got.tgz:18348.got - 2010.04.14 03:58:27.
