data_PCOD8204735
_publ_section_title
;
Structure prediction by ZEFSAII (Michael W. Deem and Ramdas Pophale) SiO2 
 PCOD8204735
Probable space group: P B A N
;
_chemical_formula_sum "Si O2"
_cell_formula_units_Z 26
_cell_length_a 5.249951
_cell_length_b 20.825382
_cell_length_c 13.862568
_cell_angle_alpha 90.000000
_cell_angle_beta 90.000000
_cell_angle_gamma 90.000000
_cell_volume 1515.625543
_symmetry_space_group_name_H-M "P B A N"
_symmetry_group_IT_number 50
_space_group.IT_coordinate_system_code '2'
_symmetry_cell_setting 'orthorhombic'
loop_
_space_group_symop_operation_xyz
x,y,z
1/2-x,1/2-y,z
x,1/2-y,-z
1/2-x,y,-z
-x,-y,-z
1/2+x,1/2+y,-z
-x,1/2+y,z
1/2+x,-y,z
loop_
_atom_site_type_symbol
_atom_site_label
_atom_site_fract_x
_atom_site_fract_y
_atom_site_fract_z
Si Si1 0.490027 0.457996 0.261443
Si Si2 0.999715 0.571891 0.041696
Si Si3 0.250000 0.750000 0.500000
Si Si4 0.010226 0.872541 0.556814
O O1 0.733863 0.502302 0.277251
O O2 0.497784 0.426539 0.156473
O O3 0.491551 0.399848 0.336285
O O4 0.750000 0.607872 0.000000
O O5 0.250000 0.607710 0.000000
O O6 0.000000 0.500000 0.000000
O O7 0.431778 0.704147 0.565324
O O8 0.750000 0.886459 0.500000
O O9 0.250000 0.905399 0.500000
#
# Coordination Sequence:
#
# PCOD8204735 Si02
#       4
#     8   8   2   8
#     4  12  21  31  52  82 113 139 171 199 266 324
#     4  10  16  30  46  68 108 148 161 197 234 308
#     4   8  22  44  54  68 100 132 190 226 258 288
#     4  10  22  38  56  73 104 140 172 222 256 308
#
# _framework density 17.154634000000001
#
# number of rings (size 3 to 8) (size 9 to 14) (size 15 to 20)
#    0.923    0.615    6.154    2.308    0.000    3.692 
#    0.000    0.000    0.000    0.000    0.000    1.077 
#    0.000    0.000    0.000    0.000    0.000    0.000 
#
# Total GULP energy -322164.389210 kJ/mol
# GULP energy per Si atom -12390.938047 kJ/mol
# Density = 1.711559 g / cm^3
# Si number density = 17.154634 Si / 1000 Ang^3
#
#
#
# Elastic Constant Matrix: (Units=GPa)
#
#
# Indices 1 2 3 4 5 6 
#
# 1 196.6044 44.7149 68.2182 0.0000 0.0000 0.0000
# 2 44.7149 60.5325 64.9178 0.0000 0.0000 0.0000
# 3 68.2182 64.9178 174.2993 0.0000 0.0000 0.0000
# 4 0.0000 0.0000 0.0000 6.0055 0.0000 0.0000
# 5 0.0000 0.0000 0.0000 0.0000 39.8995 0.0000
# 6 0.0000 0.0000 0.0000 0.0000 0.0000 71.3770
#
#
#
# Elastic Compliance Matrix: (Units=1/GPa)
#
#
# Indices 1 2 3 4 5 6 
#
# 1 0.006264 -0.003327 -0.001213 0.000000 0.000000 0.000000
# 2 -0.003327 0.029274 -0.009601 0.000000 0.000000 0.000000
# 3 -0.001213 -0.009601 0.009788 0.000000 0.000000 0.000000
# 4 0.000000 0.000000 0.000000 0.166515 0.000000 0.000000
# 5 0.000000 0.000000 0.000000 0.000000 0.025063 0.000000
# 6 0.000000 0.000000 0.000000 0.000000 0.000000 0.014010
#
#
# Mechanical properties :
#
#
# Convention : Reuss Voigt Hill
#
# Bulk Modulus (GPa) = 58.66817 87.45977 73.06397
# Shear Modulus (GPa) = 17.55152 40.36207 28.95680
#
# Velocity S-wave (km/s) = 3.20212 4.85587 4.11297
# Velocity P-wave (km/s) = 6.92425 9.08477 8.07708
#
# Compressibility (1/GPa) = 0.01704502
#
# Stress axis : x y z
#
# Youngs Moduli (GPa) = 159.65107 34.15996 102.16821
#
# Poissons Ratio (x) = 0.11363 0.12388
# Poissons Ratio (y) = 0.53108 0.98093
# Poissons Ratio (z) = 0.19358 0.32798
#
# Static dielectric constant tensor:
#      x y z
#    x -2.552620 0.000000 0.000000 
#    y 0.000000 2.668660 0.000000 
#    z 0.000000 0.000000 3.186260 
# 
# 
# High freq. dielectric constant tensor:
#      x y z
#    x 1.700450 0.000000 0.000000 
#    y 0.000000 1.593730 0.000000 
#    z 0.000000 0.000000 1.664060 
# 
# From -- ./inp_files/17441.got.cif
#   From: 2010.03.12/outbox.cif.g09.slc.cpg/sg50_9_cif.got.tgz:17441.got - 2010.04.16 13:23:21.
