data_PCOD8204094
_publ_section_title
;
Structure prediction by ZEFSAII (Michael W. Deem and Ramdas Pophale) SiO2 
 PCOD8204094
Probable space group: P C C M
;
_chemical_formula_sum "Si O2"
_cell_formula_units_Z 64
_cell_length_a 9.092828
_cell_length_b 22.505011
_cell_length_c 14.398711
_cell_angle_alpha 90.000000
_cell_angle_beta 90.000000
_cell_angle_gamma 90.000000
_cell_volume 2946.468622
_symmetry_space_group_name_H-M "P C C M"
_symmetry_group_IT_number 49
_symmetry_cell_setting 'orthorhombic'
loop_
_space_group_symop_operation_xyz
x,y,z
-x,-y,z
x,-y,1/2-z
-x,y,1/2-z
-x,-y,-z
x,y,-z
-x,y,1/2+z
x,-y,1/2+z
loop_
_atom_site_type_symbol
_atom_site_label
_atom_site_fract_x
_atom_site_fract_y
_atom_site_fract_z
Si Si1 0.847245 0.072163 0.641861
Si Si2 0.824048 0.059006 0.139650
Si Si3 0.177786 0.638188 0.105573
Si Si4 0.654651 0.167861 0.897829
Si Si5 0.091610 0.558427 0.605220
Si Si6 0.829519 0.751505 0.267453
Si Si7 0.659842 0.568104 0.745968
Si Si8 0.326167 0.809507 0.604700
O O1 0.829160 0.067959 0.751025
O O2 0.756392 0.127594 0.603810
O O3 0.014335 0.079810 0.605745
O O4 0.789601 0.008111 0.605697
O O5 0.693235 0.098185 0.096337
O O6 0.206204 0.690637 0.179266
O O7 0.273449 0.583772 0.145195
O O8 0.009753 0.617024 0.105950
O O9 0.226199 0.654813 0.000000
O O10 0.777609 0.195105 0.831742
O O11 0.491353 0.178781 0.858681
O O12 0.666713 0.196446 0.000000
O O13 0.146415 0.545012 0.500000
O O14 0.226402 0.579771 0.669575
O O15 0.000000 0.500000 0.641871
O O16 0.746261 0.758244 0.168874
O O17 0.000000 0.759706 0.250000
O O18 0.625019 0.500000 0.750000
O O19 0.500000 0.601343 0.750000
O O20 0.325150 0.784230 0.500000
#
# Coordination Sequence:
#
# PCOD8204094 Si02
#       8
#     8   8   8   8   8   8   8   8
#     4   9  18  35  59  93 126 164 210 271 334 399
#     4   9  18  34  60  91 128 164 211 267 335 399
#     4  11  25  45  70 101 132 173 221 271 324 386
#     4  11  24  41  62  92 128 172 217 266 332 404
#     4  10  20  39  68  98 135 180 222 266 317 377
#     4  12  25  44  68  92 123 166 218 279 323 383
#     4  11  23  38  64 104 145 182 217 261 316 379
#     4  11  25  42  63  92 128 170 220 271 333 400
#
# _framework density 21.720918000000001
#
# number of rings (size 3 to 8) (size 9 to 14) (size 15 to 20)
#    0.000    1.500    2.500    3.375    0.000    5.000 
#    0.000    5.625    0.000    0.000    0.000    0.000 
#    0.000    0.000    0.000    0.000    0.000    0.000 
#
# Total GULP energy -793095.640033 kJ/mol
# GULP energy per Si atom -12392.119376 kJ/mol
# Density = 2.167148 g / cm^3
# Si number density = 21.720918 Si / 1000 Ang^3
#
#
#
# Elastic Constant Matrix: (Units=GPa)
#
#
# Indices 1 2 3 4 5 6 
#
# 1 127.4446 34.9829 63.0389 0.0000 0.0000 0.0000
# 2 34.9829 91.6573 42.9087 0.0000 0.0000 0.0000
# 3 63.0389 42.9087 136.6719 0.0000 0.0000 0.0000
# 4 0.0000 0.0000 0.0000 -5.5170 0.0000 0.0000
# 5 0.0000 0.0000 0.0000 0.0000 26.3207 0.0000
# 6 0.0000 0.0000 0.0000 0.0000 0.0000 11.0294
#
#
#
# Elastic Compliance Matrix: (Units=1/GPa)
#
#
# Indices 1 2 3 4 5 6 
#
# 1 0.010480 -0.002036 -0.004195 0.000000 0.000000 0.000000
# 2 -0.002036 0.013186 -0.003200 0.000000 0.000000 0.000000
# 3 -0.004195 -0.003200 0.010256 0.000000 0.000000 0.000000
# 4 0.000000 0.000000 0.000000 -0.181259 0.000000 0.000000
# 5 0.000000 0.000000 0.000000 0.000000 0.037993 0.000000
# 6 0.000000 0.000000 0.000000 0.000000 0.000000 0.090667
#
#
# Mechanical properties :
#
#
# Convention : Reuss Voigt Hill
#
# Bulk Modulus (GPa) = 66.40343 70.84831 68.62587
# Shear Modulus (GPa) = 960.34809 20.68950 490.51879
#
# Velocity S-wave (km/s) = 21.04971 3.08963 15.04387
# Velocity P-wave (km/s) = 24.92839 6.73915 18.25980
#
# Compressibility (1/GPa) = 0.01505946
#
# Stress axis : x y z
#
# Youngs Moduli (GPa) = 95.41658 75.83986 97.50054
#
# Poissons Ratio (x) = 0.15444 0.40898
# Poissons Ratio (y) = 0.19430 0.31205
# Poissons Ratio (z) = 0.40024 0.24272
#
# Static dielectric constant tensor:
#      x y z
#    x 4.047530 0.000000 0.000000 
#    y 0.000000 4.007340 0.000000 
#    z 0.000000 0.000000 4.007430 
# 
# 
# High freq. dielectric constant tensor:
#      x y z
#    x 1.846540 0.000000 0.000000 
#    y 0.000000 1.843280 0.000000 
#    z 0.000000 0.000000 1.862510 
# 
# From -- ./inp_files/12164.got.cif
#   From: 2010.03.12/outbox.cif.g09.slc.cpg/sg49_7_cif.got.tgz:12164.got - 2010.04.14 03:58:27.
