data_PCOD8204617
_publ_section_title
;
Structure prediction by ZEFSAII (Michael W. Deem and Ramdas Pophale) SiO2 
 PCOD8204617
Probable space group: P C C M
;
_chemical_formula_sum "Si O2"
_cell_formula_units_Z 56
_cell_length_a 8.895914
_cell_length_b 21.552528
_cell_length_c 14.245907
_cell_angle_alpha 90.000000
_cell_angle_beta 90.000000
_cell_angle_gamma 90.000000
_cell_volume 2731.359708
_symmetry_space_group_name_H-M "P C C M"
_symmetry_group_IT_number 49
_symmetry_cell_setting 'orthorhombic'
loop_
_space_group_symop_operation_xyz
x,y,z
-x,-y,z
x,-y,1/2-z
-x,y,1/2-z
-x,-y,-z
x,y,-z
-x,y,1/2+z
x,-y,1/2+z
loop_
_atom_site_type_symbol
_atom_site_label
_atom_site_fract_x
_atom_site_fract_y
_atom_site_fract_z
Si Si1 0.675864 0.798449 0.234705
Si Si2 0.404100 0.594789 0.500000
Si Si3 0.835570 0.560298 0.293978
Si Si4 0.333044 0.990136 0.140422
Si Si5 0.733709 0.539340 0.500000
Si Si6 0.346633 0.337468 0.194405
Si Si7 0.172124 0.136197 0.393714
Si Si8 0.161670 0.109190 0.103436
O O1 0.500000 0.805115 0.250000
O O2 0.718840 0.732265 0.188733
O O3 0.765490 0.806481 0.332468
O O4 0.722232 0.853835 0.166887
O O5 0.579665 0.578095 0.500000
O O6 0.301477 0.533682 0.500000
O O7 0.364656 0.635237 0.409202
O O8 0.748925 0.500000 0.250000
O O9 0.831514 0.556671 0.407693
O O10 0.762186 0.622939 0.259232
O O11 0.000000 0.559448 0.250000
O O12 0.284864 0.921179 0.114238
O O13 0.500000 0.000000 0.098298
O O14 0.334899 0.000000 0.250000
O O15 0.212522 0.037713 0.097211
O O16 0.500000 0.335518 0.250000
O O17 0.166223 0.160363 0.500000
O O18 0.007877 0.114958 0.357030
O O19 0.166664 0.138371 0.000000
#
# Coordination Sequence:
#
# PCOD8204617 Si02
#       8
#     8   4   8   8   4   8   8   8
#     4  11  25  43  65  91 126 169 212 271 318 386
#     4  11  22  39  76 103 134 175 225 278 325 404
#     4  11  24  41  65  98 143 173 215 277 328 397
#     4  11  22  37  63  96 130 161 208 271 338 389
#     4  11  22  40  73 106 133 182 224 268 346 392
#     4  11  24  44  66  97 131 175 225 270 330 385
#     4  11  24  43  65  92 126 170 218 267 329 399
#     4  11  24  41  65  94 124 166 215 263 326 396
#
# _framework density 20.502609
#
# number of rings (size 3 to 8) (size 9 to 14) (size 15 to 20)
#    0.000    1.000    4.286    2.143    1.000    7.714 
#    5.143    0.000    0.000    0.000    0.000    0.000 
#    0.000    0.000    0.000    0.000    0.000    0.000 
#
# Total GULP energy -694430.898760 kJ/mol
# GULP energy per Si atom -12400.551764 kJ/mol
# Density = 2.045594 g / cm^3
# Si number density = 20.502609 Si / 1000 Ang^3
#
#
#
# Elastic Constant Matrix: (Units=GPa)
#
#
# Indices 1 2 3 4 5 6 
#
# 1 109.0085 38.6949 35.7549 0.0000 0.0000 0.0000
# 2 38.6949 115.5787 43.3372 0.0000 0.0000 0.0000
# 3 35.7549 43.3372 154.3923 0.0000 0.0000 0.0000
# 4 0.0000 0.0000 0.0000 18.6630 0.0000 0.0000
# 5 0.0000 0.0000 0.0000 0.0000 38.4757 0.0000
# 6 0.0000 0.0000 0.0000 0.0000 0.0000 -1.4795
#
#
#
# Elastic Compliance Matrix: (Units=1/GPa)
#
#
# Indices 1 2 3 4 5 6 
#
# 1 0.010777 -0.002987 -0.001658 0.000000 0.000000 0.000000
# 2 -0.002987 0.010498 -0.002255 0.000000 0.000000 0.000000
# 3 -0.001658 -0.002255 0.007494 0.000000 0.000000 0.000000
# 4 0.000000 0.000000 0.000000 0.053582 0.000000 0.000000
# 5 0.000000 0.000000 0.000000 0.000000 0.025990 0.000000
# 6 0.000000 0.000000 0.000000 0.000000 0.000000 -0.675902
#
#
# Mechanical properties :
#
#
# Convention : Reuss Voigt Hill
#
# Bulk Modulus (GPa) = 66.79824 68.28375 67.54099
# Shear Modulus (GPa) = -9.11125 28.54467 9.71671
#
# Velocity S-wave (km/s) = -2.11035 3.73533 2.17935
# Velocity P-wave (km/s) = 5.16846 7.20977 6.27271
#
# Compressibility (1/GPa) = 0.01497045
#
# Stress axis : x y z
#
# Youngs Moduli (GPa) = 92.78617 95.26033 133.44330
#
# Poissons Ratio (x) = 0.28452 0.22119
# Poissons Ratio (y) = 0.27713 0.30091
# Poissons Ratio (z) = 0.15380 0.21481
#
# Static dielectric constant tensor:
#      x y z
#    x 3.728550 0.000000 0.000000 
#    y 0.000000 4.354810 0.000000 
#    z 0.000000 0.000000 4.021470 
# 
# 
# High freq. dielectric constant tensor:
#      x y z
#    x 1.803860 0.000000 0.000000 
#    y 0.000000 1.796100 0.000000 
#    z 0.000000 0.000000 1.818000 
# 
# From -- ./inp_files/12070.got.cif
#   From: 2010.03.12/outbox.cif.g09.slc.cpg/sg49_7_cif.got.tgz:12070.got - 2010.04.14 03:58:27.
