data_PCOD8204633
_publ_section_title
;
Structure prediction by ZEFSAII (Michael W. Deem and Ramdas Pophale) SiO2 
 PCOD8204633
Probable space group: P C C M
;
_chemical_formula_sum "Si O2"
_cell_formula_units_Z 40
_cell_length_a 9.251184
_cell_length_b 25.858181
_cell_length_c 8.577089
_cell_angle_alpha 90.000000
_cell_angle_beta 90.000000
_cell_angle_gamma 90.000000
_cell_volume 2051.800855
_symmetry_space_group_name_H-M "P C C M"
_symmetry_group_IT_number 49
_symmetry_cell_setting 'orthorhombic'
loop_
_space_group_symop_operation_xyz
x,y,z
-x,-y,z
x,-y,1/2-z
-x,y,1/2-z
-x,-y,-z
x,y,-z
-x,y,1/2+z
x,-y,1/2+z
loop_
_atom_site_type_symbol
_atom_site_label
_atom_site_fract_x
_atom_site_fract_y
_atom_site_fract_z
Si Si1 0.840438 0.949476 0.817369
Si Si2 0.659697 0.260530 0.685627
Si Si3 0.842045 0.836690 0.816865
Si Si4 0.841753 0.354336 0.815206
Si Si5 0.653140 0.556590 0.185150
O O1 0.775897 0.893235 0.768743
O O2 0.000000 0.950550 0.750000
O O3 0.754332 0.000000 0.750000
O O4 0.845312 0.955764 0.000000
O O5 0.500000 0.259706 0.750000
O O6 0.661833 0.267413 0.500000
O O7 0.733457 0.207256 0.742115
O O8 0.741254 0.307447 0.765434
O O9 0.000000 0.826388 0.750000
O O10 0.860376 0.833875 0.000000
O O11 0.781729 0.406941 0.741432
O O12 0.000000 0.343527 0.750000
O O13 0.845975 0.359543 0.000000
O O14 0.686545 0.500000 0.250000
O O15 0.500000 0.577465 0.250000
O O16 0.645731 0.555125 0.000000
#
# Coordination Sequence:
#
# PCOD8204633 Si02
#       5
#     8   8   8   8   8
#     4   9  15  25  42  69 101 135 171 215 265 321
#     4  11  23  40  59  82 110 146 187 232 281 337
#     4   9  19  33  52  77 108 140 178 224 275 328
#     4  12  25  42  62  88 118 151 189 235 284 335
#     4  11  22  40  64  92 123 159 197 236 279 330
#
# _framework density 19.495069999999998
#
# number of rings (size 3 to 8) (size 9 to 14) (size 15 to 20)
#    0.000    1.600    0.000    7.200    0.000    4.400 
#    0.000    2.000    0.000    0.600    0.000    4.200 
#    0.000    0.000    0.000    0.000    0.000    0.000 
#
# Total GULP energy -495875.023697 kJ/mol
# GULP energy per Si atom -12396.875592 kJ/mol
# Density = 1.945070 g / cm^3
# Si number density = 19.495070 Si / 1000 Ang^3
#
#
#
# Elastic Constant Matrix: (Units=GPa)
#
#
# Indices 1 2 3 4 5 6 
#
# 1 112.3221 68.4292 37.7155 0.0000 0.0000 0.0000
# 2 68.4292 150.2831 55.4288 0.0000 0.0000 0.0000
# 3 37.7155 55.4288 125.2811 0.0000 0.0000 0.0000
# 4 0.0000 0.0000 0.0000 42.1136 0.0000 0.0000
# 5 0.0000 0.0000 0.0000 0.0000 28.3874 0.0000
# 6 0.0000 0.0000 0.0000 0.0000 0.0000 16.4455
#
#
#
# Elastic Compliance Matrix: (Units=1/GPa)
#
#
# Indices 1 2 3 4 5 6 
#
# 1 0.012550 -0.005164 -0.001494 0.000000 0.000000 0.000000
# 2 -0.005164 0.010076 -0.002904 0.000000 0.000000 0.000000
# 3 -0.001494 -0.002904 0.009716 0.000000 0.000000 0.000000
# 4 0.000000 0.000000 0.000000 0.023745 0.000000 0.000000
# 5 0.000000 0.000000 0.000000 0.000000 0.035227 0.000000
# 6 0.000000 0.000000 0.000000 0.000000 0.000000 0.060807
#
#
# Mechanical properties :
#
#
# Convention : Reuss Voigt Hill
#
# Bulk Modulus (GPa) = 75.63664 79.00370 77.32017
# Shear Modulus (GPa) = 28.46554 32.47681 30.47118
#
# Velocity S-wave (km/s) = 3.82532 4.08597 3.95779
# Velocity P-wave (km/s) = 7.64152 7.92926 7.78672
#
# Compressibility (1/GPa) = 0.01322110
#
# Stress axis : x y z
#
# Youngs Moduli (GPa) = 79.67893 99.24314 102.91936
#
# Poissons Ratio (x) = 0.51247 0.15372
# Poissons Ratio (y) = 0.41144 0.29883
# Poissons Ratio (z) = 0.11901 0.28816
#
# Static dielectric constant tensor:
#      x y z
#    x 3.428850 0.000000 0.000000 
#    y 0.000000 4.618130 0.000000 
#    z 0.000000 0.000000 3.864320 
# 
# 
# High freq. dielectric constant tensor:
#      x y z
#    x 1.729230 0.000000 0.000000 
#    y 0.000000 1.789010 0.000000 
#    z 0.000000 0.000000 1.774530 
# 
# From -- ./inp_files/1703.got.cif
#   From: 2010.03.12/outbox.cif.g09.slc.cpg/sg49_1_cif.got.tgz:1703.got - 2010.04.14 03:58:27.
