data_PCOD8204572
_publ_section_title
;
Structure prediction by ZEFSAII (Michael W. Deem and Ramdas Pophale) SiO2 
 PCOD8204572
Probable space group: P C C M
;
_chemical_formula_sum "Si O2"
_cell_formula_units_Z 40
_cell_length_a 18.556618
_cell_length_b 13.704062
_cell_length_c 8.920575
_cell_angle_alpha 90.000000
_cell_angle_beta 90.000000
_cell_angle_gamma 90.000000
_cell_volume 2268.511532
_symmetry_space_group_name_H-M "P C C M"
_symmetry_group_IT_number 49
_symmetry_cell_setting 'orthorhombic'
loop_
_space_group_symop_operation_xyz
x,y,z
-x,-y,z
x,-y,1/2-z
-x,y,1/2-z
-x,-y,-z
x,y,-z
-x,y,1/2+z
x,-y,1/2+z
loop_
_atom_site_type_symbol
_atom_site_label
_atom_site_fract_x
_atom_site_fract_y
_atom_site_fract_z
Si Si1 0.702763 0.706441 0.174932
Si Si2 0.424692 0.397055 0.321444
Si Si3 0.151943 0.601214 0.675583
Si Si4 0.074664 0.793380 0.677546
Si Si5 0.784201 0.099884 0.324955
O O1 0.634671 0.682927 0.278626
O O2 0.767250 0.633173 0.219088
O O3 0.725848 0.816903 0.212424
O O4 0.682952 0.695026 0.000000
O O5 0.401123 0.500000 0.250000
O O6 0.500000 0.362797 0.250000
O O7 0.431884 0.406894 0.500000
O O8 0.130255 0.500000 0.750000
O O9 0.146126 0.587594 0.500000
O O10 0.095907 0.684060 0.729803
O O11 0.067996 0.797417 0.500000
O O12 0.136912 0.867170 0.733579
O O13 0.000000 0.826421 0.750000
O O14 0.788309 0.082395 0.500000
O O15 0.758976 0.000000 0.250000
#
# Coordination Sequence:
#
# PCOD8204572 Si02
#       5
#     8   8   8   8   8
#     4   9  18  34  52  72 100 131 163 205 248 290
#     4  11  21  33  51  77 108 140 170 200 236 283
#     4   9  18  31  47  67  94 127 163 199 241 289
#     4   9  19  34  48  67  95 127 160 200 247 295
#     4   9  19  35  54  74  98 126 161 205 253 300
#
# _framework density 17.632705999999999
#
# number of rings (size 3 to 8) (size 9 to 14) (size 15 to 20)
#    0.000    2.600    0.000    5.400    0.000    5.600 
#    0.000    8.000    0.000    0.600    0.000    4.200 
#    0.000    0.000    0.000    0.000    0.000    0.000 
#
# Total GULP energy -495970.981227 kJ/mol
# GULP energy per Si atom -12399.274531 kJ/mol
# Density = 1.759257 g / cm^3
# Si number density = 17.632706 Si / 1000 Ang^3
#
#
#
# Elastic Constant Matrix: (Units=GPa)
#
#
# Indices 1 2 3 4 5 6 
#
# 1 99.5706 35.9128 43.0099 0.0000 0.0000 0.0000
# 2 35.9128 96.8796 35.6963 0.0000 0.0000 0.0000
# 3 43.0099 35.6963 71.3241 0.0000 0.0000 0.0000
# 4 0.0000 0.0000 0.0000 30.3611 0.0000 0.0000
# 5 0.0000 0.0000 0.0000 0.0000 12.8287 0.0000
# 6 0.0000 0.0000 0.0000 0.0000 0.0000 16.7303
#
#
#
# Elastic Compliance Matrix: (Units=1/GPa)
#
#
# Indices 1 2 3 4 5 6 
#
# 1 0.014082 -0.002564 -0.007208 0.000000 0.000000 0.000000
# 2 -0.002564 0.013123 -0.005022 0.000000 0.000000 0.000000
# 3 -0.007208 -0.005022 0.020880 0.000000 0.000000 0.000000
# 4 0.000000 0.000000 0.000000 0.032937 0.000000 0.000000
# 5 0.000000 0.000000 0.000000 0.000000 0.077950 0.000000
# 6 0.000000 0.000000 0.000000 0.000000 0.000000 0.059772
#
#
# Mechanical properties :
#
#
# Convention : Reuss Voigt Hill
#
# Bulk Modulus (GPa) = 54.06231 55.22357 54.64294
# Shear Modulus (GPa) = 19.64662 22.19439 20.92051
#
# Velocity S-wave (km/s) = 3.34161 3.55167 3.44824
# Velocity P-wave (km/s) = 6.75391 6.94305 6.84913
#
# Compressibility (1/GPa) = 0.01849718
#
# Stress axis : x y z
#
# Youngs Moduli (GPa) = 71.01507 76.20329 47.89187
#
# Poissons Ratio (x) = 0.19539 0.34521
# Poissons Ratio (y) = 0.18208 0.24049
# Poissons Ratio (z) = 0.51189 0.38266
#
# Static dielectric constant tensor:
#      x y z
#    x 3.264500 0.000000 0.000000 
#    y 0.000000 4.066090 0.000000 
#    z 0.000000 0.000000 3.098970 
# 
# 
# High freq. dielectric constant tensor:
#      x y z
#    x 1.675630 0.000000 0.000000 
#    y 0.000000 1.674010 0.000000 
#    z 0.000000 0.000000 1.676010 
# 
# From -- ./inp_files/2668.got.cif
#   From: 2010.03.12/outbox.cif.g09.slc.cpg/sg49_2_cif.got.tgz:2668.got - 2010.04.14 03:58:27.
