data_PCOD8204433
_publ_section_title
;
Structure prediction by ZEFSAII (Michael W. Deem and Ramdas Pophale) SiO2 
 PCOD8204433
Probable space group: P C C M
;
_chemical_formula_sum "Si O2"
_cell_formula_units_Z 64
_cell_length_a 22.140842
_cell_length_b 9.191479
_cell_length_c 17.009153
_cell_angle_alpha 90.000000
_cell_angle_beta 90.000000
_cell_angle_gamma 90.000000
_cell_volume 3461.483133
_symmetry_space_group_name_H-M "P C C M"
_symmetry_group_IT_number 49
_symmetry_cell_setting 'orthorhombic'
loop_
_space_group_symop_operation_xyz
x,y,z
-x,-y,z
x,-y,1/2-z
-x,y,1/2-z
-x,-y,-z
x,y,-z
-x,y,1/2+z
x,-y,1/2+z
loop_
_atom_site_type_symbol
_atom_site_label
_atom_site_fract_x
_atom_site_fract_y
_atom_site_fract_z
Si Si1 0.070470 0.334769 0.735126
Si Si2 0.125913 0.180647 0.406671
Si Si3 0.497655 0.330085 0.340888
Si Si4 0.625405 0.355063 0.906636
Si Si5 0.735166 0.144339 0.590062
Si Si6 0.379535 0.684637 0.592614
Si Si7 0.738739 0.191299 0.089146
Si Si8 0.147251 0.900167 0.322909
O O1 0.093112 0.500000 0.750000
O O2 0.083092 0.285744 0.644744
O O3 0.101617 0.225635 0.796710
O O4 0.000000 0.323127 0.750000
O O5 0.115024 0.205229 0.500000
O O6 0.194180 0.219177 0.377357
O O7 0.115544 0.008781 0.386788
O O8 0.500000 0.500000 0.362182
O O9 0.500000 0.296759 0.250000
O O10 0.434269 0.271083 0.375320
O O11 0.556047 0.251048 0.378853
O O12 0.626660 0.520282 0.876641
O O13 0.685605 0.282677 0.868956
O O14 0.624614 0.342959 0.000000
O O15 0.747491 0.191975 0.500000
O O16 0.677431 0.226810 0.626870
O O17 0.794668 0.180712 0.640509
O O18 0.720116 0.975415 0.595671
O O19 0.378065 0.695330 0.500000
O O20 0.741598 0.243753 0.000000
O O21 0.167841 0.000000 0.250000
#
# Coordination Sequence:
#
# PCOD8204433 Si02
#       8
#     8   8   8   8   8   8   8   8
#     4  10  22  40  57  80 119 153 179 218 276 326
#     4   9  18  36  60  84 110 145 190 229 264 317
#     4   9  17  30  43  61  91 125 162 207 252 299
#     4   9  16  28  48  69  89 121 166 206 251 306
#     4   9  17  32  51  74 103 130 164 212 261 308
#     4   9  17  29  47  68  91 123 163 208 253 304
#     4   8  15  29  50  75 100 126 159 209 261 304
#     4   9  18  34  56  80 107 143 180 219 263 317
#
# _framework density 18.489184000000002
#
# number of rings (size 3 to 8) (size 9 to 14) (size 15 to 20)
#    0.000    3.000    0.000    1.500    0.000    4.750 
#    6.750    6.250    0.000    3.750    0.000    0.000 
#    0.000    0.000    0.000    0.000    0.000    0.000 
#
# Total GULP energy -793149.424847 kJ/mol
# GULP energy per Si atom -12392.959763 kJ/mol
# Density = 1.844710 g / cm^3
# Si number density = 18.489184 Si / 1000 Ang^3
#
#
#
# Elastic Constant Matrix: (Units=GPa)
#
#
# Indices 1 2 3 4 5 6 
#
# 1 127.0326 60.2508 46.5918 0.0000 0.0000 0.0000
# 2 60.2508 68.8036 34.6178 0.0000 0.0000 0.0000
# 3 46.5918 34.6178 61.9657 0.0000 0.0000 0.0000
# 4 0.0000 0.0000 0.0000 17.6417 0.0000 0.0000
# 5 0.0000 0.0000 0.0000 0.0000 30.0280 0.0000
# 6 0.0000 0.0000 0.0000 0.0000 0.0000 28.2128
#
#
#
# Elastic Compliance Matrix: (Units=1/GPa)
#
#
# Indices 1 2 3 4 5 6 
#
# 1 0.014636 -0.010126 -0.005348 0.000000 0.000000 0.000000
# 2 -0.010126 0.027222 -0.007594 0.000000 0.000000 0.000000
# 3 -0.005348 -0.007594 0.024402 0.000000 0.000000 0.000000
# 4 0.000000 0.000000 0.000000 0.056684 0.000000 0.000000
# 5 0.000000 0.000000 0.000000 0.000000 0.033302 0.000000
# 6 0.000000 0.000000 0.000000 0.000000 0.000000 0.035445
#
#
# Mechanical properties :
#
#
# Convention : Reuss Voigt Hill
#
# Bulk Modulus (GPa) = 49.69258 60.08029 54.88644
# Shear Modulus (GPa) = 20.44690 22.93260 21.68975
#
# Velocity S-wave (km/s) = 3.32909 3.52565 3.42878
# Velocity P-wave (km/s) = 6.45849 7.00992 6.73984
#
# Compressibility (1/GPa) = 0.02012373
#
# Stress axis : x y z
#
# Youngs Moduli (GPa) = 68.32405 36.73440 40.98076
#
# Poissons Ratio (x) = 0.37197 0.21916
# Poissons Ratio (y) = 0.69185 0.31122
# Poissons Ratio (z) = 0.36539 0.27898
#
# Static dielectric constant tensor:
#      x y z
#    x 3.597850 0.000000 0.000000 
#    y 0.000000 3.372860 0.000000 
#    z 0.000000 0.000000 3.282400 
# 
# 
# High freq. dielectric constant tensor:
#      x y z
#    x 1.724340 0.000000 0.000000 
#    y 0.000000 1.689640 0.000000 
#    z 0.000000 0.000000 1.705440 
# 
# From -- ./inp_files/18382.got.cif
#   From: 2010.03.12/outbox.cif.g09.slc.cpg/sg49_10_cif.got.tgz:18382.got - 2010.04.14 03:58:27.
