data_PCOD8204174
_publ_section_title
;
Structure prediction by ZEFSAII (Michael W. Deem and Ramdas Pophale) SiO2 
 PCOD8204174
Probable space group: P C C M
;
_chemical_formula_sum "Si O2"
_cell_formula_units_Z 58
_cell_length_a 18.920794
_cell_length_b 18.920794
_cell_length_c 9.052144
_cell_angle_alpha 90.000000
_cell_angle_beta 90.000000
_cell_angle_gamma 90.000000
_cell_volume 3240.635377
_symmetry_space_group_name_H-M "P C C M"
_symmetry_group_IT_number 49
_symmetry_cell_setting 'orthorhombic'
loop_
_space_group_symop_operation_xyz
x,y,z
-x,-y,z
x,-y,1/2-z
-x,y,1/2-z
-x,-y,-z
x,y,-z
-x,y,1/2+z
x,-y,1/2+z
loop_
_atom_site_type_symbol
_atom_site_label
_atom_site_fract_x
_atom_site_fract_y
_atom_site_fract_z
Si Si1 0.787853 0.827303 0.669421
Si Si2 0.253461 0.569239 0.174493
Si Si3 0.069239 0.246539 0.325507
Si Si4 0.327303 0.712147 0.830579
Si Si5 0.310396 0.073198 0.172039
Si Si6 0.573198 0.189604 0.327961
Si Si7 0.000000 0.500000 0.250000
Si Si8 0.110512 0.389488 0.833727
O O1 0.779559 0.850363 0.500000
O O2 0.868092 0.808293 0.708875
O O3 0.742350 0.757650 0.704082
O O4 0.762412 0.892907 0.768441
O O5 0.287293 0.500000 0.250000
O O6 0.308293 0.631908 0.208875
O O7 0.177653 0.581800 0.246406
O O8 0.242530 0.559114 0.000000
O O9 0.059114 0.257470 0.500000
O O10 0.081800 0.322347 0.253594
O O11 0.000000 0.212707 0.250000
O O12 0.392907 0.737588 0.731559
O O13 0.350363 0.720441 0.000000
O O14 0.374925 0.125075 0.209722
O O15 0.327399 0.000000 0.250000
O O16 0.301741 0.059625 0.000000
O O17 0.500000 0.172601 0.250000
O O18 0.559625 0.198259 0.500000
O O19 0.949607 0.550393 0.152632
O O20 0.132294 0.367706 0.000000
#
# Coordination Sequence:
#
# PCOD8204174 Si02
#       8
#     8   8   8   8   8   8   2   8
#     4   9  18  35  56  77 106 144 183 228 275 325
#     4  11  22  36  53  76 105 138 182 231 284 333
#     4  11  22  36  53  76 105 138 182 231 284 333
#     4   9  18  35  56  77 106 144 183 228 275 325
#     4  10  21  36  57  87 118 150 185 219 260 317
#     4  10  21  36  57  87 118 150 185 219 260 317
#     4  12  26  36  48  70 102 148 186 224 290 344
#     4  12  24  35  50  69  99 140 183 231 279 336
#
# _framework density 17.897724
#
# number of rings (size 3 to 8) (size 9 to 14) (size 15 to 20)
#    0.000    1.655    2.759    2.276    0.000    5.241 
#    0.000    1.379    0.000    0.828    0.000    5.793 
#    0.000    0.000    0.000    0.000    0.000    0.000 
#
# Total GULP energy -719319.983558 kJ/mol
# GULP energy per Si atom -12402.068682 kJ/mol
# Density = 1.785699 g / cm^3
# Si number density = 17.897724 Si / 1000 Ang^3
#
#
#
# Elastic Constant Matrix: (Units=GPa)
#
#
# Indices 1 2 3 4 5 6 
#
# 1 98.6447 57.9704 63.9272 0.0000 0.0000 0.0000
# 2 57.9704 98.6446 63.9272 0.0000 0.0000 0.0000
# 3 63.9272 63.9272 121.2078 0.0000 0.0000 0.0000
# 4 0.0000 0.0000 0.0000 27.9105 0.0000 0.0000
# 5 0.0000 0.0000 0.0000 0.0000 27.9105 0.0000
# 6 0.0000 0.0000 0.0000 0.0000 0.0000 15.8190
#
#
#
# Elastic Compliance Matrix: (Units=1/GPa)
#
#
# Indices 1 2 3 4 5 6 
#
# 1 0.017899 -0.006686 -0.005914 0.000000 0.000000 0.000000
# 2 -0.006686 0.017899 -0.005914 0.000000 0.000000 0.000000
# 3 -0.005914 -0.005914 0.014489 0.000000 0.000000 0.000000
# 4 0.000000 0.000000 0.000000 0.035829 0.000000 0.000000
# 5 0.000000 0.000000 0.000000 0.000000 0.035829 0.000000
# 6 0.000000 0.000000 0.000000 0.000000 0.000000 0.063215
#
#
# Mechanical properties :
#
#
# Convention : Reuss Voigt Hill
#
# Bulk Modulus (GPa) = 75.42178 76.68295 76.05236
# Shear Modulus (GPa) = 22.06456 23.17282 22.61869
#
# Velocity S-wave (km/s) = 3.51495 3.60215 3.55882
# Velocity P-wave (km/s) = 7.66193 7.76136 7.71180
#
# Compressibility (1/GPa) = 0.01325877
#
# Stress axis : x y z
#
# Youngs Moduli (GPa) = 55.86822 55.86820 69.02024
#
# Poissons Ratio (x) = 0.37355 0.40818
# Poissons Ratio (y) = 0.37355 0.40818
# Poissons Ratio (z) = 0.33040 0.33040
#
# Static dielectric constant tensor:
#      x y z
#    x 3.323420 0.000000 0.000000 
#    y 0.000000 3.323420 0.000000 
#    z 0.000000 0.000000 3.409760 
# 
# 
# High freq. dielectric constant tensor:
#      x y z
#    x 1.680070 0.000000 0.000000 
#    y 0.000000 1.680070 0.000000 
#    z 0.000000 0.000000 1.704980 
# 
# From -- ./inp_files/5105.got.cif
#   From: 2010.03.12/outbox.cif.g09.slc.cpg/sg49_3_cif.got.tgz:5105.got - 2010.04.14 03:58:27.
