data_PCOD8204856
_publ_section_title
;
Structure prediction by ZEFSAII (Michael W. Deem and Ramdas Pophale) SiO2 
 PCOD8204856
Probable space group: P B A N
;
_chemical_formula_sum "Si O2"
_cell_formula_units_Z 40
_cell_length_a 8.911232
_cell_length_b 24.184058
_cell_length_c 7.835055
_cell_angle_alpha 90.000000
_cell_angle_beta 90.000000
_cell_angle_gamma 90.000000
_cell_volume 1688.530756
_symmetry_space_group_name_H-M "P B A N"
_symmetry_group_IT_number 50
_space_group.IT_coordinate_system_code '2'
_symmetry_cell_setting 'orthorhombic'
loop_
_space_group_symop_operation_xyz
x,y,z
1/2-x,1/2-y,z
x,1/2-y,-z
1/2-x,y,-z
-x,-y,-z
1/2+x,1/2+y,-z
-x,1/2+y,z
1/2+x,-y,z
loop_
_atom_site_type_symbol
_atom_site_label
_atom_site_fract_x
_atom_site_fract_y
_atom_site_fract_z
Si Si1 0.080002 0.089819 0.143737
Si Si2 0.858244 0.030813 0.349752
Si Si3 0.499912 0.675140 0.125723
Si Si4 0.641013 0.596377 0.353323
Si Si5 0.250000 0.750000 0.000000
Si Si6 0.250000 0.250000 0.000000
Si Si7 0.250000 0.499292 0.000000
O O1 0.255493 0.100798 0.183123
O O2 0.998961 0.073066 0.326209
O O3 0.995227 0.139302 0.049745
O O4 0.093738 0.035636 0.023534
O O5 0.750000 0.051965 0.500000
O O6 0.912338 0.967285 0.387781
O O7 0.772048 0.036602 0.168470
O O8 0.503977 0.637059 0.298839
O O9 0.350907 0.712356 0.125621
O O10 0.646639 0.713760 0.125255
O O11 0.750000 0.619879 0.500000
#
# Coordination Sequence:
#
# PCOD8204856 Si02
#       7
#     8   8   8   8   2   2   4
#     4  11  19  39  61  91 126 175 225 266 323 398
#     4  10  22  36  55  96 146 177 212 264 325 397
#     4  11  20  43  66  95 121 164 222 288 337 412
#     4  10  21  38  64  96 126 176 222 264 324 408
#     4  10  28  40  68 102 124 158 226 288 380 388
#     4  10  18  38  78  76 112 158 218 296 328 380
#     4  10  19  33  58  89 124 183 225 263 306 394
#
# _framework density 23.689233999999999
#
# number of rings (size 3 to 8) (size 9 to 14) (size 15 to 20)
#    0.000    1.600    6.000    0.600    0.000    8.000 
#    7.200    0.500    0.000    1.200    0.000    0.000 
#    0.000    0.000    0.000    0.000    0.000    0.000 
#
# Total GULP energy -495740.617367 kJ/mol
# GULP energy per Si atom -12393.515434 kJ/mol
# Density = 2.363532 g / cm^3
# Si number density = 23.689234 Si / 1000 Ang^3
#
#
#
# Elastic Constant Matrix: (Units=GPa)
#
#
# Indices 1 2 3 4 5 6 
#
# 1 93.5072 51.2671 11.8392 0.0000 0.0000 0.0000
# 2 51.2671 98.3098 24.8297 0.0000 0.0000 0.0000
# 3 11.8392 24.8297 79.3925 0.0000 0.0000 0.0000
# 4 0.0000 0.0000 0.0000 92.6945 0.0000 0.0000
# 5 0.0000 0.0000 0.0000 0.0000 34.7670 0.0000
# 6 0.0000 0.0000 0.0000 0.0000 0.0000 86.7106
#
#
#
# Elastic Compliance Matrix: (Units=1/GPa)
#
#
# Indices 1 2 3 4 5 6 
#
# 1 0.014980 -0.007869 0.000227 0.000000 0.000000 0.000000
# 2 -0.007869 0.015178 -0.003573 0.000000 0.000000 0.000000
# 3 0.000227 -0.003573 0.013679 0.000000 0.000000 0.000000
# 4 0.000000 0.000000 0.000000 0.010788 0.000000 0.000000
# 5 0.000000 0.000000 0.000000 0.000000 0.028763 0.000000
# 6 0.000000 0.000000 0.000000 0.000000 0.000000 0.011533
#
#
# Mechanical properties :
#
#
# Convention : Reuss Voigt Hill
#
# Bulk Modulus (GPa) = 46.71451 49.67570 48.19511
# Shear Modulus (GPa) = 40.16462 55.05266 47.60864
#
# Velocity S-wave (km/s) = 4.12209 4.82597 4.48785
# Velocity P-wave (km/s) = 6.51291 7.21586 6.87338
#
# Compressibility (1/GPa) = 0.02140663
#
# Stress axis : x y z
#
# Youngs Moduli (GPa) = 66.75539 65.88415 73.10291
#
# Poissons Ratio (x) = 0.51846 -0.01661
# Poissons Ratio (y) = 0.52532 0.26123
# Poissons Ratio (z) = -0.01517 0.23543
#
# Static dielectric constant tensor:
#      x y z
#    x 4.286310 0.000000 0.000000 
#    y 0.000000 4.142380 0.000000 
#    z 0.000000 0.000000 4.204600 
# 
# 
# High freq. dielectric constant tensor:
#      x y z
#    x 1.937440 0.000000 0.000000 
#    y 0.000000 1.903730 0.000000 
#    z 0.000000 0.000000 1.936590 
# 
# From -- ./inp_files/9819.got.cif
#   From: 2010.03.12/outbox.cif.g09.slc.cpg/sg50_5_cif.got.tgz:9819.got - 2010.04.16 13:23:21.
