data_PCOD8204353
_publ_section_title
;
Structure prediction by ZEFSAII (Michael W. Deem and Ramdas Pophale) SiO2 
 PCOD8204353
Probable space group: P C C M
;
_chemical_formula_sum "Si O2"
_cell_formula_units_Z 64
_cell_length_a 13.985404
_cell_length_b 12.549155
_cell_length_c 17.117715
_cell_angle_alpha 90.000000
_cell_angle_beta 90.000000
_cell_angle_gamma 90.000000
_cell_volume 3004.244614
_symmetry_space_group_name_H-M "P C C M"
_symmetry_group_IT_number 49
_symmetry_cell_setting 'orthorhombic'
loop_
_space_group_symop_operation_xyz
x,y,z
-x,-y,z
x,-y,1/2-z
-x,y,1/2-z
-x,-y,-z
x,y,-z
-x,y,1/2+z
x,-y,1/2+z
loop_
_atom_site_type_symbol
_atom_site_label
_atom_site_fract_x
_atom_site_fract_y
_atom_site_fract_z
Si Si1 0.598164 0.380731 0.230273
Si Si2 0.230405 0.672456 0.341557
Si Si3 0.092065 0.056328 0.332888
Si Si4 0.111883 0.525205 0.909802
Si Si5 0.296489 0.955284 0.092228
Si Si6 0.371101 0.173223 0.088969
Si Si7 0.092167 0.293107 0.289753
Si Si8 0.421247 0.753709 0.907998
O O1 0.574484 0.500000 0.250000
O O2 0.500000 0.316453 0.250000
O O3 0.684230 0.357836 0.286113
O O4 0.619061 0.349466 0.139394
O O5 0.177743 0.573514 0.382967
O O6 0.277490 0.750892 0.404879
O O7 0.160652 0.733612 0.282920
O O8 0.186426 0.046824 0.383770
O O9 0.065114 0.180925 0.328033
O O10 0.109294 0.000000 0.250000
O O11 0.000000 0.000000 0.373850
O O12 0.136205 0.625965 0.854161
O O13 0.000000 0.500000 0.902128
O O14 0.136560 0.553124 0.000000
O O15 0.354516 0.851553 0.119722
O O16 0.347266 0.059777 0.129987
O O17 0.299434 0.962074 0.000000
O O18 0.469659 0.224048 0.119650
O O19 0.390557 0.147449 0.000000
O O20 0.000000 0.348347 0.250000
O O21 0.412660 0.728636 0.000000
#
# Coordination Sequence:
#
# PCOD8204353 Si02
#       8
#     8   8   8   8   8   8   8   8
#     4  11  23  42  63  94 130 169 220 277 332 402
#     4  12  23  41  68  95 132 177 221 277 338 403
#     4  11  23  41  61  91 130 171 220 274 335 407
#     4  11  25  43  66  98 131 169 224 279 334 407
#     4  10  22  39  65  96 131 176 221 272 338 406
#     4  10  21  39  66 100 134 174 221 276 341 402
#     4  12  23  41  67  94 129 174 220 275 340 405
#     4  10  21  43  69  97 135 174 222 277 337 406
#
# _framework density 21.303191000000002
#
# number of rings (size 3 to 8) (size 9 to 14) (size 15 to 20)
#    0.000    1.125    3.750    3.375    0.000    2.250 
#    0.000    5.625    0.000    0.000    0.000    0.000 
#    0.000    0.000    0.000    0.000    0.000    0.000 
#
# Total GULP energy -792897.467524 kJ/mol
# GULP energy per Si atom -12389.022930 kJ/mol
# Density = 2.125470 g / cm^3
# Si number density = 21.303191 Si / 1000 Ang^3
#
#
#
# Elastic Constant Matrix: (Units=GPa)
#
#
# Indices 1 2 3 4 5 6 
#
# 1 130.6934 35.7159 30.1936 0.0000 0.0000 0.0000
# 2 35.7159 138.5035 49.6770 0.0000 0.0000 0.0000
# 3 30.1936 49.6770 80.4361 0.0000 0.0000 0.0000
# 4 0.0000 0.0000 0.0000 36.6405 0.0000 0.0000
# 5 0.0000 0.0000 0.0000 0.0000 39.5042 0.0000
# 6 0.0000 0.0000 0.0000 0.0000 0.0000 40.2497
#
#
#
# Elastic Compliance Matrix: (Units=1/GPa)
#
#
# Indices 1 2 3 4 5 6 
#
# 1 0.008572 -0.001357 -0.002380 0.000000 0.000000 0.000000
# 2 -0.001357 0.009489 -0.005351 0.000000 0.000000 0.000000
# 3 -0.002380 -0.005351 0.016630 0.000000 0.000000 0.000000
# 4 0.000000 0.000000 0.000000 0.027292 0.000000 0.000000
# 5 0.000000 0.000000 0.000000 0.000000 0.025314 0.000000
# 6 0.000000 0.000000 0.000000 0.000000 0.000000 0.024845
#
#
# Mechanical properties :
#
#
# Convention : Reuss Voigt Hill
#
# Bulk Modulus (GPa) = 60.54700 64.53400 62.54050
# Shear Modulus (GPa) = 36.81246 38.88198 37.84722
#
# Velocity S-wave (km/s) = 4.16146 4.27684 4.21954
# Velocity P-wave (km/s) = 7.18148 7.39914 7.29112
#
# Compressibility (1/GPa) = 0.01651609
#
# Stress axis : x y z
#
# Youngs Moduli (GPa) = 116.65763 105.38237 60.13099
#
# Poissons Ratio (x) = 0.14300 0.14309
# Poissons Ratio (y) = 0.15830 0.32177
# Poissons Ratio (z) = 0.27761 0.56392
#
# Static dielectric constant tensor:
#      x y z
#    x 3.729080 0.000000 0.000000 
#    y 0.000000 3.928200 0.000000 
#    z 0.000000 0.000000 3.602370 
# 
# 
# High freq. dielectric constant tensor:
#      x y z
#    x 1.858680 0.000000 0.000000 
#    y 0.000000 1.834230 0.000000 
#    z 0.000000 0.000000 1.823450 
# 
# From -- ./inp_files/17963.got.cif
#   From: 2010.03.12/outbox.cif.g09.slc.cpg/sg49_9_cif.got.tgz:17963.got - 2010.04.14 03:58:27.
