data_PCOD8204615
_publ_section_title
;
Structure prediction by ZEFSAII (Michael W. Deem and Ramdas Pophale) SiO2 
 PCOD8204615
Probable space group: P C C M
;
_chemical_formula_sum "Si O2"
_cell_formula_units_Z 64
_cell_length_a 8.592346
_cell_length_b 25.947628
_cell_length_c 14.597253
_cell_angle_alpha 90.000000
_cell_angle_beta 90.000000
_cell_angle_gamma 90.000000
_cell_volume 3254.472119
_symmetry_space_group_name_H-M "P C C M"
_symmetry_group_IT_number 49
_symmetry_cell_setting 'orthorhombic'
loop_
_space_group_symop_operation_xyz
x,y,z
-x,-y,z
x,-y,1/2-z
-x,y,1/2-z
-x,-y,-z
x,y,-z
-x,y,1/2+z
x,-y,1/2+z
loop_
_atom_site_type_symbol
_atom_site_label
_atom_site_fract_x
_atom_site_fract_y
_atom_site_fract_z
Si Si1 0.684679 0.138772 0.396062
Si Si2 0.677319 0.500000 0.358287
Si Si3 0.824383 0.392533 0.897081
Si Si4 0.181219 0.787806 0.250000
Si Si5 0.684679 0.138772 0.896062
Si Si6 0.824383 0.607468 0.102919
Si Si7 0.315410 0.942739 0.750000
Si Si8 0.679032 0.322279 0.750000
O O1 0.750558 0.137073 0.500000
O O2 0.746678 0.188652 0.342729
O O3 0.500000 0.142138 0.397300
O O4 0.740176 0.087631 0.341182
O O5 0.500000 0.500000 0.393380
O O6 0.684653 0.500000 0.250000
O O7 0.764712 0.549321 0.397119
O O8 0.764712 0.450679 0.397119
O O9 0.711676 0.356453 0.838915
O O10 1.000000 0.390750 0.857479
O O11 0.821039 0.371164 0.000000
O O12 0.253322 0.811348 0.157271
O O13 0.211426 0.727268 0.250000
O O14 0.000000 0.799307 0.250000
O O15 0.740176 0.087631 0.841182
O O16 0.750558 0.137073 0.000000
O O17 0.711676 0.643547 0.161084
O O18 0.821039 0.628836 0.000000
O O19 0.500000 0.946591 0.750000
O O20 0.241272 0.000000 0.750000
O O21 0.500000 0.304926 0.750000
#
# Coordination Sequence:
#
# PCOD8204615 Si02
#       8
#     8   8   8   8   8   8   8   8
#     4   9  18  34  56  82 113 150 192 236 282 333
#     4  11  22  37  60  89 118 153 190 229 277 329
#     4  11  24  41  62  88 117 150 187 229 279 335
#     4  11  23  39  59  81 109 145 186 236 286 336
#     4   9  18  34  56  82 113 150 192 236 282 333
#     4  11  24  41  62  88 117 150 187 229 279 335
#     4   8  14  26  48  83 122 153 186 232 283 332
#     4  12  25  42  63  86 113 146 184 231 287 340
#
# _framework density 19.665248999999999
#
# number of rings (size 3 to 8) (size 9 to 14) (size 15 to 20)
#    0.000    1.750    1.250    4.500    0.000    6.000 
#    0.000    2.500    0.000    6.000    0.000    7.000 
#    0.000    0.000    0.000    0.000    0.000    0.000 
#
# Total GULP energy -793716.358721 kJ/mol
# GULP energy per Si atom -12401.818105 kJ/mol
# Density = 1.962049 g / cm^3
# Si number density = 19.665249 Si / 1000 Ang^3
#
#
#
# Elastic Constant Matrix: (Units=GPa)
#
#
# Indices 1 2 3 4 5 6 
#
# 1 60.9981 4.2057 24.5803 0.0000 0.0000 0.0000
# 2 4.2057 125.9931 51.5638 0.0000 0.0000 0.0000
# 3 24.5803 51.5638 153.5730 0.0000 0.0000 0.0000
# 4 0.0000 0.0000 0.0000 30.8012 0.0000 0.0000
# 5 0.0000 0.0000 0.0000 0.0000 14.5410 0.0000
# 6 0.0000 0.0000 0.0000 0.0000 0.0000 8.9062
#
#
#
# Elastic Compliance Matrix: (Units=1/GPa)
#
#
# Indices 1 2 3 4 5 6 
#
# 1 0.017571 0.000654 -0.003032 0.000000 0.000000 0.000000
# 2 0.000654 0.009226 -0.003202 0.000000 0.000000 0.000000
# 3 -0.003032 -0.003202 0.008072 0.000000 0.000000 0.000000
# 4 0.000000 0.000000 0.000000 0.032466 0.000000 0.000000
# 5 0.000000 0.000000 0.000000 0.000000 0.068771 0.000000
# 6 0.000000 0.000000 0.000000 0.000000 0.000000 0.112281
#
#
# Mechanical properties :
#
#
# Convention : Reuss Voigt Hill
#
# Bulk Modulus (GPa) = 42.17915 55.69598 48.93757
# Shear Modulus (GPa) = 18.69509 28.19731 23.44620
#
# Velocity S-wave (km/s) = 3.08663 3.79075 3.45667
# Velocity P-wave (km/s) = 5.84792 6.89516 6.39302
#
# Compressibility (1/GPa) = 0.02370840
#
# Stress axis : x y z
#
# Youngs Moduli (GPa) = 56.91320 108.39295 123.88382
#
# Poissons Ratio (x) = -0.07093 0.37561
# Poissons Ratio (y) = -0.03724 0.39672
# Poissons Ratio (z) = 0.17256 0.34711
#
# Static dielectric constant tensor:
#      x y z
#    x 3.480990 0.000000 0.000000 
#    y 0.000000 3.640940 0.000000 
#    z 0.000000 0.000000 3.828430 
# 
# 
# High freq. dielectric constant tensor:
#      x y z
#    x 1.756230 0.000000 0.000000 
#    y 0.000000 1.762190 0.000000 
#    z 0.000000 0.000000 1.777240 
# 
# From -- ./inp_files/12146.got.cif
#   From: 2010.03.12/outbox.cif.g09.slc.cpg/sg49_7_cif.got.tgz:12146.got - 2010.04.14 03:58:27.
