data_PCOD8204354
_publ_section_title
;
Structure prediction by ZEFSAII (Michael W. Deem and Ramdas Pophale) SiO2 
 PCOD8204354
Probable space group: P C C M
;
_chemical_formula_sum "Si O2"
_cell_formula_units_Z 56
_cell_length_a 20.285092
_cell_length_b 15.448752
_cell_length_c 8.896769
_cell_angle_alpha 90.000000
_cell_angle_beta 90.000000
_cell_angle_gamma 90.000000
_cell_volume 2788.063736
_symmetry_space_group_name_H-M "P C C M"
_symmetry_group_IT_number 49
_symmetry_cell_setting 'orthorhombic'
loop_
_space_group_symop_operation_xyz
x,y,z
-x,-y,z
x,-y,1/2-z
-x,y,1/2-z
-x,-y,-z
x,y,-z
-x,y,1/2+z
x,-y,1/2+z
loop_
_atom_site_type_symbol
_atom_site_label
_atom_site_fract_x
_atom_site_fract_y
_atom_site_fract_z
Si Si1 0.706331 0.316237 0.678072
Si Si2 0.252285 0.129372 0.172072
Si Si3 0.831457 0.588478 0.176561
Si Si4 0.121848 0.086921 0.678111
Si Si5 0.566029 0.727071 0.821394
Si Si6 0.931749 0.261067 0.321364
Si Si7 0.399394 0.916317 0.669389
O O1 0.703904 0.309676 0.500000
O O2 0.736440 0.226034 0.734698
O O3 0.755915 0.392106 0.730919
O O4 0.630463 0.327783 0.734424
O O5 0.199429 0.085916 0.281919
O O6 0.320436 0.077785 0.180898
O O7 0.225128 0.130334 0.000000
O O8 0.856471 0.500000 0.250000
O O9 0.877781 0.667636 0.225779
O O10 0.834244 0.575721 0.000000
O O11 0.111373 0.087318 0.500000
O O12 0.086851 0.169154 0.751405
O O13 0.090133 0.000000 0.750000
O O14 0.500000 0.686185 0.750000
O O15 0.574469 0.825833 0.761587
O O16 0.560603 0.724374 0.000000
O O17 0.937716 0.252103 0.500000
O O18 0.000000 0.293022 0.250000
O O19 0.423639 0.920880 0.500000
O O20 0.430481 0.000000 0.750000
#
# Coordination Sequence:
#
# PCOD8204354 Si02
#       7
#     8   8   8   8   8   8   8
#     4   8  15  33  58  80 109 151 188 228 289 348
#     4   9  16  32  54  76 106 145 192 240 294 346
#     4  10  21  39  66  94 122 154 190 236 291 352
#     4  12  24  37  57  86 119 158 203 248 293 345
#     4   9  18  32  50  72 101 142 189 232 284 344
#     4  11  24  44  66  89 122 161 197 240 293 344
#     4   9  18  29  44  66  98 140 184 236 288 343
#
# _framework density 20.085625
#
# number of rings (size 3 to 8) (size 9 to 14) (size 15 to 20)
#    0.000    2.286    1.429    3.857    0.000    4.286 
#    0.000    7.143    0.000    0.429    0.000    3.000 
#    0.000    0.000    0.000    0.000    0.000    0.000 
#
# Total GULP energy -694113.545505 kJ/mol
# GULP energy per Si atom -12394.884741 kJ/mol
# Density = 2.003991 g / cm^3
# Si number density = 20.085625 Si / 1000 Ang^3
#
#
#
# Elastic Constant Matrix: (Units=GPa)
#
#
# Indices 1 2 3 4 5 6 
#
# 1 126.1037 45.1655 40.3739 0.0000 0.0000 0.0000
# 2 45.1655 106.5750 38.5743 0.0000 0.0000 0.0000
# 3 40.3739 38.5743 70.4454 0.0000 0.0000 0.0000
# 4 0.0000 0.0000 0.0000 25.2889 0.0000 0.0000
# 5 0.0000 0.0000 0.0000 0.0000 24.0160 0.0000
# 6 0.0000 0.0000 0.0000 0.0000 0.0000 6.4581
#
#
#
# Elastic Compliance Matrix: (Units=1/GPa)
#
#
# Indices 1 2 3 4 5 6 
#
# 1 0.010337 -0.002789 -0.004397 0.000000 0.000000 0.000000
# 2 -0.002789 0.012455 -0.005222 0.000000 0.000000 0.000000
# 3 -0.004397 -0.005222 0.019575 0.000000 0.000000 0.000000
# 4 0.000000 0.000000 0.000000 0.039543 0.000000 0.000000
# 5 0.000000 0.000000 0.000000 0.000000 0.041639 0.000000
# 6 0.000000 0.000000 0.000000 0.000000 0.000000 0.154845
#
#
# Mechanical properties :
#
#
# Convention : Reuss Voigt Hill
#
# Bulk Modulus (GPa) = 56.97674 61.26129 59.11902
# Shear Modulus (GPa) = 16.17817 23.08661 19.63239
#
# Velocity S-wave (km/s) = 2.84114 3.39397 3.12979
# Velocity P-wave (km/s) = 6.26029 6.77680 6.52366
#
# Compressibility (1/GPa) = 0.01755102
#
# Stress axis : x y z
#
# Youngs Moduli (GPa) = 96.74282 80.28912 51.08665
#
# Poissons Ratio (x) = 0.22394 0.22462
# Poissons Ratio (y) = 0.26983 0.26675
# Poissons Ratio (z) = 0.42537 0.41923
#
# Static dielectric constant tensor:
#      x y z
#    x 3.895580 0.000000 0.000000 
#    y 0.000000 3.531890 0.000000 
#    z 0.000000 0.000000 3.367150 
# 
# 
# High freq. dielectric constant tensor:
#      x y z
#    x 1.790880 0.000000 0.000000 
#    y 0.000000 1.764450 0.000000 
#    z 0.000000 0.000000 1.758540 
# 
# From -- ./inp_files/5784.got.cif
#   From: 2010.03.12/outbox.cif.g09.slc.cpg/sg49_3_cif.got.tgz:5784.got - 2010.04.14 03:58:27.
