data_PCOD8204965
_publ_section_title
;
Structure prediction by ZEFSAII (Michael W. Deem and Ramdas Pophale) SiO2 
 PCOD8204965
Probable space group: P B A N
;
_chemical_formula_sum "Si O2"
_cell_formula_units_Z 64
_cell_length_a 9.524897
_cell_length_b 22.660290
_cell_length_c 16.070011
_cell_angle_alpha 90.000000
_cell_angle_beta 90.000000
_cell_angle_gamma 90.000000
_cell_volume 3468.501811
_symmetry_space_group_name_H-M "P B A N"
_symmetry_group_IT_number 50
_space_group.IT_coordinate_system_code '2'
_symmetry_cell_setting 'orthorhombic'
loop_
_space_group_symop_operation_xyz
x,y,z
1/2-x,1/2-y,z
x,1/2-y,-z
1/2-x,y,-z
-x,-y,-z
1/2+x,1/2+y,-z
-x,1/2+y,z
1/2+x,-y,z
loop_
_atom_site_type_symbol
_atom_site_label
_atom_site_fract_x
_atom_site_fract_y
_atom_site_fract_z
Si Si1 0.584693 0.818713 0.158178
Si Si2 0.405346 0.248990 0.403006
Si Si3 0.227255 0.062607 0.595213
Si Si4 0.530164 0.868017 0.330443
Si Si5 0.767712 0.073773 0.402968
Si Si6 0.510552 0.369249 0.668864
Si Si7 0.090989 0.680246 0.998758
Si Si8 0.413611 0.180415 0.160500
O O1 0.520731 0.858642 0.231655
O O2 0.560618 0.749624 0.179819
O O3 0.749439 0.830969 0.142660
O O4 0.497706 0.840418 0.078461
O O5 0.250000 0.250000 0.359803
O O6 0.385021 0.250000 0.500000
O O7 0.493981 0.305178 0.374129
O O8 0.488886 0.191079 0.379726
O O9 0.250000 0.080909 0.500000
O O10 0.316634 0.106492 0.651864
O O11 0.069201 0.076529 0.623597
O O12 0.266455 0.994890 0.609626
O O13 0.423624 0.914763 0.369922
O O14 0.750000 0.091378 0.500000
O O15 0.672429 0.113212 0.341997
O O16 0.467762 0.360458 0.764461
O O17 0.005729 0.659142 0.917813
O O18 0.099972 0.750000 0.000000
O O19 0.250000 0.653839 0.000000
#
# Coordination Sequence:
#
# PCOD8204965 Si02
#       8
#     8   8   8   8   8   8   8   8
#     4  10  19  35  56  85 116 150 191 233 281 349
#     4  11  20  33  55  82 113 152 194 232 286 355
#     4  11  22  41  63  80 109 157 210 251 282 334
#     4  12  22  37  59  86 116 153 194 243 295 348
#     4  11  26  41  55  82 117 157 204 253 296 332
#     4  12  22  37  59  86 116 153 194 243 295 348
#     4   9  19  33  55  83 120 155 180 220 286 353
#     4  10  19  35  56  85 116 150 191 233 281 349
#
# _framework density 18.451771000000001
#
# number of rings (size 3 to 8) (size 9 to 14) (size 15 to 20)
#    0.000    1.250    3.750    3.375    1.750    4.000 
#    0.000    1.250    0.000    0.000    0.000    5.250 
#    0.000    0.000    0.000    0.000    0.000    0.000 
#
# Total GULP energy -793685.541193 kJ/mol
# GULP energy per Si atom -12401.336581 kJ/mol
# Density = 1.840977 g / cm^3
# Si number density = 18.451771 Si / 1000 Ang^3
#
#
#
# Elastic Constant Matrix: (Units=GPa)
#
#
# Indices 1 2 3 4 5 6 
#
# 1 79.1570 20.7648 43.8083 0.0000 0.0000 0.0000
# 2 20.7648 66.7870 35.1405 0.0000 0.0000 0.0000
# 3 43.8083 35.1405 136.5104 0.0000 0.0000 0.0000
# 4 0.0000 0.0000 0.0000 12.5915 0.0000 0.0000
# 5 0.0000 0.0000 0.0000 0.0000 36.6830 0.0000
# 6 0.0000 0.0000 0.0000 0.0000 0.0000 32.0066
#
#
#
# Elastic Compliance Matrix: (Units=1/GPa)
#
#
# Indices 1 2 3 4 5 6 
#
# 1 0.015738 -0.002586 -0.004385 0.000000 0.000000 0.000000
# 2 -0.002586 0.017744 -0.003738 0.000000 0.000000 0.000000
# 3 -0.004385 -0.003738 0.009695 0.000000 0.000000 0.000000
# 4 0.000000 0.000000 0.000000 0.079419 0.000000 0.000000
# 5 0.000000 0.000000 0.000000 0.000000 0.027261 0.000000
# 6 0.000000 0.000000 0.000000 0.000000 0.000000 0.031244
#
#
# Mechanical properties :
#
#
# Convention : Reuss Voigt Hill
#
# Bulk Modulus (GPa) = 45.95718 53.54240 49.74979
# Shear Modulus (GPa) = 23.83563 28.43894 26.13728
#
# Velocity S-wave (km/s) = 3.59803 3.93015 3.76775
# Velocity P-wave (km/s) = 6.49783 7.04806 6.77853
#
# Compressibility (1/GPa) = 0.02175938
#
# Stress axis : x y z
#
# Youngs Moduli (GPa) = 63.53934 56.35842 103.14810
#
# Poissons Ratio (x) = 0.14574 0.45230
# Poissons Ratio (y) = 0.16431 0.38553
# Poissons Ratio (z) = 0.27862 0.21065
#
# Static dielectric constant tensor:
#      x y z
#    x 3.526150 0.000000 0.000000 
#    y 0.000000 2.688770 0.000000 
#    z 0.000000 0.000000 3.424920 
# 
# 
# High freq. dielectric constant tensor:
#      x y z
#    x 1.722140 0.000000 0.000000 
#    y 0.000000 1.686550 0.000000 
#    z 0.000000 0.000000 1.718320 
# 
# From -- ./inp_files/25417.got.cif
#   From: 2010.03.12/outbox.cif.g09.slc.cpg/sg50_13_cif.got.tgz:25417.got - 2010.04.16 13:23:21.
