data_PCOD8204155
_publ_section_title
;
Structure prediction by ZEFSAII (Michael W. Deem and Ramdas Pophale) SiO2 
 PCOD8204155
Probable space group: P C C M
;
_chemical_formula_sum "Si O2"
_cell_formula_units_Z 32
_cell_length_a 19.993115
_cell_length_b 10.032969
_cell_length_c 8.514727
_cell_angle_alpha 90.000000
_cell_angle_beta 90.000000
_cell_angle_gamma 90.000000
_cell_volume 1707.971669
_symmetry_space_group_name_H-M "P C C M"
_symmetry_group_IT_number 49
_symmetry_cell_setting 'orthorhombic'
loop_
_space_group_symop_operation_xyz
x,y,z
-x,-y,z
x,-y,1/2-z
-x,y,1/2-z
-x,-y,-z
x,y,-z
-x,y,1/2+z
x,-y,1/2+z
loop_
_atom_site_type_symbol
_atom_site_label
_atom_site_fract_x
_atom_site_fract_y
_atom_site_fract_z
Si Si1 0.928184 0.856304 0.685256
Si Si2 0.571601 0.142897 0.815197
Si Si3 0.174821 0.644946 0.685737
Si Si4 0.319225 0.642033 0.186201
O O1 0.932306 0.864588 0.500000
O O2 0.873773 0.750479 0.736657
O O3 0.000000 0.811322 0.750000
O O4 0.906784 0.000000 0.750000
O O5 0.500000 0.188283 0.750000
O O6 0.626085 0.250342 0.762036
O O7 0.593894 0.000000 0.750000
O O8 0.566133 0.132494 0.000000
O O9 0.155525 0.500000 0.750000
O O10 0.166814 0.647272 0.500000
O O11 0.249976 0.683539 0.733184
O O12 0.344204 0.500000 0.250000
O O13 0.308895 0.634932 0.000000
#
# Coordination Sequence:
#
# PCOD8204155 Si02
#       4
#     8   8   8   8
#     4  11  22  39  60  85 115 148 186 229 276 329
#     4  10  21  36  56  80 109 142 181 224 272 325
#     4  11  22  38  59  84 113 148 186 230 278 329
#     4  10  21  37  56  81 110 144 183 227 274 327
#
# _framework density 18.735672999999998
#
# number of rings (size 3 to 8) (size 9 to 14) (size 15 to 20)
#    0.000    1.500    0.000    9.000    0.000    6.000 
#    0.000    7.500    0.000    0.000    0.000    0.000 
#    0.000    0.000    0.000    0.000    0.000    0.000 
#
# Total GULP energy -396938.493216 kJ/mol
# GULP energy per Si atom -12404.327913 kJ/mol
# Density = 1.869303 g / cm^3
# Si number density = 18.735673 Si / 1000 Ang^3
#
#
#
# Elastic Constant Matrix: (Units=GPa)
#
#
# Indices 1 2 3 4 5 6 
#
# 1 124.2677 110.9544 51.7758 0.0000 0.0000 0.0000
# 2 110.9544 142.5988 56.6412 0.0000 0.0000 0.0000
# 3 51.7758 56.6412 145.4604 0.0000 0.0000 0.0000
# 4 0.0000 0.0000 0.0000 54.0844 0.0000 0.0000
# 5 0.0000 0.0000 0.0000 0.0000 46.5400 0.0000
# 6 0.0000 0.0000 0.0000 0.0000 0.0000 48.6639
#
#
#
# Elastic Compliance Matrix: (Units=1/GPa)
#
#
# Indices 1 2 3 4 5 6 
#
# 1 0.026700 -0.020111 -0.001673 0.000000 0.000000 0.000000
# 2 -0.020111 0.023443 -0.001970 0.000000 0.000000 0.000000
# 3 -0.001673 -0.001970 0.008237 0.000000 0.000000 0.000000
# 4 0.000000 0.000000 0.000000 0.018490 0.000000 0.000000
# 5 0.000000 0.000000 0.000000 0.000000 0.021487 0.000000
# 6 0.000000 0.000000 0.000000 0.000000 0.000000 0.020549
#
#
# Mechanical properties :
#
#
# Convention : Reuss Voigt Hill
#
# Bulk Modulus (GPa) = 91.96985 94.56332 93.26658
# Shear Modulus (GPa) = 29.40505 42.72137 36.06321
#
# Velocity S-wave (km/s) = 3.96595 4.78034 4.39206
# Velocity P-wave (km/s) = 8.37653 9.00282 8.69532
#
# Compressibility (1/GPa) = 0.01087313
#
# Stress axis : x y z
#
# Youngs Moduli (GPa) = 37.45269 42.65621 121.39761
#
# Poissons Ratio (x) = 0.85785 0.20308
# Poissons Ratio (y) = 0.75320 0.23919
# Poissons Ratio (z) = 0.06265 0.08405
#
# Static dielectric constant tensor:
#      x y z
#    x 3.534510 0.000000 0.000000 
#    y 0.000000 5.661470 0.000000 
#    z 0.000000 0.000000 3.655340 
# 
# 
# High freq. dielectric constant tensor:
#      x y z
#    x 1.732300 0.000000 0.000000 
#    y 0.000000 1.733820 0.000000 
#    z 0.000000 0.000000 1.752670 
# 
# From -- ./inp_files/1387.got.cif
#   From: 2010.03.12/outbox.cif.g09.slc.cpg/sg49_1_cif.got.tgz:1387.got - 2010.04.14 03:58:27.
