data_PCOD8204461
_publ_section_title
;
Structure prediction by ZEFSAII (Michael W. Deem and Ramdas Pophale) SiO2 
 PCOD8204461
Probable space group: P C C M
;
_chemical_formula_sum "Si O2"
_cell_formula_units_Z 32
_cell_length_a 17.960803
_cell_length_b 4.953948
_cell_length_c 16.289907
_cell_angle_alpha 90.000000
_cell_angle_beta 90.000000
_cell_angle_gamma 90.000000
_cell_volume 1449.425167
_symmetry_space_group_name_H-M "P C C M"
_symmetry_group_IT_number 49
_symmetry_cell_setting 'orthorhombic'
loop_
_space_group_symop_operation_xyz
x,y,z
-x,-y,z
x,-y,1/2-z
-x,y,1/2-z
-x,-y,-z
x,y,-z
-x,y,1/2+z
x,-y,1/2+z
loop_
_atom_site_type_symbol
_atom_site_label
_atom_site_fract_x
_atom_site_fract_y
_atom_site_fract_z
Si Si1 0.666723 0.077951 0.593549
Si Si2 0.191489 0.758663 0.304064
Si Si3 0.950738 0.238643 0.408305
Si Si4 0.586412 0.561667 0.657286
O O1 0.684266 0.992738 0.500000
O O2 0.742196 0.106377 0.644333
O O3 0.628031 0.368605 0.593581
O O4 0.609847 0.866809 0.635891
O O5 0.217717 0.500000 0.250000
O O6 0.123870 0.674559 0.361809
O O7 0.159444 0.000000 0.250000
O O8 0.927652 0.146257 0.500000
O O9 0.000000 0.500000 0.410215
O O10 0.000000 0.000000 0.366823
O O11 0.500000 0.500000 0.646220
O O12 0.611926 0.500000 0.750000
#
# Coordination Sequence:
#
# PCOD8204461 Si02
#       4
#     8   8   8   8
#     4  12  25  42  65  93 128 167 212 263 317 382
#     4  12  25  41  64  92 127 168 214 266 320 383
#     4  10  22  41  64  91 126 166 210 263 323 385
#     4  11  24  43  67  94 127 166 208 259 320 384
#
# _framework density 22.077715999999999
#
# number of rings (size 3 to 8) (size 9 to 14) (size 15 to 20)
#    0.000    0.750    0.000    8.250    0.000    8.000 
#    0.000    7.500    0.000    0.000    0.000    0.000 
#    0.000    0.000    0.000    0.000    0.000    0.000 
#
# Total GULP energy -396838.372331 kJ/mol
# GULP energy per Si atom -12401.199135 kJ/mol
# Density = 2.202747 g / cm^3
# Si number density = 22.077716 Si / 1000 Ang^3
#
#
#
# Elastic Constant Matrix: (Units=GPa)
#
#
# Indices 1 2 3 4 5 6 
#
# 1 129.6538 27.9605 52.0217 0.0000 0.0000 0.0000
# 2 27.9605 103.1277 24.5814 0.0000 0.0000 0.0000
# 3 52.0217 24.5814 111.1225 0.0000 0.0000 0.0000
# 4 0.0000 0.0000 0.0000 34.1721 0.0000 0.0000
# 5 0.0000 0.0000 0.0000 0.0000 11.5417 0.0000
# 6 0.0000 0.0000 0.0000 0.0000 0.0000 40.4340
#
#
#
# Elastic Compliance Matrix: (Units=1/GPa)
#
#
# Indices 1 2 3 4 5 6 
#
# 1 0.009753 -0.001643 -0.004203 0.000000 0.000000 0.000000
# 2 -0.001643 0.010513 -0.001557 0.000000 0.000000 0.000000
# 3 -0.004203 -0.001557 0.011311 0.000000 0.000000 0.000000
# 4 0.000000 0.000000 0.000000 0.029264 0.000000 0.000000
# 5 0.000000 0.000000 0.000000 0.000000 0.086643 0.000000
# 6 0.000000 0.000000 0.000000 0.000000 0.000000 0.024732
#
#
# Mechanical properties :
#
#
# Convention : Reuss Voigt Hill
#
# Bulk Modulus (GPa) = 59.61763 61.44789 60.53276
# Shear Modulus (GPa) = 25.95919 33.18559 29.57239
#
# Velocity S-wave (km/s) = 3.43273 3.88122 3.66384
# Velocity P-wave (km/s) = 6.54016 6.92663 6.73616
#
# Compressibility (1/GPa) = 0.01677356
#
# Stress axis : x y z
#
# Youngs Moduli (GPa) = 102.52909 95.11941 88.41057
#
# Poissons Ratio (x) = 0.15625 0.37156
# Poissons Ratio (y) = 0.16842 0.13762
# Poissons Ratio (z) = 0.43089 0.14806
#
# Static dielectric constant tensor:
#      x y z
#    x 3.760580 0.000000 0.000000 
#    y 0.000000 3.964950 0.000000 
#    z 0.000000 0.000000 4.202430 
# 
# 
# High freq. dielectric constant tensor:
#      x y z
#    x 1.876130 0.000000 0.000000 
#    y 0.000000 1.882290 0.000000 
#    z 0.000000 0.000000 1.870900 
# 
# From -- ./inp_files/10529.got.cif
#   From: 2010.03.12/outbox.cif.g09.slc.cpg/sg49_6_cif.got.tgz:10529.got - 2010.04.14 03:58:27.
