data_PCOD8204972
_publ_section_title
;
Structure prediction by ZEFSAII (Michael W. Deem and Ramdas Pophale) SiO2 
 PCOD8204972
Probable space group: P B A N
;
_chemical_formula_sum "Si O2"
_cell_formula_units_Z 48
_cell_length_a 22.593077
_cell_length_b 9.216757
_cell_length_c 11.563241
_cell_angle_alpha 90.000000
_cell_angle_beta 90.000000
_cell_angle_gamma 90.000000
_cell_volume 2407.870340
_symmetry_space_group_name_H-M "P B A N"
_symmetry_group_IT_number 50
_space_group.IT_coordinate_system_code '2'
_symmetry_cell_setting 'orthorhombic'
loop_
_space_group_symop_operation_xyz
x,y,z
1/2-x,1/2-y,z
x,1/2-y,-z
1/2-x,y,-z
-x,-y,-z
1/2+x,1/2+y,-z
-x,1/2+y,z
1/2+x,-y,z
loop_
_atom_site_type_symbol
_atom_site_label
_atom_site_fract_x
_atom_site_fract_y
_atom_site_fract_z
Si Si1 0.528243 0.036180 0.237082
Si Si2 0.731839 0.946857 0.129923
Si Si3 0.560255 0.739321 0.365395
Si Si4 0.159756 0.323714 0.221355
Si Si5 0.874154 0.124879 0.905388
Si Si6 0.057876 0.397820 0.049186
O O1 0.485360 0.117486 0.323848
O O2 0.584467 0.144228 0.208561
O O3 0.494752 0.006574 0.110933
O O4 0.548736 0.888120 0.295795
O O5 0.792509 0.956119 0.207186
O O6 0.691568 0.822166 0.182727
O O7 0.694480 0.097128 0.131142
O O8 0.750000 0.905658 0.000000
O O9 0.548162 0.750000 0.500000
O O10 0.629954 0.692960 0.348561
O O11 0.101101 0.348376 0.149710
O O12 0.877416 0.250000 0.000000
O O13 0.900148 0.977616 0.958698
O O14 0.028977 0.250000 0.000000
#
# Coordination Sequence:
#
# PCOD8204972 Si02
#       6
#     8   8   8   8   8   8
#     4  11  22  37  57  87 120 151 194 250 303 367
#     4  11  19  34  58  82 120 154 190 228 292 363
#     4  11  23  41  62  85 112 156 210 265 314 353
#     4  10  19  35  59  82 109 156 202 242 283 351
#     4  12  22  33  53  91 126 155 184 231 297 376
#     4  11  18  34  55  84 120 161 189 222 290 375
#
# _framework density 19.934628
#
# number of rings (size 3 to 8) (size 9 to 14) (size 15 to 20)
#    0.000    1.000    5.000    4.500    0.000    0.333 
#    0.000    1.667    0.000    0.000    0.000    0.000 
#    0.000    0.000    0.000    0.000    0.000    0.000 
#
# Total GULP energy -594664.752956 kJ/mol
# GULP energy per Si atom -12388.849020 kJ/mol
# Density = 1.988926 g / cm^3
# Si number density = 19.934628 Si / 1000 Ang^3
#
#
#
# Elastic Constant Matrix: (Units=GPa)
#
#
# Indices 1 2 3 4 5 6 
#
# 1 124.8842 39.9859 45.6532 0.0000 0.0000 0.0000
# 2 39.9859 69.7520 18.1887 0.0000 0.0000 0.0000
# 3 45.6532 18.1887 83.7120 0.0000 0.0000 0.0000
# 4 0.0000 0.0000 0.0000 19.9732 0.0000 0.0000
# 5 0.0000 0.0000 0.0000 0.0000 18.9567 0.0000
# 6 0.0000 0.0000 0.0000 0.0000 0.0000 31.7478
#
#
#
# Elastic Compliance Matrix: (Units=1/GPa)
#
#
# Indices 1 2 3 4 5 6 
#
# 1 0.011594 -0.005298 -0.005172 0.000000 0.000000 0.000000
# 2 -0.005298 0.017618 -0.000939 0.000000 0.000000 0.000000
# 3 -0.005172 -0.000939 0.014970 0.000000 0.000000 0.000000
# 4 0.000000 0.000000 0.000000 0.050067 0.000000 0.000000
# 5 0.000000 0.000000 0.000000 0.000000 0.052752 0.000000
# 6 0.000000 0.000000 0.000000 0.000000 0.000000 0.031498
#
#
# Mechanical properties :
#
#
# Convention : Reuss Voigt Hill
#
# Bulk Modulus (GPa) = 46.80410 54.00041 50.40225
# Shear Modulus (GPa) = 23.98775 25.77023 24.87899
#
# Velocity S-wave (km/s) = 3.47265 3.59937 3.53658
# Velocity P-wave (km/s) = 6.29356 6.66494 6.48191
#
# Compressibility (1/GPa) = 0.02136565
#
# Stress axis : x y z
#
# Youngs Moduli (GPa) = 86.24820 56.75891 66.79885
#
# Poissons Ratio (x) = 0.30071 0.34549
# Poissons Ratio (y) = 0.45694 0.06271
# Poissons Ratio (z) = 0.44608 0.05328
#
# Static dielectric constant tensor:
#      x y z
#    x 4.564580 0.000000 0.000000 
#    y 0.000000 3.529750 0.000000 
#    z 0.000000 0.000000 -6.152960 
# 
# 
# High freq. dielectric constant tensor:
#      x y z
#    x 1.806480 0.000000 0.000000 
#    y 0.000000 1.759380 0.000000 
#    z 0.000000 0.000000 1.742170 
# 
# From -- ./inp_files/19207.got.cif
#   From: 2010.03.12/outbox.cif.g09.slc.cpg/sg50_10_cif.got.tgz:19207.got - 2010.04.16 13:23:21.
