data_PCOD8204432
_publ_section_title
;
Structure prediction by ZEFSAII (Michael W. Deem and Ramdas Pophale) SiO2 
 PCOD8204432
Probable space group: P C C M
;
_chemical_formula_sum "Si O2"
_cell_formula_units_Z 56
_cell_length_a 19.541848
_cell_length_b 9.365486
_cell_length_c 16.443046
_cell_angle_alpha 90.000000
_cell_angle_beta 90.000000
_cell_angle_gamma 90.000000
_cell_volume 3009.388255
_symmetry_space_group_name_H-M "P C C M"
_symmetry_group_IT_number 49
_symmetry_cell_setting 'orthorhombic'
loop_
_space_group_symop_operation_xyz
x,y,z
-x,-y,z
x,-y,1/2-z
-x,y,1/2-z
-x,-y,-z
x,y,-z
-x,y,1/2+z
x,-y,1/2+z
loop_
_atom_site_type_symbol
_atom_site_label
_atom_site_fract_x
_atom_site_fract_y
_atom_site_fract_z
Si Si1 0.419741 0.663133 0.737504
Si Si2 0.645413 0.177062 0.405144
Si Si3 0.798569 0.178511 0.592566
Si Si4 0.665048 0.102125 0.174943
Si Si5 0.076773 0.348626 0.097023
Si Si6 0.072347 0.328429 0.596535
Si Si7 0.802163 0.850666 0.593139
O O1 0.393515 0.500000 0.750000
O O2 0.500000 0.670197 0.750000
O O3 0.403298 0.718522 0.646352
O O4 0.386594 0.770742 0.802907
O O5 0.635075 0.211979 0.500000
O O6 0.722861 0.206423 0.371812
O O7 0.631283 0.006592 0.391574
O O8 0.794281 0.228778 0.500000
O O9 0.858846 0.266324 0.637225
O O10 0.820705 0.015602 0.599217
O O11 0.733022 0.180832 0.142667
O O12 0.683824 0.000000 0.250000
O O13 0.084514 0.510687 0.125720
O O14 0.003842 0.282599 0.127126
O O15 0.078277 0.337673 0.000000
O O16 0.074696 0.315858 0.500000
O O17 0.133426 0.232261 0.633087
O O18 0.789460 0.803409 0.500000
#
# Coordination Sequence:
#
# PCOD8204432 Si02
#       7
#     8   8   8   8   8   8   8
#     4  10  22  40  57  78 110 142 170 205 255 315
#     4   9  18  35  57  82 107 136 176 220 257 301
#     4   8  14  24  41  65  94 122 158 208 255 292
#     4   9  18  33  54  75 100 133 169 208 257 311
#     4   8  13  22  34  55  89 129 162 195 245 298
#     4   8  14  22  34  55  90 128 162 200 244 293
#     4   9  16  27  43  69  98 123 159 209 251 292
#
# _framework density 18.608433999999999
#
# number of rings (size 3 to 8) (size 9 to 14) (size 15 to 20)
#    0.000    3.286    0.000    2.143    0.000    4.286 
#    0.000    9.286    0.000    0.000    0.000   17.000 
#    0.000   21.714    0.000    1.286    0.000    0.000 
#
# Total GULP energy -693798.524613 kJ/mol
# GULP energy per Si atom -12389.259368 kJ/mol
# Density = 1.856608 g / cm^3
# Si number density = 18.608434 Si / 1000 Ang^3
#
#
#
# Elastic Constant Matrix: (Units=GPa)
#
#
# Indices 1 2 3 4 5 6 
#
# 1 120.8013 72.0579 37.4480 0.0000 0.0000 0.0000
# 2 72.0579 93.6132 31.8994 0.0000 0.0000 0.0000
# 3 37.4480 31.8994 48.4296 0.0000 0.0000 0.0000
# 4 0.0000 0.0000 0.0000 14.4828 0.0000 0.0000
# 5 0.0000 0.0000 0.0000 0.0000 18.5570 0.0000
# 6 0.0000 0.0000 0.0000 0.0000 0.0000 40.0017
#
#
#
# Elastic Compliance Matrix: (Units=1/GPa)
#
#
# Indices 1 2 3 4 5 6 
#
# 1 0.016418 -0.010717 -0.005636 0.000000 0.000000 0.000000
# 2 -0.010717 0.020769 -0.005393 0.000000 0.000000 0.000000
# 3 -0.005636 -0.005393 0.028559 0.000000 0.000000 0.000000
# 4 0.000000 0.000000 0.000000 0.069047 0.000000 0.000000
# 5 0.000000 0.000000 0.000000 0.000000 0.053888 0.000000
# 6 0.000000 0.000000 0.000000 0.000000 0.000000 0.024999
#
#
# Mechanical properties :
#
#
# Convention : Reuss Voigt Hill
#
# Bulk Modulus (GPa) = 44.93683 60.62829 52.78256
# Shear Modulus (GPa) = 18.89705 22.70422 20.80063
#
# Velocity S-wave (km/s) = 3.19016 3.49679 3.34699
# Velocity P-wave (km/s) = 6.14578 6.99680 6.58505
#
# Compressibility (1/GPa) = 0.02225346
#
# Stress axis : x y z
#
# Youngs Moduli (GPa) = 60.90913 48.14763 35.01511
#
# Poissons Ratio (x) = 0.51600 0.19735
# Poissons Ratio (y) = 0.65276 0.18885
# Poissons Ratio (z) = 0.34329 0.25968
#
# Static dielectric constant tensor:
#      x y z
#    x 3.679200 0.000000 0.000000 
#    y 0.000000 3.553390 0.000000 
#    z 0.000000 0.000000 3.138870 
# 
# 
# High freq. dielectric constant tensor:
#      x y z
#    x 1.725980 0.000000 0.000000 
#    y 0.000000 1.711550 0.000000 
#    z 0.000000 0.000000 1.686720 
# 
# From -- ./inp_files/18279.got.cif
#   From: 2010.03.12/outbox.cif.g09.slc.cpg/sg49_10_cif.got.tgz:18279.got - 2010.04.14 03:58:27.
