data_PCOD8204806
_publ_section_title
;
Structure prediction by ZEFSAII (Michael W. Deem and Ramdas Pophale) SiO2 
 PCOD8204806
Probable space group: P B A N
;
_chemical_formula_sum "Si O2"
_cell_formula_units_Z 60
_cell_length_a 5.265792
_cell_length_b 26.012353
_cell_length_c 25.687263
_cell_angle_alpha 90.000000
_cell_angle_beta 90.000000
_cell_angle_gamma 90.000000
_cell_volume 3518.529298
_symmetry_space_group_name_H-M "P B A N"
_symmetry_group_IT_number 50
_space_group.IT_coordinate_system_code '2'
_symmetry_cell_setting 'orthorhombic'
loop_
_space_group_symop_operation_xyz
x,y,z
1/2-x,1/2-y,z
x,1/2-y,-z
1/2-x,y,-z
-x,-y,-z
1/2+x,1/2+y,-z
-x,1/2+y,z
1/2+x,-y,z
loop_
_atom_site_type_symbol
_atom_site_label
_atom_site_fract_x
_atom_site_fract_y
_atom_site_fract_z
Si Si1 0.249194 0.192500 0.182755
Si Si2 0.751190 0.368107 0.182920
Si Si3 0.750000 0.466548 0.000000
Si Si4 0.238744 0.965569 0.112708
Si Si5 0.250891 0.939309 0.396732
Si Si6 0.750978 0.367736 0.305972
Si Si7 0.749128 0.551311 0.440061
Si Si8 0.749487 0.807342 0.306021
O O1 0.250000 0.250000 0.158704
O O2 0.500038 0.162555 0.163821
O O3 0.251502 0.196403 0.244273
O O4 0.995980 0.163247 0.164215
O O5 0.747364 0.423541 0.157227
O O6 0.751678 0.378094 0.244630
O O7 0.751971 0.436658 0.055578
O O8 0.500000 0.500000 0.000000
O O9 0.477158 0.003441 0.119376
O O10 0.250283 0.922299 0.336247
O O11 0.499988 0.916173 0.425741
O O12 0.002297 0.916246 0.425984
O O13 0.251501 0.000899 0.403027
O O14 0.503843 0.336300 0.324268
O O15 0.998778 0.336689 0.324621
O O16 0.750000 0.533982 0.500000
O O17 0.750000 0.750000 0.329934
#
# Coordination Sequence:
#
# PCOD8204806 Si02
#       8
#     8   8   4   8   8   8   8   8
#     4   9  17  30  49  69  91 124 164 202 241 276
#     4  10  19  31  46  70 100 128 160 197 232 297
#     4   8  16  30  50  66  89 116 169 220 244 260
#     4  10  19  33  48  71  95 131 166 205 240 281
#     4  10  18  30  45  67  92 119 143 186 225 258
#     4  10  19  30  44  69  99 121 150 185 222 283
#     4  10  19  33  50  66  89 117 156 193 217 251
#     4   9  17  30  47  64  90 124 154 189 227 262
#
# _framework density 17.052578
#
# number of rings (size 3 to 8) (size 9 to 14) (size 15 to 20)
#    0.000    2.400    0.000    4.400    0.000    3.200 
#    4.800    0.000    0.000    0.000    0.000    2.800 
#    0.000   61.867    0.000    0.000    0.000    0.000 
#
# Total GULP energy -743392.400077 kJ/mol
# GULP energy per Si atom -12389.873335 kJ/mol
# Density = 1.701377 g / cm^3
# Si number density = 17.052578 Si / 1000 Ang^3
#
#
#
# Elastic Constant Matrix: (Units=GPa)
#
#
# Indices 1 2 3 4 5 6 
#
# 1 160.9706 26.7490 31.4634 0.0000 0.0000 0.0000
# 2 26.7490 72.1005 46.6306 0.0000 0.0000 0.0000
# 3 31.4634 46.6306 70.4504 0.0000 0.0000 0.0000
# 4 0.0000 0.0000 0.0000 2.7905 0.0000 0.0000
# 5 0.0000 0.0000 0.0000 0.0000 14.1115 0.0000
# 6 0.0000 0.0000 0.0000 0.0000 0.0000 19.1116
#
#
#
# Elastic Compliance Matrix: (Units=1/GPa)
#
#
# Indices 1 2 3 4 5 6 
#
# 1 0.006846 -0.000983 -0.002407 0.000000 0.000000 0.000000
# 2 -0.000983 0.024392 -0.015706 0.000000 0.000000 0.000000
# 3 -0.002407 -0.015706 0.025665 0.000000 0.000000 0.000000
# 4 0.000000 0.000000 0.000000 0.358356 0.000000 0.000000
# 5 0.000000 0.000000 0.000000 0.000000 0.070864 0.000000
# 6 0.000000 0.000000 0.000000 0.000000 0.000000 0.052324
#
#
# Mechanical properties :
#
#
# Convention : Reuss Voigt Hill
#
# Bulk Modulus (GPa) = 53.44344 57.02307 55.23326
# Shear Modulus (GPa) = 8.57815 20.44794 14.51305
#
# Velocity S-wave (km/s) = 2.24529 3.46658 2.92049
# Velocity P-wave (km/s) = 6.17497 7.03811 6.62062
#
# Compressibility (1/GPa) = 0.01871137
#
# Stress axis : x y z
#
# Youngs Moduli (GPa) = 146.06798 40.99724 38.96426
#
# Poissons Ratio (x) = 0.04032 0.09377
# Poissons Ratio (y) = 0.14365 0.61196
# Poissons Ratio (z) = 0.35152 0.64389
#
# Static dielectric constant tensor:
#      x y z
#    x 4.301790 0.000000 0.000000 
#    y 0.000000 2.921820 0.000000 
#    z 0.000000 0.000000 3.064350 
# 
# 
# High freq. dielectric constant tensor:
#      x y z
#    x 1.698010 0.000000 0.000000 
#    y 0.000000 1.618860 0.000000 
#    z 0.000000 0.000000 1.626340 
# 
# From -- ./inp_files/31526.got.cif
#   From: 2010.03.12/outbox.cif.g09.slc.cpg/sg50_16_cif.got.tgz:31526.got - 2010.04.16 13:23:21.
