data_PCOD8204511
_publ_section_title
;
Structure prediction by ZEFSAII (Michael W. Deem and Ramdas Pophale) SiO2 
 PCOD8204511
Probable space group: P C C M
;
_chemical_formula_sum "Si O2"
_cell_formula_units_Z 40
_cell_length_a 12.155685
_cell_length_b 8.284010
_cell_length_c 18.162294
_cell_angle_alpha 90.000000
_cell_angle_beta 90.000000
_cell_angle_gamma 90.000000
_cell_volume 1828.903341
_symmetry_space_group_name_H-M "P C C M"
_symmetry_group_IT_number 49
_symmetry_cell_setting 'orthorhombic'
loop_
_space_group_symop_operation_xyz
x,y,z
-x,-y,z
x,-y,1/2-z
-x,y,1/2-z
-x,-y,-z
x,y,-z
-x,y,1/2+z
x,-y,1/2+z
loop_
_atom_site_type_symbol
_atom_site_label
_atom_site_fract_x
_atom_site_fract_y
_atom_site_fract_z
Si Si1 0.378522 0.387678 0.584231
Si Si2 0.442222 0.225038 0.823163
Si Si3 0.773249 0.395209 0.317068
Si Si4 0.679360 0.979714 0.581819
Si Si5 0.118936 0.071175 0.170965
O O1 0.402492 0.442413 0.500000
O O2 0.495164 0.368891 0.630454
O O3 0.279443 0.500253 0.615805
O O4 0.334141 0.208706 0.587365
O O5 0.500000 0.163286 0.750000
O O6 0.329604 0.292226 0.788694
O O7 0.415607 0.070345 0.873013
O O8 0.819483 0.500000 0.250000
O O9 0.872622 0.268597 0.334658
O O10 0.667500 0.047562 0.500000
O O11 0.801855 0.008991 0.608193
O O12 0.155672 0.000000 0.250000
O O13 0.000000 0.000000 0.151438
#
# Coordination Sequence:
#
# PCOD8204511 Si02
#       5
#     8   8   8   8   8
#     4  11  23  38  58  91 136 179 222 266 320 388
#     4  11  22  36  61  95 135 184 230 259 315 392
#     4  11  22  39  62  93 132 167 214 279 335 396
#     4  10  23  41  62  93 133 180 230 275 320 390
#     4  10  23  44  69  93 119 163 226 283 347 408
#
# _framework density 21.871030000000001
#
# number of rings (size 3 to 8) (size 9 to 14) (size 15 to 20)
#    0.000    1.400    2.000    3.000    2.800    7.600 
#    0.000    7.000    0.000    2.400    0.000    0.000 
#    0.000    0.000    0.000    0.000    0.000    0.000 
#
# Total GULP energy -495541.943110 kJ/mol
# GULP energy per Si atom -12388.548578 kJ/mol
# Density = 2.182125 g / cm^3
# Si number density = 21.871030 Si / 1000 Ang^3
#
#
#
# Elastic Constant Matrix: (Units=GPa)
#
#
# Indices 1 2 3 4 5 6 
#
# 1 109.2689 68.6022 49.2346 0.0000 0.0000 0.0000
# 2 68.6022 122.5828 45.9326 0.0000 0.0000 0.0000
# 3 49.2346 45.9326 108.5382 0.0000 0.0000 0.0000
# 4 0.0000 0.0000 0.0000 31.3629 0.0000 0.0000
# 5 0.0000 0.0000 0.0000 0.0000 25.2291 0.0000
# 6 0.0000 0.0000 0.0000 0.0000 0.0000 43.7242
#
#
#
# Elastic Compliance Matrix: (Units=1/GPa)
#
#
# Indices 1 2 3 4 5 6 
#
# 1 0.015429 -0.007145 -0.003975 0.000000 0.000000 0.000000
# 2 -0.007145 0.013004 -0.002262 0.000000 0.000000 0.000000
# 3 -0.003975 -0.002262 0.011974 0.000000 0.000000 0.000000
# 4 0.000000 0.000000 0.000000 0.031885 0.000000 0.000000
# 5 0.000000 0.000000 0.000000 0.000000 0.039637 0.000000
# 6 0.000000 0.000000 0.000000 0.000000 0.000000 0.022871
#
#
# Mechanical properties :
#
#
# Convention : Reuss Voigt Hill
#
# Bulk Modulus (GPa) = 73.30179 74.21430 73.75805
# Shear Modulus (GPa) = 30.10050 31.83794 30.96922
#
# Velocity S-wave (km/s) = 3.71384 3.81952 3.76705
# Velocity P-wave (km/s) = 7.20960 7.31150 7.26073
#
# Compressibility (1/GPa) = 0.01364223
#
# Stress axis : x y z
#
# Youngs Moduli (GPa) = 64.81455 76.89920 83.51606
#
# Poissons Ratio (x) = 0.54945 0.33197
# Poissons Ratio (y) = 0.46310 0.18892
# Poissons Ratio (z) = 0.25763 0.17395
#
# Static dielectric constant tensor:
#      x y z
#    x 3.820200 0.000000 0.000000 
#    y 0.000000 3.726020 0.000000 
#    z 0.000000 0.000000 4.152630 
# 
# 
# High freq. dielectric constant tensor:
#      x y z
#    x 1.836670 0.000000 0.000000 
#    y 0.000000 1.889640 0.000000 
#    z 0.000000 0.000000 1.856240 
# 
# From -- ./inp_files/16822.got.cif
#   From: 2010.03.12/outbox.cif.g09.slc.cpg/sg49_9_cif.got.tgz:16822.got - 2010.04.14 03:58:27.
