data_PCOD8204221
_publ_section_title
;
Structure prediction by ZEFSAII (Michael W. Deem and Ramdas Pophale) SiO2 
 PCOD8204221
Probable space group: P C C M
;
_chemical_formula_sum "Si O2"
_cell_formula_units_Z 48
_cell_length_a 30.509497
_cell_length_b 9.146176
_cell_length_c 8.642627
_cell_angle_alpha 90.000000
_cell_angle_beta 90.000000
_cell_angle_gamma 90.000000
_cell_volume 2411.683832
_symmetry_space_group_name_H-M "P C C M"
_symmetry_group_IT_number 49
_symmetry_cell_setting 'orthorhombic'
loop_
_space_group_symop_operation_xyz
x,y,z
-x,-y,z
x,-y,1/2-z
-x,y,1/2-z
-x,-y,-z
x,y,-z
-x,y,1/2+z
x,-y,1/2+z
loop_
_atom_site_type_symbol
_atom_site_label
_atom_site_fract_x
_atom_site_fract_y
_atom_site_fract_z
Si Si1 0.453921 0.344478 0.681218
Si Si2 0.708762 0.339604 0.683338
Si Si3 0.207734 0.159954 0.817713
Si Si4 0.876549 0.341535 0.316277
Si Si5 0.370303 0.839826 0.818215
Si Si6 0.047601 0.154491 0.683831
O O1 0.439261 0.500000 0.750000
O O2 0.500000 0.290407 0.750000
O O3 0.459265 0.365550 0.500000
O O4 0.418162 0.222478 0.722964
O O5 0.712878 0.500000 0.750000
O O6 0.707889 0.348077 0.500000
O O7 0.750274 0.247869 0.744968
O O8 0.664640 0.266186 0.741766
O O9 0.163664 0.240231 0.763591
O O10 0.208454 0.000000 0.750000
O O11 0.209666 0.148334 0.000000
O O12 0.866470 0.500000 0.250000
O O13 0.882294 0.346706 0.500000
O O14 0.920521 0.282359 0.237996
O O15 0.365462 0.000000 0.750000
O O16 0.361869 0.845152 0.000000
O O17 0.045549 0.145497 0.500000
O O18 0.000000 0.191784 0.750000
O O19 0.064774 0.000000 0.750000
#
# Coordination Sequence:
#
# PCOD8204221 Si02
#       6
#     8   8   8   8   8   8
#     4  10  21  37  59  85 114 149 192 238 290 346
#     4  11  23  40  62  89 119 155 196 241 290 346
#     4  10  23  40  61  88 119 154 195 240 290 345
#     4  11  23  40  60  87 120 156 197 243 293 347
#     4  11  24  40  59  86 118 155 195 241 292 347
#     4  11  22  39  62  89 119 155 197 243 293 349
#
# _framework density 19.903106000000001
#
# number of rings (size 3 to 8) (size 9 to 14) (size 15 to 20)
#    0.000    1.333    0.000    6.500    0.000   10.000 
#    0.000    3.333    0.000    0.000    0.000    0.000 
#    0.000    0.000    0.000    0.000    0.000    0.000 
#
# Total GULP energy -595478.319643 kJ/mol
# GULP energy per Si atom -12405.798326 kJ/mol
# Density = 1.985781 g / cm^3
# Si number density = 19.903106 Si / 1000 Ang^3
#
#
#
# Elastic Constant Matrix: (Units=GPa)
#
#
# Indices 1 2 3 4 5 6 
#
# 1 124.1903 79.5036 57.9276 0.0000 0.0000 0.0000
# 2 79.5036 168.6134 54.9218 0.0000 0.0000 0.0000
# 3 57.9276 54.9218 109.6237 0.0000 0.0000 0.0000
# 4 0.0000 0.0000 0.0000 38.6183 0.0000 0.0000
# 5 0.0000 0.0000 0.0000 0.0000 30.2251 0.0000
# 6 0.0000 0.0000 0.0000 0.0000 0.0000 369.1535
#
#
#
# Elastic Compliance Matrix: (Units=1/GPa)
#
#
# Indices 1 2 3 4 5 6 
#
# 1 0.013242 -0.004738 -0.004624 0.000000 0.000000 0.000000
# 2 -0.004738 0.008782 -0.001897 0.000000 0.000000 0.000000
# 3 -0.004624 -0.001897 0.012516 0.000000 0.000000 0.000000
# 4 0.000000 0.000000 0.000000 0.025894 0.000000 0.000000
# 5 0.000000 0.000000 0.000000 0.000000 0.033085 0.000000
# 6 0.000000 0.000000 0.000000 0.000000 0.000000 0.002709
#
#
# Mechanical properties :
#
#
# Convention : Reuss Voigt Hill
#
# Bulk Modulus (GPa) = 83.16701 87.45925 85.31313
# Shear Modulus (GPa) = 40.73266 101.60434 71.16850
#
# Velocity S-wave (km/s) = 4.52879 7.15264 5.98624
# Velocity P-wave (km/s) = 8.32005 10.59489 9.52562
#
# Compressibility (1/GPa) = 0.01202400
#
# Stress axis : x y z
#
# Youngs Moduli (GPa) = 75.51882 113.86514 79.90079
#
# Poissons Ratio (x) = 0.53945 0.36943
# Poissons Ratio (y) = 0.35778 0.15153
# Poissons Ratio (z) = 0.34917 0.21595
#
# Static dielectric constant tensor:
#      x y z
#    x 3.929850 0.000000 0.000000 
#    y 0.000000 3.634090 0.000000 
#    z 0.000000 0.000000 3.742360 
# 
# 
# High freq. dielectric constant tensor:
#      x y z
#    x 1.793500 0.000000 0.000000 
#    y 0.000000 1.785560 0.000000 
#    z 0.000000 0.000000 1.789240 
# 
# From -- ./inp_files/2041.got.cif
#   From: 2010.03.12/outbox.cif.g09.slc.cpg/sg49_2_cif.got.tgz:2041.got - 2010.04.14 03:58:27.
