data_PCOD8204874
_publ_section_title
;
Structure prediction by ZEFSAII (Michael W. Deem and Ramdas Pophale) SiO2 
 PCOD8204874
Probable space group: P B A N
;
_chemical_formula_sum "Si O2"
_cell_formula_units_Z 64
_cell_length_a 25.743082
_cell_length_b 8.894543
_cell_length_c 16.798419
_cell_angle_alpha 90.000000
_cell_angle_beta 90.000000
_cell_angle_gamma 90.000000
_cell_volume 3846.383550
_symmetry_space_group_name_H-M "P B A N"
_symmetry_group_IT_number 50
_space_group.IT_coordinate_system_code '2'
_symmetry_cell_setting 'orthorhombic'
loop_
_space_group_symop_operation_xyz
x,y,z
1/2-x,1/2-y,z
x,1/2-y,-z
1/2-x,y,-z
-x,-y,-z
1/2+x,1/2+y,-z
-x,1/2+y,z
1/2+x,-y,z
loop_
_atom_site_type_symbol
_atom_site_label
_atom_site_fract_x
_atom_site_fract_y
_atom_site_fract_z
Si Si1 0.249370 0.922029 0.905825
Si Si2 0.053074 0.427982 0.910218
Si Si3 0.552067 0.574435 0.090869
Si Si4 0.155611 0.427634 0.818920
Si Si5 0.688329 0.580707 0.500073
Si Si6 0.689039 0.074324 0.339028
Si Si7 0.189035 0.925235 0.660726
Si Si8 0.654586 0.571170 0.181469
O O1 0.250000 0.750000 0.875533
O O2 0.299280 0.005815 0.872892
O O3 0.197973 0.000917 0.874650
O O4 0.250000 0.932482 0.000000
O O5 0.045570 0.251411 0.906576
O O6 0.101213 0.479900 0.856483
O O7 0.000927 0.502872 0.875771
O O8 0.063119 0.481688 0.000871
O O9 0.599186 0.521639 0.146428
O O10 0.157614 0.491729 0.730114
O O11 0.161854 0.249265 0.817255
O O12 0.665996 0.750000 0.500000
O O13 0.750000 0.582866 0.500000
O O14 0.668560 0.493493 0.578002
O O15 0.668588 0.492831 0.422321
O O16 0.750028 0.043441 0.326378
O O17 0.676469 0.249781 0.338250
O O18 0.157585 0.007827 0.729734
#
# Coordination Sequence:
#
# PCOD8204874 Si02
#       8
#     8   8   8   8   8   8   8   8
#     4  11  23  35  47  68  99 134 169 203 247 301
#     4   9  19  35  53  73  96 126 167 213 257 297
#     4   9  19  35  53  73  96 126 167 213 257 297
#     4  11  21  33  51  73 100 132 168 207 249 297
#     4   9  17  29  47  69  96 131 170 203 242 291
#     4  10  19  31  47  70 102 134 167 204 245 293
#     4  10  19  31  47  70 102 134 167 204 245 293
#     4  11  21  33  51  73 100 132 168 207 249 297
#
# _framework density 16.639005000000001
#
# number of rings (size 3 to 8) (size 9 to 14) (size 15 to 20)
#    0.000    2.000    1.250    3.000    0.000    6.500 
#    0.000    2.500    0.000    0.000    0.000    0.875 
#    0.000    0.000    0.000    0.000    0.000    0.000 
#
# Total GULP energy -793791.321444 kJ/mol
# GULP energy per Si atom -12402.989398 kJ/mol
# Density = 1.660113 g / cm^3
# Si number density = 16.639005 Si / 1000 Ang^3
#
#
#
# Elastic Constant Matrix: (Units=GPa)
#
#
# Indices 1 2 3 4 5 6 
#
# 1 59.9284 20.8911 30.5919 0.0000 0.0000 0.0000
# 2 20.8911 74.8966 35.6774 0.0000 0.0000 0.0000
# 3 30.5919 35.6774 103.5211 0.0000 0.0000 0.0000
# 4 0.0000 0.0000 0.0000 32.9613 0.0000 0.0000
# 5 0.0000 0.0000 0.0000 0.0000 14.5148 0.0000
# 6 0.0000 0.0000 0.0000 0.0000 0.0000 24.8051
#
#
#
# Elastic Compliance Matrix: (Units=1/GPa)
#
#
# Indices 1 2 3 4 5 6 
#
# 1 0.020335 -0.003361 -0.004851 0.000000 0.000000 0.000000
# 2 -0.003361 0.016530 -0.004704 0.000000 0.000000 0.000000
# 3 -0.004851 -0.004704 0.012714 0.000000 0.000000 0.000000
# 4 0.000000 0.000000 0.000000 0.030339 0.000000 0.000000
# 5 0.000000 0.000000 0.000000 0.000000 0.068895 0.000000
# 6 0.000000 0.000000 0.000000 0.000000 0.000000 0.040314
#
#
# Mechanical properties :
#
#
# Convention : Reuss Voigt Hill
#
# Bulk Modulus (GPa) = 42.10942 45.85189 43.98065
# Shear Modulus (GPa) = 22.43425 24.53530 23.48477
#
# Velocity S-wave (km/s) = 3.67589 3.84417 3.76097
# Velocity P-wave (km/s) = 6.58626 6.87897 6.73421
#
# Compressibility (1/GPa) = 0.02374766
#
# Stress axis : x y z
#
# Youngs Moduli (GPa) = 49.17748 60.49655 78.65140
#
# Poissons Ratio (x) = 0.20335 0.38151
# Poissons Ratio (y) = 0.16530 0.36994
# Poissons Ratio (z) = 0.23855 0.28455
#
# Static dielectric constant tensor:
#      x y z
#    x 2.974750 0.000000 0.000000 
#    y 0.000000 3.269740 0.000000 
#    z 0.000000 0.000000 3.277260 
# 
# 
# High freq. dielectric constant tensor:
#      x y z
#    x 1.605990 0.000000 0.000000 
#    y 0.000000 1.656790 0.000000 
#    z 0.000000 0.000000 1.647630 
# 
# From -- ./inp_files/27517.got.cif
#   From: 2010.03.12/outbox.cif.g09.slc.cpg/sg50_14_cif.got.tgz:27517.got - 2010.04.16 13:23:21.
