data_PCOD8204262
_publ_section_title
;
Structure prediction by ZEFSAII (Michael W. Deem and Ramdas Pophale) SiO2 
 PCOD8204262
Probable space group: P C C M
;
_chemical_formula_sum "Si O2"
_cell_formula_units_Z 64
_cell_length_a 26.781675
_cell_length_b 6.709655
_cell_length_c 18.313850
_cell_angle_alpha 90.000000
_cell_angle_beta 90.000000
_cell_angle_gamma 90.000000
_cell_volume 3290.921919
_symmetry_space_group_name_H-M "P C C M"
_symmetry_group_IT_number 49
_symmetry_cell_setting 'orthorhombic'
loop_
_space_group_symop_operation_xyz
x,y,z
-x,-y,z
x,-y,1/2-z
-x,y,1/2-z
-x,-y,-z
x,y,-z
-x,y,1/2+z
x,-y,1/2+z
loop_
_atom_site_type_symbol
_atom_site_label
_atom_site_fract_x
_atom_site_fract_y
_atom_site_fract_z
Si Si1 0.443633 0.075630 0.173445
Si Si2 0.892320 0.445505 0.335130
Si Si3 0.695974 0.168325 0.584218
Si Si4 0.620117 0.434415 0.670560
Si Si5 0.043310 0.855877 0.418284
Si Si6 0.810768 0.816820 0.085989
Si Si7 0.626296 0.170485 0.082602
Si Si8 0.870994 0.829222 0.420923
O O1 0.415611 0.989317 0.103605
O O2 0.500000 0.000000 0.169177
O O3 0.419898 0.000000 0.250000
O O4 0.433139 0.314508 0.171315
O O5 0.894418 0.500000 0.250000
O O6 0.942215 0.327202 0.363402
O O7 0.842469 0.329514 0.360946
O O8 0.891746 0.665804 0.367404
O O9 0.685302 0.227223 0.500000
O O10 0.664186 0.302874 0.637948
O O11 0.753046 0.211115 0.604576
O O12 0.680361 0.935378 0.596114
O O13 0.637107 0.500000 0.750000
O O14 0.614539 0.633310 0.626011
O O15 0.027767 0.776065 0.500000
O O16 0.091657 0.987346 0.427010
O O17 0.000000 0.000000 0.385524
O O18 0.821247 0.051800 0.104164
O O19 0.822161 0.771412 0.000000
O O20 0.619607 0.232491 0.000000
O O21 0.863091 0.727279 0.500000
#
# Coordination Sequence:
#
# PCOD8204262 Si02
#       8
#     8   8   8   8   8   8   8   8
#     4  10  21  39  59  82 113 153 193 237 292 353
#     4  11  22  35  54  84 121 151 184 236 300 352
#     4   9  20  37  58  83 116 152 192 242 292 343
#     4  11  21  36  58  84 115 152 195 238 291 350
#     4   9  19  37  59  81 107 147 200 247 287 340
#     4   9  19  37  58  82 111 153 201 236 277 343
#     4  10  21  38  58  84 115 149 190 244 300 350
#     4   9  18  35  58  79 105 146 192 240 282 332
#
# _framework density 19.447437999999998
#
# number of rings (size 3 to 8) (size 9 to 14) (size 15 to 20)
#    0.000    2.250    1.250    2.250    0.000    5.250 
#    0.000    8.125    0.000    0.000    0.000    0.000 
#    0.000    0.000    0.000    0.000    0.000    0.000 
#
# Total GULP energy -792862.653682 kJ/mol
# GULP energy per Si atom -12388.478964 kJ/mol
# Density = 1.940317 g / cm^3
# Si number density = 19.447438 Si / 1000 Ang^3
#
#
#
# Elastic Constant Matrix: (Units=GPa)
#
#
# Indices 1 2 3 4 5 6 
#
# 1 89.2862 28.8267 37.0499 0.0000 0.0000 0.0000
# 2 28.8267 108.2101 61.4562 0.0000 0.0000 0.0000
# 3 37.0499 61.4562 117.2166 0.0000 0.0000 0.0000
# 4 0.0000 0.0000 0.0000 35.5666 0.0000 0.0000
# 5 0.0000 0.0000 0.0000 0.0000 21.8112 0.0000
# 6 0.0000 0.0000 0.0000 0.0000 0.0000 30.0520
#
#
#
# Elastic Compliance Matrix: (Units=1/GPa)
#
#
# Indices 1 2 3 4 5 6 
#
# 1 0.013087 -0.001619 -0.003288 0.000000 0.000000 0.000000
# 2 -0.001619 0.013360 -0.006493 0.000000 0.000000 0.000000
# 3 -0.003288 -0.006493 0.012975 0.000000 0.000000 0.000000
# 4 0.000000 0.000000 0.000000 0.028116 0.000000 0.000000
# 5 0.000000 0.000000 0.000000 0.000000 0.045848 0.000000
# 6 0.000000 0.000000 0.000000 0.000000 0.000000 0.033276
#
#
# Mechanical properties :
#
#
# Convention : Reuss Voigt Hill
#
# Bulk Modulus (GPa) = 60.16004 63.26427 61.71215
# Shear Modulus (GPa) = 28.57115 29.97795 29.27455
#
# Velocity S-wave (km/s) = 3.83710 3.93044 3.88405
# Velocity P-wave (km/s) = 7.11569 7.29378 7.20529
#
# Compressibility (1/GPa) = 0.01662233
#
# Stress axis : x y z
#
# Youngs Moduli (GPa) = 76.41221 74.84941 77.07389
#
# Poissons Ratio (x) = 0.12119 0.25339
# Poissons Ratio (y) = 0.12372 0.50043
# Poissons Ratio (z) = 0.25121 0.48599
#
# Static dielectric constant tensor:
#      x y z
#    x 3.612710 0.000000 0.000000 
#    y 0.000000 3.800950 0.000000 
#    z 0.000000 0.000000 3.533830 
# 
# 
# High freq. dielectric constant tensor:
#      x y z
#    x 1.746520 0.000000 0.000000 
#    y 0.000000 1.762750 0.000000 
#    z 0.000000 0.000000 1.753010 
# 
# From -- ./inp_files/18443.got.cif
#   From: 2010.03.12/outbox.cif.g09.slc.cpg/sg49_10_cif.got.tgz:18443.got - 2010.04.14 03:58:27.
