data_PCOD8204268
_publ_section_title
;
Structure prediction by ZEFSAII (Michael W. Deem and Ramdas Pophale) SiO2 
 PCOD8204268
Probable space group: P C C M
;
_chemical_formula_sum "Si O2"
_cell_formula_units_Z 48
_cell_length_a 30.289372
_cell_length_b 9.626381
_cell_length_c 8.754790
_cell_angle_alpha 90.000000
_cell_angle_beta 90.000000
_cell_angle_gamma 90.000000
_cell_volume 2552.695711
_symmetry_space_group_name_H-M "P C C M"
_symmetry_group_IT_number 49
_symmetry_cell_setting 'orthorhombic'
loop_
_space_group_symop_operation_xyz
x,y,z
-x,-y,z
x,-y,1/2-z
-x,y,1/2-z
-x,-y,-z
x,y,-z
-x,y,1/2+z
x,-y,1/2+z
loop_
_atom_site_type_symbol
_atom_site_label
_atom_site_fract_x
_atom_site_fract_y
_atom_site_fract_z
Si Si1 0.782909 0.347901 0.818817
Si Si2 0.612080 0.144556 0.677148
Si Si3 0.455195 0.348726 0.681206
Si Si4 0.284534 0.854527 0.323194
Si Si5 0.042263 0.848669 0.821606
Si Si6 0.860766 0.849444 0.678877
O O1 0.786135 0.500000 0.750000
O O2 0.738838 0.273082 0.760611
O O3 0.825006 0.259921 0.759523
O O4 0.781526 0.359065 0.000000
O O5 0.598688 0.147176 0.500000
O O6 0.587287 0.262797 0.769814
O O7 0.663769 0.169776 0.700502
O O8 0.597210 0.000000 0.750000
O O9 0.448832 0.500000 0.750000
O O10 0.500000 0.281051 0.750000
O O11 0.458810 0.356441 0.500000
O O12 0.271226 0.857237 0.500000
O O13 0.269157 0.000000 0.250000
O O14 0.090535 0.785185 0.782500
O O15 0.000000 0.764943 0.750000
O O16 0.042426 0.000000 0.750000
O O17 0.034491 0.858345 0.000000
O O18 0.855523 0.871304 0.500000
O O19 0.852498 0.000000 0.750000
#
# Coordination Sequence:
#
# PCOD8204268 Si02
#       6
#     8   8   8   8   8   8
#     4  11  23  38  55  77 106 140 179 222 268 318
#     4  10  21  38  59  85 114 144 180 222 270 320
#     4  11  22  38  59  83 113 149 188 228 271 319
#     4  10  21  38  60  84 111 142 177 220 268 320
#     4   9  15  25  42  68  99 128 162 205 254 304
#     4   9  19  33  51  75 103 135 171 213 260 313
#
# _framework density 18.803652
#
# number of rings (size 3 to 8) (size 9 to 14) (size 15 to 20)
#    0.000    2.000    0.000    5.000    0.000    6.333 
#    0.000    1.667    0.000    0.500    0.000    3.500 
#    0.000    0.000    0.000    0.000    0.000    0.000 
#
# Total GULP energy -595107.476446 kJ/mol
# GULP energy per Si atom -12398.072426 kJ/mol
# Density = 1.876085 g / cm^3
# Si number density = 18.803652 Si / 1000 Ang^3
#
#
#
# Elastic Constant Matrix: (Units=GPa)
#
#
# Indices 1 2 3 4 5 6 
#
# 1 97.2024 62.5424 55.5468 0.0000 0.0000 0.0000
# 2 62.5424 107.9530 51.4316 0.0000 0.0000 0.0000
# 3 55.5468 51.4316 123.3096 0.0000 0.0000 0.0000
# 4 0.0000 0.0000 0.0000 31.4297 0.0000 0.0000
# 5 0.0000 0.0000 0.0000 0.0000 23.2747 0.0000
# 6 0.0000 0.0000 0.0000 0.0000 0.0000 15.6003
#
#
#
# Elastic Compliance Matrix: (Units=1/GPa)
#
#
# Indices 1 2 3 4 5 6 
#
# 1 0.018431 -0.008389 -0.004803 0.000000 0.000000 0.000000
# 2 -0.008389 0.015379 -0.002635 0.000000 0.000000 0.000000
# 3 -0.004803 -0.002635 0.011373 0.000000 0.000000 0.000000
# 4 0.000000 0.000000 0.000000 0.031817 0.000000 0.000000
# 5 0.000000 0.000000 0.000000 0.000000 0.042965 0.000000
# 6 0.000000 0.000000 0.000000 0.000000 0.000000 0.064101
#
#
# Mechanical properties :
#
#
# Convention : Reuss Voigt Hill
#
# Bulk Modulus (GPa) = 73.92969 74.16738 74.04854
# Shear Modulus (GPa) = 22.70348 24.65722 23.68035
#
# Velocity S-wave (km/s) = 3.47853 3.62512 3.55258
# Velocity P-wave (km/s) = 7.45222 7.55319 7.50287
#
# Compressibility (1/GPa) = 0.01352636
#
# Stress axis : x y z
#
# Youngs Moduli (GPa) = 54.25781 65.02272 87.93073
#
# Poissons Ratio (x) = 0.54550 0.42235
# Poissons Ratio (y) = 0.45519 0.23174
# Poissons Ratio (z) = 0.26061 0.17137
#
# Static dielectric constant tensor:
#      x y z
#    x 4.219660 0.000000 0.000000 
#    y 0.000000 3.209170 0.000000 
#    z 0.000000 0.000000 3.596160 
# 
# 
# High freq. dielectric constant tensor:
#      x y z
#    x 1.750530 0.000000 0.000000 
#    y 0.000000 1.700210 0.000000 
#    z 0.000000 0.000000 1.746240 
# 
# From -- ./inp_files/6854.got.cif
#   From: 2010.03.12/outbox.cif.g09.slc.cpg/sg49_4_cif.got.tgz:6854.got - 2010.04.14 03:58:27.
