data_PCOD8204421
_publ_section_title
;
Structure prediction by ZEFSAII (Michael W. Deem and Ramdas Pophale) SiO2 
 PCOD8204421
Probable space group: P C C M
;
_chemical_formula_sum "Si O2"
_cell_formula_units_Z 52
_cell_length_a 20.548119
_cell_length_b 9.477907
_cell_length_c 14.236703
_cell_angle_alpha 90.000000
_cell_angle_beta 90.000000
_cell_angle_gamma 90.000000
_cell_volume 2772.642910
_symmetry_space_group_name_H-M "P C C M"
_symmetry_group_IT_number 49
_symmetry_cell_setting 'orthorhombic'
loop_
_space_group_symop_operation_xyz
x,y,z
-x,-y,z
x,-y,1/2-z
-x,y,1/2-z
-x,-y,-z
x,y,-z
-x,y,1/2+z
x,-y,1/2+z
loop_
_atom_site_type_symbol
_atom_site_label
_atom_site_fract_x
_atom_site_fract_y
_atom_site_fract_z
Si Si1 0.001396 0.667008 0.896160
Si Si2 0.248514 0.777237 0.256450
Si Si3 0.436685 0.589212 0.110634
Si Si4 0.297728 0.014471 0.610157
Si Si5 0.442468 0.906202 0.890043
Si Si6 0.893886 0.666895 0.751609
Si Si7 0.669261 0.500000 0.750000
O O1 0.936599 0.713997 0.841302
O O2 0.000000 0.500000 0.902253
O O3 0.066710 0.713114 0.841655
O O4 0.001764 0.735507 0.000000
O O5 0.267566 0.875500 0.343991
O O6 0.171680 0.754993 0.256911
O O7 0.285116 0.631684 0.269687
O O8 0.267017 0.846467 0.156822
O O9 0.500000 0.500000 0.138135
O O10 0.444226 0.747810 0.151412
O O11 0.374470 0.517873 0.157761
O O12 0.423618 0.588187 0.000000
O O13 0.282281 0.017397 0.500000
O O14 0.374823 0.015502 0.631170
O O15 0.500000 0.000000 0.844059
O O16 0.455063 0.891593 0.000000
O O17 0.879590 0.500000 0.750000
#
# Coordination Sequence:
#
# PCOD8204421 Si02
#       7
#     8   8   8   8   8   8   4
#     4   8  15  29  52  82 116 151 188 227 277 340
#     4  11  23  38  59  86 118 155 192 235 289 351
#     4  10  22  39  58  83 116 149 187 246 303 343
#     4  10  23  43  59  78 113 158 200 238 284 347
#     4   9  18  36  60  79 101 144 197 240 284 339
#     4   9  17  32  53  83 121 151 180 234 290 334
#     4  12  23  38  58  89 118 148 192 240 296 357
#
# _framework density 18.754670000000001
#
# number of rings (size 3 to 8) (size 9 to 14) (size 15 to 20)
#    0.000    2.308    2.308    1.154    2.154    1.846 
#    0.000    1.538    0.000    7.385    0.000    8.615 
#    0.000    0.000    0.000    0.000    0.000    0.000 
#
# Total GULP energy -644795.213013 kJ/mol
# GULP energy per Si atom -12399.907943 kJ/mol
# Density = 1.871198 g / cm^3
# Si number density = 18.754670 Si / 1000 Ang^3
#
#
#
# Elastic Constant Matrix: (Units=GPa)
#
#
# Indices 1 2 3 4 5 6 
#
# 1 168.4271 67.2788 67.2819 0.0000 0.0000 0.0000
# 2 67.2788 111.0254 46.2868 0.0000 0.0000 0.0000
# 3 67.2819 46.2868 124.1535 0.0000 0.0000 0.0000
# 4 0.0000 0.0000 0.0000 22.0795 0.0000 0.0000
# 5 0.0000 0.0000 0.0000 0.0000 17.8847 0.0000
# 6 0.0000 0.0000 0.0000 0.0000 0.0000 33.5938
#
#
#
# Elastic Compliance Matrix: (Units=1/GPa)
#
#
# Indices 1 2 3 4 5 6 
#
# 1 0.008851 -0.003983 -0.003312 0.000000 0.000000 0.000000
# 2 -0.003983 0.012457 -0.002486 0.000000 0.000000 0.000000
# 3 -0.003312 -0.002486 0.010776 0.000000 0.000000 0.000000
# 4 0.000000 0.000000 0.000000 0.045291 0.000000 0.000000
# 5 0.000000 0.000000 0.000000 0.000000 0.055914 0.000000
# 6 0.000000 0.000000 0.000000 0.000000 0.000000 0.029767
#
#
# Mechanical properties :
#
#
# Convention : Reuss Voigt Hill
#
# Bulk Modulus (GPa) = 79.85172 85.03345 82.44259
# Shear Modulus (GPa) = 26.76781 29.56214 28.16498
#
# Velocity S-wave (km/s) = 3.78201 3.97451 3.87946
# Velocity P-wave (km/s) = 7.85754 8.15479 8.00754
#
# Compressibility (1/GPa) = 0.01252321
#
# Stress axis : x y z
#
# Youngs Moduli (GPa) = 112.97818 80.27735 92.79879
#
# Poissons Ratio (x) = 0.31974 0.30733
# Poissons Ratio (y) = 0.44999 0.23067
# Poissons Ratio (z) = 0.37416 0.19954
#
# Static dielectric constant tensor:
#      x y z
#    x 3.449840 0.000000 0.000000 
#    y 0.000000 3.344490 0.000000 
#    z 0.000000 0.000000 3.670510 
# 
# 
# High freq. dielectric constant tensor:
#      x y z
#    x 1.732150 0.000000 0.000000 
#    y 0.000000 1.714420 0.000000 
#    z 0.000000 0.000000 1.729810 
# 
# From -- ./inp_files/14325.got.cif
#   From: 2010.03.12/outbox.cif.g09.slc.cpg/sg49_8_cif.got.tgz:14325.got - 2010.04.14 03:58:27.
