data_PCOD8204366
_publ_section_title
;
Structure prediction by ZEFSAII (Michael W. Deem and Ramdas Pophale) SiO2 
 PCOD8204366
Probable space group: P C C M
;
_chemical_formula_sum "Si O2"
_cell_formula_units_Z 26
_cell_length_a 15.151913
_cell_length_b 8.828881
_cell_length_c 10.148246
_cell_angle_alpha 90.000000
_cell_angle_beta 90.000000
_cell_angle_gamma 90.000000
_cell_volume 1357.575893
_symmetry_space_group_name_H-M "P C C M"
_symmetry_group_IT_number 49
_symmetry_cell_setting 'orthorhombic'
loop_
_space_group_symop_operation_xyz
x,y,z
-x,-y,z
x,-y,1/2-z
-x,y,1/2-z
-x,-y,-z
x,y,-z
-x,y,1/2+z
x,-y,1/2+z
loop_
_atom_site_type_symbol
_atom_site_label
_atom_site_fract_x
_atom_site_fract_y
_atom_site_fract_z
Si Si1 0.811704 0.821745 0.239654
Si Si2 0.881117 0.664639 0.500000
Si Si3 0.500000 0.500000 0.250000
Si Si4 0.089052 0.316347 0.000000
Si Si5 0.330678 0.378957 0.850373
O O1 0.834902 0.740325 0.375240
O O2 0.711391 0.781186 0.192867
O O3 0.818008 0.000000 0.250000
O O4 0.880504 0.768239 0.130633
O O5 0.868819 0.483850 0.500000
O O6 0.984606 0.694442 0.500000
O O7 0.562356 0.612127 0.163433
O O8 0.286584 0.500000 0.750000
O O9 0.304285 0.417365 0.000000
#
# Coordination Sequence:
#
# PCOD8204366 Si02
#       5
#     8   4   2   4   8
#     4  12  25  39  62  95 132 169 203 259 328 375
#     4  11  25  41  67  91 122 171 220 260 299 371
#     4   8  22  36  72 100 116 164 220 260 318 376
#     4  11  23  45  63  91 124 167 224 262 299 367
#     4  10  21  40  66  95 126 159 216 259 311 386
#
# _framework density 19.151782999999998
#
# number of rings (size 3 to 8) (size 9 to 14) (size 15 to 20)
#    0.923    0.308    1.538    5.077    2.154    6.154 
#    0.000    0.769    0.000    1.846    0.000    0.000 
#    0.000    0.000    0.000    0.000    0.000    0.000 
#
# Total GULP energy -322194.595108 kJ/mol
# GULP energy per Si atom -12392.099812 kJ/mol
# Density = 1.910819 g / cm^3
# Si number density = 19.151783 Si / 1000 Ang^3
#
#
#
# Elastic Constant Matrix: (Units=GPa)
#
#
# Indices 1 2 3 4 5 6 
#
# 1 117.1664 52.4092 47.8319 0.0000 0.0000 0.0000
# 2 52.4092 146.4685 71.0334 0.0000 0.0000 0.0000
# 3 47.8319 71.0334 183.2702 0.0000 0.0000 0.0000
# 4 0.0000 0.0000 0.0000 36.2610 0.0000 0.0000
# 5 0.0000 0.0000 0.0000 0.0000 35.3536 0.0000
# 6 0.0000 0.0000 0.0000 0.0000 0.0000 18.7908
#
#
#
# Elastic Compliance Matrix: (Units=1/GPa)
#
#
# Indices 1 2 3 4 5 6 
#
# 1 0.010522 -0.002996 -0.001585 0.000000 0.000000 0.000000
# 2 -0.002996 0.009261 -0.002807 0.000000 0.000000 0.000000
# 3 -0.001585 -0.002807 0.006958 0.000000 0.000000 0.000000
# 4 0.000000 0.000000 0.000000 0.027578 0.000000 0.000000
# 5 0.000000 0.000000 0.000000 0.000000 0.028286 0.000000
# 6 0.000000 0.000000 0.000000 0.000000 0.000000 0.053217
#
#
# Mechanical properties :
#
#
# Convention : Reuss Voigt Hill
#
# Bulk Modulus (GPa) = 83.58359 87.71710 85.65034
# Shear Modulus (GPa) = 32.34405 36.45646 34.40025
#
# Velocity S-wave (km/s) = 4.11399 4.36771 4.24275
# Velocity P-wave (km/s) = 8.14273 8.44608 8.29579
#
# Compressibility (1/GPa) = 0.01196407
#
# Stress axis : x y z
#
# Youngs Moduli (GPa) = 95.03737 107.97812 143.71564
#
# Poissons Ratio (x) = 0.32355 0.22776
# Poissons Ratio (y) = 0.28477 0.40348
# Poissons Ratio (z) = 0.15062 0.30314
#
# Static dielectric constant tensor:
#      x y z
#    x 3.539070 0.000000 0.000000 
#    y 0.000000 3.383630 0.000000 
#    z 0.000000 0.000000 3.650410 
# 
# 
# High freq. dielectric constant tensor:
#      x y z
#    x 1.751160 0.000000 0.000000 
#    y 0.000000 1.724220 0.000000 
#    z 0.000000 0.000000 1.766930 
# 
# From -- ./inp_files/1218.got.cif
#   From: 2010.03.12/outbox.cif.g09.slc.cpg/sg49_1_cif.got.tgz:1218.got - 2010.04.14 03:58:27.
