data_PCOD8204805
_publ_section_title
;
Structure prediction by ZEFSAII (Michael W. Deem and Ramdas Pophale) SiO2 
 PCOD8204805
Probable space group: P B A N
;
_chemical_formula_sum "Si O2"
_cell_formula_units_Z 40
_cell_length_a 17.188507
_cell_length_b 11.961441
_cell_length_c 7.320353
_cell_angle_alpha 90.000000
_cell_angle_beta 90.000000
_cell_angle_gamma 90.000000
_cell_volume 1505.059543
_symmetry_space_group_name_H-M "P B A N"
_symmetry_group_IT_number 50
_space_group.IT_coordinate_system_code '2'
_symmetry_cell_setting 'orthorhombic'
loop_
_space_group_symop_operation_xyz
x,y,z
1/2-x,1/2-y,z
x,1/2-y,-z
1/2-x,y,-z
-x,-y,-z
1/2+x,1/2+y,-z
-x,1/2+y,z
1/2+x,-y,z
loop_
_atom_site_type_symbol
_atom_site_label
_atom_site_fract_x
_atom_site_fract_y
_atom_site_fract_z
Si Si1 0.456548 0.366458 0.373645
Si Si2 0.874760 0.043287 0.430391
Si Si3 0.765250 0.119889 0.760884
Si Si4 0.399609 0.972127 0.949351
Si Si5 0.542214 0.663256 0.144650
O O1 0.546535 0.386437 0.416526
O O2 0.399639 0.413480 0.534689
O O3 0.427989 0.435301 0.196639
O O4 0.451752 0.230655 0.339475
O O5 0.824450 0.096507 0.595206
O O6 0.817821 0.056932 0.256234
O O7 0.750000 0.250000 0.784503
O O8 0.810524 0.069501 0.937755
O O9 0.453883 0.863147 0.921714
O O10 0.412938 0.041613 0.142536
O O11 0.579060 0.750000 0.000000
#
# Coordination Sequence:
#
# PCOD8204805 Si02
#       5
#     8   8   8   8   8
#     4   9  17  30  49  77 112 153 205 255 298 363
#     4   9  17  28  45  76 114 151 196 255 315 370
#     4  10  18  29  49  80 119 157 194 252 321 374
#     4   9  18  31  51  79 110 152 202 252 304 364
#     4   9  17  31  51  74 108 153 208 256 293 351
#
# _framework density 26.577023000000001
#
# number of rings (size 3 to 8) (size 9 to 14) (size 15 to 20)
#    0.000    2.800    0.000    2.400    0.000    1.600 
#    0.000    3.000    0.000   22.200    0.000   49.000 
#    0.000    0.000    0.000    0.000    0.000  156.800 
#
# Total GULP energy -495671.192931 kJ/mol
# GULP energy per Si atom -12391.779823 kJ/mol
# Density = 2.651653 g / cm^3
# Si number density = 26.577023 Si / 1000 Ang^3
#
#
#
# Elastic Constant Matrix: (Units=GPa)
#
#
# Indices 1 2 3 4 5 6 
#
# 1 205.0299 94.5617 52.7924 0.0000 0.0000 0.0000
# 2 94.5617 215.8643 75.3945 0.0000 0.0000 0.0000
# 3 52.7924 75.3945 118.0296 0.0000 0.0000 0.0000
# 4 0.0000 0.0000 0.0000 54.7035 0.0000 0.0000
# 5 0.0000 0.0000 0.0000 0.0000 36.5571 0.0000
# 6 0.0000 0.0000 0.0000 0.0000 0.0000 32.9816
#
#
#
# Elastic Compliance Matrix: (Units=1/GPa)
#
#
# Indices 1 2 3 4 5 6 
#
# 1 0.006276 -0.002277 -0.001353 0.000000 0.000000 0.000000
# 2 -0.002277 0.006789 -0.003318 0.000000 0.000000 0.000000
# 3 -0.001353 -0.003318 0.011197 0.000000 0.000000 0.000000
# 4 0.000000 0.000000 0.000000 0.018280 0.000000 0.000000
# 5 0.000000 0.000000 0.000000 0.000000 0.027354 0.000000
# 6 0.000000 0.000000 0.000000 0.000000 0.000000 0.030320
#
#
# Mechanical properties :
#
#
# Convention : Reuss Voigt Hill
#
# Bulk Modulus (GPa) = 96.46573 109.38012 102.92292
# Shear Modulus (GPa) = 42.52897 45.92679 44.22788
#
# Velocity S-wave (km/s) = 4.00461 4.16151 4.08381
# Velocity P-wave (km/s) = 7.59987 8.02098 7.81326
#
# Compressibility (1/GPa) = 0.01036638
#
# Stress axis : x y z
#
# Youngs Moduli (GPa) = 159.34577 147.30136 89.30898
#
# Poissons Ratio (x) = 0.33536 0.12081
# Poissons Ratio (y) = 0.36278 0.29635
# Poissons Ratio (z) = 0.21555 0.48878
#
# Static dielectric constant tensor:
#      x y z
#    x 5.159910 0.000000 0.000000 
#    y 0.000000 5.167330 0.000000 
#    z 0.000000 0.000000 6.052680 
# 
# 
# High freq. dielectric constant tensor:
#      x y z
#    x 2.054550 0.000000 0.000000 
#    y 0.000000 2.082640 0.000000 
#    z 0.000000 0.000000 2.136890 
# 
# From -- ./inp_files/13910.got.cif
#   From: 2010.03.12/outbox.cif.g09.slc.cpg/sg50_7_cif.got.tgz:13910.got - 2010.04.16 13:23:21.
