data_PCOD8204564
_publ_section_title
;
Structure prediction by ZEFSAII (Michael W. Deem and Ramdas Pophale) SiO2 
 PCOD8204564
Probable space group: P C C M
;
_chemical_formula_sum "Si O2"
_cell_formula_units_Z 56
_cell_length_a 9.244148
_cell_length_b 15.189954
_cell_length_c 20.023912
_cell_angle_alpha 90.000000
_cell_angle_beta 90.000000
_cell_angle_gamma 90.000000
_cell_volume 2811.721337
_symmetry_space_group_name_H-M "P C C M"
_symmetry_group_IT_number 49
_symmetry_cell_setting 'orthorhombic'
loop_
_space_group_symop_operation_xyz
x,y,z
-x,-y,z
x,-y,1/2-z
-x,y,1/2-z
-x,-y,-z
x,y,-z
-x,y,1/2+z
x,-y,1/2+z
loop_
_atom_site_type_symbol
_atom_site_label
_atom_site_fract_x
_atom_site_fract_y
_atom_site_fract_z
Si Si1 0.267352 0.450513 0.924719
Si Si2 0.422413 0.371895 0.425780
Si Si3 0.154685 0.586099 0.285765
Si Si4 0.718886 0.219887 0.710750
Si Si5 0.579905 0.793107 0.651401
Si Si6 0.156057 0.956681 0.684346
Si Si7 0.343305 0.960103 0.926392
O O1 0.416870 0.402867 0.905725
O O2 0.301555 0.553309 0.924224
O O3 0.149126 0.429709 0.866603
O O4 0.212176 0.423627 0.000000
O O5 0.431246 0.331388 0.500000
O O6 0.365676 0.301484 0.373178
O O7 0.232180 0.500000 0.250000
O O8 0.233479 0.679581 0.276932
O O9 0.000000 0.594030 0.250000
O O10 0.595410 0.210373 0.654058
O O11 0.648718 0.184242 0.778170
O O12 0.847691 0.150754 0.691911
O O13 0.642919 0.861473 0.599139
O O14 0.230357 0.000000 0.750000
O O15 0.245645 0.978460 0.619126
O O16 0.000000 0.000000 0.676173
O O17 0.500000 0.000000 0.928249
O O18 0.273173 0.958297 0.000000
#
# Coordination Sequence:
#
# PCOD8204564 Si02
#       7
#     8   8   8   8   8   8   8
#     4   9  18  36  59  86 121 163 207 254 312 373
#     4   9  17  32  58  90 124 157 197 254 319 380
#     4  11  24  41  59  87 130 168 208 260 307 371
#     4  11  23  37  62  93 123 163 212 261 313 378
#     4  11  20  35  59  94 126 158 203 262 323 378
#     4  11  24  43  66  89 120 173 219 260 307 380
#     4  11  23  39  62  93 130 161 200 268 331 374
#
# _framework density 19.916623999999999
#
# number of rings (size 3 to 8) (size 9 to 14) (size 15 to 20)
#    0.000    1.571    4.286    2.143    2.000    0.571 
#    0.000    2.143    0.000    3.429    0.000    0.000 
#    0.000    0.000    0.000    0.000    0.000    0.000 
#
# Total GULP energy -693838.949781 kJ/mol
# GULP energy per Si atom -12389.981246 kJ/mol
# Density = 1.987129 g / cm^3
# Si number density = 19.916624 Si / 1000 Ang^3
#
#
#
# Elastic Constant Matrix: (Units=GPa)
#
#
# Indices 1 2 3 4 5 6 
#
# 1 66.1059 31.0836 39.7501 0.0000 0.0000 0.0000
# 2 31.0836 145.2893 40.4909 0.0000 0.0000 0.0000
# 3 39.7501 40.4909 137.2481 0.0000 0.0000 0.0000
# 4 0.0000 0.0000 0.0000 34.7768 0.0000 0.0000
# 5 0.0000 0.0000 0.0000 0.0000 33.8146 0.0000
# 6 0.0000 0.0000 0.0000 0.0000 0.0000 24.3553
#
#
#
# Elastic Compliance Matrix: (Units=1/GPa)
#
#
# Indices 1 2 3 4 5 6 
#
# 1 0.019311 -0.002803 -0.004766 0.000000 0.000000 0.000000
# 2 -0.002803 0.007906 -0.001521 0.000000 0.000000 0.000000
# 3 -0.004766 -0.001521 0.009115 0.000000 0.000000 0.000000
# 4 0.000000 0.000000 0.000000 0.028755 0.000000 0.000000
# 5 0.000000 0.000000 0.000000 0.000000 0.029573 0.000000
# 6 0.000000 0.000000 0.000000 0.000000 0.000000 0.041059
#
#
# Mechanical properties :
#
#
# Convention : Reuss Voigt Hill
#
# Bulk Modulus (GPa) = 55.08776 63.47696 59.28236
# Shear Modulus (GPa) = 31.25980 34.41058 32.83519
#
# Velocity S-wave (km/s) = 3.96603 4.16111 4.06474
# Velocity P-wave (km/s) = 6.97795 7.41802 7.20134
#
# Compressibility (1/GPa) = 0.01815285
#
# Stress axis : x y z
#
# Youngs Moduli (GPa) = 51.78356 126.48070 109.70919
#
# Poissons Ratio (x) = 0.35456 0.52287
# Poissons Ratio (y) = 0.14516 0.16683
# Poissons Ratio (z) = 0.24680 0.19233
#
# Static dielectric constant tensor:
#      x y z
#    x 3.195250 0.000000 0.000000 
#    y 0.000000 3.586200 0.000000 
#    z 0.000000 0.000000 4.045400 
# 
# 
# High freq. dielectric constant tensor:
#      x y z
#    x 1.737580 0.000000 0.000000 
#    y 0.000000 1.788440 0.000000 
#    z 0.000000 0.000000 1.787100 
# 
# From -- ./inp_files/19913.got.cif
#   From: 2010.03.12/outbox.cif.g09.slc.cpg/sg49_10_cif.got.tgz:19913.got - 2010.04.14 03:58:27.
