data_PCOD8204200
_publ_section_title
;
Structure prediction by ZEFSAII (Michael W. Deem and Ramdas Pophale) SiO2 
 PCOD8204200
Probable space group: P C C M
;
_chemical_formula_sum "Si O2"
_cell_formula_units_Z 36
_cell_length_a 10.939432
_cell_length_b 17.693004
_cell_length_c 8.975389
_cell_angle_alpha 90.000000
_cell_angle_beta 90.000000
_cell_angle_gamma 90.000000
_cell_volume 1737.199233
_symmetry_space_group_name_H-M "P C C M"
_symmetry_group_IT_number 49
_symmetry_cell_setting 'orthorhombic'
loop_
_space_group_symop_operation_xyz
x,y,z
-x,-y,z
x,-y,1/2-z
-x,y,1/2-z
-x,-y,-z
x,y,-z
-x,y,1/2+z
x,-y,1/2+z
loop_
_atom_site_type_symbol
_atom_site_label
_atom_site_fract_x
_atom_site_fract_y
_atom_site_fract_z
Si Si1 0.124246 0.345757 0.321814
Si Si2 0.500000 0.296058 0.750000
Si Si3 0.645620 0.431242 0.159360
Si Si4 0.128235 0.918765 0.819781
Si Si5 0.742919 0.788180 0.172182
O O1 0.116697 0.336439 0.500000
O O2 0.225002 0.406755 0.271029
O O3 0.159049 0.266678 0.247642
O O4 0.000000 0.375537 0.250000
O O5 0.562125 0.355978 0.863244
O O6 0.396540 0.242265 0.820086
O O7 0.585543 0.500000 0.250000
O O8 0.667537 0.467618 0.000000
O O9 0.240051 0.865780 0.764402
O O10 0.000000 0.888974 0.750000
O O11 0.156888 0.000000 0.750000
O O12 0.121833 0.921872 0.000000
O O13 0.777147 0.800414 0.000000
#
# Coordination Sequence:
#
# PCOD8204200 Si02
#       5
#     8   4   8   8   8
#     4  10  21  37  56  82 115 150 192 239 292 350
#     4  10  23  40  61  84 112 150 196 242 285 340
#     4  10  22  38  57  82 111 146 189 239 292 347
#     4  11  22  39  63  92 125 157 193 234 282 338
#     4  11  22  38  61  87 117 154 195 239 289 341
#
# _framework density 20.723009999999999
#
# number of rings (size 3 to 8) (size 9 to 14) (size 15 to 20)
#    0.000    1.556    0.000    5.667    0.000    9.333 
#    0.000    2.778    0.000    2.667    0.000    0.000 
#    0.000    0.000    0.000    0.000    0.000    0.000 
#
# Total GULP energy -446026.796577 kJ/mol
# GULP energy per Si atom -12389.633238 kJ/mol
# Density = 2.067584 g / cm^3
# Si number density = 20.723010 Si / 1000 Ang^3
#
#
#
# Elastic Constant Matrix: (Units=GPa)
#
#
# Indices 1 2 3 4 5 6 
#
# 1 135.6909 57.1139 42.1133 0.0000 0.0000 0.0000
# 2 57.1139 119.5050 59.1378 0.0000 0.0000 0.0000
# 3 42.1133 59.1378 149.4609 0.0000 0.0000 0.0000
# 4 0.0000 0.0000 0.0000 23.9286 0.0000 0.0000
# 5 0.0000 0.0000 0.0000 0.0000 37.1624 0.0000
# 6 0.0000 0.0000 0.0000 0.0000 0.0000 -18.7828
#
#
#
# Elastic Compliance Matrix: (Units=1/GPa)
#
#
# Indices 1 2 3 4 5 6 
#
# 1 0.009363 -0.003941 -0.001079 0.000000 0.000000 0.000000
# 2 -0.003941 0.012064 -0.003663 0.000000 0.000000 0.000000
# 3 -0.001079 -0.003663 0.008444 0.000000 0.000000 0.000000
# 4 0.000000 0.000000 0.000000 0.041791 0.000000 0.000000
# 5 0.000000 0.000000 0.000000 0.000000 0.026909 0.000000
# 6 0.000000 0.000000 0.000000 0.000000 0.000000 -0.053240
#
#
# Mechanical properties :
#
#
# Convention : Reuss Voigt Hill
#
# Bulk Modulus (GPa) = 79.96426 80.15407 80.05916
# Shear Modulus (GPa) = 74.77674 24.88107 49.82890
#
# Velocity S-wave (km/s) = 6.01351 3.46880 4.90891
# Velocity P-wave (km/s) = 9.32134 7.40312 8.41705
#
# Compressibility (1/GPa) = 0.01250559
#
# Stress axis : x y z
#
# Youngs Moduli (GPa) = 106.79900 82.89134 118.42649
#
# Poissons Ratio (x) = 0.32668 0.12777
# Poissons Ratio (y) = 0.42090 0.43379
# Poissons Ratio (z) = 0.11523 0.30363
#
# Static dielectric constant tensor:
#      x y z
#    x 3.841720 0.000000 0.000000 
#    y 0.000000 3.799900 0.000000 
#    z 0.000000 0.000000 3.752090 
# 
# 
# High freq. dielectric constant tensor:
#      x y z
#    x 1.814170 0.000000 0.000000 
#    y 0.000000 1.805480 0.000000 
#    z 0.000000 0.000000 1.818660 
# 
# From -- ./inp_files/2683.got.cif
#   From: 2010.03.12/outbox.cif.g09.slc.cpg/sg49_2_cif.got.tgz:2683.got - 2010.04.14 03:58:27.
