data_PCOD8204190
_publ_section_title
;
Structure prediction by ZEFSAII (Michael W. Deem and Ramdas Pophale) SiO2 
 PCOD8204190
Probable space group: P C C M
;
_chemical_formula_sum "Si O2"
_cell_formula_units_Z 58
_cell_length_a 12.878584
_cell_length_b 25.685798
_cell_length_c 8.864632
_cell_angle_alpha 90.000000
_cell_angle_beta 90.000000
_cell_angle_gamma 90.000000
_cell_volume 2932.391076
_symmetry_space_group_name_H-M "P C C M"
_symmetry_group_IT_number 49
_symmetry_cell_setting 'orthorhombic'
loop_
_space_group_symop_operation_xyz
x,y,z
-x,-y,z
x,-y,1/2-z
-x,y,1/2-z
-x,-y,-z
x,y,-z
-x,y,1/2+z
x,-y,1/2+z
loop_
_atom_site_type_symbol
_atom_site_label
_atom_site_fract_x
_atom_site_fract_y
_atom_site_fract_z
Si Si1 0.807692 0.206200 0.175446
Si Si2 0.896707 0.888665 0.178102
Si Si3 0.396157 0.443683 0.681173
Si Si4 0.176627 0.581558 0.329368
Si Si5 0.398524 0.842970 0.170260
Si Si6 0.102852 0.314576 0.675329
Si Si7 0.292264 0.947042 0.173822
Si Si8 0.000000 0.500000 0.750000
O O1 0.889348 0.171756 0.268835
O O2 0.696572 0.189048 0.240810
O O3 0.814817 0.268245 0.197203
O O4 0.820885 0.190498 0.000000
O O5 0.805670 0.925037 0.237727
O O6 0.000000 0.912745 0.250000
O O7 0.900794 0.891176 0.000000
O O8 0.406138 0.500000 0.750000
O O9 0.500000 0.413592 0.750000
O O10 0.401366 0.442381 0.500000
O O11 0.280526 0.425914 0.729693
O O12 0.215072 0.587683 0.500000
O O13 0.129836 0.634589 0.268773
O O14 0.083828 0.537772 0.333369
O O15 0.500000 0.822909 0.250000
O O16 0.384473 0.905062 0.187950
O O17 0.410238 0.825798 0.000000
O O18 0.088231 0.329317 0.500000
O O19 0.000000 0.291182 0.750000
O O20 0.331801 0.000000 0.250000
O O21 0.262385 0.956622 0.000000
#
# Coordination Sequence:
#
# PCOD8204190 Si02
#       8
#     8   8   8   8   8   8   8   2
#     4   9  20  39  59  82 113 149 189 239 292 346
#     4  11  21  34  55  81 109 146 189 233 284 344
#     4  11  22  39  63  89 119 155 201 248 297 351
#     4  12  25  41  63  92 127 165 210 255 308 369
#     4   9  19  36  58  83 112 146 189 237 290 347
#     4  11  23  39  60  87 122 158 197 244 299 357
#     4  10  21  37  54  78 113 149 189 238 287 343
#     4  12  26  40  66  90 130 168 210 254 308 368
#
# _framework density 19.779081000000001
#
# number of rings (size 3 to 8) (size 9 to 14) (size 15 to 20)
#    0.000    1.517    1.379    5.586    0.000    6.621 
#    0.000    3.448    0.000    1.655    0.000    0.000 
#    0.000    0.000    0.000    0.000    0.000    0.000 
#
# Total GULP energy -718543.128464 kJ/mol
# GULP energy per Si atom -12388.674629 kJ/mol
# Density = 1.973406 g / cm^3
# Si number density = 19.779081 Si / 1000 Ang^3
#
#
#
# Elastic Constant Matrix: (Units=GPa)
#
#
# Indices 1 2 3 4 5 6 
#
# 1 112.6546 20.3843 41.2863 0.0000 0.0000 0.0000
# 2 20.3843 88.4478 31.3541 0.0000 0.0000 0.0000
# 3 41.2863 31.3541 137.2679 0.0000 0.0000 0.0000
# 4 0.0000 0.0000 0.0000 27.0423 0.0000 0.0000
# 5 0.0000 0.0000 0.0000 0.0000 34.8625 0.0000
# 6 0.0000 0.0000 0.0000 0.0000 0.0000 11.5856
#
#
#
# Elastic Compliance Matrix: (Units=1/GPa)
#
#
# Indices 1 2 3 4 5 6 
#
# 1 0.010125 -0.001364 -0.002734 0.000000 0.000000 0.000000
# 2 -0.001364 0.012486 -0.002442 0.000000 0.000000 0.000000
# 3 -0.002734 -0.002442 0.008665 0.000000 0.000000 0.000000
# 4 0.000000 0.000000 0.000000 0.036979 0.000000 0.000000
# 5 0.000000 0.000000 0.000000 0.000000 0.028684 0.000000
# 6 0.000000 0.000000 0.000000 0.000000 0.000000 0.086314
#
#
# Mechanical properties :
#
#
# Convention : Reuss Voigt Hill
#
# Bulk Modulus (GPa) = 54.95481 58.26888 56.61185
# Shear Modulus (GPa) = 24.70368 31.05446 27.87907
#
# Velocity S-wave (km/s) = 3.53793 3.96670 3.75843
# Velocity P-wave (km/s) = 6.67337 7.10658 6.89338
#
# Compressibility (1/GPa) = 0.01819677
#
# Stress axis : x y z
#
# Youngs Moduli (GPa) = 98.76073 80.08902 115.40708
#
# Poissons Ratio (x) = 0.10928 0.31550
# Poissons Ratio (y) = 0.13476 0.28178
# Poissons Ratio (z) = 0.26999 0.19555
#
# Static dielectric constant tensor:
#      x y z
#    x 3.431040 0.000000 0.000000 
#    y 0.000000 3.475730 0.000000 
#    z 0.000000 0.000000 3.664420 
# 
# 
# High freq. dielectric constant tensor:
#      x y z
#    x 1.780820 0.000000 0.000000 
#    y 0.000000 1.756160 0.000000 
#    z 0.000000 0.000000 1.778080 
# 
# From -- ./inp_files/3028.got.cif
#   From: 2010.03.12/outbox.cif.g09.slc.cpg/sg49_2_cif.got.tgz:3028.got - 2010.04.14 03:58:27.
