data_PCOD8204843
_publ_section_title
;
Structure prediction by ZEFSAII (Michael W. Deem and Ramdas Pophale) SiO2 
 PCOD8204843
Probable space group: P B A N
;
_chemical_formula_sum "Si O2"
_cell_formula_units_Z 64
_cell_length_a 22.874004
_cell_length_b 11.955175
_cell_length_c 12.463131
_cell_angle_alpha 90.000000
_cell_angle_beta 90.000000
_cell_angle_gamma 90.000000
_cell_volume 3408.201713
_symmetry_space_group_name_H-M "P B A N"
_symmetry_group_IT_number 50
_space_group.IT_coordinate_system_code '2'
_symmetry_cell_setting 'orthorhombic'
loop_
_space_group_symop_operation_xyz
x,y,z
1/2-x,1/2-y,z
x,1/2-y,-z
1/2-x,y,-z
-x,-y,-z
1/2+x,1/2+y,-z
-x,1/2+y,z
1/2+x,-y,z
loop_
_atom_site_type_symbol
_atom_site_label
_atom_site_fract_x
_atom_site_fract_y
_atom_site_fract_z
Si Si1 0.330131 0.953490 0.290634
Si Si2 0.098571 0.138975 0.364983
Si Si3 0.284900 0.496104 0.392164
Si Si4 0.009761 0.992613 0.239356
Si Si5 0.098705 0.649863 0.871340
Si Si6 0.591865 0.410672 0.101019
Si Si7 0.417992 0.391259 0.606183
Si Si8 0.187126 0.791082 0.296779
O O1 0.262186 0.991272 0.294317
O O2 0.355412 0.966155 0.169847
O O3 0.344612 0.825299 0.328366
O O4 0.362018 0.030695 0.377148
O O5 0.069570 0.116350 0.480236
O O6 0.097759 0.271245 0.341934
O O7 0.165884 0.095313 0.363839
O O8 0.058671 0.082110 0.274832
O O9 0.250000 0.464849 0.500000
O O10 0.311675 0.622983 0.398512
O O11 0.041920 0.884184 0.195253
O O12 0.973502 0.950031 0.340882
O O13 0.969339 0.042868 0.145478
O O14 0.089710 0.778253 0.896785
O O15 0.156825 0.639496 0.799408
O O16 0.102974 0.566203 0.974578
O O17 0.250000 0.750000 0.254448
#
# Coordination Sequence:
#
# PCOD8204843 Si02
#       8
#     8   8   8   8   8   8   8   8
#     4   9  19  36  53  78 114 150 180 233 285 325
#     4  11  22  37  57  83 111 151 194 228 279 344
#     4  11  20  36  57  82 113 146 192 231 283 334
#     4  11  20  36  58  79 116 147 186 238 282 334
#     4  10  18  35  56  84 110 144 191 230 287 338
#     4   9  20  34  55  82 113 145 185 231 290 335
#     4  10  22  38  54  81 117 148 194 229 280 340
#     4   9  19  34  56  82 115 143 186 234 284 340
#
# _framework density 18.778231000000002
#
# number of rings (size 3 to 8) (size 9 to 14) (size 15 to 20)
#    0.000    2.000    2.500    1.500    0.000    2.750 
#    0.000   10.625    0.000    0.000    0.000    0.000 
#   15.000    0.000    0.000    0.000    0.000    0.000 
#
# Total GULP energy -793074.781654 kJ/mol
# GULP energy per Si atom -12391.793463 kJ/mol
# Density = 1.873549 g / cm^3
# Si number density = 18.778231 Si / 1000 Ang^3
#
#
#
# Elastic Constant Matrix: (Units=GPa)
#
#
# Indices 1 2 3 4 5 6 
#
# 1 93.8014 32.9416 28.6425 0.0000 0.0000 0.0000
# 2 32.9416 65.3932 18.0361 0.0000 0.0000 0.0000
# 3 28.6425 18.0361 55.9532 0.0000 0.0000 0.0000
# 4 0.0000 0.0000 0.0000 22.0118 0.0000 0.0000
# 5 0.0000 0.0000 0.0000 0.0000 23.0751 0.0000
# 6 0.0000 0.0000 0.0000 0.0000 0.0000 33.0135
#
#
#
# Elastic Compliance Matrix: (Units=1/GPa)
#
#
# Indices 1 2 3 4 5 6 
#
# 1 0.014346 -0.005709 -0.005504 0.000000 0.000000 0.000000
# 2 -0.005709 0.019056 -0.003220 0.000000 0.000000 0.000000
# 3 -0.005504 -0.003220 0.021727 0.000000 0.000000 0.000000
# 4 0.000000 0.000000 0.000000 0.045430 0.000000 0.000000
# 5 0.000000 0.000000 0.000000 0.000000 0.043337 0.000000
# 6 0.000000 0.000000 0.000000 0.000000 0.000000 0.030291
#
#
# Mechanical properties :
#
#
# Convention : Reuss Voigt Hill
#
# Bulk Modulus (GPa) = 38.07453 41.59868 39.83660
# Shear Modulus (GPa) = 23.60632 24.65525 24.13078
#
# Velocity S-wave (km/s) = 3.54942 3.62742 3.58863
# Velocity P-wave (km/s) = 6.09244 6.30436 6.19930
#
# Compressibility (1/GPa) = 0.02626428
#
# Stress axis : x y z
#
# Youngs Moduli (GPa) = 69.70463 52.47659 46.02482
#
# Poissons Ratio (x) = 0.29958 0.25330
# Poissons Ratio (y) = 0.39794 0.14821
# Poissons Ratio (z) = 0.38363 0.16899
#
# Static dielectric constant tensor:
#      x y z
#    x 3.516710 0.000000 0.000000 
#    y 0.000000 3.538840 0.000000 
#    z 0.000000 0.000000 3.554010 
# 
# 
# High freq. dielectric constant tensor:
#      x y z
#    x 1.733160 0.000000 0.000000 
#    y 0.000000 1.726030 0.000000 
#    z 0.000000 0.000000 1.713750 
# 
# From -- ./inp_files/22886.got.cif
#   From: 2010.03.12/outbox.cif.g09.slc.cpg/sg50_12_cif.got.tgz:22886.got - 2010.04.16 13:23:21.
