data_PCOD8204550
_publ_section_title
;
Structure prediction by ZEFSAII (Michael W. Deem and Ramdas Pophale) SiO2 
 PCOD8204550
Probable space group: P C C M
;
_chemical_formula_sum "Si O2"
_cell_formula_units_Z 18
_cell_length_a 5.156409
_cell_length_b 5.028247
_cell_length_c 26.380080
_cell_angle_alpha 90.000000
_cell_angle_beta 90.000000
_cell_angle_gamma 90.000000
_cell_volume 683.974750
_symmetry_space_group_name_H-M "P C C M"
_symmetry_group_IT_number 49
_symmetry_cell_setting 'orthorhombic'
loop_
_space_group_symop_operation_xyz
x,y,z
-x,-y,z
x,-y,1/2-z
-x,y,1/2-z
-x,-y,-z
x,y,-z
-x,y,1/2+z
x,-y,1/2+z
loop_
_atom_site_type_symbol
_atom_site_label
_atom_site_fract_x
_atom_site_fract_y
_atom_site_fract_z
Si Si1 0.679493 0.743741 0.336221
Si Si2 0.000000 0.500000 0.916696
Si Si3 0.000000 0.500000 0.250000
Si Si4 0.247693 0.184563 0.000000
O O1 0.500000 0.500000 0.349051
O O2 0.890216 0.742216 0.381694
O O3 0.824614 0.699952 0.282937
O O4 0.500000 0.000000 0.333874
O O5 0.232033 0.375747 0.950788
O O6 0.500000 0.000000 0.000000
O O7 0.000000 0.000000 0.000000
#
# Coordination Sequence:
#
# PCOD8204550 Si02
#       4
#     8   4   2   4
#     4  11  27  48  82 113 162 211 270 339 413 490
#     4  10  28  48  76 122 160 210 280 336 414 494
#     4  10  26  52  76 122 152 212 270 340 406 496
#     4  11  28  49  83 116 168 218 278 342 418 490
#
# _framework density 26.316759000000001
#
# number of rings (size 3 to 8) (size 9 to 14) (size 15 to 20)
#    0.000    1.333    0.000    0.667   12.444   12.444 
#    0.000   10.000    0.000    0.000    0.000    0.000 
#    0.000    0.000    0.000    0.000    0.000    0.000 
#
# Total GULP energy -223190.961066 kJ/mol
# GULP energy per Si atom -12399.497837 kJ/mol
# Density = 2.625686 g / cm^3
# Si number density = 26.316759 Si / 1000 Ang^3
#
#
#
# Elastic Constant Matrix: (Units=GPa)
#
#
# Indices 1 2 3 4 5 6 
#
# 1 166.4435 86.7674 88.3474 0.0000 0.0000 0.0000
# 2 86.7674 182.1901 83.0718 0.0000 0.0000 0.0000
# 3 88.3474 83.0718 225.1385 0.0000 0.0000 0.0000
# 4 0.0000 0.0000 0.0000 11.0885 0.0000 0.0000
# 5 0.0000 0.0000 0.0000 0.0000 18.8308 0.0000
# 6 0.0000 0.0000 0.0000 0.0000 0.0000 83.3050
#
#
#
# Elastic Compliance Matrix: (Units=1/GPa)
#
#
# Indices 1 2 3 4 5 6 
#
# 1 0.008896 -0.003180 -0.002318 0.000000 0.000000 0.000000
# 2 -0.003180 0.007736 -0.001606 0.000000 0.000000 0.000000
# 3 -0.002318 -0.001606 0.005944 0.000000 0.000000 0.000000
# 4 0.000000 0.000000 0.000000 0.090183 0.000000 0.000000
# 5 0.000000 0.000000 0.000000 0.000000 0.053105 0.000000
# 6 0.000000 0.000000 0.000000 0.000000 0.000000 0.012004
#
#
# Mechanical properties :
#
#
# Convention : Reuss Voigt Hill
#
# Bulk Modulus (GPa) = 119.50851 121.12727 120.31789
# Shear Modulus (GPa) = 25.65887 43.68391 34.67139
#
# Velocity S-wave (km/s) = 3.12589 4.07864 3.63363
# Velocity P-wave (km/s) = 7.65104 8.26480 7.96384
#
# Compressibility (1/GPa) = 0.00836760
#
# Stress axis : x y z
#
# Youngs Moduli (GPa) = 112.41158 129.27091 168.23970
#
# Poissons Ratio (x) = 0.41107 0.38990
# Poissons Ratio (y) = 0.35746 0.27027
# Poissons Ratio (z) = 0.26052 0.20767
#
# Static dielectric constant tensor:
#      x y z
#    x 4.832510 0.000000 0.000000 
#    y 0.000000 4.459880 0.000000 
#    z 0.000000 0.000000 5.191440 
# 
# 
# High freq. dielectric constant tensor:
#      x y z
#    x 2.066510 0.000000 0.000000 
#    y 0.000000 2.054310 0.000000 
#    z 0.000000 0.000000 2.076100 
# 
# From -- ./inp_files/23520.got.cif
#   From: 2010.03.12/outbox.cif.g09.slc.cpg/sg49_12_cif.got.tgz:23520.got - 2010.04.14 03:58:27.
