data_PCOD8204389
_publ_section_title
;
Structure prediction by ZEFSAII (Michael W. Deem and Ramdas Pophale) SiO2 
 PCOD8204389
Probable space group: P C C M
;
_chemical_formula_sum "Si O2"
_cell_formula_units_Z 36
_cell_length_a 13.478830
_cell_length_b 9.487456
_cell_length_c 14.110704
_cell_angle_alpha 90.000000
_cell_angle_beta 90.000000
_cell_angle_gamma 90.000000
_cell_volume 1804.474098
_symmetry_space_group_name_H-M "P C C M"
_symmetry_group_IT_number 49
_symmetry_cell_setting 'orthorhombic'
loop_
_space_group_symop_operation_xyz
x,y,z
-x,-y,z
x,-y,1/2-z
-x,y,1/2-z
-x,-y,-z
x,y,-z
-x,y,1/2+z
x,-y,1/2+z
loop_
_atom_site_type_symbol
_atom_site_label
_atom_site_fract_x
_atom_site_fract_y
_atom_site_fract_z
Si Si1 0.904163 0.089833 0.888179
Si Si2 0.258984 0.000000 0.750000
Si Si3 0.911796 0.406987 0.888770
Si Si4 0.692080 0.487290 0.110977
Si Si5 0.384382 0.723992 0.253275
O O1 0.914776 0.248619 0.847183
O O2 0.808077 0.018788 0.842767
O O3 0.887052 0.088671 0.000000
O O4 0.000000 0.000000 0.858532
O O5 0.327785 0.132241 0.770724
O O6 0.809333 0.486912 0.866229
O O7 0.000000 0.500000 0.842926
O O8 0.928983 0.393139 0.000000
O O9 0.646314 0.343948 0.152872
O O10 0.641549 0.620561 0.160084
O O11 0.669442 0.491865 0.000000
O O12 0.500000 0.756113 0.250000
#
# Coordination Sequence:
#
# PCOD8204389 Si02
#       5
#     8   4   8   8   8
#     4  10  22  40  62  90 127 164 199 245 298 363
#     4  12  24  42  62  90 126 166 204 246 308 376
#     4   9  18  35  61  91 120 154 195 244 301 360
#     4  10  21  42  67  90 121 160 203 255 310 365
#     4  11  25  42  62  90 121 159 208 262 310 358
#
# _framework density 19.950410000000002
#
# number of rings (size 3 to 8) (size 9 to 14) (size 15 to 20)
#    0.000    1.778    2.222    2.000    3.111    2.667 
#    0.000    2.222    0.000    4.000    0.000    0.000 
#    0.000    0.000    0.000    0.000    0.000    0.000 
#
# Total GULP energy -446508.263339 kJ/mol
# GULP energy per Si atom -12403.007315 kJ/mol
# Density = 1.990500 g / cm^3
# Si number density = 19.950410 Si / 1000 Ang^3
#
#
#
# Elastic Constant Matrix: (Units=GPa)
#
#
# Indices 1 2 3 4 5 6 
#
# 1 171.5718 79.0239 45.1658 0.0000 0.0000 0.0000
# 2 79.0239 158.3997 43.3587 0.0000 0.0000 0.0000
# 3 45.1658 43.3587 86.2722 0.0000 0.0000 0.0000
# 4 0.0000 0.0000 0.0000 12.3518 0.0000 0.0000
# 5 0.0000 0.0000 0.0000 0.0000 23.0002 0.0000
# 6 0.0000 0.0000 0.0000 0.0000 0.0000 62.3776
#
#
#
# Elastic Compliance Matrix: (Units=1/GPa)
#
#
# Indices 1 2 3 4 5 6 
#
# 1 0.008019 -0.003306 -0.002536 0.000000 0.000000 0.000000
# 2 -0.003306 0.008683 -0.002633 0.000000 0.000000 0.000000
# 3 -0.002536 -0.002633 0.014243 0.000000 0.000000 0.000000
# 4 0.000000 0.000000 0.000000 0.080960 0.000000 0.000000
# 5 0.000000 0.000000 0.000000 0.000000 0.043478 0.000000
# 6 0.000000 0.000000 0.000000 0.000000 0.000000 0.016031
#
#
# Mechanical properties :
#
#
# Convention : Reuss Voigt Hill
#
# Bulk Modulus (GPa) = 71.46419 83.48228 77.47324
# Shear Modulus (GPa) = 25.90268 36.12561 31.01415
#
# Velocity S-wave (km/s) = 3.60718 4.25993 3.94707
# Velocity P-wave (km/s) = 7.29710 8.13214 7.72591
#
# Compressibility (1/GPa) = 0.01399302
#
# Stress axis : x y z
#
# Youngs Moduli (GPa) = 124.70347 115.16234 70.21227
#
# Poissons Ratio (x) = 0.38076 0.17809
# Poissons Ratio (y) = 0.41231 0.18488
# Poissons Ratio (z) = 0.31631 0.30324
#
# Static dielectric constant tensor:
#      x y z
#    x 3.729150 0.000000 0.000000 
#    y 0.000000 2.155110 0.000000 
#    z 0.000000 0.000000 3.502660 
# 
# 
# High freq. dielectric constant tensor:
#      x y z
#    x 1.787150 0.000000 0.000000 
#    y 0.000000 1.784380 0.000000 
#    z 0.000000 0.000000 1.775100 
# 
# From -- ./inp_files/13291.got.cif
#   From: 2010.03.12/outbox.cif.g09.slc.cpg/sg49_7_cif.got.tgz:13291.got - 2010.04.14 03:58:27.
