data_PCOD8204941
_publ_section_title
;
Structure prediction by ZEFSAII (Michael W. Deem and Ramdas Pophale) SiO2 
 PCOD8204941
Probable space group: P B A N
;
_chemical_formula_sum "Si O2"
_cell_formula_units_Z 44
_cell_length_a 8.077623
_cell_length_b 14.607499
_cell_length_c 18.955696
_cell_angle_alpha 90.000000
_cell_angle_beta 90.000000
_cell_angle_gamma 90.000000
_cell_volume 2236.655928
_symmetry_space_group_name_H-M "P B A N"
_symmetry_group_IT_number 50
_space_group.IT_coordinate_system_code '2'
_symmetry_cell_setting 'orthorhombic'
loop_
_space_group_symop_operation_xyz
x,y,z
1/2-x,1/2-y,z
x,1/2-y,-z
1/2-x,y,-z
-x,-y,-z
1/2+x,1/2+y,-z
-x,1/2+y,z
1/2+x,-y,z
loop_
_atom_site_type_symbol
_atom_site_label
_atom_site_fract_x
_atom_site_fract_y
_atom_site_fract_z
Si Si1 0.086358 0.372886 0.385576
Si Si2 0.750000 0.750000 0.725325
Si Si3 0.250000 0.048760 0.000000
Si Si4 0.481777 0.406118 0.238623
Si Si5 0.750000 0.750000 0.500000
Si Si6 0.274536 0.540455 0.329361
Si Si7 0.048658 0.899295 0.920845
Si Si8 0.750000 0.250000 0.000000
O O1 0.124268 0.309545 0.319637
O O2 0.128395 0.315842 0.455745
O O3 0.197630 0.464224 0.381386
O O4 0.892405 0.398476 0.379575
O O5 0.632515 0.683633 0.770147
O O6 0.139801 0.111140 0.051895
O O7 0.369763 0.989351 0.047951
O O8 0.375142 0.493468 0.264681
O O9 0.631661 0.395606 0.295232
O O10 0.559194 0.418754 0.162063
O O11 0.142667 0.809020 0.945833
#
# Coordination Sequence:
#
# PCOD8204941 Si02
#       8
#     8   4   4   8   2   8   8   2
#     4   9  19  36  55  80 112 145 177 217 268 316
#     4   9  20  33  50  81 112 135 170 226 278 317
#     4   9  20  36  54  71 104 142 186 231 268 330
#     4  10  19  34  57  80 106 142 182 227 281 330
#     4  10  20  36  60  82 120 154 172 214 272 340
#     4   9  19  35  57  82 108 138 184 232 264 315
#     4  10  20  36  53  76 104 144 185 227 281 334
#     4  10  24  34  44  74 112 140 180 232 276 326
#
# _framework density 19.672225999999998
#
# number of rings (size 3 to 8) (size 9 to 14) (size 15 to 20)
#    0.000    2.545    0.000    1.091    0.000    4.727 
#    0.000    3.636    0.000   17.455    0.000    0.000 
#    0.000    0.000    0.000    0.000    0.000    0.000 
#
# Total GULP energy -545402.573365 kJ/mol
# GULP energy per Si atom -12395.513031 kJ/mol
# Density = 1.962745 g / cm^3
# Si number density = 19.672226 Si / 1000 Ang^3
#
#
#
# Elastic Constant Matrix: (Units=GPa)
#
#
# Indices 1 2 3 4 5 6 
#
# 1 122.2852 49.2207 45.9696 0.0000 0.0000 0.0000
# 2 49.2207 82.8411 37.2870 0.0000 0.0000 0.0000
# 3 45.9696 37.2870 108.3437 0.0000 0.0000 0.0000
# 4 0.0000 0.0000 0.0000 10.3976 0.0000 0.0000
# 5 0.0000 0.0000 0.0000 0.0000 19.4066 0.0000
# 6 0.0000 0.0000 0.0000 0.0000 0.0000 3679.4032
#
#
#
# Elastic Compliance Matrix: (Units=1/GPa)
#
#
# Indices 1 2 3 4 5 6 
#
# 1 0.011515 -0.005493 -0.002995 0.000000 0.000000 0.000000
# 2 -0.005493 0.016905 -0.003487 0.000000 0.000000 0.000000
# 3 -0.002995 -0.003487 0.011701 0.000000 0.000000 0.000000
# 4 0.000000 0.000000 0.000000 0.096176 0.000000 0.000000
# 5 0.000000 0.000000 0.000000 0.000000 0.051529 0.000000
# 6 0.000000 0.000000 0.000000 0.000000 0.000000 0.000272
#
#
# Mechanical properties :
#
#
# Convention : Reuss Voigt Hill
#
# Bulk Modulus (GPa) = 61.84595 64.26940 63.05768
# Shear Modulus (GPa) = 22.99513 753.90767 388.45140
#
# Velocity S-wave (km/s) = 3.42265 19.59761 14.06736
# Velocity P-wave (km/s) = 6.86482 23.34159 17.20400
#
# Compressibility (1/GPa) = 0.01616921
#
# Stress axis : x y z
#
# Youngs Moduli (GPa) = 86.84593 59.15475 85.46479
#
# Poissons Ratio (x) = 0.32496 0.25597
# Poissons Ratio (y) = 0.47709 0.29802
# Poissons Ratio (z) = 0.26010 0.20627
#
# Static dielectric constant tensor:
#      x y z
#    x 3.814220 0.000000 0.000000 
#    y 0.000000 3.714340 0.000000 
#    z 0.000000 0.000000 3.361720 
# 
# 
# High freq. dielectric constant tensor:
#      x y z
#    x 1.778770 0.000000 0.000000 
#    y 0.000000 1.760110 0.000000 
#    z 0.000000 0.000000 1.750740 
# 
# From -- ./inp_files/28669.got.cif
#   From: 2010.03.12/outbox.cif.g09.slc.cpg/sg50_15_cif.got.tgz:28669.got - 2010.04.16 13:23:21.
