data_PCOD8204571
_publ_section_title
;
Structure prediction by ZEFSAII (Michael W. Deem and Ramdas Pophale) SiO2 
 PCOD8204571
Probable space group: P C C M
;
_chemical_formula_sum "Si O2"
_cell_formula_units_Z 56
_cell_length_a 18.874860
_cell_length_b 18.985241
_cell_length_c 8.916348
_cell_angle_alpha 90.000000
_cell_angle_beta 90.000000
_cell_angle_gamma 90.000000
_cell_volume 3195.117721
_symmetry_space_group_name_H-M "P C C M"
_symmetry_group_IT_number 49
_symmetry_cell_setting 'orthorhombic'
loop_
_space_group_symop_operation_xyz
x,y,z
-x,-y,z
x,-y,1/2-z
-x,y,1/2-z
-x,-y,-z
x,y,-z
-x,y,1/2+z
x,-y,1/2+z
loop_
_atom_site_type_symbol
_atom_site_label
_atom_site_fract_x
_atom_site_fract_y
_atom_site_fract_z
Si Si1 0.065084 0.575236 0.827137
Si Si2 0.343731 0.927262 0.825143
Si Si3 0.425932 0.208065 0.322538
Si Si4 0.221903 0.425246 0.673927
Si Si5 0.202232 0.151679 0.323485
Si Si6 0.925096 0.075081 0.679909
Si Si7 0.288767 0.714572 0.178321
O O1 0.067357 0.500000 0.750000
O O2 0.142942 0.607074 0.800932
O O3 0.000000 0.619243 0.750000
O O4 0.046849 0.567433 0.000000
O O5 0.399637 0.868719 0.768576
O O6 0.263683 0.904649 0.786317
O O7 0.364226 0.000000 0.750000
O O8 0.352143 0.937164 0.000000
O O9 0.500000 0.228619 0.250000
O O10 0.433656 0.210475 0.500000
O O11 0.367234 0.264412 0.266734
O O12 0.236734 0.500000 0.750000
O O13 0.236090 0.438571 0.500000
O O14 0.272258 0.363885 0.740304
O O15 0.183524 0.150975 0.500000
O O16 0.133291 0.132598 0.226552
O O17 0.230057 0.228332 0.269503
O O18 0.930586 0.069414 0.500000
O O19 0.000000 0.099111 0.750000
O O20 0.902920 0.000000 0.750000
O O21 0.286458 0.714924 0.000000
#
# Coordination Sequence:
#
# PCOD8204571 Si02
#       7
#     8   8   8   8   8   8   8
#     4   9  15  23  38  60  87 116 146 178 217 262
#     4   9  18  30  46  69  96 125 156 190 232 278
#     4   9  18  33  51  71  94 124 158 190 227 277
#     4   9  17  30  49  72  95 124 159 197 238 282
#     4   9  17  32  51  69  92 125 163 202 242 288
#     4  11  21  33  49  70  96 128 167 210 251 289
#     4   8  16  33  54  71  94 128 160 189 236 297
#
# _framework density 17.526741000000001
#
# number of rings (size 3 to 8) (size 9 to 14) (size 15 to 20)
#    0.000    2.857    0.000    4.714    0.000    3.143 
#    0.000    5.714    0.000    2.143    0.000    3.000 
#    0.000    0.000    0.000    0.000    0.000    0.000 
#
# Total GULP energy -693928.869031 kJ/mol
# GULP energy per Si atom -12391.586947 kJ/mol
# Density = 1.748685 g / cm^3
# Si number density = 17.526741 Si / 1000 Ang^3
#
#
#
# Elastic Constant Matrix: (Units=GPa)
#
#
# Indices 1 2 3 4 5 6 
#
# 1 133.7186 73.8682 47.1222 0.0000 0.0000 0.0000
# 2 73.8682 119.8164 36.4361 0.0000 0.0000 0.0000
# 3 47.1222 36.4361 68.2910 0.0000 0.0000 0.0000
# 4 0.0000 0.0000 0.0000 17.2443 0.0000 0.0000
# 5 0.0000 0.0000 0.0000 0.0000 32.5997 0.0000
# 6 0.0000 0.0000 0.0000 0.0000 0.0000 19.1350
#
#
#
# Elastic Compliance Matrix: (Units=1/GPa)
#
#
# Indices 1 2 3 4 5 6 
#
# 1 0.012895 -0.006260 -0.005558 0.000000 0.000000 0.000000
# 2 -0.006260 0.013001 -0.002617 0.000000 0.000000 0.000000
# 3 -0.005558 -0.002617 0.019875 0.000000 0.000000 0.000000
# 4 0.000000 0.000000 0.000000 0.057990 0.000000 0.000000
# 5 0.000000 0.000000 0.000000 0.000000 0.030675 0.000000
# 6 0.000000 0.000000 0.000000 0.000000 0.000000 0.052260
#
#
# Mechanical properties :
#
#
# Convention : Reuss Voigt Hill
#
# Bulk Modulus (GPa) = 59.16848 70.74212 64.95530
# Shear Modulus (GPa) = 22.60395 24.75577 23.67986
#
# Velocity S-wave (km/s) = 3.59511 3.76234 3.67968
# Velocity P-wave (km/s) = 7.14600 7.70219 7.42930
#
# Compressibility (1/GPa) = 0.01690089
#
# Stress axis : x y z
#
# Youngs Moduli (GPa) = 77.54957 76.91571 50.31493
#
# Poissons Ratio (x) = 0.48147 0.27965
# Poissons Ratio (y) = 0.48544 0.13169
# Poissons Ratio (z) = 0.43102 0.20132
#
# Static dielectric constant tensor:
#      x y z
#    x 4.465350 0.000000 0.000000 
#    y 0.000000 3.623290 0.000000 
#    z 0.000000 0.000000 3.080310 
# 
# 
# High freq. dielectric constant tensor:
#      x y z
#    x 1.678980 0.000000 0.000000 
#    y 0.000000 1.654180 0.000000 
#    z 0.000000 0.000000 1.663230 
# 
# From -- ./inp_files/5188.got.cif
#   From: 2010.03.12/outbox.cif.g09.slc.cpg/sg49_3_cif.got.tgz:5188.got - 2010.04.14 03:58:27.
