data_PCOD8204579
_publ_section_title
;
Structure prediction by ZEFSAII (Michael W. Deem and Ramdas Pophale) SiO2 
 PCOD8204579
Probable space group: P C C M
;
_chemical_formula_sum "Si O2"
_cell_formula_units_Z 40
_cell_length_a 10.609030
_cell_length_b 8.493381
_cell_length_c 18.138270
_cell_angle_alpha 90.000000
_cell_angle_beta 90.000000
_cell_angle_gamma 90.000000
_cell_volume 1634.376639
_symmetry_space_group_name_H-M "P C C M"
_symmetry_group_IT_number 49
_symmetry_cell_setting 'orthorhombic'
loop_
_space_group_symop_operation_xyz
x,y,z
-x,-y,z
x,-y,1/2-z
-x,y,1/2-z
-x,-y,-z
x,y,-z
-x,y,1/2+z
x,-y,1/2+z
loop_
_atom_site_type_symbol
_atom_site_label
_atom_site_fract_x
_atom_site_fract_y
_atom_site_fract_z
Si Si1 0.165243 0.511117 0.080514
Si Si2 0.827783 0.838869 0.086645
Si Si3 0.676394 0.075149 0.826880
Si Si4 0.430888 0.657908 0.917103
Si Si5 0.055553 0.233517 0.672545
O O1 0.205717 0.340212 0.110791
O O2 0.284497 0.623901 0.076075
O O3 0.060651 0.603091 0.127572
O O4 0.106441 0.487548 0.000000
O O5 0.959557 0.882187 0.127965
O O6 0.708084 0.939964 0.113489
O O7 0.844724 0.866404 0.000000
O O8 0.566413 0.191242 0.860697
O O9 0.808211 0.161464 0.812105
O O10 0.627017 0.000000 0.750000
O O11 0.500000 0.500000 0.885738
O O12 0.484983 0.697794 0.000000
O O13 0.000000 0.279711 0.750000
#
# Coordination Sequence:
#
# PCOD8204579 Si02
#       5
#     8   8   8   8   8
#     4   9  20  37  57  88 126 167 226 281 322 389
#     4  11  22  35  56  87 128 175 223 274 328 393
#     4  11  22  38  58  92 134 171 216 277 344 410
#     4   9  19  40  69  94 122 168 226 287 350 410
#     4  11  21  35  54  87 130 183 224 257 320 399
#
# _framework density 24.474163000000001
#
# number of rings (size 3 to 8) (size 9 to 14) (size 15 to 20)
#    0.000    1.800    2.000    2.400    0.000    6.400 
#    0.000    1.000    0.000    8.400    0.000    0.000 
#    0.000    2.400    0.000    0.000    0.000    0.000 
#
# Total GULP energy -495677.751852 kJ/mol
# GULP energy per Si atom -12391.943796 kJ/mol
# Density = 2.441846 g / cm^3
# Si number density = 24.474163 Si / 1000 Ang^3
#
#
#
# Elastic Constant Matrix: (Units=GPa)
#
#
# Indices 1 2 3 4 5 6 
#
# 1 55.2403 16.9510 30.5031 0.0000 0.0000 0.0000
# 2 16.9510 139.8348 75.3114 0.0000 0.0000 0.0000
# 3 30.5031 75.3114 163.7181 0.0000 0.0000 0.0000
# 4 0.0000 0.0000 0.0000 -43.8244 0.0000 0.0000
# 5 0.0000 0.0000 0.0000 0.0000 19.3132 0.0000
# 6 0.0000 0.0000 0.0000 0.0000 0.0000 48.6167
#
#
#
# Elastic Compliance Matrix: (Units=1/GPa)
#
#
# Indices 1 2 3 4 5 6 
#
# 1 0.020212 -0.000561 -0.003508 0.000000 0.000000 0.000000
# 2 -0.000561 0.009522 -0.004276 0.000000 0.000000 0.000000
# 3 -0.003508 -0.004276 0.008728 0.000000 0.000000 0.000000
# 4 0.000000 0.000000 0.000000 -0.022818 0.000000 0.000000
# 5 0.000000 0.000000 0.000000 0.000000 0.051778 0.000000
# 6 0.000000 0.000000 0.000000 0.000000 0.000000 0.020569
#
#
# Mechanical properties :
#
#
# Convention : Reuss Voigt Hill
#
# Bulk Modulus (GPa) = 45.92725 67.14716 56.53720
# Shear Modulus (GPa) = 44.66775 20.55628 32.61201
#
# Velocity S-wave (km/s) = 4.27675 2.90128 3.65431
# Velocity P-wave (km/s) = 6.57220 6.22244 6.39971
#
# Compressibility (1/GPa) = 0.02177357
#
# Stress axis : x y z
#
# Youngs Moduli (GPa) = 49.47612 105.01908 114.56783
#
# Poissons Ratio (x) = 0.05891 0.40187
# Poissons Ratio (y) = 0.02775 0.48986
# Poissons Ratio (z) = 0.17355 0.44903
#
# Static dielectric constant tensor:
#      x y z
#    x 4.263260 0.000000 0.000000 
#    y 0.000000 4.635130 0.000000 
#    z 0.000000 0.000000 4.444590 
# 
# 
# High freq. dielectric constant tensor:
#      x y z
#    x 1.967600 0.000000 0.000000 
#    y 0.000000 1.987170 0.000000 
#    z 0.000000 0.000000 1.961730 
# 
# From -- ./inp_files/16854.got.cif
#   From: 2010.03.12/outbox.cif.g09.slc.cpg/sg49_9_cif.got.tgz:16854.got - 2010.04.14 03:58:27.
