data_PCOD8204607
_publ_section_title
;
Structure prediction by ZEFSAII (Michael W. Deem and Ramdas Pophale) SiO2 
 PCOD8204607
Probable space group: P C C M
;
_chemical_formula_sum "Si O2"
_cell_formula_units_Z 56
_cell_length_a 5.464925
_cell_length_b 13.725260
_cell_length_c 32.361483
_cell_angle_alpha 90.000000
_cell_angle_beta 90.000000
_cell_angle_gamma 90.000000
_cell_volume 2427.354470
_symmetry_space_group_name_H-M "P C C M"
_symmetry_group_IT_number 49
_symmetry_cell_setting 'orthorhombic'
loop_
_space_group_symop_operation_xyz
x,y,z
-x,-y,z
x,-y,1/2-z
-x,y,1/2-z
-x,-y,-z
x,y,-z
-x,y,1/2+z
x,-y,1/2+z
loop_
_atom_site_type_symbol
_atom_site_label
_atom_site_fract_x
_atom_site_fract_y
_atom_site_fract_z
Si Si1 0.240065 0.259089 0.377367
Si Si2 0.096704 0.100360 0.840402
Si Si3 0.250919 0.943989 0.428864
Si Si4 0.592692 0.598206 0.167339
Si Si5 0.751256 0.753921 0.775739
Si Si6 0.427902 0.248534 0.954508
Si Si7 0.861424 0.593343 0.086365
O O1 0.389535 0.321361 0.343960
O O2 0.389557 0.223536 0.417263
O O3 0.135419 0.165603 0.353921
O O4 0.026481 0.322714 0.395683
O O5 0.263669 0.076130 0.879866
O O6 0.264104 0.155192 0.807071
O O7 0.000000 0.000000 0.820376
O O8 0.235390 0.840925 0.453206
O O9 0.500000 0.000000 0.442358
O O10 0.000000 0.000000 0.440646
O O11 0.500000 0.500000 0.190260
O O12 0.777095 0.653049 0.198409
O O13 0.710433 0.554836 0.125552
O O14 0.500000 0.753170 0.750000
O O15 0.000000 0.763642 0.750000
O O16 0.307217 0.355481 0.948055
O O17 0.552558 0.252574 0.000000
O O18 0.000000 0.500000 0.066605
#
# Coordination Sequence:
#
# PCOD8204607 Si02
#       7
#     8   8   8   8   8   8   8
#     4  11  21  45  70 102 134 181 247 296 339 425
#     4  11  23  47  76 101 134 190 242 293 349 420
#     4  11  24  44  72 104 134 184 253 299 342 417
#     4  11  23  43  75 100 131 186 239 299 351 417
#     4  12  28  48  69 107 153 185 226 292 364 440
#     4  11  25  41  63 102 149 190 227 298 374 425
#     4  11  22  41  72 100 129 178 246 291 347 420
#
# _framework density 23.070384000000001
#
# number of rings (size 3 to 8) (size 9 to 14) (size 15 to 20)
#    0.000    0.857    4.286    3.429    0.000    4.286 
#    0.000    5.000    0.000    0.429    0.000    0.000 
#    0.000    0.000    0.000    0.000    0.000    0.000 
#
# Total GULP energy -694219.092303 kJ/mol
# GULP energy per Si atom -12396.769505 kJ/mol
# Density = 2.301788 g / cm^3
# Si number density = 23.070384 Si / 1000 Ang^3
#
#
#
# Elastic Constant Matrix: (Units=GPa)
#
#
# Indices 1 2 3 4 5 6 
#
# 1 104.2817 34.9403 22.5175 0.0000 0.0000 0.0000
# 2 34.9403 156.1226 38.1173 0.0000 0.0000 0.0000
# 3 22.5175 38.1173 77.8313 0.0000 0.0000 0.0000
# 4 0.0000 0.0000 0.0000 13.3800 0.0000 0.0000
# 5 0.0000 0.0000 0.0000 0.0000 12.7993 0.0000
# 6 0.0000 0.0000 0.0000 0.0000 0.0000 33.9333
#
#
#
# Elastic Compliance Matrix: (Units=1/GPa)
#
#
# Indices 1 2 3 4 5 6 
#
# 1 0.010683 -0.001858 -0.002181 0.000000 0.000000 0.000000
# 2 -0.001858 0.007598 -0.003184 0.000000 0.000000 0.000000
# 3 -0.002181 -0.003184 0.015038 0.000000 0.000000 0.000000
# 4 0.000000 0.000000 0.000000 0.074738 0.000000 0.000000
# 5 0.000000 0.000000 0.000000 0.000000 0.078129 0.000000
# 6 0.000000 0.000000 0.000000 0.000000 0.000000 0.029470
#
#
# Mechanical properties :
#
#
# Convention : Reuss Voigt Hill
#
# Bulk Modulus (GPa) = 52.98161 58.82064 55.90113
# Shear Modulus (GPa) = 21.15119 28.19990 24.67554
#
# Velocity S-wave (km/s) = 3.03117 3.49999 3.27399
# Velocity P-wave (km/s) = 5.93850 6.47185 6.21090
#
# Compressibility (1/GPa) = 0.01887447
#
# Stress axis : x y z
#
# Youngs Moduli (GPa) = 93.60722 131.60625 66.49692
#
# Poissons Ratio (x) = 0.24459 0.14500
# Poissons Ratio (y) = 0.17397 0.21170
# Poissons Ratio (z) = 0.20411 0.41898
#
# Static dielectric constant tensor:
#      x y z
#    x 3.587940 0.000000 0.000000 
#    y 0.000000 4.283900 0.000000 
#    z 0.000000 0.000000 4.115470 
# 
# 
# High freq. dielectric constant tensor:
#      x y z
#    x 1.905930 0.000000 0.000000 
#    y 0.000000 1.931380 0.000000 
#    z 0.000000 0.000000 1.891790 
# 
# From -- ./inp_files/25817.got.cif
#   From: 2010.03.12/outbox.cif.g09.slc.cpg/sg49_13_cif.got.tgz:25817.got - 2010.04.14 03:58:27.
