data_PCOD8204971
_publ_section_title
;
Structure prediction by ZEFSAII (Michael W. Deem and Ramdas Pophale) SiO2 
 PCOD8204971
Probable space group: P B A N
;
_chemical_formula_sum "Si O2"
_cell_formula_units_Z 64
_cell_length_a 20.714163
_cell_length_b 16.223597
_cell_length_c 9.106960
_cell_angle_alpha 90.000000
_cell_angle_beta 90.000000
_cell_angle_gamma 90.000000
_cell_volume 3060.468883
_symmetry_space_group_name_H-M "P B A N"
_symmetry_group_IT_number 50
_space_group.IT_coordinate_system_code '2'
_symmetry_cell_setting 'orthorhombic'
loop_
_space_group_symop_operation_xyz
x,y,z
1/2-x,1/2-y,z
x,1/2-y,-z
1/2-x,y,-z
-x,-y,-z
1/2+x,1/2+y,-z
-x,1/2+y,z
1/2+x,-y,z
loop_
_atom_site_type_symbol
_atom_site_label
_atom_site_fract_x
_atom_site_fract_y
_atom_site_fract_z
Si Si1 0.715416 0.664839 0.195669
Si Si2 0.313684 0.560906 0.432223
Si Si3 0.465117 0.123863 0.278358
Si Si4 0.938344 0.346228 0.502663
Si Si5 0.443586 0.183212 0.699806
Si Si6 0.899682 0.892098 0.998233
Si Si7 0.296367 0.498457 0.123195
Si Si8 0.852740 0.888769 0.469640
O O1 0.750000 0.750000 0.157769
O O2 0.653423 0.660640 0.088207
O O3 0.763216 0.588022 0.170097
O O4 0.693856 0.665402 0.365684
O O5 0.250000 0.602408 0.500000
O O6 0.371476 0.606175 0.517778
O O7 0.308711 0.564025 0.254115
O O8 0.313285 0.464931 0.469136
O O9 0.535874 0.114319 0.348150
O O10 0.449508 0.219786 0.305329
O O11 0.459858 0.092693 0.110657
O O12 0.412012 0.074468 0.373156
O O13 0.921971 0.250000 0.500000
O O14 0.992101 0.360884 0.630897
O O15 0.379490 0.162993 0.606965
O O16 0.432700 0.156075 0.865747
O O17 0.867033 0.977042 0.943747
O O18 0.250000 0.540589 0.000000
#
# Coordination Sequence:
#
# PCOD8204971 Si02
#       8
#     8   8   8   8   8   8   8   8
#     4  10  22  34  50  81 130 175 210 230 263 334
#     4  12  23  41  63  84 114 156 194 249 315 365
#     4   9  20  35  57  83 122 158 197 244 286 338
#     4   9  22  44  65  87 109 138 196 264 316 360
#     4  10  19  35  58  87 118 157 200 255 285 337
#     4  10  20  33  55  83 122 168 203 227 282 335
#     4  10  22  37  51  81 130 166 196 235 275 347
#     4  10  20  35  52  82 120 157 202 237 286 345
#
# _framework density 20.911829000000001
#
# number of rings (size 3 to 8) (size 9 to 14) (size 15 to 20)
#    0.000    2.000    2.500    1.500    5.250    5.000 
#    0.000    3.125    0.000    0.000    0.000    0.875 
#    0.000    0.000    0.000    0.000    0.000    0.000 
#
# Total GULP energy -793032.287101 kJ/mol
# GULP energy per Si atom -12391.129486 kJ/mol
# Density = 2.086423 g / cm^3
# Si number density = 20.911829 Si / 1000 Ang^3
#
#
#
# Elastic Constant Matrix: (Units=GPa)
#
#
# Indices 1 2 3 4 5 6 
#
# 1 100.3046 20.2663 43.6133 0.0000 0.0000 0.0000
# 2 20.2663 15.4783 16.6150 0.0000 0.0000 0.0000
# 3 43.6133 16.6150 131.9419 0.0000 0.0000 0.0000
# 4 0.0000 0.0000 0.0000 9.9655 0.0000 0.0000
# 5 0.0000 0.0000 0.0000 0.0000 24.2590 0.0000
# 6 0.0000 0.0000 0.0000 0.0000 0.0000 17.8801
#
#
#
# Elastic Compliance Matrix: (Units=1/GPa)
#
#
# Indices 1 2 3 4 5 6 
#
# 1 0.014372 -0.015862 -0.002753 0.000000 0.000000 0.000000
# 2 -0.015862 0.092212 -0.006369 0.000000 0.000000 0.000000
# 3 -0.002753 -0.006369 0.009291 0.000000 0.000000 0.000000
# 4 0.000000 0.000000 0.000000 0.100346 0.000000 0.000000
# 5 0.000000 0.000000 0.000000 0.000000 0.041222 0.000000
# 6 0.000000 0.000000 0.000000 0.000000 0.000000 0.055928
#
#
# Mechanical properties :
#
#
# Convention : Reuss Voigt Hill
#
# Bulk Modulus (GPa) = 15.17294 45.41264 30.29279
# Shear Modulus (GPa) = 12.97670 21.56962 17.27316
#
# Velocity S-wave (km/s) = 2.49377 3.21511 2.87714
# Velocity P-wave (km/s) = 3.94503 5.96205 5.05516
#
# Compressibility (1/GPa) = 0.06590679
#
# Stress axis : x y z
#
# Youngs Moduli (GPa) = 69.58191 10.84463 107.62978
#
# Poissons Ratio (x) = 0.17202 0.29631
# Poissons Ratio (y) = 1.10370 0.68546
# Poissons Ratio (z) = 0.19156 0.06907
#
# Static dielectric constant tensor:
#      x y z
#    x 3.867090 0.000000 0.000000 
#    y 0.000000 3.181800 0.000000 
#    z 0.000000 0.000000 4.270940 
# 
# 
# High freq. dielectric constant tensor:
#      x y z
#    x 1.816620 0.000000 0.000000 
#    y 0.000000 1.760560 0.000000 
#    z 0.000000 0.000000 1.835480 
# 
# From -- ./inp_files/15501.got.cif
#   From: 2010.03.12/outbox.cif.g09.slc.cpg/sg50_8_cif.got.tgz:15501.got - 2010.04.16 13:23:21.
