data_PCOD8204713
_publ_section_title
;
Structure prediction by ZEFSAII (Michael W. Deem and Ramdas Pophale) SiO2 
 PCOD8204713
Probable space group: P C C M
;
_chemical_formula_sum "Si O2"
_cell_formula_units_Z 40
_cell_length_a 24.000000
_cell_length_b 9.000000
_cell_length_c 9.000000
_cell_angle_alpha 90.000000
_cell_angle_beta 90.000000
_cell_angle_gamma 90.000000
_cell_volume 1944.000000
_symmetry_space_group_name_H-M "P C C M"
_symmetry_group_IT_number 49
_symmetry_cell_setting 'orthorhombic'
loop_
_space_group_symop_operation_xyz
x,y,z
-x,-y,z
x,-y,1/2-z
-x,y,1/2-z
-x,-y,-z
x,y,-z
-x,y,1/2+z
x,-y,1/2+z
loop_
_atom_site_type_symbol
_atom_site_label
_atom_site_fract_x
_atom_site_fract_y
_atom_site_fract_z
Si Si1 0.755445 0.651922 0.830123
Si Si2 0.060601 0.651318 0.319505
Si Si3 0.848189 0.157285 0.820910
Si Si4 0.647438 0.148846 0.330834
Si Si5 0.440251 0.651915 0.178876
O O1 0.740141 0.500000 0.750000
O O2 0.800740 0.728622 0.725938
O O3 0.699501 0.744034 0.833806
O O4 0.777821 0.630121 0.000000
O O5 0.087068 0.500000 0.250000
O O6 0.059423 0.646143 0.500000
O O7 0.094852 0.790649 0.257556
O O8 0.000000 0.670218 0.250000
O O9 0.832239 0.000000 0.750000
O O10 0.853593 0.148498 0.000000
O O11 0.626622 0.120193 0.500000
O O12 0.598578 0.213836 0.228844
O O13 0.667278 0.000000 0.250000
O O14 0.416154 0.500000 0.250000
O O15 0.500000 0.683770 0.250000
O O16 0.443503 0.639816 0.000000
#
# Coordination Sequence:
#
# PCOD8204713 Si02
#       5
#     8   8   8   8   8
#     4  11  24  42  65  92 122 159 202 249 299 357
#     4  11  22  40  64  92 124 161 205 251 301 356
#     4  12  25  42  63  90 124 161 202 250 304 361
#     4  11  24  41  62  90 124 160 201 248 303 360
#     4  11  22  39  63  90 122 159 203 250 300 356
#
# _framework density 20.576132000000001
#
# number of rings (size 3 to 8) (size 9 to 14) (size 15 to 20)
#    0.000    0.800    0.000    9.600    0.000    7.200 
#    0.000    4.000    0.000    0.000    0.000    0.000 
#    0.000    0.000    0.000    0.000    0.000    0.000 
#
# Total GULP energy -496063.809759 kJ/mol
# GULP energy per Si atom -12401.595244 kJ/mol
# Density = 2.052930 g / cm^3
# Si number density = 20.576132 Si / 1000 Ang^3
#
#
#
# Elastic Constant Matrix: (Units=GPa)
#
#
# Indices 1 2 3 4 5 6 
#
# 1 64.3029 32.7704 48.4928 0.0000 0.0000 0.0000
# 2 32.7704 111.4627 60.7564 0.0000 0.0000 0.0000
# 3 48.4928 60.7564 251.0175 0.0000 0.0000 0.0000
# 4 0.0000 0.0000 0.0000 41.8506 0.0000 0.0000
# 5 0.0000 0.0000 0.0000 0.0000 33.7690 0.0000
# 6 0.0000 0.0000 0.0000 0.0000 0.0000 81.6710
#
#
#
# Elastic Compliance Matrix: (Units=1/GPa)
#
#
# Indices 1 2 3 4 5 6 
#
# 1 0.019856 -0.004316 -0.002791 0.000000 0.000000 0.000000
# 2 -0.004316 0.011273 -0.001895 0.000000 0.000000 0.000000
# 3 -0.002791 -0.001895 0.004982 0.000000 0.000000 0.000000
# 4 0.000000 0.000000 0.000000 0.023895 0.000000 0.000000
# 5 0.000000 0.000000 0.000000 0.000000 0.029613 0.000000
# 6 0.000000 0.000000 0.000000 0.000000 0.000000 0.012244
#
#
# Mechanical properties :
#
#
# Convention : Reuss Voigt Hill
#
# Bulk Modulus (GPa) = 55.22868 78.98025 67.10446
# Shear Modulus (GPa) = 39.71319 50.44235 45.07777
#
# Velocity S-wave (km/s) = 4.39801 4.95663 4.68565
# Velocity P-wave (km/s) = 7.25875 8.43951 7.87130
#
# Compressibility (1/GPa) = 0.01810654
#
# Stress axis : x y z
#
# Youngs Moduli (GPa) = 50.36264 88.70414 200.73837
#
# Poissons Ratio (x) = 0.38287 0.56029
# Poissons Ratio (y) = 0.21738 0.38035
# Poissons Ratio (z) = 0.14057 0.16807
#
# Static dielectric constant tensor:
#      x y z
#    x 3.732970 0.000000 0.000000 
#    y 0.000000 3.953420 0.000000 
#    z 0.000000 0.000000 4.215820 
# 
# 
# High freq. dielectric constant tensor:
#      x y z
#    x 1.809910 0.000000 0.000000 
#    y 0.000000 1.813740 0.000000 
#    z 0.000000 0.000000 1.845790 
# 
# From -- ./inp_files/1686.got.cif
#   From: 2010.03.12/outbox.ucp.g09.slc.cvg/sg49_1_cif.got.tgz:1686.got - 2010.05.04 21:28:32.
