data_PCOD8204361
_publ_section_title
;
Structure prediction by ZEFSAII (Michael W. Deem and Ramdas Pophale) SiO2 
 PCOD8204361
Probable space group: P C C M
;
_chemical_formula_sum "Si O2"
_cell_formula_units_Z 52
_cell_length_a 19.190748
_cell_length_b 8.920210
_cell_length_c 14.784732
_cell_angle_alpha 90.000000
_cell_angle_beta 90.000000
_cell_angle_gamma 90.000000
_cell_volume 2530.931773
_symmetry_space_group_name_H-M "P C C M"
_symmetry_group_IT_number 49
_symmetry_cell_setting 'orthorhombic'
loop_
_space_group_symop_operation_xyz
x,y,z
-x,-y,z
x,-y,1/2-z
-x,y,1/2-z
-x,-y,-z
x,y,-z
-x,y,1/2+z
x,-y,1/2+z
loop_
_atom_site_type_symbol
_atom_site_label
_atom_site_fract_x
_atom_site_fract_y
_atom_site_fract_z
Si Si1 0.081847 0.769519 0.250624
Si Si2 0.403774 0.396916 0.168170
Si Si3 0.183277 0.500000 0.250000
Si Si4 0.081559 0.007629 0.600010
Si Si5 0.522334 0.827788 0.399953
Si Si6 0.343634 0.835714 0.784104
Si Si7 0.286466 0.403219 0.398385
O O1 0.131653 0.633844 0.265922
O O2 0.103116 0.872337 0.335281
O O3 0.000000 0.727132 0.250000
O O4 0.101449 0.841122 0.153469
O O5 0.433997 0.500000 0.250000
O O6 0.463784 0.299379 0.119421
O O7 0.344183 0.279362 0.200361
O O8 0.362000 0.512254 0.103090
O O9 0.230411 0.490387 0.338966
O O10 0.117671 0.002330 0.500000
O O11 0.000000 0.000000 0.585725
O O12 0.552552 0.789585 0.500000
O O13 0.577910 0.826451 0.320656
O O14 0.500000 0.000000 0.401183
O O15 0.292451 0.768645 0.860489
O O16 0.320517 0.000000 0.750000
O O17 0.258813 0.394361 0.500000
#
# Coordination Sequence:
#
# PCOD8204361 Si02
#       7
#     8   8   4   8   8   8   8
#     4   9  19  35  62  94 127 161 198 251 312 367
#     4  10  21  40  63  89 118 160 199 247 311 369
#     4  12  23  42  60  89 124 164 212 262 300 369
#     4   8  15  33  60  92 126 157 191 236 298 367
#     4  11  22  34  58  97 125 150 194 253 312 376
#     4  11  21  40  63  87 121 157 201 257 316 370
#     4  11  25  46  64  85 121 170 213 256 309 370
#
# _framework density 20.545791999999999
#
# number of rings (size 3 to 8) (size 9 to 14) (size 15 to 20)
#    0.000    1.846    3.846    2.538    0.000    5.538 
#    2.769    3.846    0.000    4.615    0.000    0.000 
#    0.000    0.000    0.000    0.000    0.000    0.000 
#
# Total GULP energy -644185.995696 kJ/mol
# GULP energy per Si atom -12388.192225 kJ/mol
# Density = 2.049903 g / cm^3
# Si number density = 20.545792 Si / 1000 Ang^3
#
#
#
# Elastic Constant Matrix: (Units=GPa)
#
#
# Indices 1 2 3 4 5 6 
#
# 1 69.6048 43.5587 35.4693 0.0000 0.0000 0.0000
# 2 43.5587 142.3532 56.8537 0.0000 0.0000 0.0000
# 3 35.4693 56.8537 156.3712 0.0000 0.0000 0.0000
# 4 0.0000 0.0000 0.0000 21.6944 0.0000 0.0000
# 5 0.0000 0.0000 0.0000 0.0000 12.0677 0.0000
# 6 0.0000 0.0000 0.0000 0.0000 0.0000 47.4622
#
#
#
# Elastic Compliance Matrix: (Units=1/GPa)
#
#
# Indices 1 2 3 4 5 6 
#
# 1 0.018576 -0.004681 -0.002512 0.000000 0.000000 0.000000
# 2 -0.004681 0.009398 -0.002355 0.000000 0.000000 0.000000
# 3 -0.002512 -0.002355 0.007821 0.000000 0.000000 0.000000
# 4 0.000000 0.000000 0.000000 0.046095 0.000000 0.000000
# 5 0.000000 0.000000 0.000000 0.000000 0.082866 0.000000
# 6 0.000000 0.000000 0.000000 0.000000 0.000000 0.021069
#
#
# Mechanical properties :
#
#
# Convention : Reuss Voigt Hill
#
# Bulk Modulus (GPa) = 59.88238 71.12140 65.50189
# Shear Modulus (GPa) = 23.75448 31.74138 27.74793
#
# Velocity S-wave (km/s) = 3.40394 3.93480 3.67896
# Velocity P-wave (km/s) = 6.68268 7.43873 7.07082
#
# Compressibility (1/GPa) = 0.01669940
#
# Stress axis : x y z
#
# Youngs Moduli (GPa) = 53.83268 106.40915 127.86086
#
# Poissons Ratio (x) = 0.49810 0.32114
# Poissons Ratio (y) = 0.25199 0.30112
# Poissons Ratio (z) = 0.13521 0.25060
#
# Static dielectric constant tensor:
#      x y z
#    x 3.428400 0.000000 0.000000 
#    y 0.000000 3.998690 0.000000 
#    z 0.000000 0.000000 4.201330 
# 
# 
# High freq. dielectric constant tensor:
#      x y z
#    x 1.772010 0.000000 0.000000 
#    y 0.000000 1.814800 0.000000 
#    z 0.000000 0.000000 1.806370 
# 
# From -- ./inp_files/14334.got.cif
#   From: 2010.03.12/outbox.cif.g09.slc.cpg/sg49_8_cif.got.tgz:14334.got - 2010.04.14 03:58:27.
