data_PCOD8204322
_publ_section_title
;
Structure prediction by ZEFSAII (Michael W. Deem and Ramdas Pophale) SiO2 
 PCOD8204322
Probable space group: P C C M
;
_chemical_formula_sum "Si O2"
_cell_formula_units_Z 30
_cell_length_a 12.719227
_cell_length_b 4.883810
_cell_length_c 23.765331
_cell_angle_alpha 90.000000
_cell_angle_beta 90.000000
_cell_angle_gamma 90.000000
_cell_volume 1476.261676
_symmetry_space_group_name_H-M "P C C M"
_symmetry_group_IT_number 49
_symmetry_cell_setting 'orthorhombic'
loop_
_space_group_symop_operation_xyz
x,y,z
-x,-y,z
x,-y,1/2-z
-x,y,1/2-z
-x,-y,-z
x,y,-z
-x,y,1/2+z
x,-y,1/2+z
loop_
_atom_site_type_symbol
_atom_site_label
_atom_site_fract_x
_atom_site_fract_y
_atom_site_fract_z
Si Si1 0.500000 0.500000 0.250000
Si Si2 0.577016 0.246198 0.000000
Si Si3 0.395739 0.140437 0.843026
Si Si4 0.928606 0.759574 0.562666
Si Si5 0.293061 0.332592 0.390643
O O1 0.573616 0.705323 0.214485
O O2 0.500000 0.500000 0.000000
O O3 0.652830 0.222248 0.946569
O O4 0.500000 0.000000 0.000000
O O5 0.337444 0.361923 0.881850
O O6 0.500000 0.000000 0.870790
O O7 0.319396 0.874559 0.838113
O O8 0.889558 0.849466 0.500000
O O9 0.832029 0.677151 0.602685
O O10 0.000000 0.500000 0.556837
O O11 0.000000 0.000000 0.589798
#
# Coordination Sequence:
#
# PCOD8204322 Si02
#       5
#     2   4   8   8   8
#     4  12  26  44  66  86 128 160 206 268 314 370
#     4  12  24  34  52  84 134 174 192 228 291 367
#     4  12  24  40  63  90 127 160 209 251 308 382
#     4  10  21  39  61  87 126 171 216 255 293 352
#     4  12  23  39  60  93 126 172 207 245 307 370
#
# _framework density 20.321601000000001
#
# number of rings (size 3 to 8) (size 9 to 14) (size 15 to 20)
#    0.000    0.533    4.000    6.000    0.000    0.000 
#    0.000    0.000    0.000    0.000    0.000   14.000 
#    0.000    0.000    0.000    0.000    0.000    0.000 
#
# Total GULP energy -371682.499478 kJ/mol
# GULP energy per Si atom -12389.416649 kJ/mol
# Density = 2.027535 g / cm^3
# Si number density = 20.321601 Si / 1000 Ang^3
#
#
#
# Elastic Constant Matrix: (Units=GPa)
#
#
# Indices 1 2 3 4 5 6 
#
# 1 145.1683 60.7963 37.9447 0.0000 0.0000 0.0000
# 2 60.7963 153.6144 18.9089 0.0000 0.0000 0.0000
# 3 37.9447 18.9089 45.8001 0.0000 0.0000 0.0000
# 4 0.0000 0.0000 0.0000 37.2113 0.0000 0.0000
# 5 0.0000 0.0000 0.0000 0.0000 20.6797 0.0000
# 6 0.0000 0.0000 0.0000 0.0000 0.0000 38.7995
#
#
#
# Elastic Compliance Matrix: (Units=1/GPa)
#
#
# Indices 1 2 3 4 5 6 
#
# 1 0.010024 -0.003103 -0.007024 0.000000 0.000000 0.000000
# 2 -0.003103 0.007819 -0.000658 0.000000 0.000000 0.000000
# 3 -0.007024 -0.000658 0.027924 0.000000 0.000000 0.000000
# 4 0.000000 0.000000 0.000000 0.026874 0.000000 0.000000
# 5 0.000000 0.000000 0.000000 0.000000 0.048357 0.000000
# 6 0.000000 0.000000 0.000000 0.000000 0.000000 0.025774
#
#
# Mechanical properties :
#
#
# Convention : Reuss Voigt Hill
#
# Bulk Modulus (GPa) = 41.32339 64.43140 52.87740
# Shear Modulus (GPa) = 28.34393 34.46694 31.40544
#
# Velocity S-wave (km/s) = 3.73871 4.12281 3.93545
# Velocity P-wave (km/s) = 6.24629 7.37822 6.83572
#
# Compressibility (1/GPa) = 0.02419937
#
# Stress axis : x y z
#
# Youngs Moduli (GPa) = 99.76289 127.89911 35.81095
#
# Poissons Ratio (x) = 0.39682 0.25152
# Poissons Ratio (y) = 0.30952 0.02355
# Poissons Ratio (z) = 0.70070 0.08410
#
# Static dielectric constant tensor:
#      x y z
#    x 3.661380 0.000000 0.000000 
#    y 0.000000 4.033210 0.000000 
#    z 0.000000 0.000000 3.471250 
# 
# 
# High freq. dielectric constant tensor:
#      x y z
#    x 1.785530 0.000000 0.000000 
#    y 0.000000 1.827680 0.000000 
#    z 0.000000 0.000000 1.754130 
# 
# From -- ./inp_files/20204.got.cif
#   From: 2010.03.12/outbox.cif.g09.slc.cpg/sg49_11_cif.got.tgz:20204.got - 2010.04.14 03:58:27.
