data_PCOD8204745
_publ_section_title
;
Structure prediction by ZEFSAII (Michael W. Deem and Ramdas Pophale) SiO2 
 PCOD8204745
Probable space group: P B A N
;
_chemical_formula_sum "Si O2"
_cell_formula_units_Z 28
_cell_length_a 10.811260
_cell_length_b 14.624147
_cell_length_c 9.151678
_cell_angle_alpha 90.000000
_cell_angle_beta 90.000000
_cell_angle_gamma 90.000000
_cell_volume 1446.930219
_symmetry_space_group_name_H-M "P B A N"
_symmetry_group_IT_number 50
_space_group.IT_coordinate_system_code '2'
_symmetry_cell_setting 'orthorhombic'
loop_
_space_group_symop_operation_xyz
x,y,z
1/2-x,1/2-y,z
x,1/2-y,-z
1/2-x,y,-z
-x,-y,-z
1/2+x,1/2+y,-z
-x,1/2+y,z
1/2+x,-y,z
loop_
_atom_site_type_symbol
_atom_site_label
_atom_site_fract_x
_atom_site_fract_y
_atom_site_fract_z
Si Si1 0.379816 0.979054 0.404173
Si Si2 0.750000 0.750000 0.500000
Si Si3 0.895532 0.841961 0.249506
Si Si4 0.250000 0.250000 0.000000
Si Si5 0.617874 0.225223 0.667883
O O1 0.250000 0.980433 0.500000
O O2 0.402175 0.883221 0.321941
O O3 0.500000 0.000000 0.500000
O O4 0.390356 0.048872 0.267410
O O5 0.833026 0.813132 0.400508
O O6 0.827298 0.817725 0.100919
O O7 0.024878 0.788295 0.239532
O O8 0.750000 0.250000 0.734996
O O9 0.608299 0.250000 0.500000
#
# Coordination Sequence:
#
# PCOD8204745 Si02
#       5
#     8   2   8   2   8
#     4  12  21  34  65 102 126 161 213 279 331 380
#     4  10  16  30  62  86 114 146 212 276 308 330
#     4  11  21  40  61  93 124 169 217 268 312 388
#     4  10  28  42  62  86 138 174 224 264 312 378
#     4  11  20  37  61  97 134 154 199 277 346 381
#
# _framework density 19.351312
#
# number of rings (size 3 to 8) (size 9 to 14) (size 15 to 20)
#    0.000    0.857    8.571    0.000    4.000    0.000 
#    0.000    2.143    0.000    0.000    0.000    0.000 
#    0.000    0.000    0.000    0.000    0.000    0.000 
#
# Total GULP energy -346880.670869 kJ/mol
# GULP energy per Si atom -12388.595388 kJ/mol
# Density = 1.930727 g / cm^3
# Si number density = 19.351312 Si / 1000 Ang^3
#
#
#
# Elastic Constant Matrix: (Units=GPa)
#
#
# Indices 1 2 3 4 5 6 
#
# 1 142.0277 46.8436 35.3048 0.0000 0.0000 0.0000
# 2 46.8436 183.6493 36.8787 0.0000 0.0000 0.0000
# 3 35.3048 36.8787 85.1595 0.0000 0.0000 0.0000
# 4 0.0000 0.0000 0.0000 113.4963 0.0000 0.0000
# 5 0.0000 0.0000 0.0000 0.0000 28.6216 0.0000
# 6 0.0000 0.0000 0.0000 0.0000 0.0000 34.2804
#
#
#
# Elastic Compliance Matrix: (Units=1/GPa)
#
#
# Indices 1 2 3 4 5 6 
#
# 1 0.008234 -0.001549 -0.002742 0.000000 0.000000 0.000000
# 2 -0.001549 0.006255 -0.002067 0.000000 0.000000 0.000000
# 3 -0.002742 -0.002067 0.013775 0.000000 0.000000 0.000000
# 4 0.000000 0.000000 0.000000 0.008811 0.000000 0.000000
# 5 0.000000 0.000000 0.000000 0.000000 0.034939 0.000000
# 6 0.000000 0.000000 0.000000 0.000000 0.000000 0.029171
#
#
# Mechanical properties :
#
#
# Convention : Reuss Voigt Hill
#
# Bulk Modulus (GPa) = 64.32254 72.09895 68.21074
# Shear Modulus (GPa) = 41.98736 54.73361 48.36049
#
# Velocity S-wave (km/s) = 4.66310 5.32406 5.00450
# Velocity P-wave (km/s) = 7.89330 8.66792 8.28967
#
# Compressibility (1/GPa) = 0.01554665
#
# Stress axis : x y z
#
# Youngs Moduli (GPa) = 121.45314 159.86273 72.59766
#
# Poissons Ratio (x) = 0.24770 0.19910
# Poissons Ratio (y) = 0.18819 0.15003
# Poissons Ratio (z) = 0.33308 0.33036
#
# Static dielectric constant tensor:
#      x y z
#    x 3.750580 0.000000 0.000000 
#    y 0.000000 4.104930 0.000000 
#    z 0.000000 0.000000 3.076190 
# 
# 
# High freq. dielectric constant tensor:
#      x y z
#    x 1.772240 0.000000 0.000000 
#    y 0.000000 1.774900 0.000000 
#    z 0.000000 0.000000 1.703350 
# 
# From -- ./inp_files/10508.got.cif
#   From: 2010.03.12/outbox.cif.g09.slc.cpg/sg50_6_cif.got.tgz:10508.got - 2010.04.16 13:23:21.
