data_PCOD8204998
_publ_section_title
;
Structure prediction by ZEFSAII (Michael W. Deem and Ramdas Pophale) SiO2 
 PCOD8204998
Probable space group: P B A N
;
_chemical_formula_sum "Si O2"
_cell_formula_units_Z 40
_cell_length_a 14.692754
_cell_length_b 15.506464
_cell_length_c 8.514690
_cell_angle_alpha 90.000000
_cell_angle_beta 90.000000
_cell_angle_gamma 90.000000
_cell_volume 1939.924480
_symmetry_space_group_name_H-M "P B A N"
_symmetry_group_IT_number 50
_space_group.IT_coordinate_system_code '2'
_symmetry_cell_setting 'orthorhombic'
loop_
_space_group_symop_operation_xyz
x,y,z
1/2-x,1/2-y,z
x,1/2-y,-z
1/2-x,y,-z
-x,-y,-z
1/2+x,1/2+y,-z
-x,1/2+y,z
1/2+x,-y,z
loop_
_atom_site_type_symbol
_atom_site_label
_atom_site_fract_x
_atom_site_fract_y
_atom_site_fract_z
Si Si1 0.408956 0.434743 0.830104
Si Si2 0.798319 0.167897 0.834091
Si Si3 0.726021 0.988407 0.320055
Si Si4 0.045607 0.417919 0.802983
Si Si5 0.001663 0.231494 0.831461
O O1 0.303740 0.450629 0.793252
O O2 0.467439 0.513493 0.759247
O O3 0.439299 0.344031 0.748249
O O4 0.426611 0.427702 0.015518
O O5 0.750000 0.250000 0.753108
O O6 0.902343 0.192243 0.862355
O O7 0.791541 0.087906 0.719044
O O8 0.750000 0.146359 0.000000
O O9 0.750000 0.979385 0.500000
O O10 0.634944 0.933813 0.298580
O O11 0.005807 0.324517 0.746312
O O12 0.046934 0.250000 0.000000
#
# Coordination Sequence:
#
# PCOD8204998 Si02
#       5
#     8   8   8   8   8
#     4  10  21  39  66  92 125 161 218 271 321 370
#     4  11  20  37  69  98 125 154 217 276 324 373
#     4  12  26  41  61  91 135 181 210 251 318 392
#     4  10  21  40  66  95 127 161 215 273 321 376
#     4  10  19  36  64 101 119 156 208 278 324 366
#
# _framework density 20.61936
#
# number of rings (size 3 to 8) (size 9 to 14) (size 15 to 20)
#    0.000    1.400    4.000    3.000    2.800    2.000 
#    0.000    5.000    0.000    0.000    0.000    0.000 
#    0.000    0.000    0.000    0.000    0.000    0.000 
#
# Total GULP energy -495823.544830 kJ/mol
# GULP energy per Si atom -12395.588621 kJ/mol
# Density = 2.057243 g / cm^3
# Si number density = 20.619360 Si / 1000 Ang^3
#
#
#
# Elastic Constant Matrix: (Units=GPa)
#
#
# Indices 1 2 3 4 5 6 
#
# 1 102.7245 42.6441 23.4594 0.0000 0.0000 0.0000
# 2 42.6441 167.1348 23.1342 0.0000 0.0000 0.0000
# 3 23.4594 23.1342 41.8697 0.0000 0.0000 0.0000
# 4 0.0000 0.0000 0.0000 14.2983 0.0000 0.0000
# 5 0.0000 0.0000 0.0000 0.0000 12.6063 0.0000
# 6 0.0000 0.0000 0.0000 0.0000 0.0000 38.7569
#
#
#
# Elastic Compliance Matrix: (Units=1/GPa)
#
#
# Indices 1 2 3 4 5 6 
#
# 1 0.011923 -0.002293 -0.005414 0.000000 0.000000 0.000000
# 2 -0.002293 0.006920 -0.002539 0.000000 0.000000 0.000000
# 3 -0.005414 -0.002539 0.028319 0.000000 0.000000 0.000000
# 4 0.000000 0.000000 0.000000 0.069938 0.000000 0.000000
# 5 0.000000 0.000000 0.000000 0.000000 0.079325 0.000000
# 6 0.000000 0.000000 0.000000 0.000000 0.000000 0.025802
#
#
# Mechanical properties :
#
#
# Convention : Reuss Voigt Hill
#
# Bulk Modulus (GPa) = 37.49239 54.46716 45.97978
# Shear Modulus (GPa) = 19.87221 27.96507 23.91864
#
# Velocity S-wave (km/s) = 3.10782 3.68673 3.40959
# Velocity P-wave (km/s) = 5.57680 6.67799 6.15208
#
# Compressibility (1/GPa) = 0.02667208
#
# Stress axis : x y z
#
# Youngs Moduli (GPa) = 83.87238 144.51744 35.31140
#
# Poissons Ratio (x) = 0.33135 0.19116
# Poissons Ratio (y) = 0.19230 0.08964
# Poissons Ratio (z) = 0.45404 0.36688
#
# Static dielectric constant tensor:
#      x y z
#    x 3.839500 0.000000 0.000000 
#    y 0.000000 4.486980 0.000000 
#    z 0.000000 0.000000 3.295830 
# 
# 
# High freq. dielectric constant tensor:
#      x y z
#    x 1.815360 0.000000 0.000000 
#    y 0.000000 1.831530 0.000000 
#    z 0.000000 0.000000 1.753050 
# 
# From -- ./inp_files/12540.got.cif
#   From: 2010.03.12/outbox.cif.g09.slc.cpg/sg50_7_cif.got.tgz:12540.got - 2010.04.16 13:23:21.
