data_PCOD8204288
_publ_section_title
;
Structure prediction by ZEFSAII (Michael W. Deem and Ramdas Pophale) SiO2 
 PCOD8204288
Probable space group: P C C M
;
_chemical_formula_sum "Si O2"
_cell_formula_units_Z 64
_cell_length_a 17.810905
_cell_length_b 11.234510
_cell_length_c 14.974834
_cell_angle_alpha 90.000000
_cell_angle_beta 90.000000
_cell_angle_gamma 90.000000
_cell_volume 2996.416219
_symmetry_space_group_name_H-M "P C C M"
_symmetry_group_IT_number 49
_symmetry_cell_setting 'orthorhombic'
loop_
_space_group_symop_operation_xyz
x,y,z
-x,-y,z
x,-y,1/2-z
-x,y,1/2-z
-x,-y,-z
x,y,-z
-x,y,1/2+z
x,-y,1/2+z
loop_
_atom_site_type_symbol
_atom_site_label
_atom_site_fract_x
_atom_site_fract_y
_atom_site_fract_z
Si Si1 0.252644 0.476632 0.102292
Si Si2 0.911381 0.139003 0.751321
Si Si3 0.417457 0.222449 0.228106
Si Si4 0.826827 0.710221 0.397642
Si Si5 0.191988 0.225524 0.102301
Si Si6 0.420635 0.536706 0.350999
Si Si7 0.667320 0.927884 0.902186
Si Si8 0.336510 0.204647 0.403296
O O1 0.197402 0.579152 0.142497
O O2 0.233988 0.345125 0.140437
O O3 0.341356 0.512853 0.110692
O O4 0.232540 0.476031 0.000000
O O5 0.884879 0.216349 0.836867
O O6 0.880611 0.201334 0.661976
O O7 0.000000 0.148589 0.750000
O O8 0.886208 0.000000 0.750000
O O9 0.500000 0.180413 0.250000
O O10 0.415267 0.320963 0.150094
O O11 0.377194 0.111811 0.184509
O O12 0.379519 0.267953 0.321075
O O13 0.857947 0.702010 0.500000
O O14 0.751808 0.785713 0.394710
O O15 0.246632 0.112273 0.112196
O O16 0.165774 0.242512 0.000000
O O17 0.500000 0.500000 0.400713
O O18 0.429458 0.500000 0.250000
O O19 0.650377 0.065542 0.900991
O O20 0.641762 0.876862 0.000000
O O21 0.363850 0.256827 0.500000
#
# Coordination Sequence:
#
# PCOD8204288 Si02
#       8
#     8   8   8   8   8   8   8   8
#     4  10  22  40  65  95 122 164 214 260 316 373
#     4  11  25  43  66  98 130 166 209 249 306 379
#     4  12  23  37  56  81 116 160 204 257 319 374
#     4  10  22  41  66  96 129 162 206 260 312 368
#     4  10  21  40  65  96 128 162 206 260 312 368
#     4  11  22  37  56  85 122 158 207 260 315 372
#     4  10  21  38  61  87 115 154 209 262 311 371
#     4  10  22  39  59  85 117 158 209 260 310 369
#
# _framework density 21.35885
#
# number of rings (size 3 to 8) (size 9 to 14) (size 15 to 20)
#    0.000    1.500    2.500    2.625    1.750    3.750 
#    0.000    3.750    0.000    2.625    0.000    0.000 
#    0.000    0.000    0.000    0.000    0.000    0.000 
#
# Total GULP energy -792842.958925 kJ/mol
# GULP energy per Si atom -12388.171233 kJ/mol
# Density = 2.131024 g / cm^3
# Si number density = 21.358850 Si / 1000 Ang^3
#
#
#
# Elastic Constant Matrix: (Units=GPa)
#
#
# Indices 1 2 3 4 5 6 
#
# 1 97.4668 36.7502 42.4478 0.0000 0.0000 0.0000
# 2 36.7502 72.1065 22.9619 0.0000 0.0000 0.0000
# 3 42.4478 22.9619 95.5839 0.0000 0.0000 0.0000
# 4 0.0000 0.0000 0.0000 20.2085 0.0000 0.0000
# 5 0.0000 0.0000 0.0000 0.0000 0.3118 0.0000
# 6 0.0000 0.0000 0.0000 0.0000 0.0000 39.7325
#
#
#
# Elastic Compliance Matrix: (Units=1/GPa)
#
#
# Indices 1 2 3 4 5 6 
#
# 1 0.014700 -0.005862 -0.005120 0.000000 0.000000 0.000000
# 2 -0.005862 0.017354 -0.001566 0.000000 0.000000 0.000000
# 3 -0.005120 -0.001566 0.013112 0.000000 0.000000 0.000000
# 4 0.000000 0.000000 0.000000 0.049484 0.000000 0.000000
# 5 0.000000 0.000000 0.000000 0.000000 3.206912 0.000000
# 6 0.000000 0.000000 0.000000 0.000000 0.000000 0.025168
#
#
# Mechanical properties :
#
#
# Convention : Reuss Voigt Hill
#
# Bulk Modulus (GPa) = 49.82246 52.16414 50.99330
# Shear Modulus (GPa) = 1.48875 22.91704 12.20290
#
# Velocity S-wave (km/s) = 0.83578 3.27915 2.39284
# Velocity P-wave (km/s) = 4.93035 6.23000 5.61788
#
# Compressibility (1/GPa) = 0.02007127
#
# Stress axis : x y z
#
# Youngs Moduli (GPa) = 68.02811 57.62200 76.26658
#
# Poissons Ratio (x) = 0.33776 0.39048
# Poissons Ratio (y) = 0.39875 0.11943
# Poissons Ratio (z) = 0.34830 0.09023
#
# Static dielectric constant tensor:
#      x y z
#    x 3.637230 0.000000 0.000000 
#    y 0.000000 5.020560 0.000000 
#    z 0.000000 0.000000 4.088080 
# 
# 
# High freq. dielectric constant tensor:
#      x y z
#    x 1.807140 0.000000 0.000000 
#    y 0.000000 1.855040 0.000000 
#    z 0.000000 0.000000 1.840490 
# 
# From -- ./inp_files/14181.got.cif
#   From: 2010.03.12/outbox.cif.g09.slc.cpg/sg49_8_cif.got.tgz:14181.got - 2010.04.14 03:58:27.
