data_PCOD8204011
_publ_section_title
;
Structure prediction by ZEFSAII (Michael W. Deem and Ramdas Pophale) SiO2 
 PCOD8204011
Probable space group: P C C M
;
_chemical_formula_sum "Si O2"
_cell_formula_units_Z 48
_cell_length_a 10.490276
_cell_length_b 7.632766
_cell_length_c 30.783011
_cell_angle_alpha 90.000000
_cell_angle_beta 90.000000
_cell_angle_gamma 90.000000
_cell_volume 2464.790211
_symmetry_space_group_name_H-M "P C C M"
_symmetry_group_IT_number 49
_symmetry_cell_setting 'orthorhombic'
loop_
_space_group_symop_operation_xyz
x,y,z
-x,-y,z
x,-y,1/2-z
-x,y,1/2-z
-x,-y,-z
x,y,-z
-x,y,1/2+z
x,-y,1/2+z
loop_
_atom_site_type_symbol
_atom_site_label
_atom_site_fract_x
_atom_site_fract_y
_atom_site_fract_z
Si Si1 0.760002 0.293474 0.346657
Si Si2 0.139806 0.015139 0.399461
Si Si3 0.616337 0.132798 0.951591
Si Si4 0.771804 0.305365 0.838216
Si Si5 0.849651 0.199543 0.252806
Si Si6 0.514874 0.301906 0.871106
O O1 0.778684 0.498680 0.359202
O O2 0.790183 0.280591 0.295935
O O3 0.619738 0.214461 0.359012
O O4 0.851315 0.170634 0.374650
O O5 0.252233 0.044970 0.434438
O O6 0.135335 0.174209 0.364387
O O7 0.000000 0.000000 0.422202
O O8 0.563574 0.287162 0.920969
O O9 0.500000 0.000000 0.952273
O O10 0.643221 0.205582 0.000000
O O11 0.801208 0.313436 0.787532
O O12 0.629176 0.223571 0.842089
O O13 0.000000 0.214088 0.250000
O O14 0.803378 0.000000 0.250000
O O15 0.500000 0.500000 0.857752
#
# Coordination Sequence:
#
# PCOD8204011 Si02
#       6
#     8   8   8   8   8   8
#     4  11  21  37  59  80 117 151 191 245 281 331
#     4  11  22  37  59  86 118 152 191 237 286 343
#     4  10  20  37  62  87 114 149 191 233 289 357
#     4  10  22  37  56  85 111 152 199 233 288 339
#     4  11  22  36  52  77 114 155 195 234 281 335
#     4   9  20  38  59  86 112 145 191 238 289 345
#
# _framework density 19.474273
#
# number of rings (size 3 to 8) (size 9 to 14) (size 15 to 20)
#    0.000    1.667    3.333    1.500    0.000    4.667 
#    0.000    3.333    0.000    0.000    0.000    4.667 
#    0.000    0.000    0.000    0.000    0.000    0.000 
#
# Total GULP energy -594776.970042 kJ/mol
# GULP energy per Si atom -12391.186876 kJ/mol
# Density = 1.942995 g / cm^3
# Si number density = 19.474273 Si / 1000 Ang^3
#
#
#
# Elastic Constant Matrix: (Units=GPa)
#
#
# Indices 1 2 3 4 5 6 
#
# 1 128.6688 27.1378 45.8856 0.0000 0.0000 0.0000
# 2 27.1378 73.3298 6.7018 0.0000 0.0000 0.0000
# 3 45.8856 6.7018 105.4198 0.0000 0.0000 0.0000
# 4 0.0000 0.0000 0.0000 15.7539 0.0000 0.0000
# 5 0.0000 0.0000 0.0000 0.0000 15.2360 0.0000
# 6 0.0000 0.0000 0.0000 0.0000 0.0000 -22.4054
#
#
#
# Elastic Compliance Matrix: (Units=1/GPa)
#
#
# Indices 1 2 3 4 5 6 
#
# 1 0.009935 -0.003301 -0.004115 0.000000 0.000000 0.000000
# 2 -0.003301 0.014813 0.000495 0.000000 0.000000 0.000000
# 3 -0.004115 0.000495 0.011245 0.000000 0.000000 0.000000
# 4 0.000000 0.000000 0.000000 0.063476 0.000000 0.000000
# 5 0.000000 0.000000 0.000000 0.000000 0.065634 0.000000
# 6 0.000000 0.000000 0.000000 0.000000 0.000000 -0.044632
#
#
# Mechanical properties :
#
#
# Convention : Reuss Voigt Hill
#
# Bulk Modulus (GPa) = 45.14032 51.87429 48.50730
# Shear Modulus (GPa) = 35.28643 16.89647 26.09145
#
# Velocity S-wave (km/s) = 4.26132 2.94875 3.66429
# Velocity P-wave (km/s) = 6.88778 6.18779 6.54715
#
# Compressibility (1/GPa) = 0.02215314
#
# Stress axis : x y z
#
# Youngs Moduli (GPa) = 100.64954 67.50669 88.92514
#
# Poissons Ratio (x) = 0.22283 0.36590
# Poissons Ratio (y) = 0.33223 -0.04402
# Poissons Ratio (z) = 0.41414 -0.03342
#
# Static dielectric constant tensor:
#      x y z
#    x 4.892850 0.000000 0.000000 
#    y 0.000000 3.531080 0.000000 
#    z 0.000000 0.000000 3.588150 
# 
# 
# High freq. dielectric constant tensor:
#      x y z
#    x 1.772900 0.000000 0.000000 
#    y 0.000000 1.756520 0.000000 
#    z 0.000000 0.000000 1.737420 
# 
# From -- ./inp_files/26245.got.cif
#   From: 2010.03.12/outbox.cif.g09.slc.cpg/sg49_14_cif.got.tgz:26245.got - 2010.04.14 03:58:27.
