data_PCOD8204638
_publ_section_title
;
Structure prediction by ZEFSAII (Michael W. Deem and Ramdas Pophale) SiO2 
 PCOD8204638
Probable space group: P C C M
;
_chemical_formula_sum "Si O2"
_cell_formula_units_Z 26
_cell_length_a 7.422162
_cell_length_b 16.564716
_cell_length_c 8.762551
_cell_angle_alpha 90.000000
_cell_angle_beta 90.000000
_cell_angle_gamma 90.000000
_cell_volume 1077.320645
_symmetry_space_group_name_H-M "P C C M"
_symmetry_group_IT_number 49
_symmetry_cell_setting 'orthorhombic'
loop_
_space_group_symop_operation_xyz
x,y,z
-x,-y,z
x,-y,1/2-z
-x,y,1/2-z
-x,-y,-z
x,y,-z
-x,y,1/2+z
x,-y,1/2+z
loop_
_atom_site_type_symbol
_atom_site_label
_atom_site_fract_x
_atom_site_fract_y
_atom_site_fract_z
Si Si1 0.000000 0.500000 0.250000
Si Si2 0.302833 0.918741 0.318374
Si Si3 0.329796 0.607448 0.329114
Si Si4 0.179464 0.244334 0.680377
O O1 0.857954 0.443438 0.340902
O O2 0.500000 0.910250 0.250000
O O3 0.309621 0.923749 0.500000
O O4 0.195225 0.841029 0.264915
O O5 0.211408 0.000000 0.250000
O O6 0.500000 0.560345 0.250000
O O7 0.382493 0.631068 0.500000
O O8 0.324846 0.689132 0.227331
O O9 0.175365 0.231160 0.500000
O O10 0.000000 0.283448 0.750000
#
# Coordination Sequence:
#
# PCOD8204638 Si02
#       4
#     2   8   8   8
#     4  12  28  48  80 108 148 184 244 292 362 422
#     4  11  22  40  65  97 136 181 233 290 349 415
#     4  12  27  48  75 108 146 191 239 294 359 428
#     4  12  25  44  69 100 138 183 234 292 354 421
#
# _framework density 24.133949000000001
#
# number of rings (size 3 to 8) (size 9 to 14) (size 15 to 20)
#    0.000    0.308    1.538    9.231    0.000    5.538 
#    0.000    3.077    0.000    0.000    0.000    0.000 
#    0.000    0.000    0.000    0.000    0.000    0.000 
#
# Total GULP energy -322123.706356 kJ/mol
# GULP energy per Si atom -12389.373321 kJ/mol
# Density = 2.407902 g / cm^3
# Si number density = 24.133949 Si / 1000 Ang^3
#
#
#
# Elastic Constant Matrix: (Units=GPa)
#
#
# Indices 1 2 3 4 5 6 
#
# 1 127.9192 27.6899 47.2751 0.0000 0.0000 0.0000
# 2 27.6899 140.9337 59.1345 0.0000 0.0000 0.0000
# 3 47.2751 59.1345 252.3621 0.0000 0.0000 0.0000
# 4 0.0000 0.0000 0.0000 26.7660 0.0000 0.0000
# 5 0.0000 0.0000 0.0000 0.0000 35.8072 0.0000
# 6 0.0000 0.0000 0.0000 0.0000 0.0000 -53.4821
#
#
#
# Elastic Compliance Matrix: (Units=1/GPa)
#
#
# Indices 1 2 3 4 5 6 
#
# 1 0.008555 -0.001118 -0.001341 0.000000 0.000000 0.000000
# 2 -0.001118 0.008015 -0.001669 0.000000 0.000000 0.000000
# 3 -0.001341 -0.001669 0.004605 0.000000 0.000000 0.000000
# 4 0.000000 0.000000 0.000000 0.037361 0.000000 0.000000
# 5 0.000000 0.000000 0.000000 0.000000 0.027927 0.000000
# 6 0.000000 0.000000 0.000000 0.000000 0.000000 -0.018698
#
#
# Mechanical properties :
#
#
# Convention : Reuss Voigt Hill
#
# Bulk Modulus (GPa) = 77.40011 87.71267 82.55639
# Shear Modulus (GPa) = 62.24537 27.62592 44.93564
#
# Velocity S-wave (km/s) = 5.08405 3.38700 4.31969
# Velocity P-wave (km/s) = 8.16114 7.19157 7.69165
#
# Compressibility (1/GPa) = 0.01291988
#
# Stress axis : x y z
#
# Youngs Moduli (GPa) = 116.89147 124.75932 217.16928
#
# Poissons Ratio (x) = 0.13952 0.29113
# Poissons Ratio (y) = 0.13073 0.36239
# Poissons Ratio (z) = 0.15670 0.20819
#
# Static dielectric constant tensor:
#      x y z
#    x 4.653210 0.000000 0.000000 
#    y 0.000000 4.722150 0.000000 
#    z 0.000000 0.000000 4.112010 
# 
# 
# High freq. dielectric constant tensor:
#      x y z
#    x 1.967600 0.000000 0.000000 
#    y 0.000000 1.980870 0.000000 
#    z 0.000000 0.000000 1.959740 
# 
# From -- ./inp_files/1284.got.cif
#   From: 2010.03.12/outbox.cif.g09.slc.cpg/sg49_1_cif.got.tgz:1284.got - 2010.04.14 03:58:27.
