data_PCOD8204767
_publ_section_title
;
Structure prediction by ZEFSAII (Michael W. Deem and Ramdas Pophale) SiO2 
 PCOD8204767
Probable space group: P B A N
;
_chemical_formula_sum "Si O2"
_cell_formula_units_Z 34
_cell_length_a 24.152470
_cell_length_b 9.777145
_cell_length_c 9.697453
_cell_angle_alpha 90.000000
_cell_angle_beta 90.000000
_cell_angle_gamma 90.000000
_cell_volume 2289.977898
_symmetry_space_group_name_H-M "P B A N"
_symmetry_group_IT_number 50
_space_group.IT_coordinate_system_code '2'
_symmetry_cell_setting 'orthorhombic'
loop_
_space_group_symop_operation_xyz
x,y,z
1/2-x,1/2-y,z
x,1/2-y,-z
1/2-x,y,-z
-x,-y,-z
1/2+x,1/2+y,-z
-x,1/2+y,z
1/2+x,-y,z
loop_
_atom_site_type_symbol
_atom_site_label
_atom_site_fract_x
_atom_site_fract_y
_atom_site_fract_z
Si Si1 0.750000 0.750000 0.500000
Si Si2 0.436751 0.280334 0.845061
Si Si3 0.509712 0.983209 0.277407
Si Si4 0.419664 0.903291 0.494432
Si Si5 0.643706 0.852476 0.611086
O O1 0.710647 0.838849 0.602328
O O2 0.477771 0.409256 0.821490
O O3 0.468318 0.142002 0.809783
O O4 0.380608 0.310125 0.759284
O O5 0.417671 0.250000 0.000000
O O6 0.471501 0.916742 0.393695
O O7 0.561631 0.056393 0.351274
O O8 0.396877 0.750000 0.500000
O O9 0.369981 0.994169 0.434704
O O10 0.614914 0.750000 0.500000
#
# Coordination Sequence:
#
# PCOD8204767 Si02
#       5
#     2   8   8   8   8
#     4   8  16  36  56  68  84 112 160 216 248 262
#     4  11  20  30  44  71 101 127 156 183 228 286
#     4  10  18  28  43  67 100 135 151 186 219 271
#     4  10  17  27  48  71  93 123 166 190 222 271
#     4   9  18  32  53  65  88 122 155 203 239 265
#
# _framework density 14.847305
#
# number of rings (size 3 to 8) (size 9 to 14) (size 15 to 20)
#    0.706    1.412    4.706    0.706    0.000    0.000 
#    0.000    1.176    0.000    0.000    0.000    0.000 
#    0.000    4.235    0.000    0.000    0.000    0.000 
#
# Total GULP energy -421284.939656 kJ/mol
# GULP energy per Si atom -12390.733519 kJ/mol
# Density = 1.481351 g / cm^3
# Si number density = 14.847305 Si / 1000 Ang^3
#
#
#
# Elastic Constant Matrix: (Units=GPa)
#
#
# Indices 1 2 3 4 5 6 
#
# 1 95.3583 42.0200 37.5622 0.0000 0.0000 0.0000
# 2 42.0200 120.0083 40.3320 0.0000 0.0000 0.0000
# 3 37.5622 40.3320 87.0653 0.0000 0.0000 0.0000
# 4 0.0000 0.0000 0.0000 21.2971 0.0000 0.0000
# 5 0.0000 0.0000 0.0000 0.0000 12.1524 0.0000
# 6 0.0000 0.0000 0.0000 0.0000 0.0000 1.9609
#
#
#
# Elastic Compliance Matrix: (Units=1/GPa)
#
#
# Indices 1 2 3 4 5 6 
#
# 1 0.013667 -0.003321 -0.004358 0.000000 0.000000 0.000000
# 2 -0.003321 0.010676 -0.003513 0.000000 0.000000 0.000000
# 3 -0.004358 -0.003513 0.014993 0.000000 0.000000 0.000000
# 4 0.000000 0.000000 0.000000 0.046955 0.000000 0.000000
# 5 0.000000 0.000000 0.000000 0.000000 0.082289 0.000000
# 6 0.000000 0.000000 0.000000 0.000000 0.000000 0.509978
#
#
# Mechanical properties :
#
#
# Convention : Reuss Voigt Hill
#
# Bulk Modulus (GPa) = 58.98737 60.25114 59.61925
# Shear Modulus (GPa) = 7.07623 19.24991 13.16307
#
# Velocity S-wave (km/s) = 2.18549 3.60464 2.98075
# Velocity P-wave (km/s) = 6.79589 7.61532 7.21724
#
# Compressibility (1/GPa) = 0.01695278
#
# Stress axis : x y z
#
# Youngs Moduli (GPa) = 73.17090 93.66723 66.69753
#
# Poissons Ratio (x) = 0.31104 0.29066
# Poissons Ratio (y) = 0.24298 0.23430
# Poissons Ratio (z) = 0.31887 0.32905
#
# Static dielectric constant tensor:
#      x y z
#    x 2.545080 0.000000 0.000000 
#    y 0.000000 2.929940 0.000000 
#    z 0.000000 0.000000 2.836470 
# 
# 
# High freq. dielectric constant tensor:
#      x y z
#    x 1.533570 0.000000 0.000000 
#    y 0.000000 1.579640 0.000000 
#    z 0.000000 0.000000 1.557090 
# 
# From -- ./inp_files/9664.got.cif
#   From: 2010.03.12/outbox.cif.g09.slc.cpg/sg50_5_cif.got.tgz:9664.got - 2010.04.16 13:23:21.
