data_PCOD8204180
_publ_section_title
;
Structure prediction by ZEFSAII (Michael W. Deem and Ramdas Pophale) SiO2 
 PCOD8204180
Probable space group: P C C M
;
_chemical_formula_sum "Si O2"
_cell_formula_units_Z 46
_cell_length_a 7.038564
_cell_length_b 14.029057
_cell_length_c 23.191279
_cell_angle_alpha 90.000000
_cell_angle_beta 90.000000
_cell_angle_gamma 90.000000
_cell_volume 2290.009291
_symmetry_space_group_name_H-M "P C C M"
_symmetry_group_IT_number 49
_symmetry_cell_setting 'orthorhombic'
loop_
_space_group_symop_operation_xyz
x,y,z
-x,-y,z
x,-y,1/2-z
-x,y,1/2-z
-x,-y,-z
x,y,-z
-x,y,1/2+z
x,-y,1/2+z
loop_
_atom_site_type_symbol
_atom_site_label
_atom_site_fract_x
_atom_site_fract_y
_atom_site_fract_z
Si Si1 0.668857 0.764640 0.171092
Si Si2 0.307574 0.352958 0.500000
Si Si3 0.114782 0.396456 0.000000
Si Si4 0.032116 0.890005 0.621042
Si Si5 0.718493 0.828172 0.296504
Si Si6 0.030163 0.804815 0.000000
Si Si7 0.600655 0.408249 0.596381
Si Si8 0.500000 0.000000 0.250000
O O1 0.756207 0.850824 0.132780
O O2 0.754166 0.774554 0.235643
O O3 0.442290 0.772518 0.168894
O O4 0.698122 0.660441 0.143792
O O5 0.113521 0.422402 0.500000
O O6 0.433910 0.364377 0.556790
O O7 0.237305 0.243910 0.500000
O O8 0.129508 0.279320 0.000000
O O9 0.223151 0.437794 0.055866
O O10 0.982781 0.873139 0.554895
O O11 0.905283 0.827122 0.664792
O O12 0.000000 0.000000 0.636188
O O13 0.640389 0.935404 0.287860
O O14 0.500000 0.500000 0.626387
#
# Coordination Sequence:
#
# PCOD8204180 Si02
#       8
#     8   4   4   8   8   4   8   2
#     4  10  21  38  56  83 117 148 196 250 288 354
#     4   9  19  36  58  81 118 162 195 235 300 357
#     4   9  19  38  57  82 117 149 195 241 279 360
#     4  12  22  37  60  85 118 158 195 241 299 358
#     4  10  21  36  59  81 112 155 196 239 296 349
#     4  10  21  38  56  84 122 150 187 239 297 348
#     4  11  21  35  60  88 115 153 198 244 300 351
#     4   8  16  36  54  86 110 142 212 256 262 354
#
# _framework density 20.087256
#
# number of rings (size 3 to 8) (size 9 to 14) (size 15 to 20)
#    0.522    1.391    1.739    4.957    0.000    2.087 
#    0.000    1.739    0.000    3.652    0.000    4.870 
#    0.000    0.000    0.000    0.000    0.000    0.000 
#
# Total GULP energy -569968.480964 kJ/mol
# GULP energy per Si atom -12390.619151 kJ/mol
# Density = 2.004154 g / cm^3
# Si number density = 20.087256 Si / 1000 Ang^3
#
#
#
# Elastic Constant Matrix: (Units=GPa)
#
#
# Indices 1 2 3 4 5 6 
#
# 1 72.6835 19.6634 49.5852 0.0000 0.0000 0.0000
# 2 19.6634 94.1874 49.1693 0.0000 0.0000 0.0000
# 3 49.5852 49.1693 123.9906 0.0000 0.0000 0.0000
# 4 0.0000 0.0000 0.0000 21.5756 0.0000 0.0000
# 5 0.0000 0.0000 0.0000 0.0000 14.8113 0.0000
# 6 0.0000 0.0000 0.0000 0.0000 0.0000 27.3913
#
#
#
# Elastic Compliance Matrix: (Units=1/GPa)
#
#
# Indices 1 2 3 4 5 6 
#
# 1 0.018920 0.000000 -0.007566 0.000000 0.000000 0.000000
# 2 0.000000 0.013389 -0.005309 0.000000 0.000000 0.000000
# 3 -0.007566 -0.005309 0.013196 0.000000 0.000000 0.000000
# 4 0.000000 0.000000 0.000000 0.046349 0.000000 0.000000
# 5 0.000000 0.000000 0.000000 0.000000 0.067516 0.000000
# 6 0.000000 0.000000 0.000000 0.000000 0.000000 0.036508
#
#
# Mechanical properties :
#
#
# Convention : Reuss Voigt Hill
#
# Bulk Modulus (GPa) = 50.62303 58.63303 54.62803
# Shear Modulus (GPa) = 21.90923 24.25189 23.08056
#
# Velocity S-wave (km/s) = 3.30616 3.47843 3.39339
# Velocity P-wave (km/s) = 6.31115 6.73685 6.52747
#
# Compressibility (1/GPa) = 0.01975385
#
# Stress axis : x y z
#
# Youngs Moduli (GPa) = 52.85381 74.68899 75.77770
#
# Poissons Ratio (x) = 0.00000 0.57336
# Poissons Ratio (y) = 0.00000 0.40234
# Poissons Ratio (z) = 0.39991 0.39656
#
# Static dielectric constant tensor:
#      x y z
#    x 3.676680 0.000000 0.000000 
#    y 0.000000 3.533300 0.000000 
#    z 0.000000 0.000000 3.451050 
# 
# 
# High freq. dielectric constant tensor:
#      x y z
#    x 1.789360 0.000000 0.000000 
#    y 0.000000 1.774960 0.000000 
#    z 0.000000 0.000000 1.770180 
# 
# From -- ./inp_files/19794.got.cif
#   From: 2010.03.12/outbox.cif.g09.slc.cpg/sg49_10_cif.got.tgz:19794.got - 2010.04.14 03:58:27.
