data_PCOD8204081
_publ_section_title
;
Structure prediction by ZEFSAII (Michael W. Deem and Ramdas Pophale) SiO2 
 PCOD8204081
Probable space group: P C C M
;
_chemical_formula_sum "Si O2"
_cell_formula_units_Z 48
_cell_length_a 27.003056
_cell_length_b 5.045143
_cell_length_c 16.705623
_cell_angle_alpha 90.000000
_cell_angle_beta 90.000000
_cell_angle_gamma 90.000000
_cell_volume 2275.878504
_symmetry_space_group_name_H-M "P C C M"
_symmetry_group_IT_number 49
_symmetry_cell_setting 'orthorhombic'
loop_
_space_group_symop_operation_xyz
x,y,z
-x,-y,z
x,-y,1/2-z
-x,y,1/2-z
-x,-y,-z
x,y,-z
-x,y,1/2+z
x,-y,1/2+z
loop_
_atom_site_type_symbol
_atom_site_label
_atom_site_fract_x
_atom_site_fract_y
_atom_site_fract_z
Si Si1 0.057586 0.948700 0.840933
Si Si2 0.721286 0.861081 0.592816
Si Si3 0.215589 0.654734 0.591760
Si Si4 0.373620 0.755400 0.803197
Si Si5 0.892448 0.559235 0.092325
Si Si6 0.467554 0.759224 0.090158
O O1 0.073126 0.648220 0.860611
O O2 0.073189 0.000000 0.750000
O O3 0.085653 0.147374 0.899882
O O4 0.000000 0.000000 0.854487
O O5 0.708474 0.924246 0.500000
O O6 0.745841 0.578134 0.602646
O O7 0.671864 0.858225 0.644030
O O8 0.758846 0.082701 0.628780
O O9 0.203555 0.719920 0.500000
O O10 0.162962 0.572472 0.630710
O O11 0.359261 0.500000 0.750000
O O12 0.419185 0.686393 0.859931
O O13 0.390900 0.000000 0.750000
O O14 0.891179 0.471908 0.000000
O O15 0.500000 0.500000 0.090780
O O16 0.500000 0.000000 0.127061
O O17 0.451116 0.835764 0.000000
#
# Coordination Sequence:
#
# PCOD8204081 Si02
#       6
#     8   8   8   8   8   8
#     4  11  24  41  59  84 123 164 198 238 298 368
#     4  10  20  39  62  82 112 156 198 232 282 350
#     4   9  19  36  61  88 113 147 192 244 293 341
#     4  12  25  39  58  88 124 155 190 241 298 346
#     4  11  22  39  64  92 118 149 201 257 301 351
#     4  10  22  41  64  88 115 153 201 243 284 348
#
# _framework density 21.090758000000001
#
# number of rings (size 3 to 8) (size 9 to 14) (size 15 to 20)
#    0.000    1.500    0.000    5.000    0.000    8.000 
#    0.000   15.000    0.000    0.000    0.000    0.000 
#    0.000    0.000    0.000    0.000    0.000    0.000 
#
# Total GULP energy -595305.579413 kJ/mol
# GULP energy per Si atom -12402.199571 kJ/mol
# Density = 2.104275 g / cm^3
# Si number density = 21.090758 Si / 1000 Ang^3
#
#
#
# Elastic Constant Matrix: (Units=GPa)
#
#
# Indices 1 2 3 4 5 6 
#
# 1 120.7874 23.8631 44.2018 0.0000 0.0000 0.0000
# 2 23.8631 108.0164 19.9291 0.0000 0.0000 0.0000
# 3 44.2018 19.9291 66.4705 0.0000 0.0000 0.0000
# 4 0.0000 0.0000 0.0000 33.8914 0.0000 0.0000
# 5 0.0000 0.0000 0.0000 0.0000 64.0822 0.0000
# 6 0.0000 0.0000 0.0000 0.0000 0.0000 36.7702
#
#
#
# Elastic Compliance Matrix: (Units=1/GPa)
#
#
# Indices 1 2 3 4 5 6 
#
# 1 0.011075 -0.001152 -0.007020 0.000000 0.000000 0.000000
# 2 -0.001152 0.009920 -0.002208 0.000000 0.000000 0.000000
# 3 -0.007020 -0.002208 0.020374 0.000000 0.000000 0.000000
# 4 0.000000 0.000000 0.000000 0.029506 0.000000 0.000000
# 5 0.000000 0.000000 0.000000 0.000000 0.015605 0.000000
# 6 0.000000 0.000000 0.000000 0.000000 0.000000 0.027196
#
#
# Mechanical properties :
#
#
# Convention : Reuss Voigt Hill
#
# Bulk Modulus (GPa) = 48.51964 52.36248 50.44106
# Shear Modulus (GPa) = 35.38433 40.76746 38.07590
#
# Velocity S-wave (km/s) = 4.10044 4.40131 4.25353
# Velocity P-wave (km/s) = 6.74338 7.12108 6.93480
#
# Compressibility (1/GPa) = 0.02061021
#
# Stress axis : x y z
#
# Youngs Moduli (GPa) = 90.29062 100.80940 49.08139
#
# Poissons Ratio (x) = 0.11610 0.34453
# Poissons Ratio (y) = 0.10398 0.10839
# Poissons Ratio (z) = 0.63381 0.22262
#
# Static dielectric constant tensor:
#      x y z
#    x 3.793680 0.000000 0.000000 
#    y 0.000000 3.842230 0.000000 
#    z 0.000000 0.000000 3.787380 
# 
# 
# High freq. dielectric constant tensor:
#      x y z
#    x 1.837220 0.000000 0.000000 
#    y 0.000000 1.842620 0.000000 
#    z 0.000000 0.000000 1.810850 
# 
# From -- ./inp_files/14580.got.cif
#   From: 2010.03.12/outbox.cif.g09.slc.cpg/sg49_8_cif.got.tgz:14580.got - 2010.04.14 03:58:27.
