data_PCOD8204041
_publ_section_title
;
Structure prediction by ZEFSAII (Michael W. Deem and Ramdas Pophale) SiO2 
 PCOD8204041
Probable space group: P C C M
;
_chemical_formula_sum "Si O2"
_cell_formula_units_Z 64
_cell_length_a 12.262433
_cell_length_b 15.887953
_cell_length_c 17.162598
_cell_angle_alpha 90.000000
_cell_angle_beta 90.000000
_cell_angle_gamma 90.000000
_cell_volume 3343.702455
_symmetry_space_group_name_H-M "P C C M"
_symmetry_group_IT_number 49
_symmetry_cell_setting 'orthorhombic'
loop_
_space_group_symop_operation_xyz
x,y,z
-x,-y,z
x,-y,1/2-z
-x,y,1/2-z
-x,-y,-z
x,y,-z
-x,y,1/2+z
x,-y,1/2+z
loop_
_atom_site_type_symbol
_atom_site_label
_atom_site_fract_x
_atom_site_fract_y
_atom_site_fract_z
Si Si1 0.336840 0.981609 0.091030
Si Si2 0.484756 0.124214 0.840879
Si Si3 0.388953 0.461667 0.907834
Si Si4 0.168654 0.491440 0.341582
Si Si5 0.008709 0.361670 0.841919
Si Si6 0.636505 0.726413 0.909709
Si Si7 0.116696 0.026818 0.160334
Si Si8 0.123426 0.207203 0.909458
O O1 0.400707 0.897420 0.116784
O O2 0.389143 0.061635 0.133284
O O3 0.209998 0.976720 0.113398
O O4 0.349712 0.995777 0.000000
O O5 0.500000 0.113994 0.750000
O O6 0.448912 0.217822 0.861787
O O7 0.500000 0.500000 0.873174
O O8 0.287015 0.516440 0.879384
O O9 0.379052 0.366964 0.876896
O O10 0.389751 0.463625 0.000000
O O11 0.179435 0.500000 0.250000
O O12 0.105078 0.575298 0.368835
O O13 0.104324 0.406701 0.367150
O O14 0.027947 0.272668 0.885144
O O15 0.000000 0.345550 0.750000
O O16 0.760833 0.750188 0.894512
O O17 0.605841 0.734819 0.000000
O O18 0.122786 0.126793 0.147116
O O19 0.128064 0.000000 0.250000
O O20 0.000000 0.000000 0.126246
O O21 0.108223 0.181145 0.000000
#
# Coordination Sequence:
#
# PCOD8204041 Si02
#       8
#     8   8   8   8   8   8   8   8
#     4  11  21  37  62  87 115 157 199 251 310 359
#     4  11  21  36  59  89 120 149 202 254 302 355
#     4  10  21  38  59  84 120 163 200 243 302 361
#     4   9  18  36  57  90 121 160 197 249 303 359
#     4   9  19  35  61  89 125 154 198 251 306 352
#     4  10  20  38  60  86 119 156 200 246 294 355
#     4  11  25  42  61  87 122 160 200 246 314 371
#     4  11  22  38  64  91 117 157 208 252 295 367
#
# _framework density 19.140460000000001
#
# number of rings (size 3 to 8) (size 9 to 14) (size 15 to 20)
#    0.000    1.750    2.500    4.125    1.750    1.750 
#    2.250    2.500    0.000    1.500    0.000    0.000 
#    0.000    0.000    0.000    0.000    0.000    0.000 
#
# Total GULP energy -793578.267350 kJ/mol
# GULP energy per Si atom -12399.660427 kJ/mol
# Density = 1.909690 g / cm^3
# Si number density = 19.140460 Si / 1000 Ang^3
#
#
#
# Elastic Constant Matrix: (Units=GPa)
#
#
# Indices 1 2 3 4 5 6 
#
# 1 152.7069 60.3279 44.6737 0.0000 0.0000 0.0000
# 2 60.3279 115.6277 48.9519 0.0000 0.0000 0.0000
# 3 44.6737 48.9519 88.5223 0.0000 0.0000 0.0000
# 4 0.0000 0.0000 0.0000 911.0646 0.0000 0.0000
# 5 0.0000 0.0000 0.0000 0.0000 14.0006 0.0000
# 6 0.0000 0.0000 0.0000 0.0000 0.0000 36.7501
#
#
#
# Elastic Compliance Matrix: (Units=1/GPa)
#
#
# Indices 1 2 3 4 5 6 
#
# 1 0.008633 -0.003473 -0.002436 0.000000 0.000000 0.000000
# 2 -0.003473 0.012689 -0.005264 0.000000 0.000000 0.000000
# 3 -0.002436 -0.005264 0.015437 0.000000 0.000000 0.000000
# 4 0.000000 0.000000 0.000000 0.001098 0.000000 0.000000
# 5 0.000000 0.000000 0.000000 0.000000 0.071425 0.000000
# 6 0.000000 0.000000 0.000000 0.000000 0.000000 0.027211
#
#
# Mechanical properties :
#
#
# Convention : Reuss Voigt Hill
#
# Bulk Modulus (GPa) = 69.38460 73.86268 71.62364
# Shear Modulus (GPa) = 30.55399 205.88994 118.22197
#
# Velocity S-wave (km/s) = 3.99971 10.38275 7.86763
# Velocity P-wave (km/s) = 7.59336 13.50588 10.95600
#
# Compressibility (1/GPa) = 0.01441242
#
# Stress axis : x y z
#
# Youngs Moduli (GPa) = 115.83157 78.80797 64.77835
#
# Poissons Ratio (x) = 0.27369 0.15783
# Poissons Ratio (y) = 0.40227 0.34101
# Poissons Ratio (z) = 0.28221 0.41487
#
# Static dielectric constant tensor:
#      x y z
#    x 3.989670 0.000000 0.000000 
#    y 0.000000 3.535440 0.000000 
#    z 0.000000 0.000000 3.358770 
# 
# 
# High freq. dielectric constant tensor:
#      x y z
#    x 1.748470 0.000000 0.000000 
#    y 0.000000 1.736780 0.000000 
#    z 0.000000 0.000000 1.737650 
# 
# From -- ./inp_files/17285.got.cif
#   From: 2010.03.12/outbox.cif.g09.slc.cpg/sg49_9_cif.got.tgz:17285.got - 2010.04.14 03:58:27.
