data_PCOD8204039
_publ_section_title
;
Structure prediction by ZEFSAII (Michael W. Deem and Ramdas Pophale) SiO2 
 PCOD8204039
Probable space group: P C C M
;
_chemical_formula_sum "Si O2"
_cell_formula_units_Z 64
_cell_length_a 17.386062
_cell_length_b 9.618828
_cell_length_c 19.197079
_cell_angle_alpha 90.000000
_cell_angle_beta 90.000000
_cell_angle_gamma 90.000000
_cell_volume 3210.395478
_symmetry_space_group_name_H-M "P C C M"
_symmetry_group_IT_number 49
_symmetry_cell_setting 'orthorhombic'
loop_
_space_group_symop_operation_xyz
x,y,z
-x,-y,z
x,-y,1/2-z
-x,y,1/2-z
-x,-y,-z
x,y,-z
-x,y,1/2+z
x,-y,1/2+z
loop_
_atom_site_type_symbol
_atom_site_label
_atom_site_fract_x
_atom_site_fract_y
_atom_site_fract_z
Si Si1 0.450239 0.127778 0.923888
Si Si2 0.786873 0.503088 0.329011
Si Si3 0.320480 0.255488 0.825967
Si Si4 0.555795 0.382020 0.924172
Si Si5 0.687852 0.750845 0.667490
Si Si6 0.784479 0.012256 0.669161
Si Si7 0.923422 0.086291 0.579487
Si Si8 0.928507 0.594930 0.082188
O O1 0.388530 0.194063 0.872126
O O2 0.508836 0.246831 0.939898
O O3 0.500000 0.000000 0.890647
O O4 0.414693 0.082771 0.000000
O O5 0.817828 0.500000 0.250000
O O6 0.707871 0.412752 0.340990
O O7 0.765694 0.663138 0.340643
O O8 0.852058 0.461740 0.382391
O O9 0.345852 0.242028 0.745633
O O10 0.245331 0.166820 0.843449
O O11 0.500000 0.500000 0.888767
O O12 0.625489 0.329630 0.877624
O O13 0.585255 0.439669 0.000000
O O14 0.716005 0.905454 0.645394
O O15 0.806593 0.000000 0.750000
O O16 0.860742 0.000710 0.623467
O O17 0.894811 0.087988 0.500000
O O18 0.939746 0.244319 0.604713
O O19 0.000000 0.000000 0.588919
O O20 0.000000 0.500000 0.107357
O O21 0.917508 0.580238 0.000000
#
# Coordination Sequence:
#
# PCOD8204039 Si02
#       8
#     8   8   8   8   8   8   8   8
#     4  10  21  36  58  85 114 150 194 243 292 346
#     4  10  21  38  58  85 117 153 198 241 289 349
#     4  10  20  38  57  81 119 151 195 246 289 349
#     4  10  21  38  56  81 116 150 191 242 295 351
#     4  10  22  36  57  85 115 154 194 243 293 348
#     4  10  21  38  58  85 119 154 196 243 292 349
#     4  10  22  40  61  87 119 154 194 241 292 349
#     4  10  22  40  61  87 119 153 195 243 289 346
#
# _framework density 19.935238999999999
#
# number of rings (size 3 to 8) (size 9 to 14) (size 15 to 20)
#    0.000    2.000    1.250    1.500    1.750    3.000 
#    0.000    2.500    0.000    0.000    0.000    0.000 
#    0.000    0.000    0.000    0.000    0.000    0.000 
#
# Total GULP energy -792975.763333 kJ/mol
# GULP energy per Si atom -12390.246302 kJ/mol
# Density = 1.988987 g / cm^3
# Si number density = 19.935239 Si / 1000 Ang^3
#
#
#
# Elastic Constant Matrix: (Units=GPa)
#
#
# Indices 1 2 3 4 5 6 
#
# 1 83.9696 25.5717 48.4503 0.0000 0.0000 0.0000
# 2 25.5717 91.0576 28.7482 0.0000 0.0000 0.0000
# 3 48.4503 28.7482 65.3910 0.0000 0.0000 0.0000
# 4 0.0000 0.0000 0.0000 26.2482 0.0000 0.0000
# 5 0.0000 0.0000 0.0000 0.0000 33.7922 0.0000
# 6 0.0000 0.0000 0.0000 0.0000 0.0000 20.8430
#
#
#
# Elastic Compliance Matrix: (Units=1/GPa)
#
#
# Indices 1 2 3 4 5 6 
#
# 1 0.020904 -0.001139 -0.014988 0.000000 0.000000 0.000000
# 2 -0.001139 0.012814 -0.004790 0.000000 0.000000 0.000000
# 3 -0.014988 -0.004790 0.028503 0.000000 0.000000 0.000000
# 4 0.000000 0.000000 0.000000 0.038098 0.000000 0.000000
# 5 0.000000 0.000000 0.000000 0.000000 0.029593 0.000000
# 6 0.000000 0.000000 0.000000 0.000000 0.000000 0.047978
#
#
# Mechanical properties :
#
#
# Convention : Reuss Voigt Hill
#
# Bulk Modulus (GPa) = 49.04668 49.55096 49.29882
# Shear Modulus (GPa) = 22.07332 25.35320 23.71326
#
# Velocity S-wave (km/s) = 3.33115 3.57007 3.45268
# Velocity P-wave (km/s) = 6.28107 6.47331 6.37791
#
# Compressibility (1/GPa) = 0.02038874
#
# Stress axis : x y z
#
# Youngs Moduli (GPa) = 47.83852 78.03936 35.08366
#
# Poissons Ratio (x) = 0.08885 0.52582
# Poissons Ratio (y) = 0.05447 0.16805
# Poissons Ratio (z) = 0.71699 0.37380
#
# Static dielectric constant tensor:
#      x y z
#    x 3.283840 0.000000 0.000000 
#    y 0.000000 4.035930 0.000000 
#    z 0.000000 0.000000 3.640930 
# 
# 
# High freq. dielectric constant tensor:
#      x y z
#    x 1.762780 0.000000 0.000000 
#    y 0.000000 1.801440 0.000000 
#    z 0.000000 0.000000 1.770240 
# 
# From -- ./inp_files/21066.got.cif
#   From: 2010.03.12/outbox.cif.g09.slc.cpg/sg49_11_cif.got.tgz:21066.got - 2010.04.14 03:58:27.
