data_PCOD8204447
_publ_section_title
;
Structure prediction by ZEFSAII (Michael W. Deem and Ramdas Pophale) SiO2 
 PCOD8204447
Probable space group: P C C M
;
_chemical_formula_sum "Si O2"
_cell_formula_units_Z 32
_cell_length_a 4.898460
_cell_length_b 8.767049
_cell_length_c 35.044303
_cell_angle_alpha 90.000000
_cell_angle_beta 90.000000
_cell_angle_gamma 90.000000
_cell_volume 1504.978954
_symmetry_space_group_name_H-M "P C C M"
_symmetry_group_IT_number 49
_symmetry_cell_setting 'orthorhombic'
loop_
_space_group_symop_operation_xyz
x,y,z
-x,-y,z
x,-y,1/2-z
-x,y,1/2-z
-x,-y,-z
x,y,-z
-x,y,1/2+z
x,-y,1/2+z
loop_
_atom_site_type_symbol
_atom_site_label
_atom_site_fract_x
_atom_site_fract_y
_atom_site_fract_z
Si Si1 0.964959 0.176529 0.706045
Si Si2 0.260969 0.896021 0.456980
Si Si3 0.730858 0.601706 0.092515
Si Si4 0.526730 0.331933 0.173598
O O1 0.161865 0.273976 0.678023
O O2 0.000000 0.219587 0.750000
O O3 0.653243 0.213822 0.697090
O O4 0.000000 0.000000 0.697521
O O5 0.341585 0.846303 0.500000
O O6 0.192357 0.745307 0.433149
O O7 0.500000 0.000000 0.438693
O O8 0.000000 0.000000 0.456981
O O9 0.500000 0.500000 0.070939
O O10 0.578801 0.662804 0.130280
O O11 0.000000 0.500000 0.101604
O O12 0.500000 0.500000 0.191844
#
# Coordination Sequence:
#
# PCOD8204447 Si02
#       4
#     8   8   8   8
#     4  11  24  41  61  87 118 153 197 246 297 359
#     4  10  22  40  62  91 125 162 208 256 302 360
#     4  11  23  40  61  89 124 160 203 253 304 363
#     4  11  23  40  60  87 120 154 197 246 298 357
#
# _framework density 21.262758000000002
#
# number of rings (size 3 to 8) (size 9 to 14) (size 15 to 20)
#    0.000    1.250    0.000    6.750    0.000    9.000 
#    0.000    0.000    0.000    0.000    0.000    0.000 
#    0.000    0.000    0.000    0.000    0.000    0.000 
#
# Total GULP energy -396786.188342 kJ/mol
# GULP energy per Si atom -12399.568386 kJ/mol
# Density = 2.121436 g / cm^3
# Si number density = 21.262758 Si / 1000 Ang^3
#
#
#
# Elastic Constant Matrix: (Units=GPa)
#
#
# Indices 1 2 3 4 5 6 
#
# 1 92.8742 21.6704 13.8356 0.0000 0.0000 0.0000
# 2 21.6704 117.3035 51.1825 0.0000 0.0000 0.0000
# 3 13.8356 51.1825 75.5569 0.0000 0.0000 0.0000
# 4 0.0000 0.0000 0.0000 40.0465 0.0000 0.0000
# 5 0.0000 0.0000 0.0000 0.0000 -4.2617 0.0000
# 6 0.0000 0.0000 0.0000 0.0000 0.0000 46.1011
#
#
#
# Elastic Compliance Matrix: (Units=1/GPa)
#
#
# Indices 1 2 3 4 5 6 
#
# 1 0.011298 -0.001681 -0.000930 0.000000 0.000000 0.000000
# 2 -0.001681 0.012352 -0.008059 0.000000 0.000000 0.000000
# 3 -0.000930 -0.008059 0.018865 0.000000 0.000000 0.000000
# 4 0.000000 0.000000 0.000000 0.024971 0.000000 0.000000
# 5 0.000000 0.000000 0.000000 0.000000 -0.234649 0.000000
# 6 0.000000 0.000000 0.000000 0.000000 0.000000 0.021691
#
#
# Mechanical properties :
#
#
# Convention : Reuss Voigt Hill
#
# Bulk Modulus (GPa) = 47.22878 51.01242 49.12060
# Shear Modulus (GPa) = -42.70860 29.64692 -6.53084
#
# Velocity S-wave (km/s) = -4.48661 3.73810 -1.75447
# Velocity P-wave (km/s) = 2.13996 6.53259 4.36436
#
# Compressibility (1/GPa) = 0.02117353
#
# Stress axis : x y z
#
# Youngs Moduli (GPa) = 88.51033 80.95814 53.00876
#
# Poissons Ratio (x) = 0.13613 0.04929
# Poissons Ratio (y) = 0.14883 0.42722
# Poissons Ratio (z) = 0.08230 0.65248
#
# Static dielectric constant tensor:
#      x y z
#    x 4.079370 0.000000 0.000000 
#    y 0.000000 3.949080 0.000000 
#    z 0.000000 0.000000 3.694330 
# 
# 
# High freq. dielectric constant tensor:
#      x y z
#    x 1.855200 0.000000 0.000000 
#    y 0.000000 1.845720 0.000000 
#    z 0.000000 0.000000 1.817510 
# 
# From -- ./inp_files/25436.got.cif
#   From: 2010.03.12/outbox.cif.g09.slc.cpg/sg49_13_cif.got.tgz:25436.got - 2010.04.14 03:58:27.
