data_PCOD8204845
_publ_section_title
;
Structure prediction by ZEFSAII (Michael W. Deem and Ramdas Pophale) SiO2 
 PCOD8204845
Probable space group: P B A N
;
_chemical_formula_sum "Si O2"
_cell_formula_units_Z 64
_cell_length_a 15.104082
_cell_length_b 24.587913
_cell_length_c 8.208992
_cell_angle_alpha 90.000000
_cell_angle_beta 90.000000
_cell_angle_gamma 90.000000
_cell_volume 3048.637834
_symmetry_space_group_name_H-M "P B A N"
_symmetry_group_IT_number 50
_space_group.IT_coordinate_system_code '2'
_symmetry_cell_setting 'orthorhombic'
loop_
_space_group_symop_operation_xyz
x,y,z
1/2-x,1/2-y,z
x,1/2-y,-z
1/2-x,y,-z
-x,-y,-z
1/2+x,1/2+y,-z
-x,1/2+y,z
1/2+x,-y,z
loop_
_atom_site_type_symbol
_atom_site_label
_atom_site_fract_x
_atom_site_fract_y
_atom_site_fract_z
Si Si1 0.348568 0.127771 0.557132
Si Si2 0.344907 0.124002 0.941046
Si Si3 0.008241 0.689262 0.941834
Si Si4 0.650569 0.394127 0.553695
Si Si5 0.989702 0.190785 0.558741
Si Si6 0.100333 0.492995 0.940899
Si Si7 0.148937 0.011106 0.440634
Si Si8 0.342927 0.891809 0.940659
O O1 0.250000 0.142036 0.500000
O O2 0.347304 0.122407 0.748886
O O3 0.412494 0.175698 0.501778
O O4 0.385670 0.069047 0.487617
O O5 0.364805 0.063901 0.017372
O O6 0.250000 0.144131 0.000000
O O7 0.412751 0.169296 0.001901
O O8 0.012410 0.688177 0.749924
O O9 0.081809 0.647978 0.013724
O O10 0.027726 0.750000 0.000000
O O11 0.750000 0.380683 0.500000
O O12 0.583462 0.349658 0.481582
O O13 0.614218 0.453310 0.488241
O O14 0.649963 0.393557 0.747580
O O15 0.963714 0.250000 0.500000
O O16 0.122985 0.490343 0.749582
O O17 0.148056 0.546813 0.013094
O O18 0.000000 0.500000 0.000000
O O19 0.250000 0.011289 0.500000
O O20 0.250000 0.867479 0.000000
#
# Coordination Sequence:
#
# PCOD8204845 Si02
#       8
#     8   8   8   8   8   8   8   8
#     4  10  21  39  61  89 122 155 199 241 300 366
#     4  11  22  38  64  92 124 161 198 249 308 367
#     4  11  24  42  61  87 122 156 208 262 302 362
#     4   9  20  39  60  86 120 156 199 244 297 359
#     4  11  24  41  61  84 116 159 204 252 301 355
#     4  10  18  35  60  94 128 161 202 250 313 376
#     4   8  17  35  59  87 124 159 198 247 301 370
#     4  10  21  38  62  90 123 160 199 249 306 365
#
# _framework density 20.992982000000001
#
# number of rings (size 3 to 8) (size 9 to 14) (size 15 to 20)
#    0.000    2.000    1.250    1.875    0.000    3.500 
#    0.000    6.250    0.000    0.000    0.000    0.000 
#    0.000    0.000    0.000    0.000    0.000    0.000 
#
# Total GULP energy -792838.483706 kJ/mol
# GULP energy per Si atom -12388.101308 kJ/mol
# Density = 2.094520 g / cm^3
# Si number density = 20.992982 Si / 1000 Ang^3
#
#
#
# Elastic Constant Matrix: (Units=GPa)
#
#
# Indices 1 2 3 4 5 6 
#
# 1 106.3593 28.4485 18.9239 0.0000 0.0000 0.0000
# 2 28.4485 113.4240 13.6289 0.0000 0.0000 0.0000
# 3 18.9239 13.6289 45.9446 0.0000 0.0000 0.0000
# 4 0.0000 0.0000 0.0000 17.9996 0.0000 0.0000
# 5 0.0000 0.0000 0.0000 0.0000 36.4198 0.0000
# 6 0.0000 0.0000 0.0000 0.0000 0.0000 -156.4656
#
#
#
# Elastic Compliance Matrix: (Units=1/GPa)
#
#
# Indices 1 2 3 4 5 6 
#
# 1 0.010661 -0.002226 -0.003731 0.000000 0.000000 0.000000
# 2 -0.002226 0.009607 -0.001933 0.000000 0.000000 0.000000
# 3 -0.003731 -0.001933 0.023876 0.000000 0.000000 0.000000
# 4 0.000000 0.000000 0.000000 0.055557 0.000000 0.000000
# 5 0.000000 0.000000 0.000000 0.000000 0.027458 0.000000
# 6 0.000000 0.000000 0.000000 0.000000 0.000000 -0.006391
#
#
# Mechanical properties :
#
#
# Convention : Reuss Voigt Hill
#
# Bulk Modulus (GPa) = 35.25563 43.08115 39.16839
# Shear Modulus (GPa) = 34.24634 -6.76078 13.74278
#
# Velocity S-wave (km/s) = 4.04335 -1.79652 2.56136
# Velocity P-wave (km/s) = 6.21520 4.03273 5.23887
#
# Compressibility (1/GPa) = 0.02836426
#
# Stress axis : x y z
#
# Youngs Moduli (GPa) = 93.79767 104.09091 41.88393
#
# Poissons Ratio (x) = 0.23167 0.15627
# Poissons Ratio (y) = 0.20876 0.08096
# Poissons Ratio (z) = 0.34996 0.20121
#
# Static dielectric constant tensor:
#      x y z
#    x 2.856330 0.000000 0.000000 
#    y 0.000000 4.176490 0.000000 
#    z 0.000000 0.000000 3.593150 
# 
# 
# High freq. dielectric constant tensor:
#      x y z
#    x 1.822980 0.000000 0.000000 
#    y 0.000000 1.837810 0.000000 
#    z 0.000000 0.000000 1.805020 
# 
# From -- ./inp_files/13455.got.cif
#   From: 2010.03.12/outbox.cif.g09.slc.cpg/sg50_7_cif.got.tgz:13455.got - 2010.04.16 13:23:21.
