data_PCOD8204327
_publ_section_title
;
Structure prediction by ZEFSAII (Michael W. Deem and Ramdas Pophale) SiO2 
 PCOD8204327
Probable space group: P C C M
;
_chemical_formula_sum "Si O2"
_cell_formula_units_Z 48
_cell_length_a 9.632318
_cell_length_b 27.525256
_cell_length_c 9.071996
_cell_angle_alpha 90.000000
_cell_angle_beta 90.000000
_cell_angle_gamma 90.000000
_cell_volume 2405.276614
_symmetry_space_group_name_H-M "P C C M"
_symmetry_group_IT_number 49
_symmetry_cell_setting 'orthorhombic'
loop_
_space_group_symop_operation_xyz
x,y,z
-x,-y,z
x,-y,1/2-z
-x,y,1/2-z
-x,-y,-z
x,y,-z
-x,y,1/2+z
x,-y,1/2+z
loop_
_atom_site_type_symbol
_atom_site_label
_atom_site_fract_x
_atom_site_fract_y
_atom_site_fract_z
Si Si1 0.000000 0.112610 0.750000
Si Si2 0.406628 0.952937 0.500000
Si Si3 0.150442 0.271733 0.175650
Si Si4 0.646636 0.544264 0.669928
Si Si5 0.500000 0.117097 0.250000
Si Si6 0.350618 0.347487 0.672807
Si Si7 0.900143 0.954623 0.000000
Si Si8 0.242170 0.180415 0.337863
O O1 0.916634 0.078562 0.641191
O O2 0.889392 0.145111 0.835388
O O3 0.426486 0.918400 0.362439
O O4 0.253982 0.975809 0.500000
O O5 0.500000 0.000000 0.500000
O O6 0.239912 0.315015 0.242795
O O7 0.228485 0.221319 0.212371
O O8 0.000000 0.271993 0.250000
O O9 0.136998 0.277211 0.000000
O O10 0.732569 0.500000 0.750000
O O11 0.500000 0.546797 0.750000
O O12 0.628455 0.530560 0.500000
O O13 0.712028 0.597829 0.687732
O O14 0.384202 0.151251 0.320774
O O15 0.500000 0.341519 0.750000
O O16 0.365011 0.333264 0.500000
O O17 0.000000 0.000000 0.000000
O O18 0.243809 0.205063 0.500000
#
# Coordination Sequence:
#
# PCOD8204327 Si02
#       8
#     4   4   8   8   4   8   4   8
#     4  12  25  44  70  96 126 160 209 258 308 366
#     4  12  28  46  68  98 134 168 208 254 315 378
#     4  12  27  44  68  95 128 169 213 267 328 391
#     4   9  16  27  50  83 122 168 215 269 323 380
#     4  12  27  46  70  96 130 168 203 258 314 374
#     4  10  21  39  61  92 133 173 221 273 328 387
#     4  12  28  44  70  98 130 166 210 256 305 372
#     4  12  26  45  70  96 125 165 211 261 317 379
#
# _framework density 19.956123999999999
#
# number of rings (size 3 to 8) (size 9 to 14) (size 15 to 20)
#    0.000    0.833    4.167    3.500    5.833    3.333 
#    0.000    0.000    0.000    0.500    0.000    3.500 
#    0.000    0.000    0.000    0.000    0.000    0.000 
#
# Total GULP energy -595071.447617 kJ/mol
# GULP energy per Si atom -12397.321825 kJ/mol
# Density = 1.991070 g / cm^3
# Si number density = 19.956124 Si / 1000 Ang^3
#
#
#
# Elastic Constant Matrix: (Units=GPa)
#
#
# Indices 1 2 3 4 5 6 
#
# 1 113.8450 50.9532 39.9761 0.0000 0.0000 0.0000
# 2 50.9532 131.4231 57.2277 0.0000 0.0000 0.0000
# 3 39.9761 57.2277 165.1196 0.0000 0.0000 0.0000
# 4 0.0000 0.0000 0.0000 34.7213 0.0000 0.0000
# 5 0.0000 0.0000 0.0000 0.0000 26.6692 0.0000
# 6 0.0000 0.0000 0.0000 0.0000 0.0000 18.6262
#
#
#
# Elastic Compliance Matrix: (Units=1/GPa)
#
#
# Indices 1 2 3 4 5 6 
#
# 1 0.010889 -0.003620 -0.001382 0.000000 0.000000 0.000000
# 2 -0.003620 0.010165 -0.002647 0.000000 0.000000 0.000000
# 3 -0.001382 -0.002647 0.007308 0.000000 0.000000 0.000000
# 4 0.000000 0.000000 0.000000 0.028801 0.000000 0.000000
# 5 0.000000 0.000000 0.000000 0.000000 0.037496 0.000000
# 6 0.000000 0.000000 0.000000 0.000000 0.000000 0.053688
#
#
# Mechanical properties :
#
#
# Convention : Reuss Voigt Hill
#
# Bulk Modulus (GPa) = 76.53748 78.52240 77.52994
# Shear Modulus (GPa) = 29.76204 33.48539 31.62372
#
# Velocity S-wave (km/s) = 3.86602 4.10072 3.98510
# Velocity P-wave (km/s) = 7.63965 7.86474 7.75301
#
# Compressibility (1/GPa) = 0.01306549
#
# Stress axis : x y z
#
# Youngs Moduli (GPa) = 91.83317 98.37669 136.83688
#
# Poissons Ratio (x) = 0.35614 0.18906
# Poissons Ratio (y) = 0.33245 0.36215
# Poissons Ratio (z) = 0.12688 0.26036
#
# Static dielectric constant tensor:
#      x y z
#    x 3.525920 0.000000 0.000000 
#    y 0.000000 4.376540 0.000000 
#    z 0.000000 0.000000 3.905060 
# 
# 
# High freq. dielectric constant tensor:
#      x y z
#    x 1.760480 0.000000 0.000000 
#    y 0.000000 1.795150 0.000000 
#    z 0.000000 0.000000 1.799770 
# 
# From -- ./inp_files/2190.got.cif
#   From: 2010.03.12/outbox.cif.g09.slc.cpg/sg49_2_cif.got.tgz:2190.got - 2010.04.14 03:58:27.
