data_PCOD8204336
_publ_section_title
;
Structure prediction by ZEFSAII (Michael W. Deem and Ramdas Pophale) SiO2 
 PCOD8204336
Probable space group: P C C M
;
_chemical_formula_sum "Si O2"
_cell_formula_units_Z 64
_cell_length_a 8.775312
_cell_length_b 19.470712
_cell_length_c 17.441589
_cell_angle_alpha 90.000000
_cell_angle_beta 90.000000
_cell_angle_gamma 90.000000
_cell_volume 2980.097326
_symmetry_space_group_name_H-M "P C C M"
_symmetry_group_IT_number 49
_symmetry_cell_setting 'orthorhombic'
loop_
_space_group_symop_operation_xyz
x,y,z
-x,-y,z
x,-y,1/2-z
-x,y,1/2-z
-x,-y,-z
x,y,-z
-x,y,1/2+z
x,-y,1/2+z
loop_
_atom_site_type_symbol
_atom_site_label
_atom_site_fract_x
_atom_site_fract_y
_atom_site_fract_z
Si Si1 0.306221 0.058596 0.587359
Si Si2 0.505874 0.833752 0.162885
Si Si3 0.033441 0.874989 0.161562
Si Si4 0.553680 0.571070 0.835987
Si Si5 0.335583 0.309579 0.347735
Si Si6 0.031030 0.272757 0.412209
Si Si7 0.848453 0.360991 0.704930
Si Si8 0.740240 0.093689 0.587020
O O1 0.248269 0.071054 0.500000
O O2 0.447541 0.108201 0.603512
O O3 0.185710 0.081251 0.651806
O O4 0.350088 0.978551 0.597289
O O5 0.500000 0.858352 0.250000
O O6 0.426546 0.761454 0.151415
O O7 0.681323 0.839439 0.135761
O O8 0.055981 0.802779 0.119551
O O9 0.000000 0.861532 0.250000
O O10 0.907219 0.920616 0.119900
O O11 0.500000 0.500000 0.877541
O O12 0.500000 0.566098 0.750000
O O13 0.458864 0.633516 0.874029
O O14 0.739389 0.581215 0.835587
O O15 0.195941 0.310256 0.407255
O O16 0.264449 0.320288 0.262657
O O17 0.976336 0.272861 0.500000
O O18 0.903559 0.310941 0.361996
O O19 0.000000 0.390526 0.750000
O O20 0.749582 0.117526 0.500000
#
# Coordination Sequence:
#
# PCOD8204336 Si02
#       8
#     8   8   8   8   8   8   8   8
#     4  11  24  44  62  83 122 165 205 257 321 385
#     4  12  24  37  62  88 120 162 209 262 313 376
#     4  12  24  40  64  90 120 154 207 265 324 383
#     4   9  18  36  64  98 135 170 210 254 309 371
#     4  10  21  39  62  92 128 165 210 260 318 374
#     4  11  23  39  62  92 123 164 211 263 325 388
#     4   9  19  37  64  95 133 165 210 271 315 362
#     4  11  26  42  60  88 121 160 208 262 318 382
#
# _framework density 21.475809999999999
#
# number of rings (size 3 to 8) (size 9 to 14) (size 15 to 20)
#    0.000    1.375    1.250    5.250    3.500    5.500 
#    0.000   11.250    0.000    2.250    0.000    0.000 
#    0.000    0.000    0.000    0.000    0.000    0.000 
#
# Total GULP energy -793118.920805 kJ/mol
# GULP energy per Si atom -12392.483138 kJ/mol
# Density = 2.142693 g / cm^3
# Si number density = 21.475810 Si / 1000 Ang^3
#
#
#
# Elastic Constant Matrix: (Units=GPa)
#
#
# Indices 1 2 3 4 5 6 
#
# 1 81.5174 60.7164 20.9512 0.0000 0.0000 0.0000
# 2 60.7164 123.0818 35.8793 0.0000 0.0000 0.0000
# 3 20.9512 35.8793 105.1097 0.0000 0.0000 0.0000
# 4 0.0000 0.0000 0.0000 8.8501 0.0000 0.0000
# 5 0.0000 0.0000 0.0000 0.0000 27.5812 0.0000
# 6 0.0000 0.0000 0.0000 0.0000 0.0000 -109.7290
#
#
#
# Elastic Compliance Matrix: (Units=1/GPa)
#
#
# Indices 1 2 3 4 5 6 
#
# 1 0.019435 -0.009393 -0.000668 0.000000 0.000000 0.000000
# 2 -0.009393 0.013562 -0.002757 0.000000 0.000000 0.000000
# 3 -0.000668 -0.002757 0.010588 0.000000 0.000000 0.000000
# 4 0.000000 0.000000 0.000000 0.112994 0.000000 0.000000
# 5 0.000000 0.000000 0.000000 0.000000 0.036257 0.000000
# 6 0.000000 0.000000 0.000000 0.000000 0.000000 -0.009113
#
#
# Mechanical properties :
#
#
# Convention : Reuss Voigt Hill
#
# Bulk Modulus (GPa) = 55.71079 60.53362 58.12221
# Shear Modulus (GPa) = 23.21913 -1.84875 10.68519
#
# Velocity S-wave (km/s) = 3.29169 -0.92883 2.23299
# Velocity P-wave (km/s) = 6.35960 5.20555 5.81129
#
# Compressibility (1/GPa) = 0.01794984
#
# Stress axis : x y z
#
# Youngs Moduli (GPa) = 51.45416 73.73673 94.44556
#
# Poissons Ratio (x) = 0.69258 0.06306
# Poissons Ratio (y) = 0.48329 0.26040
# Poissons Ratio (z) = 0.03436 0.20330
#
# Static dielectric constant tensor:
#      x y z
#    x 4.249100 0.000000 0.000000 
#    y 0.000000 4.269440 0.000000 
#    z 0.000000 0.000000 3.661940 
# 
# 
# High freq. dielectric constant tensor:
#      x y z
#    x 1.865660 0.000000 0.000000 
#    y 0.000000 1.829270 0.000000 
#    z 0.000000 0.000000 1.820790 
# 
# From -- ./inp_files/16537.got.cif
#   From: 2010.03.12/outbox.cif.g09.slc.cpg/sg49_9_cif.got.tgz:16537.got - 2010.04.14 03:58:27.
