data_PCOD8204854
_publ_section_title
;
Structure prediction by ZEFSAII (Michael W. Deem and Ramdas Pophale) SiO2 
 PCOD8204854
Probable space group: P B A N
;
_chemical_formula_sum "Si O2"
_cell_formula_units_Z 58
_cell_length_a 9.114583
_cell_length_b 19.701027
_cell_length_c 15.737972
_cell_angle_alpha 90.000000
_cell_angle_beta 90.000000
_cell_angle_gamma 90.000000
_cell_volume 2826.014843
_symmetry_space_group_name_H-M "P B A N"
_symmetry_group_IT_number 50
_space_group.IT_coordinate_system_code '2'
_symmetry_cell_setting 'orthorhombic'
loop_
_space_group_symop_operation_xyz
x,y,z
1/2-x,1/2-y,z
x,1/2-y,-z
1/2-x,y,-z
-x,-y,-z
1/2+x,1/2+y,-z
-x,1/2+y,z
1/2+x,-y,z
loop_
_atom_site_type_symbol
_atom_site_label
_atom_site_fract_x
_atom_site_fract_y
_atom_site_fract_z
Si Si1 0.079690 0.662015 0.133709
Si Si2 0.490399 0.500876 0.312936
Si Si3 0.115049 0.044591 0.054045
Si Si4 0.071117 0.626832 0.602694
Si Si5 0.750000 0.250000 0.000000
Si Si6 0.579323 0.246265 0.711461
Si Si7 0.582897 0.128201 0.589794
Si Si8 0.735739 0.038616 0.799958
O O1 0.009192 0.717143 0.199975
O O2 0.206948 0.618878 0.182804
O O3 0.959402 0.608409 0.100436
O O4 0.146473 0.701826 0.054956
O O5 0.531897 0.562194 0.375912
O O6 0.490315 0.432354 0.367303
O O7 0.580851 0.496201 0.224805
O O8 0.329188 0.525267 0.284255
O O9 0.192636 0.993313 0.118037
O O10 0.250000 0.074926 0.000000
O O11 0.000000 0.000000 0.000000
O O12 0.024464 0.681681 0.674943
O O13 0.031981 0.644479 0.505869
O O14 0.245662 0.612505 0.602188
O O15 0.750000 0.250000 0.731451
O O16 0.537766 0.196142 0.636504
#
# Coordination Sequence:
#
# PCOD8204854 Si02
#       8
#     8   8   8   8   2   8   8   8
#     4  12  23  42  65  96 132 168 223 277 338 410
#     4  12  21  37  60  96 129 169 210 266 331 388
#     4  12  23  43  68 100 132 166 217 284 353 411
#     4  10  21  34  59  92 127 171 214 269 325 388
#     4  12  28  40  70  92 130 180 222 286 328 416
#     4  10  18  37  60  90 125 168 215 268 324 390
#     4  10  19  36  58  92 130 163 218 272 324 381
#     4  12  22  39  66  94 126 165 212 272 337 402
#
# _framework density 20.523600999999999
#
# number of rings (size 3 to 8) (size 9 to 14) (size 15 to 20)
#    0.000    0.828    6.207    2.483    0.000    1.655 
#    0.000    0.345    0.000    2.483    0.000    3.862 
#    0.000    0.000    0.000    0.000    0.000    0.000 
#
# Total GULP energy -718638.329833 kJ/mol
# GULP energy per Si atom -12390.316032 kJ/mol
# Density = 2.047689 g / cm^3
# Si number density = 20.523601 Si / 1000 Ang^3
#
#
#
# Elastic Constant Matrix: (Units=GPa)
#
#
# Indices 1 2 3 4 5 6 
#
# 1 46.9006 28.0095 26.3129 0.0000 0.0000 0.0000
# 2 28.0095 93.8917 33.8430 0.0000 0.0000 0.0000
# 3 26.3129 33.8430 115.5256 0.0000 0.0000 0.0000
# 4 0.0000 0.0000 0.0000 48.4544 0.0000 0.0000
# 5 0.0000 0.0000 0.0000 0.0000 32.9751 0.0000
# 6 0.0000 0.0000 0.0000 0.0000 0.0000 26.0444
#
#
#
# Elastic Compliance Matrix: (Units=1/GPa)
#
#
# Indices 1 2 3 4 5 6 
#
# 1 0.027778 -0.006715 -0.004360 0.000000 0.000000 0.000000
# 2 -0.006715 0.013531 -0.002434 0.000000 0.000000 0.000000
# 3 -0.004360 -0.002434 0.010362 0.000000 0.000000 0.000000
# 4 0.000000 0.000000 0.000000 0.020638 0.000000 0.000000
# 5 0.000000 0.000000 0.000000 0.000000 0.030326 0.000000
# 6 0.000000 0.000000 0.000000 0.000000 0.000000 0.038396
#
#
# Mechanical properties :
#
#
# Convention : Reuss Voigt Hill
#
# Bulk Modulus (GPa) = 40.56330 48.07208 44.31769
# Shear Modulus (GPa) = 28.36594 32.70495 30.53545
#
# Velocity S-wave (km/s) = 3.72171 3.99623 3.86141
# Velocity P-wave (km/s) = 6.18670 6.69080 6.44369
#
# Compressibility (1/GPa) = 0.02465283
#
# Stress axis : x y z
#
# Youngs Moduli (GPa) = 35.99973 73.90262 96.50406
#
# Poissons Ratio (x) = 0.49627 0.42073
# Poissons Ratio (y) = 0.24175 0.23494
# Poissons Ratio (z) = 0.15695 0.17991
#
# Static dielectric constant tensor:
#      x y z
#    x 3.560300 0.000000 0.000000 
#    y 0.000000 3.893580 0.000000 
#    z 0.000000 0.000000 4.196730 
# 
# 
# High freq. dielectric constant tensor:
#      x y z
#    x 1.757520 0.000000 0.000000 
#    y 0.000000 1.809140 0.000000 
#    z 0.000000 0.000000 1.831350 
# 
# From -- ./inp_files/28898.got.cif
#   From: 2010.03.12/outbox.cif.g09.slc.cpg/sg50_15_cif.got.tgz:28898.got - 2010.04.16 13:23:21.
