data_PCOD8204739
_publ_section_title
;
Structure prediction by ZEFSAII (Michael W. Deem and Ramdas Pophale) SiO2 
 PCOD8204739
Probable space group: P B A N
;
_chemical_formula_sum "Si O2"
_cell_formula_units_Z 36
_cell_length_a 23.723734
_cell_length_b 5.136674
_cell_length_c 16.548498
_cell_angle_alpha 90.000000
_cell_angle_beta 90.000000
_cell_angle_gamma 90.000000
_cell_volume 2016.617965
_symmetry_space_group_name_H-M "P B A N"
_symmetry_group_IT_number 50
_space_group.IT_coordinate_system_code '2'
_symmetry_cell_setting 'orthorhombic'
loop_
_space_group_symop_operation_xyz
x,y,z
1/2-x,1/2-y,z
x,1/2-y,-z
1/2-x,y,-z
-x,-y,-z
1/2+x,1/2+y,-z
-x,1/2+y,z
1/2+x,-y,z
loop_
_atom_site_type_symbol
_atom_site_label
_atom_site_fract_x
_atom_site_fract_y
_atom_site_fract_z
Si Si1 0.037935 0.250000 0.000000
Si Si2 0.937731 0.504583 0.463610
Si Si3 0.683532 0.260286 0.906312
Si Si4 0.378236 0.253477 0.853752
Si Si5 0.036986 0.419422 0.722044
O O1 0.074040 0.249914 0.920174
O O2 0.000000 0.500000 0.000000
O O3 0.906161 0.250000 0.500000
O O4 0.941315 0.547065 0.368634
O O5 0.000000 0.500000 0.500000
O O6 0.903947 0.750000 0.500000
O O7 0.750000 0.250000 0.897562
O O8 0.668785 0.541137 0.872117
O O9 0.652348 0.035349 0.854076
O O10 0.664347 0.250000 0.000000
O O11 0.407448 0.167600 0.770315
O O12 0.010606 0.702004 0.741871
#
# Coordination Sequence:
#
# PCOD8204739 Si02
#       5
#     4   8   8   8   8
#     4  12  22  36  49  70 113 154 176 208 254 322
#     4  10  16  30  49  70 103 147 185 216 245 295
#     4  11  22  41  62  77  97 136 188 252 294 316
#     4  12  23  37  54  81 108 139 193 225 270 343
#     4  12  21  33  51  78 114 155 178 213 260 320
#
# _framework density 17.851671
#
# number of rings (size 3 to 8) (size 9 to 14) (size 15 to 20)
#    0.000    0.667    6.667    4.667    0.000    1.778 
#    0.000    0.000    0.000    0.000    0.000    0.000 
#    0.000   13.333    0.000    0.000    0.000    0.000 
#
# Total GULP energy -446078.075076 kJ/mol
# GULP energy per Si atom -12391.057641 kJ/mol
# Density = 1.781104 g / cm^3
# Si number density = 17.851671 Si / 1000 Ang^3
#
#
#
# Elastic Constant Matrix: (Units=GPa)
#
#
# Indices 1 2 3 4 5 6 
#
# 1 64.9461 30.8136 34.5644 0.0000 0.0000 0.0000
# 2 30.8136 141.4763 19.4600 0.0000 0.0000 0.0000
# 3 34.5644 19.4600 106.1516 0.0000 0.0000 0.0000
# 4 0.0000 0.0000 0.0000 30.2140 0.0000 0.0000
# 5 0.0000 0.0000 0.0000 0.0000 15.1922 0.0000
# 6 0.0000 0.0000 0.0000 0.0000 0.0000 32.8905
#
#
#
# Elastic Compliance Matrix: (Units=1/GPa)
#
#
# Indices 1 2 3 4 5 6 
#
# 1 0.020265 -0.003597 -0.005939 0.000000 0.000000 0.000000
# 2 -0.003597 0.007890 -0.000275 0.000000 0.000000 0.000000
# 3 -0.005939 -0.000275 0.011405 0.000000 0.000000 0.000000
# 4 0.000000 0.000000 0.000000 0.033097 0.000000 0.000000
# 5 0.000000 0.000000 0.000000 0.000000 0.065823 0.000000
# 6 0.000000 0.000000 0.000000 0.000000 0.000000 0.030404
#
#
# Mechanical properties :
#
#
# Convention : Reuss Voigt Hill
#
# Bulk Modulus (GPa) = 50.15809 53.58334 51.87071
# Shear Modulus (GPa) = 25.62119 30.84174 28.23146
#
# Velocity S-wave (km/s) = 3.79255 4.16103 3.98105
# Velocity P-wave (km/s) = 6.88012 7.29154 7.08882
#
# Compressibility (1/GPa) = 0.01993696
#
# Stress axis : x y z
#
# Youngs Moduli (GPa) = 49.34712 126.75009 87.68249
#
# Poissons Ratio (x) = 0.45588 0.52075
# Poissons Ratio (y) = 0.17749 0.02413
# Poissons Ratio (z) = 0.29308 0.03488
#
# Static dielectric constant tensor:
#      x y z
#    x 2.980160 0.000000 0.000000 
#    y 0.000000 3.465990 0.000000 
#    z 0.000000 0.000000 2.608950 
# 
# 
# High freq. dielectric constant tensor:
#      x y z
#    x 1.648280 0.000000 0.000000 
#    y 0.000000 1.728450 0.000000 
#    z 0.000000 0.000000 1.686250 
# 
# From -- ./inp_files/27381.got.cif
#   From: 2010.03.12/outbox.cif.g09.slc.cpg/sg50_14_cif.got.tgz:27381.got - 2010.04.16 13:23:21.
