data_PCOD8204732
_publ_section_title
;
Structure prediction by ZEFSAII (Michael W. Deem and Ramdas Pophale) SiO2 
 PCOD8204732
Probable space group: P B A N
;
_chemical_formula_sum "Si O2"
_cell_formula_units_Z 64
_cell_length_a 29.400944
_cell_length_b 8.629986
_cell_length_c 11.793766
_cell_angle_alpha 90.000000
_cell_angle_beta 90.000000
_cell_angle_gamma 90.000000
_cell_volume 2992.429123
_symmetry_space_group_name_H-M "P B A N"
_symmetry_group_IT_number 50
_space_group.IT_coordinate_system_code '2'
_symmetry_cell_setting 'orthorhombic'
loop_
_space_group_symop_operation_xyz
x,y,z
1/2-x,1/2-y,z
x,1/2-y,-z
1/2-x,y,-z
-x,-y,-z
1/2+x,1/2+y,-z
-x,1/2+y,z
1/2+x,-y,z
loop_
_atom_site_type_symbol
_atom_site_label
_atom_site_fract_x
_atom_site_fract_y
_atom_site_fract_z
Si Si1 0.139530 0.433607 0.987780
Si Si2 0.339084 0.447275 0.769785
Si Si3 0.480770 0.208494 0.712778
Si Si4 0.410087 0.407108 0.447097
Si Si5 0.252461 0.434560 0.627993
Si Si6 0.565911 0.468146 0.322030
Si Si7 0.161058 0.419727 0.739637
Si Si8 0.541993 0.914895 0.051474
O O1 0.159666 0.487882 0.867183
O O2 0.088109 0.501105 0.988206
O O3 0.136441 0.250000 0.000000
O O4 0.169322 0.488944 0.096644
O O5 0.296910 0.503228 0.692074
O O6 0.386142 0.534518 0.742765
O O7 0.344560 0.265048 0.747428
O O8 0.459488 0.136899 0.599727
O O9 0.535843 0.185796 0.705320
O O10 0.465807 0.388090 0.719903
O O11 0.459559 0.106162 0.813712
O O12 0.386916 0.250000 0.500000
O O13 0.420062 0.530223 0.545691
O O14 0.377556 0.477128 0.348923
O O15 0.250000 0.250000 0.627641
O O16 0.250000 0.499553 0.500000
O O17 0.208161 0.489270 0.694889
O O18 0.539335 0.750000 0.000000
O O19 0.500000 0.000000 0.000000
#
# Coordination Sequence:
#
# PCOD8204732 Si02
#       8
#     8   8   8   8   8   8   8   8
#     4   9  17  28  44  61  90 130 163 199 250 306
#     4  10  17  30  43  66  95 129 162 204 259 300
#     4  11  20  34  48  74  96 134 179 210 252 305
#     4  10  18  30  49  67  96 131 167 207 255 298
#     4   9  18  25  42  66  90 127 164 202 248 316
#     4  11  21  33  53  71 102 138 171 214 256 299
#     4  10  16  29  45  65  95 129 163 203 255 310
#     4  11  20  32  49  70  97 137 177 209 249 303
#
# _framework density 21.387307
#
# number of rings (size 3 to 8) (size 9 to 14) (size 15 to 20)
#    0.000    1.875    3.750    4.125    1.750    0.500 
#    0.000    2.500    0.000    0.000    0.000    0.000 
#    0.000    1.000    0.250   15.125    1.500    5.375 
#
# Total GULP energy -792927.365685 kJ/mol
# GULP energy per Si atom -12389.490089 kJ/mol
# Density = 2.133863 g / cm^3
# Si number density = 21.387307 Si / 1000 Ang^3
#
#
#
# Elastic Constant Matrix: (Units=GPa)
#
#
# Indices 1 2 3 4 5 6 
#
# 1 161.4740 20.0567 69.8798 0.0000 0.0000 0.0000
# 2 20.0567 7.3930 12.9754 0.0000 0.0000 0.0000
# 3 69.8798 12.9754 176.7840 0.0000 0.0000 0.0000
# 4 0.0000 0.0000 0.0000 8.0981 0.0000 0.0000
# 5 0.0000 0.0000 0.0000 0.0000 40.0022 0.0000
# 6 0.0000 0.0000 0.0000 0.0000 0.0000 17.1653
#
#
#
# Elastic Compliance Matrix: (Units=1/GPa)
#
#
# Indices 1 2 3 4 5 6 
#
# 1 0.010075 -0.023352 -0.002269 0.000000 0.000000 0.000000
# 2 -0.023352 0.209390 -0.006138 0.000000 0.000000 0.000000
# 3 -0.002269 -0.006138 0.007004 0.000000 0.000000 0.000000
# 4 0.000000 0.000000 0.000000 0.123485 0.000000 0.000000
# 5 0.000000 0.000000 0.000000 0.000000 0.024999 0.000000
# 6 0.000000 0.000000 0.000000 0.000000 0.000000 0.058257
#
#
# Mechanical properties :
#
#
# Convention : Reuss Voigt Hill
#
# Bulk Modulus (GPa) = 6.13679 61.27498 33.70589
# Shear Modulus (GPa) = 9.07368 29.23574 19.15471
#
# Velocity S-wave (km/s) = 2.06198 3.70126 2.99592
# Velocity P-wave (km/s) = 2.92312 6.85406 5.26891
#
# Compressibility (1/GPa) = 0.16295160
#
# Stress axis : x y z
#
# Youngs Moduli (GPa) = 99.25280 4.77579 142.77825
#
# Poissons Ratio (x) = 0.11152 0.32391
# Poissons Ratio (y) = 2.31776 0.87636
# Poissons Ratio (z) = 0.22517 0.02931
#
# Static dielectric constant tensor:
#      x y z
#    x 3.938010 0.000000 0.000000 
#    y 0.000000 3.117370 0.000000 
#    z 0.000000 0.000000 4.430090 
# 
# 
# High freq. dielectric constant tensor:
#      x y z
#    x 1.836630 0.000000 0.000000 
#    y 0.000000 1.752300 0.000000 
#    z 0.000000 0.000000 1.868660 
# 
# From -- ./inp_files/23416.got.cif
#   From: 2010.03.12/outbox.cif.g09.slc.cpg/sg50_12_cif.got.tgz:23416.got - 2010.04.16 13:23:21.
