data_PCOD8204721
_publ_section_title
;
Structure prediction by ZEFSAII (Michael W. Deem and Ramdas Pophale) SiO2 
 PCOD8204721
Probable space group: P B A N
;
_chemical_formula_sum "Si O2"
_cell_formula_units_Z 48
_cell_length_a 17.401200
_cell_length_b 5.268119
_cell_length_c 27.896762
_cell_angle_alpha 90.000000
_cell_angle_beta 90.000000
_cell_angle_gamma 90.000000
_cell_volume 2557.340594
_symmetry_space_group_name_H-M "P B A N"
_symmetry_group_IT_number 50
_space_group.IT_coordinate_system_code '2'
_symmetry_cell_setting 'orthorhombic'
loop_
_space_group_symop_operation_xyz
x,y,z
1/2-x,1/2-y,z
x,1/2-y,-z
1/2-x,y,-z
-x,-y,-z
1/2+x,1/2+y,-z
-x,1/2+y,z
1/2+x,-y,z
loop_
_atom_site_type_symbol
_atom_site_label
_atom_site_fract_x
_atom_site_fract_y
_atom_site_fract_z
Si Si1 0.547879 0.766578 0.305902
Si Si2 0.841303 0.250469 0.446170
Si Si3 0.658882 0.749514 0.390835
Si Si4 0.418283 0.260089 0.194583
Si Si5 0.548707 0.206449 0.948766
Si Si6 0.409716 0.760078 0.154105
O O1 0.493287 0.530612 0.317790
O O2 0.623868 0.748370 0.337885
O O3 0.572937 0.755431 0.251112
O O4 0.750000 0.250000 0.448068
O O5 0.874999 0.250000 0.500000
O O6 0.870592 0.502733 0.419340
O O7 0.870613 0.998998 0.419090
O O8 0.750000 0.750000 0.384927
O O9 0.371599 0.511115 0.178141
O O10 0.499930 0.266512 0.167417
O O11 0.371416 0.011320 0.177275
O O12 0.481762 0.418236 0.946049
O O13 0.604247 0.246022 0.903203
O O14 0.592094 0.250000 0.000000
#
# Coordination Sequence:
#
# PCOD8204721 Si02
#       6
#     8   8   8   8   8   8
#     4  12  21  33  50  72  98 127 165 197 228 278
#     4   9  17  33  57  79  96 122 161 195 225 277
#     4  10  21  35  53  78 103 125 153 196 242 275
#     4  10  16  25  39  56  76 109 147 188 211 251
#     4  10  16  20  29  45  67 100 136 174 224 268
#     4  10  14  25  36  51  78 103 146 192 214 258
#
# _framework density 18.769497000000001
#
# number of rings (size 3 to 8) (size 9 to 14) (size 15 to 20)
#    0.000    1.833    6.667    1.500    0.000    2.000 
#    0.000    0.000    0.000   10.000    0.000    0.000 
#    0.000    0.000    0.000    0.000    0.000    9.167 
#
# Total GULP energy -594856.360819 kJ/mol
# GULP energy per Si atom -12392.840850 kJ/mol
# Density = 1.872678 g / cm^3
# Si number density = 18.769497 Si / 1000 Ang^3
#
#
#
# Elastic Constant Matrix: (Units=GPa)
#
#
# Indices 1 2 3 4 5 6 
#
# 1 10.7453 10.8371 31.0905 0.0000 0.0000 0.0000
# 2 10.8371 174.3833 55.3541 0.0000 0.0000 0.0000
# 3 31.0905 55.3541 160.2066 0.0000 0.0000 0.0000
# 4 0.0000 0.0000 0.0000 25.0872 0.0000 0.0000
# 5 0.0000 0.0000 0.0000 0.0000 0.2783 0.0000
# 6 0.0000 0.0000 0.0000 0.0000 0.0000 5.9991
#
#
#
# Elastic Compliance Matrix: (Units=1/GPa)
#
#
# Indices 1 2 3 4 5 6 
#
# 1 0.212239 -0.000130 -0.041143 0.000000 0.000000 0.000000
# 2 -0.000130 0.006441 -0.002200 0.000000 0.000000 0.000000
# 3 -0.041143 -0.002200 0.014987 0.000000 0.000000 0.000000
# 4 0.000000 0.000000 0.000000 0.039861 0.000000 0.000000
# 5 0.000000 0.000000 0.000000 0.000000 3.593484 0.000000
# 6 0.000000 0.000000 0.000000 0.000000 0.000000 0.166693
#
#
# Mechanical properties :
#
#
# Convention : Reuss Voigt Hill
#
# Bulk Modulus (GPa) = 6.81569 59.98874 33.40221
# Shear Modulus (GPa) = 1.19917 22.80980 12.00448
#
# Velocity S-wave (km/s) = 0.80017 3.48984 2.53172
# Velocity P-wave (km/s) = 2.11963 6.94757 5.13623
#
# Compressibility (1/GPa) = 0.14672036
#
# Stress axis : x y z
#
# Youngs Moduli (GPa) = 4.71166 155.25561 66.72593
#
# Poissons Ratio (x) = 0.02013 2.74533
# Poissons Ratio (y) = 0.00061 0.14682
# Poissons Ratio (z) = 0.19385 0.34161
#
# Static dielectric constant tensor:
#      x y z
#    x 2.556730 0.000000 0.000000 
#    y 0.000000 5.506190 0.000000 
#    z 0.000000 0.000000 3.753180 
# 
# 
# High freq. dielectric constant tensor:
#      x y z
#    x 1.621540 0.000000 0.000000 
#    y 0.000000 1.769250 0.000000 
#    z 0.000000 0.000000 1.751880 
# 
# From -- ./inp_files/31818.got.cif
#   From: 2010.03.12/outbox.cif.g09.slc.cpg/sg50_16_cif.got.tgz:31818.got - 2010.04.16 13:23:21.
