data_PCOD8204253
_publ_section_title
;
Structure prediction by ZEFSAII (Michael W. Deem and Ramdas Pophale) SiO2 
 PCOD8204253
Probable space group: P C C M
;
_chemical_formula_sum "Si O2"
_cell_formula_units_Z 64
_cell_length_a 15.033471
_cell_length_b 25.169262
_cell_length_c 9.045349
_cell_angle_alpha 90.000000
_cell_angle_beta 90.000000
_cell_angle_gamma 90.000000
_cell_volume 3422.591550
_symmetry_space_group_name_H-M "P C C M"
_symmetry_group_IT_number 49
_symmetry_cell_setting 'orthorhombic'
loop_
_space_group_symop_operation_xyz
x,y,z
-x,-y,z
x,-y,1/2-z
-x,y,1/2-z
-x,-y,-z
x,y,-z
-x,y,1/2+z
x,-y,1/2+z
loop_
_atom_site_type_symbol
_atom_site_label
_atom_site_fract_x
_atom_site_fract_y
_atom_site_fract_z
Si Si1 0.219866 0.137588 0.324111
Si Si2 0.904862 0.649869 0.675604
Si Si3 0.582005 0.862228 0.339061
Si Si4 0.583065 0.736507 0.662560
Si Si5 0.778704 0.444121 0.171654
Si Si6 0.094870 0.945937 0.677586
Si Si7 0.776618 0.741931 0.324786
Si Si8 0.417684 0.443332 0.327757
O O1 0.205896 0.127947 0.500000
O O2 0.320848 0.124207 0.273868
O O3 0.158339 0.101879 0.222243
O O4 0.196602 0.198292 0.280557
O O5 0.915622 0.651147 0.500000
O O6 0.850977 0.598027 0.728808
O O7 0.852056 0.701894 0.732757
O O8 0.000000 0.649192 0.750000
O O9 0.500000 0.887773 0.250000
O O10 0.575530 0.888074 0.500000
O O11 0.570980 0.799330 0.350135
O O12 0.500000 0.711156 0.750000
O O13 0.580194 0.710229 0.500000
O O14 0.679084 0.725374 0.739888
O O15 0.794531 0.500000 0.250000
O O16 0.680313 0.418301 0.199268
O O17 0.791619 0.455686 0.000000
O O18 0.087487 0.951004 0.500000
O O19 0.000000 0.933729 0.750000
O O20 0.133110 0.000000 0.750000
O O21 0.765534 0.738943 0.500000
O O22 0.413726 0.500000 0.250000
O O23 0.500000 0.411059 0.250000
O O24 0.438549 0.449271 0.500000
#
# Coordination Sequence:
#
# PCOD8204253 Si02
#       8
#     8   8   8   8   8   8   8   8
#     4   9  17  32  53  78 105 137 173 209 249 299
#     4  10  21  38  55  72  95 128 166 208 255 303
#     4   8  14  24  42  68 100 134 169 205 243 287
#     4   8  13  24  43  68  96 130 164 197 237 285
#     4   9  19  34  53  74  98 127 163 203 247 297
#     4  11  22  37  56  78 104 135 169 212 259 305
#     4   8  16  32  53  73 101 137 169 200 245 301
#     4   9  15  25  43  69  97 126 155 189 233 286
#
# _framework density 18.699280999999999
#
# number of rings (size 3 to 8) (size 9 to 14) (size 15 to 20)
#    0.000    3.000    0.000    3.750    0.000    2.250 
#    0.000    6.250    0.000    0.375    0.000    2.625 
#    0.000    0.000    0.000    0.000    0.000    0.000 
#
# Total GULP energy -792946.450239 kJ/mol
# GULP energy per Si atom -12389.788285 kJ/mol
# Density = 1.865672 g / cm^3
# Si number density = 18.699281 Si / 1000 Ang^3
#
#
#
# Elastic Constant Matrix: (Units=GPa)
#
#
# Indices 1 2 3 4 5 6 
#
# 1 166.0433 74.4386 59.6917 0.0000 0.0000 0.0000
# 2 74.4386 88.4490 38.7389 0.0000 0.0000 0.0000
# 3 59.6917 38.7389 81.6736 0.0000 0.0000 0.0000
# 4 0.0000 0.0000 0.0000 16.6214 0.0000 0.0000
# 5 0.0000 0.0000 0.0000 0.0000 35.2770 0.0000
# 6 0.0000 0.0000 0.0000 0.0000 0.0000 -16.0857
#
#
#
# Elastic Compliance Matrix: (Units=1/GPa)
#
#
# Indices 1 2 3 4 5 6 
#
# 1 0.010863 -0.007151 -0.004548 0.000000 0.000000 0.000000
# 2 -0.007151 0.018977 -0.003775 0.000000 0.000000 0.000000
# 3 -0.004548 -0.003775 0.017358 0.000000 0.000000 0.000000
# 4 0.000000 0.000000 0.000000 0.060163 0.000000 0.000000
# 5 0.000000 0.000000 0.000000 0.000000 0.028347 0.000000
# 6 0.000000 0.000000 0.000000 0.000000 0.000000 -0.062167
#
#
# Mechanical properties :
#
#
# Convention : Reuss Voigt Hill
#
# Bulk Modulus (GPa) = 61.53215 75.76715 68.64965
# Shear Modulus (GPa) = 45.49340 18.04898 31.77119
#
# Velocity S-wave (km/s) = 4.93779 3.11017 4.12644
# Velocity P-wave (km/s) = 8.09238 7.31466 7.71333
#
# Compressibility (1/GPa) = 0.01625167
#
# Stress axis : x y z
#
# Youngs Moduli (GPa) = 92.05515 52.69464 57.60960
#
# Poissons Ratio (x) = 0.37679 0.26199
# Poissons Ratio (y) = 0.65824 0.21749
# Poissons Ratio (z) = 0.41864 0.19893
#
# Static dielectric constant tensor:
#      x y z
#    x 3.931970 0.000000 0.000000 
#    y 0.000000 3.211480 0.000000 
#    z 0.000000 0.000000 3.423270 
# 
# 
# High freq. dielectric constant tensor:
#      x y z
#    x 1.739990 0.000000 0.000000 
#    y 0.000000 1.695600 0.000000 
#    z 0.000000 0.000000 1.707340 
# 
# From -- ./inp_files/4372.got.cif
#   From: 2010.03.12/outbox.cif.g09.slc.cpg/sg49_3_cif.got.tgz:4372.got - 2010.04.14 03:58:27.
