data_PCOD8204195
_publ_section_title
;
Structure prediction by ZEFSAII (Michael W. Deem and Ramdas Pophale) SiO2 
 PCOD8204195
Probable space group: P C C M
;
_chemical_formula_sum "Si O2"
_cell_formula_units_Z 64
_cell_length_a 8.918906
_cell_length_b 21.137517
_cell_length_c 17.304032
_cell_angle_alpha 90.000000
_cell_angle_beta 90.000000
_cell_angle_gamma 90.000000
_cell_volume 3262.217147
_symmetry_space_group_name_H-M "P C C M"
_symmetry_group_IT_number 49
_symmetry_cell_setting 'orthorhombic'
loop_
_space_group_symop_operation_xyz
x,y,z
-x,-y,z
x,-y,1/2-z
-x,y,1/2-z
-x,-y,-z
x,y,-z
-x,y,1/2+z
x,-y,1/2+z
loop_
_atom_site_type_symbol
_atom_site_label
_atom_site_fract_x
_atom_site_fract_y
_atom_site_fract_z
Si Si1 0.926989 0.562461 0.091092
Si Si2 0.915882 0.060563 0.909523
Si Si3 0.576532 0.816490 0.831760
Si Si4 0.932955 0.826252 0.832177
Si Si5 0.055838 0.312830 0.836161
Si Si6 0.626042 0.306860 0.409697
Si Si7 0.578467 0.934897 0.591332
Si Si8 0.592534 0.442646 0.410502
O O1 0.010812 0.627731 0.115904
O O2 0.758885 0.560592 0.124163
O O3 0.000000 0.500000 0.127771
O O4 0.934081 0.560118 0.000000
O O5 0.747981 0.065603 0.875531
O O6 0.013131 0.123036 0.894482
O O7 0.901643 0.050034 0.000000
O O8 0.000000 0.000000 0.872163
O O9 0.500000 0.804102 0.750000
O O10 0.754251 0.825274 0.825095
O O11 0.534816 0.755847 0.885743
O O12 0.511105 0.878609 0.869946
O O13 0.998883 0.757838 0.859839
O O14 0.000000 0.846102 0.750000
O O15 0.234331 0.312124 0.850898
O O16 0.000000 0.325247 0.750000
O O17 0.679073 0.302540 0.500000
O O18 0.525107 0.371208 0.399204
O O19 0.573349 0.925146 0.500000
O O20 0.500000 0.000000 0.616085
O O21 0.500000 0.500000 0.369609
O O22 0.605066 0.460182 0.500000
#
# Coordination Sequence:
#
# PCOD8204195 Si02
#       8
#     8   8   8   8   8   8   8   8
#     4   9  17  30  49  75 106 141 183 227 273 331
#     4  10  21  37  58  84 111 140 178 225 274 326
#     4  11  22  36  57  82 112 147 186 234 288 341
#     4  10  21  37  55  77 107 144 184 223 273 336
#     4   9  18  32  52  78 108 142 181 231 283 334
#     4   9  18  34  57  81 108 148 193 232 280 348
#     4  10  21  38  59  84 114 145 183 231 280 337
#     4   8  14  28  50  75 102 134 177 225 268 316
#
# _framework density 19.618559999999999
#
# number of rings (size 3 to 8) (size 9 to 14) (size 15 to 20)
#    0.000    2.500    0.000    3.000    0.000    4.750 
#    0.000    7.500    0.000    4.875    0.000    0.000 
#    0.000    0.000    0.000    0.000    0.000    0.500 
#
# Total GULP energy -792863.466307 kJ/mol
# GULP energy per Si atom -12388.491661 kJ/mol
# Density = 1.957391 g / cm^3
# Si number density = 19.618560 Si / 1000 Ang^3
#
#
#
# Elastic Constant Matrix: (Units=GPa)
#
#
# Indices 1 2 3 4 5 6 
#
# 1 91.0352 59.7064 33.1147 0.0000 0.0000 0.0000
# 2 59.7064 194.4042 49.0632 0.0000 0.0000 0.0000
# 3 33.1147 49.0632 47.5880 0.0000 0.0000 0.0000
# 4 0.0000 0.0000 0.0000 17.9633 0.0000 0.0000
# 5 0.0000 0.0000 0.0000 0.0000 24.2863 0.0000
# 6 0.0000 0.0000 0.0000 0.0000 0.0000 33.6819
#
#
#
# Elastic Compliance Matrix: (Units=1/GPa)
#
#
# Indices 1 2 3 4 5 6 
#
# 1 0.015761 -0.002802 -0.008079 0.000000 0.000000 0.000000
# 2 -0.002802 0.007451 -0.005733 0.000000 0.000000 0.000000
# 3 -0.008079 -0.005733 0.032546 0.000000 0.000000 0.000000
# 4 0.000000 0.000000 0.000000 0.055669 0.000000 0.000000
# 5 0.000000 0.000000 0.000000 0.000000 0.041175 0.000000
# 6 0.000000 0.000000 0.000000 0.000000 0.000000 0.029690
#
#
# Mechanical properties :
#
#
# Convention : Reuss Voigt Hill
#
# Bulk Modulus (GPa) = 44.38212 68.53289 56.45751
# Shear Modulus (GPa) = 22.41860 27.92918 25.17389
#
# Velocity S-wave (km/s) = 3.38409 3.77717 3.58602
# Velocity P-wave (km/s) = 6.15963 7.35059 6.78131
#
# Compressibility (1/GPa) = 0.02253159
#
# Stress axis : x y z
#
# Youngs Moduli (GPa) = 63.44759 134.20739 30.72588
#
# Poissons Ratio (x) = 0.37600 0.24823
# Poissons Ratio (y) = 0.17776 0.17614
# Poissons Ratio (z) = 0.51259 0.76935
#
# Static dielectric constant tensor:
#      x y z
#    x 3.628390 0.000000 0.000000 
#    y 0.000000 4.176350 0.000000 
#    z 0.000000 0.000000 3.324040 
# 
# 
# High freq. dielectric constant tensor:
#      x y z
#    x 1.741750 0.000000 0.000000 
#    y 0.000000 1.797780 0.000000 
#    z 0.000000 0.000000 1.735750 
# 
# From -- ./inp_files/16573.got.cif
#   From: 2010.03.12/outbox.cif.g09.slc.cpg/sg49_9_cif.got.tgz:16573.got - 2010.04.14 03:58:27.
