data_PCOD8204997
_publ_section_title
;
Structure prediction by ZEFSAII (Michael W. Deem and Ramdas Pophale) SiO2 
 PCOD8204997
Probable space group: P B A N
;
_chemical_formula_sum "Si O2"
_cell_formula_units_Z 56
_cell_length_a 20.023130
_cell_length_b 15.695574
_cell_length_c 9.128585
_cell_angle_alpha 90.000000
_cell_angle_beta 90.000000
_cell_angle_gamma 90.000000
_cell_volume 2868.881657
_symmetry_space_group_name_H-M "P B A N"
_symmetry_group_IT_number 50
_space_group.IT_coordinate_system_code '2'
_symmetry_cell_setting 'orthorhombic'
loop_
_space_group_symop_operation_xyz
x,y,z
1/2-x,1/2-y,z
x,1/2-y,-z
1/2-x,y,-z
-x,-y,-z
1/2+x,1/2+y,-z
-x,1/2+y,z
1/2+x,-y,z
loop_
_atom_site_type_symbol
_atom_site_label
_atom_site_fract_x
_atom_site_fract_y
_atom_site_fract_z
Si Si1 0.255501 0.484854 0.162427
Si Si2 0.116339 0.946895 0.840383
Si Si3 0.487090 0.480440 0.334426
Si Si4 0.944890 0.711460 0.338863
Si Si5 0.074382 0.759042 0.834783
Si Si6 0.122683 0.580759 0.821442
Si Si7 0.687985 0.706390 0.840529
O O1 0.180757 0.501308 0.226585
O O2 0.308187 0.545162 0.246582
O O3 0.289085 0.391839 0.154015
O O4 0.250000 0.522741 0.000000
O O5 0.115035 0.845903 0.801913
O O6 0.053089 0.989725 0.763729
O O7 0.110718 0.957131 0.015366
O O8 0.500000 0.500000 0.500000
O O9 0.453157 0.389043 0.328857
O O10 0.437867 0.551983 0.277882
O O11 0.935474 0.750000 0.500000
O O12 0.878404 0.729311 0.246834
O O13 0.010128 0.754268 0.268247
O O14 0.126812 0.682773 0.810949
O O15 0.046755 0.750000 0.000000
O O16 0.750000 0.750000 0.756485
O O17 0.679951 0.750000 0.000000
#
# Coordination Sequence:
#
# PCOD8204997 Si02
#       7
#     8   8   8   8   8   8   8
#     4  10  19  37  59  89 117 152 190 244 293 349
#     4   9  21  36  60  86 119 149 199 237 294 353
#     4  11  22  38  57  84 115 159 199 246 294 344
#     4  11  23  39  56  83 120 154 197 246 292 346
#     4   9  19  37  59  90 115 152 190 241 292 348
#     4  10  19  36  62  85 118 150 193 240 295 351
#     4  11  22  38  60  84 117 154 196 237 295 354
#
# _framework density 19.519801999999999
#
# number of rings (size 3 to 8) (size 9 to 14) (size 15 to 20)
#    0.000    1.857    2.857    1.714    0.000    3.143 
#    0.000    3.571    0.000    0.000    0.000    3.000 
#    0.000    0.000    0.000    0.000    0.000    0.000 
#
# Total GULP energy -693857.150897 kJ/mol
# GULP energy per Si atom -12390.306266 kJ/mol
# Density = 1.947537 g / cm^3
# Si number density = 19.519802 Si / 1000 Ang^3
#
#
#
# Elastic Constant Matrix: (Units=GPa)
#
#
# Indices 1 2 3 4 5 6 
#
# 1 124.7862 42.0915 39.0507 0.0000 0.0000 0.0000
# 2 42.0915 74.4410 19.7502 0.0000 0.0000 0.0000
# 3 39.0507 19.7502 70.4798 0.0000 0.0000 0.0000
# 4 0.0000 0.0000 0.0000 22.4407 0.0000 0.0000
# 5 0.0000 0.0000 0.0000 0.0000 2.2790 0.0000
# 6 0.0000 0.0000 0.0000 0.0000 0.0000 33.8683
#
#
#
# Elastic Compliance Matrix: (Units=1/GPa)
#
#
# Indices 1 2 3 4 5 6 
#
# 1 0.011227 -0.005075 -0.004798 0.000000 0.000000 0.000000
# 2 -0.005075 0.016807 -0.001898 0.000000 0.000000 0.000000
# 3 -0.004798 -0.001898 0.017379 0.000000 0.000000 0.000000
# 4 0.000000 0.000000 0.000000 0.044562 0.000000 0.000000
# 5 0.000000 0.000000 0.000000 0.000000 0.438788 0.000000
# 6 0.000000 0.000000 0.000000 0.000000 0.000000 0.029526
#
#
# Mechanical properties :
#
#
# Convention : Reuss Voigt Hill
#
# Bulk Modulus (GPa) = 45.72435 52.38800 49.05618
# Shear Modulus (GPa) = 8.48722 22.97190 15.72956
#
# Velocity S-wave (km/s) = 2.08745 3.43425 2.84179
# Velocity P-wave (km/s) = 5.41160 6.52856 5.99614
#
# Compressibility (1/GPa) = 0.02187018
#
# Stress axis : x y z
#
# Youngs Moduli (GPa) = 89.06901 59.50039 57.54095
#
# Poissons Ratio (x) = 0.30197 0.27611
# Poissons Ratio (y) = 0.45204 0.10919
# Poissons Ratio (z) = 0.42740 0.11291
#
# Static dielectric constant tensor:
#      x y z
#    x 3.868380 0.000000 0.000000 
#    y 0.000000 3.636270 0.000000 
#    z 0.000000 0.000000 3.361060 
# 
# 
# High freq. dielectric constant tensor:
#      x y z
#    x 1.769640 0.000000 0.000000 
#    y 0.000000 1.771780 0.000000 
#    z 0.000000 0.000000 1.732070 
# 
# From -- ./inp_files/15335.got.cif
#   From: 2010.03.12/outbox.cif.g09.slc.cpg/sg50_8_cif.got.tgz:15335.got - 2010.04.16 13:23:21.
