data_PCOD8204225
_publ_section_title
;
Structure prediction by ZEFSAII (Michael W. Deem and Ramdas Pophale) SiO2 
 PCOD8204225
Probable space group: P C C M
;
_chemical_formula_sum "Si O2"
_cell_formula_units_Z 48
_cell_length_a 30.342325
_cell_length_b 9.087153
_cell_length_c 8.595956
_cell_angle_alpha 90.000000
_cell_angle_beta 90.000000
_cell_angle_gamma 90.000000
_cell_volume 2370.122974
_symmetry_space_group_name_H-M "P C C M"
_symmetry_group_IT_number 49
_symmetry_cell_setting 'orthorhombic'
loop_
_space_group_symop_operation_xyz
x,y,z
-x,-y,z
x,-y,1/2-z
-x,y,1/2-z
-x,-y,-z
x,y,-z
-x,y,1/2+z
x,-y,1/2+z
loop_
_atom_site_type_symbol
_atom_site_label
_atom_site_fract_x
_atom_site_fract_y
_atom_site_fract_z
Si Si1 0.209046 0.841974 0.679338
Si Si2 0.130214 0.339740 0.317340
Si Si3 0.452051 0.344088 0.184353
Si Si4 0.702977 0.341465 0.319626
Si Si5 0.046414 0.840107 0.184285
Si Si6 0.624702 0.158926 0.183354
O O1 0.196090 0.856416 0.500000
O O2 0.168970 0.767459 0.767655
O O3 0.252813 0.749095 0.704114
O O4 0.218523 0.000000 0.750000
O O5 0.137929 0.500000 0.250000
O O6 0.130614 0.353468 0.500000
O O7 0.083776 0.273306 0.259251
O O8 0.434658 0.500000 0.250000
O O9 0.500000 0.306888 0.250000
O O10 0.420031 0.214347 0.237271
O O11 0.454106 0.353798 0.000000
O O12 0.712491 0.500000 0.250000
O O13 0.689062 0.350730 0.500000
O O14 0.664019 0.268901 0.222325
O O15 0.000000 0.781921 0.250000
O O16 0.058197 0.000000 0.250000
O O17 0.043670 0.851567 0.000000
O O18 0.636949 0.000000 0.250000
O O19 0.617834 0.150010 0.000000
#
# Coordination Sequence:
#
# PCOD8204225 Si02
#       6
#     8   8   8   8   8   8
#     4  11  24  41  64  91 122 158 199 245 297 354
#     4  11  24  40  60  87 120 157 199 245 298 354
#     4  11  22  40  64  92 124 161 204 251 302 358
#     4  11  24  42  64  92 123 159 200 246 297 353
#     4  10  21  37  59  86 115 152 195 243 295 353
#     4  12  25  42  63  90 123 161 203 250 302 358
#
# _framework density 20.252115
#
# number of rings (size 3 to 8) (size 9 to 14) (size 15 to 20)
#    0.000    1.000    0.000    8.000    0.000   10.000 
#    0.000    3.333    0.000    0.000    0.000    0.000 
#    0.000    0.000    0.000    0.000    0.000    0.000 
#
# Total GULP energy -595536.718798 kJ/mol
# GULP energy per Si atom -12407.014975 kJ/mol
# Density = 2.020602 g / cm^3
# Si number density = 20.252115 Si / 1000 Ang^3
#
#
#
# Elastic Constant Matrix: (Units=GPa)
#
#
# Indices 1 2 3 4 5 6 
#
# 1 93.1157 40.4143 44.7429 0.0000 0.0000 0.0000
# 2 40.4143 122.7747 35.5139 0.0000 0.0000 0.0000
# 3 44.7429 35.5139 115.4557 0.0000 0.0000 0.0000
# 4 0.0000 0.0000 0.0000 32.2311 0.0000 0.0000
# 5 0.0000 0.0000 0.0000 0.0000 33.5907 0.0000
# 6 0.0000 0.0000 0.0000 0.0000 0.0000 -29.9911
#
#
#
# Elastic Compliance Matrix: (Units=1/GPa)
#
#
# Indices 1 2 3 4 5 6 
#
# 1 0.014404 -0.003432 -0.004526 0.000000 0.000000 0.000000
# 2 -0.003432 0.009758 -0.001672 0.000000 0.000000 0.000000
# 3 -0.004526 -0.001672 0.010930 0.000000 0.000000 0.000000
# 4 0.000000 0.000000 0.000000 0.031026 0.000000 0.000000
# 5 0.000000 0.000000 0.000000 0.000000 0.029770 0.000000
# 6 0.000000 0.000000 0.000000 0.000000 0.000000 -0.033343
#
#
# Mechanical properties :
#
#
# Convention : Reuss Voigt Hill
#
# Bulk Modulus (GPa) = 63.16386 63.63201 63.39794
# Shear Modulus (GPa) = 57.41735 21.21114 39.31424
#
# Velocity S-wave (km/s) = 5.33037 3.23980 4.41073
# Velocity P-wave (km/s) = 8.31506 6.74412 7.57045
#
# Compressibility (1/GPa) = 0.01583184
#
# Stress axis : x y z
#
# Youngs Moduli (GPa) = 69.42588 102.47702 91.49491
#
# Poissons Ratio (x) = 0.35171 0.41413
# Poissons Ratio (y) = 0.23828 0.15294
# Poissons Ratio (z) = 0.31424 0.17130
#
# Static dielectric constant tensor:
#      x y z
#    x 3.886320 0.000000 0.000000 
#    y 0.000000 3.775080 0.000000 
#    z 0.000000 0.000000 3.882550 
# 
# 
# High freq. dielectric constant tensor:
#      x y z
#    x 1.807180 0.000000 0.000000 
#    y 0.000000 1.799970 0.000000 
#    z 0.000000 0.000000 1.810850 
# 
# From -- ./inp_files/6890.got.cif
#   From: 2010.03.12/outbox.cif.g09.slc.cpg/sg49_4_cif.got.tgz:6890.got - 2010.04.14 03:58:27.
