data_PCOD8204701
_publ_section_title
;
Structure prediction by ZEFSAII (Michael W. Deem and Ramdas Pophale) SiO2 
 PCOD8204701
Probable space group: P C C M
;
_chemical_formula_sum "Si O2"
_cell_formula_units_Z 64
_cell_length_a 26.319495
_cell_length_b 8.959237
_cell_length_c 14.870145
_cell_angle_alpha 90.000000
_cell_angle_beta 90.000000
_cell_angle_gamma 90.000000
_cell_volume 3506.418756
_symmetry_space_group_name_H-M "P C C M"
_symmetry_group_IT_number 49
_symmetry_cell_setting 'orthorhombic'
loop_
_space_group_symop_operation_xyz
x,y,z
-x,-y,z
x,-y,1/2-z
-x,y,1/2-z
-x,-y,-z
x,y,-z
-x,y,1/2+z
x,-y,1/2+z
loop_
_atom_site_type_symbol
_atom_site_label
_atom_site_fract_x
_atom_site_fract_y
_atom_site_fract_z
Si Si1 0.244516 0.827686 0.894845
Si Si2 0.579464 0.823191 0.250000
Si Si3 0.942960 0.178438 0.250000
Si Si4 0.244516 0.827686 0.605155
Si Si5 0.500000 0.823590 0.398047
Si Si6 0.688237 0.324187 0.250000
Si Si7 0.869189 0.177508 0.401378
Si Si8 0.869189 0.177508 0.098622
O O1 0.283359 0.728240 0.839629
O O2 0.187245 0.775867 0.869619
O O3 0.252578 1.000000 0.868336
O O4 0.254853 0.803173 0.000000
O O5 0.549364 0.773912 0.340575
O O6 0.549364 0.773912 0.159425
O O7 0.632160 0.739714 0.250000
O O8 0.588195 0.000000 0.250000
O O9 0.912666 0.240640 0.336158
O O10 0.912666 0.240640 0.163842
O O11 0.000000 0.243309 0.250000
O O12 0.944009 0.000000 0.250000
O O13 0.254853 0.803173 0.500000
O O14 0.283359 0.728240 0.660371
O O15 0.187245 0.775867 0.630381
O O16 0.500000 0.754309 0.500000
O O17 0.500000 0.000000 0.406277
O O18 0.685361 0.500000 0.250000
O O19 0.880600 0.243471 0.500000
O O20 0.870977 1.000000 0.404550
O O21 0.880600 0.243471 0.000000
#
# Coordination Sequence:
#
# PCOD8204701 Si02
#       8
#     8   8   8   8   8   8   8   8
#     4   9  18  34  55  73  91 127 178 219 249 290
#     4   9  18  33  53  77 102 130 169 207 238 284
#     4   9  15  20  30  54  89 124 150 179 233 302
#     4   9  18  34  55  73  91 127 178 219 249 290
#     4   8  15  31  56  80  98 122 164 215 250 271
#     4  12  24  34  48  75 113 143 161 199 256 307
#     4   8  14  25  41  60  82 113 157 203 240 281
#     4   8  14  25  41  60  82 113 157 203 240 281
#
# _framework density 18.252241000000001
#
# number of rings (size 3 to 8) (size 9 to 14) (size 15 to 20)
#    0.000    3.000    0.000    4.125    0.000    4.000 
#    0.000    6.250    0.000    0.750    0.000    0.000 
#    0.000    8.000    0.000   22.000    0.000   22.000 
#
# Total GULP energy -793229.146620 kJ/mol
# GULP energy per Si atom -12394.205416 kJ/mol
# Density = 1.821070 g / cm^3
# Si number density = 18.252241 Si / 1000 Ang^3
#
#
#
# Elastic Constant Matrix: (Units=GPa)
#
#
# Indices 1 2 3 4 5 6 
#
# 1 184.2365 48.2089 98.8159 0.0000 0.0000 0.0000
# 2 48.2089 45.9985 34.5039 0.0000 0.0000 0.0000
# 3 98.8159 34.5039 143.3586 0.0000 0.0000 0.0000
# 4 0.0000 0.0000 0.0000 8.8082 0.0000 0.0000
# 5 0.0000 0.0000 0.0000 0.0000 -1.8025 0.0000
# 6 0.0000 0.0000 0.0000 0.0000 0.0000 -5.4608
#
#
#
# Elastic Compliance Matrix: (Units=1/GPa)
#
#
# Indices 1 2 3 4 5 6 
#
# 1 0.009971 -0.006461 -0.005318 0.000000 0.000000 0.000000
# 2 -0.006461 0.030716 -0.002939 0.000000 0.000000 0.000000
# 3 -0.005318 -0.002939 0.011348 0.000000 0.000000 0.000000
# 4 0.000000 0.000000 0.000000 0.113531 0.000000 0.000000
# 5 0.000000 0.000000 0.000000 0.000000 -0.554785 0.000000
# 6 0.000000 0.000000 0.000000 0.000000 0.000000 -0.183124
#
#
# Mechanical properties :
#
#
# Convention : Reuss Voigt Hill
#
# Bulk Modulus (GPa) = 44.24931 81.85012 63.04971
# Shear Modulus (GPa) = -9.33925 13.11330 1.88702
#
# Velocity S-wave (km/s) = -2.26448 2.68330 1.01789
# Velocity P-wave (km/s) = 4.17836 7.38521 6.00000
#
# Compressibility (1/GPa) = 0.02259922
#
# Stress axis : x y z
#
# Youngs Moduli (GPa) = 100.29567 32.55627 88.11861
#
# Poissons Ratio (x) = 0.21034 0.46858
# Poissons Ratio (y) = 0.64800 0.25901
# Poissons Ratio (z) = 0.53333 0.09570
#
# Static dielectric constant tensor:
#      x y z
#    x 3.476330 0.000000 0.000000 
#    y 0.000000 2.743460 0.000000 
#    z 0.000000 0.000000 3.926810 
# 
# 
# High freq. dielectric constant tensor:
#      x y z
#    x 1.712400 0.000000 0.000000 
#    y 0.000000 1.640290 0.000000 
#    z 0.000000 0.000000 1.722910 
# 
# From -- ./inp_files/14527.got.cif
#   From: 2010.03.12/outbox.cif.g09.slc.cpg/sg49_8_cif.got.tgz:14527.got - 2010.04.14 03:58:27.
