data_PCOD8204796
_publ_section_title
;
Structure prediction by ZEFSAII (Michael W. Deem and Ramdas Pophale) SiO2 
 PCOD8204796
Probable space group: P B A N
;
_chemical_formula_sum "Si O2"
_cell_formula_units_Z 48
_cell_length_a 19.896663
_cell_length_b 12.407922
_cell_length_c 11.990733
_cell_angle_alpha 90.000000
_cell_angle_beta 90.000000
_cell_angle_gamma 90.000000
_cell_volume 2960.227109
_symmetry_space_group_name_H-M "P B A N"
_symmetry_group_IT_number 50
_space_group.IT_coordinate_system_code '2'
_symmetry_cell_setting 'orthorhombic'
loop_
_space_group_symop_operation_xyz
x,y,z
1/2-x,1/2-y,z
x,1/2-y,-z
1/2-x,y,-z
-x,-y,-z
1/2+x,1/2+y,-z
-x,1/2+y,z
1/2+x,-y,z
loop_
_atom_site_type_symbol
_atom_site_label
_atom_site_fract_x
_atom_site_fract_y
_atom_site_fract_z
Si Si1 0.376845 0.872834 0.736875
Si Si2 0.376845 0.627166 0.736875
Si Si3 0.500000 0.500000 0.314952
Si Si4 0.170541 0.939051 0.500000
Si Si5 0.427482 0.374914 0.500000
Si Si6 0.250000 0.878247 0.873918
O O1 0.392666 0.750000 0.770952
O O2 0.442131 0.946688 0.761400
O O3 0.356864 0.875739 0.607059
O O4 0.316320 0.921304 0.811136
O O5 0.442131 0.553312 0.761400
O O6 0.356864 0.624261 0.607059
O O7 0.316320 0.578696 0.811136
O O8 0.470585 0.404227 0.391052
O O9 0.529415 0.595773 0.391052
O O10 0.250000 0.941730 0.500000
O O11 0.142822 0.060838 0.500000
O O12 0.409785 0.250000 0.500000
O O13 0.250000 0.750000 0.869405
O O14 0.250000 0.922121 0.000000
#
# Coordination Sequence:
#
# PCOD8204796 Si02
#       6
#     8   8   8   8   8   8
#     4  10  18  29  47  68  94 120 145 185 225 263
#     4  10  18  29  47  68  94 120 145 185 225 263
#     4   9  18  28  43  66  90 120 157 181 210 272
#     4  10  18  27  43  70  94 116 152 181 215 272
#     4   9  17  28  40  59  96 129 146 177 219 263
#     4   9  18  31  47  67  89 115 146 186 234 268
#
# _framework density 16.214971999999999
#
# number of rings (size 3 to 8) (size 9 to 14) (size 15 to 20)
#    0.000    2.500    1.667    2.500    0.000    1.000 
#    0.000    0.833    0.000    0.000    0.000    0.000 
#    0.000   45.333    0.000    0.000    0.000    0.000 
#
# Total GULP energy -595184.821642 kJ/mol
# GULP energy per Si atom -12399.683784 kJ/mol
# Density = 1.617807 g / cm^3
# Si number density = 16.214972 Si / 1000 Ang^3
#
#
#
# Elastic Constant Matrix: (Units=GPa)
#
#
# Indices 1 2 3 4 5 6 
#
# 1 142.3350 38.2651 35.9458 0.0000 0.0000 0.0000
# 2 38.2651 75.8002 9.2698 0.0000 0.0000 0.0000
# 3 35.9458 9.2698 75.0985 0.0000 0.0000 0.0000
# 4 0.0000 0.0000 0.0000 5.0768 0.0000 0.0000
# 5 0.0000 0.0000 0.0000 0.0000 11.4671 0.0000
# 6 0.0000 0.0000 0.0000 0.0000 0.0000 25.7753
#
#
#
# Elastic Compliance Matrix: (Units=1/GPa)
#
#
# Indices 1 2 3 4 5 6 
#
# 1 0.009107 -0.004127 -0.003850 0.000000 0.000000 0.000000
# 2 -0.004127 0.015265 0.000091 0.000000 0.000000 0.000000
# 3 -0.003850 0.000091 0.015147 0.000000 0.000000 0.000000
# 4 0.000000 0.000000 0.000000 0.196973 0.000000 0.000000
# 5 0.000000 0.000000 0.000000 0.000000 0.087206 0.000000
# 6 0.000000 0.000000 0.000000 0.000000 0.000000 0.038797
#
#
# Mechanical properties :
#
#
# Convention : Reuss Voigt Hill
#
# Bulk Modulus (GPa) = 42.10824 51.13280 46.62052
# Shear Modulus (GPa) = 12.94725 22.44737 17.69731
#
# Velocity S-wave (km/s) = 2.82880 3.72474 3.30725
# Velocity P-wave (km/s) = 6.05760 7.07820 6.58770
#
# Compressibility (1/GPa) = 0.02374832
#
# Stress axis : x y z
#
# Youngs Moduli (GPa) = 109.80138 65.51075 66.01827
#
# Poissons Ratio (x) = 0.27034 0.25416
# Poissons Ratio (y) = 0.45312 -0.00601
# Poissons Ratio (z) = 0.42272 -0.00596
#
# Static dielectric constant tensor:
#      x y z
#    x 3.314470 0.000000 0.000000 
#    y 0.000000 2.773020 0.000000 
#    z 0.000000 0.000000 2.882690 
# 
# 
# High freq. dielectric constant tensor:
#      x y z
#    x 1.638990 0.000000 0.000000 
#    y 0.000000 1.597000 0.000000 
#    z 0.000000 0.000000 1.590380 
# 
# From -- ./inp_files/20201.got.cif
#   From: 2010.03.12/outbox.cif.g09.slc.cpg/sg50_11_cif.got.tgz:20201.got - 2010.04.16 13:23:21.
