data_PCOD8204978
_publ_section_title
;
Structure prediction by ZEFSAII (Michael W. Deem and Ramdas Pophale) SiO2 
 PCOD8204978
Probable space group: P B A N
;
_chemical_formula_sum "Si O2"
_cell_formula_units_Z 56
_cell_length_a 15.874271
_cell_length_b 19.163664
_cell_length_c 9.213445
_cell_angle_alpha 90.000000
_cell_angle_beta 90.000000
_cell_angle_gamma 90.000000
_cell_volume 2802.814693
_symmetry_space_group_name_H-M "P B A N"
_symmetry_group_IT_number 50
_space_group.IT_coordinate_system_code '2'
_symmetry_cell_setting 'orthorhombic'
loop_
_space_group_symop_operation_xyz
x,y,z
1/2-x,1/2-y,z
x,1/2-y,-z
1/2-x,y,-z
-x,-y,-z
1/2+x,1/2+y,-z
-x,1/2+y,z
1/2+x,-y,z
loop_
_atom_site_type_symbol
_atom_site_label
_atom_site_fract_x
_atom_site_fract_y
_atom_site_fract_z
Si Si1 0.756875 0.434551 0.836853
Si Si2 0.669235 0.148112 0.409789
Si Si3 0.387874 0.111058 0.369720
Si Si4 0.586682 0.051689 0.649643
Si Si5 0.071592 0.137466 0.311369
Si Si6 0.733335 0.904118 0.163051
Si Si7 0.990099 0.226298 0.655589
O O1 0.696947 0.389209 0.736419
O O2 0.853238 0.429693 0.784547
O O3 0.724492 0.513139 0.826648
O O4 0.750000 0.405443 0.000000
O O5 0.750000 0.175827 0.500000
O O6 0.615680 0.093916 0.506604
O O7 0.610551 0.212667 0.357358
O O8 0.379620 0.139959 0.533426
O O9 0.303057 0.122944 0.277467
O O10 0.462067 0.156121 0.291568
O O11 0.412934 0.030374 0.379559
O O12 0.492022 0.072262 0.689082
O O13 0.143070 0.128787 0.193116
O O14 0.016712 0.204778 0.255097
O O15 0.750000 0.879218 0.000000
O O16 0.024692 0.250000 0.500000
#
# Coordination Sequence:
#
# PCOD8204978 Si02
#       7
#     8   8   8   8   8   8   8
#     4   9  20  38  58  90 122 154 194 240 298 366
#     4  10  19  35  62  87 119 154 190 247 300 353
#     4  10  20  36  61  87 113 149 197 249 296 347
#     4  10  19  35  60  92 115 144 198 250 300 346
#     4  11  21  37  59  85 123 149 196 253 292 355
#     4  10  22  40  59  85 119 161 201 239 300 358
#     4  10  21  36  55  90 117 149 198 239 296 349
#
# _framework density 19.979914999999998
#
# number of rings (size 3 to 8) (size 9 to 14) (size 15 to 20)
#    0.000    2.000    2.857    1.714    2.000    3.143 
#    2.571    5.714    0.000    0.857    0.000    0.000 
#    0.000    0.000    0.000    0.000    0.000    0.000 
#
# Total GULP energy -694007.905988 kJ/mol
# GULP energy per Si atom -12392.998321 kJ/mol
# Density = 1.993444 g / cm^3
# Si number density = 19.979915 Si / 1000 Ang^3
#
#
#
# Elastic Constant Matrix: (Units=GPa)
#
#
# Indices 1 2 3 4 5 6 
#
# 1 158.7873 67.0518 61.0602 0.0000 0.0000 0.0000
# 2 67.0518 78.2161 37.4730 0.0000 0.0000 0.0000
# 3 61.0602 37.4730 114.0138 0.0000 0.0000 0.0000
# 4 0.0000 0.0000 0.0000 10.7792 0.0000 0.0000
# 5 0.0000 0.0000 0.0000 0.0000 21.4653 0.0000
# 6 0.0000 0.0000 0.0000 0.0000 0.0000 29.1649
#
#
#
# Elastic Compliance Matrix: (Units=1/GPa)
#
#
# Indices 1 2 3 4 5 6 
#
# 1 0.010800 -0.007700 -0.003253 0.000000 0.000000 0.000000
# 2 -0.007700 0.020664 -0.002668 0.000000 0.000000 0.000000
# 3 -0.003253 -0.002668 0.011390 0.000000 0.000000 0.000000
# 4 0.000000 0.000000 0.000000 0.092771 0.000000 0.000000
# 5 0.000000 0.000000 0.000000 0.000000 0.046587 0.000000
# 6 0.000000 0.000000 0.000000 0.000000 0.000000 0.034288
#
#
# Mechanical properties :
#
#
# Convention : Reuss Voigt Hill
#
# Bulk Modulus (GPa) = 64.05348 75.79856 69.92602
# Shear Modulus (GPa) = 20.08460 24.64404 22.36432
#
# Velocity S-wave (km/s) = 3.17399 3.51585 3.34928
# Velocity P-wave (km/s) = 6.74988 7.38250 7.07326
#
# Compressibility (1/GPa) = 0.01561195
#
# Stress axis : x y z
#
# Youngs Moduli (GPa) = 92.59003 48.39267 87.79571
#
# Poissons Ratio (x) = 0.37263 0.28563
# Poissons Ratio (y) = 0.71295 0.23424
# Poissons Ratio (z) = 0.30123 0.12911
#
# Static dielectric constant tensor:
#      x y z
#    x 3.709590 0.000000 0.000000 
#    y 0.000000 3.985110 0.000000 
#    z 0.000000 0.000000 3.456630 
# 
# 
# High freq. dielectric constant tensor:
#      x y z
#    x 1.787820 0.000000 0.000000 
#    y 0.000000 1.780020 0.000000 
#    z 0.000000 0.000000 1.748250 
# 
# From -- ./inp_files/13280.got.cif
#   From: 2010.03.12/outbox.cif.g09.slc.cpg/sg50_7_cif.got.tgz:13280.got - 2010.04.16 13:23:21.
