data_PCOD8204758
_publ_section_title
;
Structure prediction by ZEFSAII (Michael W. Deem and Ramdas Pophale) SiO2 
 PCOD8204758
Probable space group: P B A N
;
_chemical_formula_sum "Si O2"
_cell_formula_units_Z 36
_cell_length_a 8.831439
_cell_length_b 13.723889
_cell_length_c 15.165843
_cell_angle_alpha 90.000000
_cell_angle_beta 90.000000
_cell_angle_gamma 90.000000
_cell_volume 1838.125780
_symmetry_space_group_name_H-M "P B A N"
_symmetry_group_IT_number 50
_space_group.IT_coordinate_system_code '2'
_symmetry_cell_setting 'orthorhombic'
loop_
_space_group_symop_operation_xyz
x,y,z
1/2-x,1/2-y,z
x,1/2-y,-z
1/2-x,y,-z
-x,-y,-z
1/2+x,1/2+y,-z
-x,1/2+y,z
1/2+x,-y,z
loop_
_atom_site_type_symbol
_atom_site_label
_atom_site_fract_x
_atom_site_fract_y
_atom_site_fract_z
Si Si1 0.575161 0.227819 0.595040
Si Si2 0.502466 0.200548 0.876000
Si Si3 0.750000 0.750000 0.000000
Si Si4 0.610763 0.070934 0.726412
Si Si5 0.750000 0.250000 0.000000
Si Si6 0.540578 0.129482 0.253542
O O1 0.750000 0.250000 0.586330
O O2 0.496891 0.250000 0.500000
O O3 0.560416 0.116095 0.631005
O O4 0.501492 0.299261 0.665999
O O5 0.353482 0.184263 0.935568
O O6 0.505155 0.121443 0.799474
O O7 0.510042 0.311202 0.836749
O O8 0.646156 0.181702 0.938804
O O9 0.786853 0.092308 0.744653
O O10 0.578961 0.956999 0.732895
#
# Coordination Sequence:
#
# PCOD8204758 Si02
#       6
#     8   8   2   8   2   8
#     4   8  16  34  57  80 109 147 182 214 263 323
#     4  10  20  39  55  77 108 145 177 223 275 326
#     4  10  24  34  62  82 102 136 188 234 274 302
#     4  10  20  35  57  81 110 147 180 219 269 322
#     4  10  16  38  62  66 102 148 180 214 262 334
#     4  10  20  35  57  81 110 147 180 219 269 322
#
# _framework density 19.585166999999998
#
# number of rings (size 3 to 8) (size 9 to 14) (size 15 to 20)
#    0.000    2.444    2.222    1.333    3.111    0.889 
#    0.000    6.667    0.000    1.333    0.000    0.000 
#    0.000    0.000    0.000    0.000    0.000    0.000 
#
# Total GULP energy -446101.230808 kJ/mol
# GULP energy per Si atom -12391.700856 kJ/mol
# Density = 1.954059 g / cm^3
# Si number density = 19.585167 Si / 1000 Ang^3
#
#
#
# Elastic Constant Matrix: (Units=GPa)
#
#
# Indices 1 2 3 4 5 6 
#
# 1 70.0249 15.5755 31.0908 0.0000 0.0000 0.0000
# 2 15.5755 101.7742 30.2385 0.0000 0.0000 0.0000
# 3 31.0908 30.2385 124.0140 0.0000 0.0000 0.0000
# 4 0.0000 0.0000 0.0000 9.6233 0.0000 0.0000
# 5 0.0000 0.0000 0.0000 0.0000 14.1434 0.0000
# 6 0.0000 0.0000 0.0000 0.0000 0.0000 23.9917
#
#
#
# Elastic Compliance Matrix: (Units=1/GPa)
#
#
# Indices 1 2 3 4 5 6 
#
# 1 0.016246 -0.001376 -0.003737 0.000000 0.000000 0.000000
# 2 -0.001376 0.010710 -0.002266 0.000000 0.000000 0.000000
# 3 -0.003737 -0.002266 0.009553 0.000000 0.000000 0.000000
# 4 0.000000 0.000000 0.000000 0.103915 0.000000 0.000000
# 5 0.000000 0.000000 0.000000 0.000000 0.070704 0.000000
# 6 0.000000 0.000000 0.000000 0.000000 0.000000 0.041681
#
#
# Mechanical properties :
#
#
# Convention : Reuss Voigt Hill
#
# Bulk Modulus (GPa) = 45.97817 49.95810 47.96814
# Shear Modulus (GPa) = 18.19383 24.14556 21.16970
#
# Velocity S-wave (km/s) = 3.05119 3.51500 3.29128
# Velocity P-wave (km/s) = 5.99500 6.48361 6.24408
#
# Compressibility (1/GPa) = 0.02174945
#
# Stress axis : x y z
#
# Youngs Moduli (GPa) = 61.55325 93.37409 104.67662
#
# Poissons Ratio (x) = 0.12847 0.39123
# Poissons Ratio (y) = 0.08469 0.23724
# Poissons Ratio (z) = 0.23005 0.21162
#
# Static dielectric constant tensor:
#      x y z
#    x 3.383130 0.000000 0.000000 
#    y 0.000000 3.369910 0.000000 
#    z 0.000000 0.000000 4.264830 
# 
# 
# High freq. dielectric constant tensor:
#      x y z
#    x 1.746700 0.000000 0.000000 
#    y 0.000000 1.733870 0.000000 
#    z 0.000000 0.000000 1.777670 
# 
# From -- ./inp_files/24589.got.cif
#   From: 2010.03.12/outbox.cif.g09.slc.cpg/sg50_13_cif.got.tgz:24589.got - 2010.04.16 13:23:21.
