data_PCOD8204254
_publ_section_title
;
Structure prediction by ZEFSAII (Michael W. Deem and Ramdas Pophale) SiO2 
 PCOD8204254
Probable space group: P C C M
;
_chemical_formula_sum "Si O2"
_cell_formula_units_Z 64
_cell_length_a 8.899918
_cell_length_b 24.097984
_cell_length_c 15.690917
_cell_angle_alpha 90.000000
_cell_angle_beta 90.000000
_cell_angle_gamma 90.000000
_cell_volume 3365.232249
_symmetry_space_group_name_H-M "P C C M"
_symmetry_group_IT_number 49
_symmetry_cell_setting 'orthorhombic'
loop_
_space_group_symop_operation_xyz
x,y,z
-x,-y,z
x,-y,1/2-z
-x,y,1/2-z
-x,-y,-z
x,y,-z
-x,y,1/2+z
x,-y,1/2+z
loop_
_atom_site_type_symbol
_atom_site_label
_atom_site_fract_x
_atom_site_fract_y
_atom_site_fract_z
Si Si1 0.322484 0.887559 0.597053
Si Si2 0.832891 0.999119 0.899038
Si Si3 0.176847 0.309526 0.259779
Si Si4 0.324226 0.807678 0.751045
Si Si5 0.387879 0.389838 0.828483
Si Si6 0.686846 0.619815 0.404198
Si Si7 0.326495 0.889789 0.902939
Si Si8 0.677283 0.502376 0.906758
O O1 0.269823 0.871949 0.500000
O O2 0.281430 0.839136 0.663482
O O3 0.497501 0.900095 0.597239
O O4 0.245751 0.943137 0.632917
O O5 0.747287 0.053881 0.867577
O O6 0.833625 0.998915 0.000000
O O7 0.000000 0.000000 0.860929
O O8 0.219404 0.245573 0.254787
O O9 0.267809 0.341228 0.185544
O O10 0.227206 0.334345 0.350026
O O11 0.000000 0.317392 0.250000
O O12 0.500000 0.791182 0.750000
O O13 0.283358 0.841922 0.836247
O O14 0.500000 0.400619 0.750000
O O15 0.504167 0.372735 0.903375
O O16 0.287872 0.445193 0.846164
O O17 0.742031 0.628055 0.500000
O O18 0.731725 0.557521 0.370644
O O19 0.272642 0.874651 0.000000
O O20 0.500000 0.500000 0.917138
O O21 0.750532 0.512298 0.000000
#
# Coordination Sequence:
#
# PCOD8204254 Si02
#       8
#     8   8   8   8   8   8   8   8
#     4   9  18  34  55  77 103 133 168 216 268 313
#     4   9  17  30  50  78 110 139 167 201 250 319
#     4  11  24  39  52  74 111 148 181 221 271 327
#     4  10  21  38  56  76 100 133 186 235 266 309
#     4   9  17  31  54  80 105 138 179 220 264 314
#     4   9  18  35  59  83 107 138 178 223 269 318
#     4   9  18  33  55  79 102 132 169 215 269 315
#     4   8  14  27  51  83 109 129 167 223 271 311
#
# _framework density 19.018004999999999
#
# number of rings (size 3 to 8) (size 9 to 14) (size 15 to 20)
#    0.000    2.750    0.000    2.625    0.000    9.250 
#    0.000    9.375    0.000    1.500    0.000    0.000 
#    0.000    0.000    0.000    0.000    0.000    0.000 
#
# Total GULP energy -793102.097051 kJ/mol
# GULP energy per Si atom -12392.220266 kJ/mol
# Density = 1.897472 g / cm^3
# Si number density = 19.018005 Si / 1000 Ang^3
#
#
#
# Elastic Constant Matrix: (Units=GPa)
#
#
# Indices 1 2 3 4 5 6 
#
# 1 73.6119 64.8847 32.9469 0.0000 0.0000 0.0000
# 2 64.8847 152.0952 60.4318 0.0000 0.0000 0.0000
# 3 32.9469 60.4318 83.0157 0.0000 0.0000 0.0000
# 4 0.0000 0.0000 0.0000 54.5224 0.0000 0.0000
# 5 0.0000 0.0000 0.0000 0.0000 9.1349 0.0000
# 6 0.0000 0.0000 0.0000 0.0000 0.0000 7.3714
#
#
#
# Elastic Compliance Matrix: (Units=1/GPa)
#
#
# Indices 1 2 3 4 5 6 
#
# 1 0.022192 -0.008396 -0.002695 0.000000 0.000000 0.000000
# 2 -0.008396 0.012427 -0.005714 0.000000 0.000000 0.000000
# 3 -0.002695 -0.005714 0.017275 0.000000 0.000000 0.000000
# 4 0.000000 0.000000 0.000000 0.018341 0.000000 0.000000
# 5 0.000000 0.000000 0.000000 0.000000 0.109470 0.000000
# 6 0.000000 0.000000 0.000000 0.000000 0.000000 0.135660
#
#
# Mechanical properties :
#
#
# Convention : Reuss Voigt Hill
#
# Bulk Modulus (GPa) = 54.69596 69.47219 62.08408
# Shear Modulus (GPa) = 14.08168 24.23636 19.15902
#
# Velocity S-wave (km/s) = 2.72405 3.57373 3.17742
# Velocity P-wave (km/s) = 6.22226 7.32378 6.79538
#
# Compressibility (1/GPa) = 0.01828288
#
# Stress axis : x y z
#
# Youngs Moduli (GPa) = 45.06128 80.46911 57.88625
#
# Poissons Ratio (x) = 0.67564 0.15602
# Poissons Ratio (y) = 0.37835 0.33077
# Poissons Ratio (z) = 0.12145 0.45981
#
# Static dielectric constant tensor:
#      x y z
#    x 3.278090 0.000000 0.000000 
#    y 0.000000 3.565120 0.000000 
#    z 0.000000 0.000000 3.757680 
# 
# 
# High freq. dielectric constant tensor:
#      x y z
#    x 1.706120 0.000000 0.000000 
#    y 0.000000 1.739480 0.000000 
#    z 0.000000 0.000000 1.737990 
# 
# From -- ./inp_files/16535.got.cif
#   From: 2010.03.12/outbox.cif.g09.slc.cpg/sg49_9_cif.got.tgz:16535.got - 2010.04.14 03:58:27.
