data_PCOD8204172
_publ_section_title
;
Structure prediction by ZEFSAII (Michael W. Deem and Ramdas Pophale) SiO2 
 PCOD8204172
Probable space group: P C C M
;
_chemical_formula_sum "Si O2"
_cell_formula_units_Z 58
_cell_length_a 16.812590
_cell_length_b 11.974341
_cell_length_c 15.246253
_cell_angle_alpha 90.000000
_cell_angle_beta 90.000000
_cell_angle_gamma 90.000000
_cell_volume 3069.370863
_symmetry_space_group_name_H-M "P C C M"
_symmetry_group_IT_number 49
_symmetry_cell_setting 'orthorhombic'
loop_
_space_group_symop_operation_xyz
x,y,z
-x,-y,z
x,-y,1/2-z
-x,y,1/2-z
-x,-y,-z
x,y,-z
-x,y,1/2+z
x,-y,1/2+z
loop_
_atom_site_type_symbol
_atom_site_label
_atom_site_fract_x
_atom_site_fract_y
_atom_site_fract_z
Si Si1 0.589788 0.506193 0.599951
Si Si2 0.202927 0.140622 0.900803
Si Si3 0.642693 0.751233 0.359350
Si Si4 0.911916 0.868235 0.749334
Si Si5 0.477641 0.851525 0.598245
Si Si6 0.204256 0.885069 0.902527
Si Si7 0.345587 0.290309 0.842287
Si Si8 0.500000 0.000000 0.250000
O O1 0.500000 0.500000 0.640675
O O2 0.586145 0.466419 0.500000
O O3 0.627080 0.628540 0.604363
O O4 0.651934 0.425111 0.651771
O O5 0.132361 0.176775 0.835889
O O6 0.273967 0.229050 0.891551
O O7 0.229667 0.012955 0.878073
O O8 0.170891 0.147647 0.000000
O O9 0.570110 0.830199 0.386103
O O10 0.719985 0.804781 0.402461
O O11 0.654695 0.750760 0.256278
O O12 0.861943 0.834901 0.663008
O O13 0.000000 0.813404 0.750000
O O14 0.920815 0.000000 0.750000
O O15 0.465112 0.902983 0.500000
O O16 0.427401 0.739192 0.606962
O O17 0.446609 0.929535 0.679551
O O18 0.167123 0.883173 0.000000
#
# Coordination Sequence:
#
# PCOD8204172 Si02
#       8
#     8   8   8   8   8   8   8   2
#     4  11  23  39  59  81 108 149 202 251 292 334
#     4  10  21  36  57  86 120 154 189 233 284 341
#     4  12  23  39  58  82 113 153 197 243 291 336
#     4   9  18  35  59  85 117 151 184 228 282 346
#     4  12  25  40  56  79 111 152 200 242 287 335
#     4  10  21  36  57  86 120 154 189 233 284 341
#     4  12  23  39  58  82 113 153 197 243 291 336
#     4  12  26  40  52  76 104 148 192 244 282 342
#
# _framework density 18.896381000000002
#
# number of rings (size 3 to 8) (size 9 to 14) (size 15 to 20)
#    0.000    1.103    4.138    3.103    1.931    1.103 
#    0.000    2.759    0.000    0.000    0.000    1.931 
#    0.000    3.310    0.000    0.000    0.000    0.000 
#
# Total GULP energy -718882.004804 kJ/mol
# GULP energy per Si atom -12394.517324 kJ/mol
# Density = 1.885337 g / cm^3
# Si number density = 18.896381 Si / 1000 Ang^3
#
#
#
# Elastic Constant Matrix: (Units=GPa)
#
#
# Indices 1 2 3 4 5 6 
#
# 1 117.5271 33.9411 35.6945 0.0000 0.0000 0.0000
# 2 33.9411 82.3641 21.5013 0.0000 0.0000 0.0000
# 3 35.6945 21.5013 144.8480 0.0000 0.0000 0.0000
# 4 0.0000 0.0000 0.0000 15.6743 0.0000 0.0000
# 5 0.0000 0.0000 0.0000 0.0000 51.2399 0.0000
# 6 0.0000 0.0000 0.0000 0.0000 0.0000 9.2608
#
#
#
# Elastic Compliance Matrix: (Units=1/GPa)
#
#
# Indices 1 2 3 4 5 6 
#
# 1 0.010166 -0.003678 -0.001959 0.000000 0.000000 0.000000
# 2 -0.003678 0.013961 -0.001166 0.000000 0.000000 0.000000
# 3 -0.001959 -0.001166 0.007560 0.000000 0.000000 0.000000
# 4 0.000000 0.000000 0.000000 0.063799 0.000000 0.000000
# 5 0.000000 0.000000 0.000000 0.000000 0.019516 0.000000
# 6 0.000000 0.000000 0.000000 0.000000 0.000000 0.107982
#
#
# Mechanical properties :
#
#
# Convention : Reuss Voigt Hill
#
# Bulk Modulus (GPa) = 55.30798 58.55699 56.93248
# Shear Modulus (GPa) = 20.60865 32.14181 26.37523
#
# Velocity S-wave (km/s) = 3.30603 4.12873 3.74007
# Velocity P-wave (km/s) = 6.62614 7.33378 6.98892
#
# Compressibility (1/GPa) = 0.01808057
#
# Stress axis : x y z
#
# Youngs Moduli (GPa) = 98.36887 71.62719 132.28054
#
# Poissons Ratio (x) = 0.26343 0.25916
# Poissons Ratio (y) = 0.36177 0.15425
# Poissons Ratio (z) = 0.19272 0.08353
#
# Static dielectric constant tensor:
#      x y z
#    x 3.357120 0.000000 0.000000 
#    y 0.000000 3.377320 0.000000 
#    z 0.000000 0.000000 3.753050 
# 
# 
# High freq. dielectric constant tensor:
#      x y z
#    x 1.698100 0.000000 0.000000 
#    y 0.000000 1.714920 0.000000 
#    z 0.000000 0.000000 1.760710 
# 
# From -- ./inp_files/13055.got.cif
#   From: 2010.03.12/outbox.cif.g09.slc.cpg/sg49_7_cif.got.tgz:13055.got - 2010.04.14 03:58:27.
