data_PCOD8204940
_publ_section_title
;
Structure prediction by ZEFSAII (Michael W. Deem and Ramdas Pophale) SiO2 
 PCOD8204940
Probable space group: P B A N
;
_chemical_formula_sum "Si O2"
_cell_formula_units_Z 64
_cell_length_a 14.961688
_cell_length_b 18.775393
_cell_length_c 12.125835
_cell_angle_alpha 90.000000
_cell_angle_beta 90.000000
_cell_angle_gamma 90.000000
_cell_volume 3406.287373
_symmetry_space_group_name_H-M "P B A N"
_symmetry_group_IT_number 50
_space_group.IT_coordinate_system_code '2'
_symmetry_cell_setting 'orthorhombic'
loop_
_space_group_symop_operation_xyz
x,y,z
1/2-x,1/2-y,z
x,1/2-y,-z
1/2-x,y,-z
-x,-y,-z
1/2+x,1/2+y,-z
-x,1/2+y,z
1/2+x,-y,z
loop_
_atom_site_type_symbol
_atom_site_label
_atom_site_fract_x
_atom_site_fract_y
_atom_site_fract_z
Si Si1 0.668535 0.291331 0.832572
Si Si2 0.105412 0.249850 0.376472
Si Si3 0.446051 0.822739 0.254616
Si Si4 0.741241 0.637012 0.376052
Si Si5 0.113425 0.555786 0.905078
Si Si6 0.944974 0.028999 0.151267
Si Si7 0.266197 0.857013 0.371523
Si Si8 0.239619 0.997694 0.749325
O O1 0.750000 0.250000 0.894181
O O2 0.592014 0.232138 0.834554
O O3 0.630229 0.359718 0.895962
O O4 0.701084 0.310621 0.707304
O O5 0.068455 0.250000 0.500000
O O6 0.187631 0.198091 0.359932
O O7 0.142650 0.329651 0.349910
O O8 0.026526 0.222805 0.301651
O O9 0.479862 0.894152 0.193649
O O10 0.370248 0.842081 0.344689
O O11 0.750000 0.607076 0.500000
O O12 0.766504 0.574622 0.293339
O O13 0.202018 0.517547 0.858476
O O14 0.025732 0.527825 0.839508
O O15 0.098013 0.535372 0.030801
O O16 0.865683 0.001095 0.227363
O O17 0.250000 0.839370 0.500000
O O18 0.241767 0.938976 0.345027
#
# Coordination Sequence:
#
# PCOD8204940 Si02
#       8
#     8   8   8   8   8   8   8   8
#     4   9  20  34  54  80 107 145 180 222 277 323
#     4   9  19  32  51  77 103 144 178 215 266 324
#     4  10  20  33  52  80 108 139 184 223 265 329
#     4   9  18  34  52  76 108 137 179 219 267 319
#     4  10  21  39  57  78 112 142 183 238 278 334
#     4  10  22  37  56  82 106 145 188 224 286 329
#     4   9  19  33  49  78 114 144 176 216 271 321
#     4  10  19  34  57  78 105 146 181 226 272 329
#
# _framework density 18.788782999999999
#
# number of rings (size 3 to 8) (size 9 to 14) (size 15 to 20)
#    0.000    2.500    0.000    3.000    3.500    2.250 
#    0.000    3.125    0.000    7.500    0.000    1.750 
#    0.000    0.000    0.000    0.000    0.000    0.000 
#
# Total GULP energy -793049.880311 kJ/mol
# GULP energy per Si atom -12391.404380 kJ/mol
# Density = 1.874602 g / cm^3
# Si number density = 18.788783 Si / 1000 Ang^3
#
#
#
# Elastic Constant Matrix: (Units=GPa)
#
#
# Indices 1 2 3 4 5 6 
#
# 1 83.9103 30.8181 12.4032 0.0000 0.0000 0.0000
# 2 30.8181 110.9305 25.0248 0.0000 0.0000 0.0000
# 3 12.4032 25.0248 34.0428 0.0000 0.0000 0.0000
# 4 0.0000 0.0000 0.0000 20.2895 0.0000 0.0000
# 5 0.0000 0.0000 0.0000 0.0000 15.0627 0.0000
# 6 0.0000 0.0000 0.0000 0.0000 0.0000 16.3382
#
#
#
# Elastic Compliance Matrix: (Units=1/GPa)
#
#
# Indices 1 2 3 4 5 6 
#
# 1 0.013459 -0.003156 -0.002583 0.000000 0.000000 0.000000
# 2 -0.003156 0.011547 -0.007338 0.000000 0.000000 0.000000
# 3 -0.002583 -0.007338 0.035710 0.000000 0.000000 0.000000
# 4 0.000000 0.000000 0.000000 0.049286 0.000000 0.000000
# 5 0.000000 0.000000 0.000000 0.000000 0.066389 0.000000
# 6 0.000000 0.000000 0.000000 0.000000 0.000000 0.061206
#
#
# Mechanical properties :
#
#
# Convention : Reuss Voigt Hill
#
# Bulk Modulus (GPa) = 28.93500 40.59730 34.76615
# Shear Modulus (GPa) = 18.16379 21.04727 19.60553
#
# Velocity S-wave (km/s) = 3.11261 3.35058 3.23378
# Velocity P-wave (km/s) = 5.32460 6.05166 5.69974
#
# Compressibility (1/GPa) = 0.03456022
#
# Stress axis : x y z
#
# Youngs Moduli (GPa) = 74.30230 86.60327 28.00317
#
# Poissons Ratio (x) = 0.27334 0.07234
# Poissons Ratio (y) = 0.23451 0.20549
# Poissons Ratio (z) = 0.19195 0.63551
#
# Static dielectric constant tensor:
#      x y z
#    x 3.395230 0.000000 0.000000 
#    y 0.000000 3.561480 0.000000 
#    z 0.000000 0.000000 2.454490 
# 
# 
# High freq. dielectric constant tensor:
#      x y z
#    x 1.728480 0.000000 0.000000 
#    y 0.000000 1.742540 0.000000 
#    z 0.000000 0.000000 1.709550 
# 
# From -- ./inp_files/21369.got.cif
#   From: 2010.03.12/outbox.cif.g09.slc.cpg/sg50_11_cif.got.tgz:21369.got - 2010.04.16 13:23:21.
