data_PCOD8204445
_publ_section_title
;
Structure prediction by ZEFSAII (Michael W. Deem and Ramdas Pophale) SiO2 
 PCOD8204445
Probable space group: P C C M
;
_chemical_formula_sum "Si O2"
_cell_formula_units_Z 48
_cell_length_a 8.853472
_cell_length_b 9.669602
_cell_length_c 27.891858
_cell_angle_alpha 90.000000
_cell_angle_beta 90.000000
_cell_angle_gamma 90.000000
_cell_volume 2387.809428
_symmetry_space_group_name_H-M "P C C M"
_symmetry_group_IT_number 49
_symmetry_cell_setting 'orthorhombic'
loop_
_space_group_symop_operation_xyz
x,y,z
-x,-y,z
x,-y,1/2-z
-x,y,1/2-z
-x,-y,-z
x,y,-z
-x,y,1/2+z
x,-y,1/2+z
loop_
_atom_site_type_symbol
_atom_site_label
_atom_site_fract_x
_atom_site_fract_y
_atom_site_fract_z
Si Si1 0.147549 0.283820 0.554488
Si Si2 0.674606 0.514761 0.893340
Si Si3 0.842407 0.436212 0.803239
Si Si4 0.159434 0.216436 0.892084
Si Si5 0.671239 0.986914 0.554605
Si Si6 0.005707 0.843593 0.805626
O O1 0.091930 0.301166 0.500000
O O2 0.220331 0.425044 0.572263
O O3 0.279097 0.171025 0.558847
O O4 0.005645 0.243157 0.586465
O O5 0.500000 0.500000 0.905639
O O6 0.705412 0.480555 0.837530
O O7 0.717290 0.671107 0.906302
O O8 0.812707 0.500000 0.750000
O O9 0.000000 0.500000 0.822347
O O10 0.854454 0.267490 0.808799
O O11 0.137775 0.220867 0.833935
O O12 0.219118 0.071086 0.910846
O O13 0.686652 0.041610 0.500000
O O14 0.500000 0.000000 0.572829
O O15 0.000000 0.863233 0.750000
O O16 0.000000 0.000000 0.828087
#
# Coordination Sequence:
#
# PCOD8204445 Si02
#       6
#     8   8   8   8   8   8
#     4  11  23  40  63  90 120 161 212 261 303 367
#     4  12  25  39  58  88 124 162 204 257 321 376
#     4  11  19  40  64  87 121 161 206 256 304 369
#     4  12  22  39  62  90 119 162 213 258 309 372
#     4  10  22  40  61  90 129 168 204 253 319 379
#     4  11  21  35  62  95 119 151 201 260 306 357
#
# _framework density 20.102108000000001
#
# number of rings (size 3 to 8) (size 9 to 14) (size 15 to 20)
#    0.000    0.833    5.000    3.500    0.000    4.000 
#    0.000    0.000    0.000    0.000    0.000    0.000 
#    0.000    0.000    0.000    0.000    0.000    0.000 
#
# Total GULP energy -594668.385773 kJ/mol
# GULP energy per Si atom -12388.924704 kJ/mol
# Density = 2.005636 g / cm^3
# Si number density = 20.102108 Si / 1000 Ang^3
#
#
#
# Elastic Constant Matrix: (Units=GPa)
#
#
# Indices 1 2 3 4 5 6 
#
# 1 84.3500 4.2954 23.7194 0.0000 0.0000 0.0000
# 2 4.2954 90.3024 24.7544 0.0000 0.0000 0.0000
# 3 23.7194 24.7544 82.6918 0.0000 0.0000 0.0000
# 4 0.0000 0.0000 0.0000 26.9217 0.0000 0.0000
# 5 0.0000 0.0000 0.0000 0.0000 21.5008 0.0000
# 6 0.0000 0.0000 0.0000 0.0000 0.0000 29.7807
#
#
#
# Elastic Compliance Matrix: (Units=1/GPa)
#
#
# Indices 1 2 3 4 5 6 
#
# 1 0.012911 0.000437 -0.003834 0.000000 0.000000 0.000000
# 2 0.000437 0.012079 -0.003741 0.000000 0.000000 0.000000
# 3 -0.003834 -0.003741 0.014313 0.000000 0.000000 0.000000
# 4 0.000000 0.000000 0.000000 0.037145 0.000000 0.000000
# 5 0.000000 0.000000 0.000000 0.000000 0.046510 0.000000
# 6 0.000000 0.000000 0.000000 0.000000 0.000000 0.033579
#
#
# Mechanical properties :
#
#
# Convention : Reuss Voigt Hill
#
# Bulk Modulus (GPa) = 39.95874 40.32029 40.13951
# Shear Modulus (GPa) = 27.90874 29.27897 28.59386
#
# Velocity S-wave (km/s) = 3.73010 3.82057 3.77560
# Velocity P-wave (km/s) = 6.20262 6.28996 6.24645
#
# Compressibility (1/GPa) = 0.02502582
#
# Stress axis : x y z
#
# Youngs Moduli (GPa) = 77.45137 82.79049 69.86715
#
# Poissons Ratio (x) = -0.03617 0.26789
# Poissons Ratio (y) = -0.03384 0.26139
# Poissons Ratio (z) = 0.29697 0.30973
#
# Static dielectric constant tensor:
#      x y z
#    x 3.471850 0.000000 0.000000 
#    y 0.000000 4.811080 0.000000 
#    z 0.000000 0.000000 3.815960 
# 
# 
# High freq. dielectric constant tensor:
#      x y z
#    x 1.751780 0.000000 0.000000 
#    y 0.000000 1.810260 0.000000 
#    z 0.000000 0.000000 1.793950 
# 
# From -- ./inp_files/26284.got.cif
#   From: 2010.03.12/outbox.cif.g09.slc.cpg/sg49_14_cif.got.tgz:26284.got - 2010.04.14 03:58:27.
