data_PCOD8204979
_publ_section_title
;
Structure prediction by ZEFSAII (Michael W. Deem and Ramdas Pophale) SiO2 
 PCOD8204979
Probable space group: P B A N
;
_chemical_formula_sum "Si O2"
_cell_formula_units_Z 56
_cell_length_a 8.954598
_cell_length_b 15.375132
_cell_length_c 19.653712
_cell_angle_alpha 90.000000
_cell_angle_beta 90.000000
_cell_angle_gamma 90.000000
_cell_volume 2705.886242
_symmetry_space_group_name_H-M "P B A N"
_symmetry_group_IT_number 50
_space_group.IT_coordinate_system_code '2'
_symmetry_cell_setting 'orthorhombic'
loop_
_space_group_symop_operation_xyz
x,y,z
1/2-x,1/2-y,z
x,1/2-y,-z
1/2-x,y,-z
-x,-y,-z
1/2+x,1/2+y,-z
-x,1/2+y,z
1/2+x,-y,z
loop_
_atom_site_type_symbol
_atom_site_label
_atom_site_fract_x
_atom_site_fract_y
_atom_site_fract_z
Si Si1 0.821166 0.660700 0.927336
Si Si2 0.076547 0.151042 0.648319
Si Si3 0.178287 0.659134 0.927871
Si Si4 0.573003 0.844501 0.357750
Si Si5 0.779757 0.002448 0.165622
Si Si6 0.970330 0.994963 0.737048
Si Si7 0.925787 0.907580 0.497888
O O1 0.750000 0.750000 0.898329
O O2 0.768397 0.584132 0.878598
O O3 0.999869 0.668625 0.934106
O O4 0.750000 0.639916 0.000000
O O5 0.252551 0.136169 0.650392
O O6 0.032846 0.249003 0.670158
O O7 0.019968 0.138895 0.570978
O O8 0.996429 0.086903 0.700517
O O9 0.250000 0.750000 0.903154
O O10 0.218644 0.585446 0.874128
O O11 0.250000 0.632295 0.000000
O O12 0.523962 0.851297 0.436692
O O13 0.486161 0.916646 0.313715
O O14 0.700730 0.990510 0.239059
O O15 0.949208 0.015884 0.189728
O O16 0.750000 0.920456 0.500000
O O17 0.000000 0.000000 0.500000
#
# Coordination Sequence:
#
# PCOD8204979 Si02
#       7
#     8   8   8   8   8   8   8
#     4  11  25  44  71 100 129 169 214 263 318 376
#     4  10  21  39  63  91 122 164 217 258 320 377
#     4  11  25  44  70 101 132 165 212 269 316 371
#     4  10  21  39  64  89 122 166 213 266 312 382
#     4  12  27  42  66  93 131 171 217 256 318 382
#     4  12  24  41  61  92 126 172 213 261 313 380
#     4  10  19  35  65  91 120 157 208 267 318 372
#
# _framework density 20.695623999999999
#
# number of rings (size 3 to 8) (size 9 to 14) (size 15 to 20)
#    0.000    1.143    4.286    2.571    4.000    5.143 
#    0.000    0.000    0.000    0.857    0.000    0.000 
#    0.000    0.000    0.000    0.000    0.000    0.000 
#
# Total GULP energy -694394.930902 kJ/mol
# GULP energy per Si atom -12399.909480 kJ/mol
# Density = 2.064852 g / cm^3
# Si number density = 20.695624 Si / 1000 Ang^3
#
#
#
# Elastic Constant Matrix: (Units=GPa)
#
#
# Indices 1 2 3 4 5 6 
#
# 1 59.1444 43.7316 35.7503 0.0000 0.0000 0.0000
# 2 43.7316 162.2676 78.2129 0.0000 0.0000 0.0000
# 3 35.7503 78.2129 111.5985 0.0000 0.0000 0.0000
# 4 0.0000 0.0000 0.0000 7.1365 0.0000 0.0000
# 5 0.0000 0.0000 0.0000 0.0000 27.5555 0.0000
# 6 0.0000 0.0000 0.0000 0.0000 0.0000 30.5328
#
#
#
# Elastic Compliance Matrix: (Units=1/GPa)
#
#
# Indices 1 2 3 4 5 6 
#
# 1 0.022499 -0.003911 -0.004467 0.000000 0.000000 0.000000
# 2 -0.003911 0.009986 -0.005746 0.000000 0.000000 0.000000
# 3 -0.004467 -0.005746 0.014419 0.000000 0.000000 0.000000
# 4 0.000000 0.000000 0.000000 0.140125 0.000000 0.000000
# 5 0.000000 0.000000 0.000000 0.000000 0.036290 0.000000
# 6 0.000000 0.000000 0.000000 0.000000 0.000000 0.032752
#
#
# Mechanical properties :
#
#
# Convention : Reuss Voigt Hill
#
# Bulk Modulus (GPa) = 53.59852 72.04446 62.82149
# Shear Modulus (GPa) = 17.20949 24.73266 20.97108
#
# Velocity S-wave (km/s) = 2.88679 3.46072 3.18671
# Velocity P-wave (km/s) = 6.08820 7.13133 6.63031
#
# Compressibility (1/GPa) = 0.01865723
#
# Stress axis : x y z
#
# Youngs Moduli (GPa) = 44.44575 100.13903 69.35460
#
# Poissons Ratio (x) = 0.39160 0.30980
# Poissons Ratio (y) = 0.17381 0.39851
# Poissons Ratio (z) = 0.19853 0.57539
#
# Static dielectric constant tensor:
#      x y z
#    x 3.607400 0.000000 0.000000 
#    y 0.000000 3.775550 0.000000 
#    z 0.000000 0.000000 3.874360 
# 
# 
# High freq. dielectric constant tensor:
#      x y z
#    x 1.801140 0.000000 0.000000 
#    y 0.000000 1.820430 0.000000 
#    z 0.000000 0.000000 1.818620 
# 
# From -- ./inp_files/30657.got.cif
#   From: 2010.03.12/outbox.cif.g09.slc.cpg/sg50_16_cif.got.tgz:30657.got - 2010.04.16 13:23:21.
