data_PCOD8204574
_publ_section_title
;
Structure prediction by ZEFSAII (Michael W. Deem and Ramdas Pophale) SiO2 
 PCOD8204574
Probable space group: P C C M
;
_chemical_formula_sum "Si O2"
_cell_formula_units_Z 56
_cell_length_a 9.799426
_cell_length_b 13.814513
_cell_length_c 22.664850
_cell_angle_alpha 90.000000
_cell_angle_beta 90.000000
_cell_angle_gamma 90.000000
_cell_volume 3068.238155
_symmetry_space_group_name_H-M "P C C M"
_symmetry_group_IT_number 49
_symmetry_cell_setting 'orthorhombic'
loop_
_space_group_symop_operation_xyz
x,y,z
-x,-y,z
x,-y,1/2-z
-x,y,1/2-z
-x,-y,-z
x,y,-z
-x,y,1/2+z
x,-y,1/2+z
loop_
_atom_site_type_symbol
_atom_site_label
_atom_site_fract_x
_atom_site_fract_y
_atom_site_fract_z
Si Si1 0.481208 0.208678 0.430613
Si Si2 0.901227 0.582044 0.930495
Si Si3 0.720336 0.100532 0.620746
Si Si4 0.028050 0.202294 0.931763
Si Si5 0.230710 0.874829 0.871749
Si Si6 0.652466 0.114048 0.251768
Si Si7 0.594654 0.413618 0.429662
O O1 0.495728 0.202801 0.500000
O O2 0.567874 0.122410 0.401442
O O3 0.324862 0.192804 0.412487
O O4 0.532911 0.312372 0.406863
O O5 0.967993 0.684936 0.915487
O O6 0.748112 0.573731 0.904152
O O7 0.000000 0.500000 0.902788
O O8 0.889820 0.567242 0.000000
O O9 0.823553 0.157259 0.578674
O O10 0.732474 0.139780 0.687989
O O11 0.743875 0.986844 0.615099
O O12 0.924324 0.149056 0.888039
O O13 0.987198 0.186158 0.000000
O O14 0.257997 0.848985 0.803294
O O15 0.500000 0.160753 0.250000
O O16 0.634388 0.000000 0.250000
O O17 0.500000 0.500000 0.405043
O O18 0.596586 0.414780 0.500000
#
# Coordination Sequence:
#
# PCOD8204574 Si02
#       7
#     8   8   8   8   8   8   8
#     4  11  21  33  52  82 114 144 181 220 273 337
#     4   9  18  33  52  73 104 144 179 219 271 322
#     4  11  21  37  57  75 110 152 185 225 271 318
#     4  11  23  37  52  81 120 148 178 220 275 341
#     4  11  23  35  54  81 109 149 189 226 266 316
#     4   9  18  36  57  77 101 137 195 246 266 295
#     4   9  18  32  51  76 105 138 181 228 266 314
#
# _framework density 18.251515000000001
#
# number of rings (size 3 to 8) (size 9 to 14) (size 15 to 20)
#    0.000    1.857    2.857    1.714    2.000    4.000 
#    0.000    2.143    0.000    0.000    0.000    6.000 
#    0.000    0.000    0.000    0.000    0.000    0.000 
#
# Total GULP energy -694444.433677 kJ/mol
# GULP energy per Si atom -12400.793459 kJ/mol
# Density = 1.820997 g / cm^3
# Si number density = 18.251515 Si / 1000 Ang^3
#
#
#
# Elastic Constant Matrix: (Units=GPa)
#
#
# Indices 1 2 3 4 5 6 
#
# 1 69.8288 28.9397 21.2244 0.0000 0.0000 0.0000
# 2 28.9397 91.1289 26.3212 0.0000 0.0000 0.0000
# 3 21.2244 26.3212 71.4606 0.0000 0.0000 0.0000
# 4 0.0000 0.0000 0.0000 3.9893 0.0000 0.0000
# 5 0.0000 0.0000 0.0000 0.0000 22.9104 0.0000
# 6 0.0000 0.0000 0.0000 0.0000 0.0000 32.5683
#
#
#
# Elastic Compliance Matrix: (Units=1/GPa)
#
#
# Indices 1 2 3 4 5 6 
#
# 1 0.017228 -0.004468 -0.003471 0.000000 0.000000 0.000000
# 2 -0.004468 0.013439 -0.003623 0.000000 0.000000 0.000000
# 3 -0.003471 -0.003623 0.016359 0.000000 0.000000 0.000000
# 4 0.000000 0.000000 0.000000 0.250673 0.000000 0.000000
# 5 0.000000 0.000000 0.000000 0.000000 0.043648 0.000000
# 6 0.000000 0.000000 0.000000 0.000000 0.000000 0.030705
#
#
# Mechanical properties :
#
#
# Convention : Reuss Voigt Hill
#
# Bulk Modulus (GPa) = 41.83881 42.82100 42.32991
# Shear Modulus (GPa) = 12.40256 22.28912 17.34584
#
# Velocity S-wave (km/s) = 2.60962 3.49839 3.08616
# Velocity P-wave (km/s) = 5.66157 6.31117 5.99517
#
# Compressibility (1/GPa) = 0.02390125
#
# Stress axis : x y z
#
# Youngs Moduli (GPa) = 58.04636 74.41083 61.12843
#
# Poissons Ratio (x) = 0.33250 0.21217
# Poissons Ratio (y) = 0.25938 0.22146
# Poissons Ratio (z) = 0.20147 0.26958
#
# Static dielectric constant tensor:
#      x y z
#    x 3.457020 0.000000 0.000000 
#    y 0.000000 3.301600 0.000000 
#    z 0.000000 0.000000 3.239410 
# 
# 
# High freq. dielectric constant tensor:
#      x y z
#    x 1.717360 0.000000 0.000000 
#    y 0.000000 1.697740 0.000000 
#    z 0.000000 0.000000 1.674850 
# 
# From -- ./inp_files/19861.got.cif
#   From: 2010.03.12/outbox.cif.g09.slc.cpg/sg49_10_cif.got.tgz:19861.got - 2010.04.14 03:58:27.
