data_PCOD8204282
_publ_section_title
;
Structure prediction by ZEFSAII (Michael W. Deem and Ramdas Pophale) SiO2 
 PCOD8204282
Probable space group: P C C M
;
_chemical_formula_sum "Si O2"
_cell_formula_units_Z 30
_cell_length_a 13.396044
_cell_length_b 10.476392
_cell_length_c 9.066681
_cell_angle_alpha 90.000000
_cell_angle_beta 90.000000
_cell_angle_gamma 90.000000
_cell_volume 1272.438033
_symmetry_space_group_name_H-M "P C C M"
_symmetry_group_IT_number 49
_symmetry_cell_setting 'orthorhombic'
loop_
_space_group_symop_operation_xyz
x,y,z
-x,-y,z
x,-y,1/2-z
-x,y,1/2-z
-x,-y,-z
x,y,-z
-x,y,1/2+z
x,-y,1/2+z
loop_
_atom_site_type_symbol
_atom_site_label
_atom_site_fract_x
_atom_site_fract_y
_atom_site_fract_z
Si Si1 0.262437 0.824801 0.500000
Si Si2 0.867203 0.427654 0.500000
Si Si3 0.500000 0.500000 0.750000
Si Si4 0.694455 0.000000 0.750000
Si Si5 0.358429 0.831377 0.000000
Si Si6 0.549376 0.327372 0.500000
Si Si7 0.000000 0.668181 0.750000
Si Si8 0.858887 0.717124 0.500000
O O1 0.211828 0.687065 0.500000
O O2 0.381513 0.797045 0.500000
O O3 0.236728 0.907986 0.645883
O O4 0.821210 0.569221 0.500000
O O5 0.934162 0.420863 0.644917
O O6 0.570183 0.412247 0.645938
O O7 0.622640 0.914878 0.646505
O O8 0.432433 0.711916 0.000000
O O9 0.240993 0.798297 0.000000
O O10 0.926191 0.751546 0.644757
#
# Coordination Sequence:
#
# PCOD8204282 Si02
#       8
#     4   4   2   4   4   4   4   4
#     4  11  24  42  66  93 125 175 211 263 316 361
#     4  11  21  37  64  95 124 162 202 259 325 382
#     4  10  24  38  60  88 148 156 192 258 306 394
#     4  10  24  43  64  89 128 164 232 267 290 367
#     4  11  24  42  66  93 125 175 211 263 316 361
#     4  11  24  43  62  98 132 173 207 252 312 384
#     4  10  21  38  60  93 128 157 208 258 309 386
#     4  11  21  37  64  95 124 162 202 259 325 382
#
# _framework density 23.576785000000001
#
# number of rings (size 3 to 8) (size 9 to 14) (size 15 to 20)
#    0.000    1.333    0.000    6.400    3.733    3.200 
#    0.000    0.000    0.000   56.000    0.000    0.000 
#    0.000    0.000    0.000    0.000    0.000    0.000 
#
# Total GULP energy -371849.541071 kJ/mol
# GULP energy per Si atom -12394.984702 kJ/mol
# Density = 2.352312 g / cm^3
# Si number density = 23.576785 Si / 1000 Ang^3
#
#
#
# Elastic Constant Matrix: (Units=GPa)
#
#
# Indices 1 2 3 4 5 6 
#
# 1 97.7811 43.3522 40.5508 0.0000 0.0000 0.0000
# 2 43.3522 109.3477 54.7277 0.0000 0.0000 0.0000
# 3 40.5508 54.7277 196.9758 0.0000 0.0000 0.0000
# 4 0.0000 0.0000 0.0000 -362.0056 0.0000 0.0000
# 5 0.0000 0.0000 0.0000 0.0000 20.5213 0.0000
# 6 0.0000 0.0000 0.0000 0.0000 0.0000 21.3760
#
#
#
# Elastic Compliance Matrix: (Units=1/GPa)
#
#
# Indices 1 2 3 4 5 6 
#
# 1 0.012739 -0.004342 -0.001416 0.000000 0.000000 0.000000
# 2 -0.004342 0.012102 -0.002469 0.000000 0.000000 0.000000
# 3 -0.001416 -0.002469 0.006054 0.000000 0.000000 0.000000
# 4 0.000000 0.000000 0.000000 -0.002762 0.000000 0.000000
# 5 0.000000 0.000000 0.000000 0.000000 0.048730 0.000000
# 6 0.000000 0.000000 0.000000 0.000000 0.000000 0.046781
#
#
# Mechanical properties :
#
#
# Convention : Reuss Voigt Hill
#
# Bulk Modulus (GPa) = 69.24176 75.70734 72.47455
# Shear Modulus (GPa) = 34.50374 -46.32341 -5.90984
#
# Velocity S-wave (km/s) = 3.82967 -4.43740 -1.58495
# Velocity P-wave (km/s) = 6.99911 2.43446 5.23995
#
# Compressibility (1/GPa) = 0.01444215
#
# Stress axis : x y z
#
# Youngs Moduli (GPa) = 78.49758 82.63088 165.17456
#
# Poissons Ratio (x) = 0.35877 0.23393
# Poissons Ratio (y) = 0.34082 0.40775
# Poissons Ratio (z) = 0.11117 0.20398
#
# Static dielectric constant tensor:
#      x y z
#    x 3.857980 0.000000 0.000000 
#    y 0.000000 4.042260 0.000000 
#    z 0.000000 0.000000 4.806080 
# 
# 
# High freq. dielectric constant tensor:
#      x y z
#    x 1.892650 0.000000 0.000000 
#    y 0.000000 1.928940 0.000000 
#    z 0.000000 0.000000 1.967830 
# 
# From -- ./inp_files/3272.got.cif
#   From: 2010.03.12/outbox.cif.g09.slc.cpg/sg49_2_cif.got.tgz:3272.got - 2010.04.14 03:58:27.
