data_PCOD8204084
_publ_section_title
;
Structure prediction by ZEFSAII (Michael W. Deem and Ramdas Pophale) SiO2 
 PCOD8204084
Probable space group: P C C M
;
_chemical_formula_sum "Si O2"
_cell_formula_units_Z 56
_cell_length_a 31.375071
_cell_length_b 5.070196
_cell_length_c 16.534356
_cell_angle_alpha 90.000000
_cell_angle_beta 90.000000
_cell_angle_gamma 90.000000
_cell_volume 2630.248307
_symmetry_space_group_name_H-M "P C C M"
_symmetry_group_IT_number 49
_symmetry_cell_setting 'orthorhombic'
loop_
_space_group_symop_operation_xyz
x,y,z
-x,-y,z
x,-y,1/2-z
-x,y,1/2-z
-x,-y,-z
x,y,-z
-x,y,1/2+z
x,-y,1/2+z
loop_
_atom_site_type_symbol
_atom_site_label
_atom_site_fract_x
_atom_site_fract_y
_atom_site_fract_z
Si Si1 0.616155 0.396211 0.160164
Si Si2 0.111345 0.750112 0.804899
Si Si3 0.027845 0.741113 0.091705
Si Si4 0.340959 0.111037 0.906287
Si Si5 0.752736 0.239963 0.595818
Si Si6 0.804243 0.260431 0.096085
Si Si7 0.471995 0.242155 0.408640
O O1 0.622790 0.500000 0.250000
O O2 0.626086 0.645336 0.102282
O O3 0.568484 0.289707 0.147741
O O4 0.646781 0.148479 0.144029
O O5 0.103335 0.500000 0.750000
O O6 0.069392 0.799424 0.856673
O O7 0.150014 0.694990 0.865203
O O8 0.121696 0.000000 0.750000
O O9 0.000000 0.500000 0.127611
O O10 0.041731 0.673126 0.000000
O O11 0.000000 0.000000 0.095367
O O12 0.295217 0.203929 0.871634
O O13 0.339063 0.028001 0.000000
O O14 0.750893 0.234021 0.500000
O O15 0.771972 0.513992 0.626952
O O16 0.783855 0.010831 0.627260
O O17 0.810104 0.268890 0.000000
O O18 0.500000 0.500000 0.407776
O O19 0.456543 0.174827 0.500000
O O20 0.500000 0.000000 0.373891
#
# Coordination Sequence:
#
# PCOD8204084 Si02
#       7
#     8   8   8   8   8   8   8
#     4  12  25  41  61  94 134 165 202 254 317 377
#     4  12  25  39  58  88 124 158 195 240 300 363
#     4  10  22  41  64  88 115 153 201 247 294 351
#     4  11  22  41  67  92 122 165 214 258 306 368
#     4   9  19  36  63  91 113 151 208 257 294 346
#     4  10  20  39  62  85 116 155 202 251 297 350
#     4  10  21  39  64  90 116 154 204 250 295 354
#
# _framework density 21.290765
#
# number of rings (size 3 to 8) (size 9 to 14) (size 15 to 20)
#    0.000    1.429    0.000    5.571    0.000    5.429 
#    0.000   13.571    0.000    0.000    0.000    0.000 
#    0.000    0.000    0.000    0.000    0.000    0.000 
#
# Total GULP energy -694641.914630 kJ/mol
# GULP energy per Si atom -12404.319904 kJ/mol
# Density = 2.124231 g / cm^3
# Si number density = 21.290765 Si / 1000 Ang^3
#
#
#
# Elastic Constant Matrix: (Units=GPa)
#
#
# Indices 1 2 3 4 5 6 
#
# 1 121.8753 30.8727 51.2879 0.0000 0.0000 0.0000
# 2 30.8727 129.6628 35.6146 0.0000 0.0000 0.0000
# 3 51.2879 35.6146 67.2288 0.0000 0.0000 0.0000
# 4 0.0000 0.0000 0.0000 38.7354 0.0000 0.0000
# 5 0.0000 0.0000 0.0000 0.0000 7.6653 0.0000
# 6 0.0000 0.0000 0.0000 0.0000 0.0000 40.9311
#
#
#
# Elastic Compliance Matrix: (Units=1/GPa)
#
#
# Indices 1 2 3 4 5 6 
#
# 1 0.012103 -0.000404 -0.009019 0.000000 0.000000 0.000000
# 2 -0.000404 0.009039 -0.004480 0.000000 0.000000 0.000000
# 3 -0.009019 -0.004480 0.024128 0.000000 0.000000 0.000000
# 4 0.000000 0.000000 0.000000 0.025816 0.000000 0.000000
# 5 0.000000 0.000000 0.000000 0.000000 0.130458 0.000000
# 6 0.000000 0.000000 0.000000 0.000000 0.000000 0.024431
#
#
# Mechanical properties :
#
#
# Convention : Reuss Voigt Hill
#
# Bulk Modulus (GPa) = 57.26165 61.59079 59.42622
# Shear Modulus (GPa) = 19.26013 30.86581 25.06297
#
# Velocity S-wave (km/s) = 3.01096 3.81166 3.43472
# Velocity P-wave (km/s) = 6.24830 6.95434 6.61075
#
# Compressibility (1/GPa) = 0.01746370
#
# Stress axis : x y z
#
# Youngs Moduli (GPa) = 82.62483 110.63016 41.44532
#
# Poissons Ratio (x) = 0.04475 0.37379
# Poissons Ratio (y) = 0.03342 0.18567
# Poissons Ratio (z) = 0.74518 0.49561
#
# Static dielectric constant tensor:
#      x y z
#    x 3.866270 0.000000 0.000000 
#    y 0.000000 4.079060 0.000000 
#    z 0.000000 0.000000 3.694710 
# 
# 
# High freq. dielectric constant tensor:
#      x y z
#    x 1.845330 0.000000 0.000000 
#    y 0.000000 1.855890 0.000000 
#    z 0.000000 0.000000 1.817220 
# 
# From -- ./inp_files/14618.got.cif
#   From: 2010.03.12/outbox.cif.g09.slc.cpg/sg49_8_cif.got.tgz:14618.got - 2010.04.14 03:58:27.
