data_PCOD8204277
_publ_section_title
;
Structure prediction by ZEFSAII (Michael W. Deem and Ramdas Pophale) SiO2 
 PCOD8204277
Probable space group: P C C M
;
_chemical_formula_sum "Si O2"
_cell_formula_units_Z 40
_cell_length_a 14.954069
_cell_length_b 14.981241
_cell_length_c 8.891232
_cell_angle_alpha 90.000000
_cell_angle_beta 90.000000
_cell_angle_gamma 90.000000
_cell_volume 1991.907254
_symmetry_space_group_name_H-M "P C C M"
_symmetry_group_IT_number 49
_symmetry_cell_setting 'orthorhombic'
loop_
_space_group_symop_operation_xyz
x,y,z
-x,-y,z
x,-y,1/2-z
-x,y,1/2-z
-x,-y,-z
x,y,-z
-x,y,1/2+z
x,-y,1/2+z
loop_
_atom_site_type_symbol
_atom_site_label
_atom_site_fract_x
_atom_site_fract_y
_atom_site_fract_z
Si Si1 0.583912 0.096278 0.824626
Si Si2 0.219253 0.095055 0.675254
Si Si3 0.781634 0.403212 0.676505
Si Si4 0.096856 0.255905 0.679114
Si Si5 0.416022 0.595964 0.674244
O O1 0.500000 0.150748 0.750000
O O2 0.681970 0.136864 0.790148
O O3 0.585351 0.000000 0.750000
O O4 0.565254 0.088746 0.000000
O O5 0.208896 0.077679 0.500000
O O6 0.147860 0.166765 0.733432
O O7 0.200950 0.000000 0.750000
O O8 0.788953 0.500000 0.750000
O O9 0.803716 0.410618 0.500000
O O10 0.852938 0.341806 0.758343
O O11 0.681932 0.360751 0.700868
O O12 0.091664 0.262448 0.500000
O O13 0.000000 0.251981 0.750000
O O14 0.412508 0.500000 0.750000
O O15 0.500000 0.650007 0.750000
O O16 0.437145 0.585876 0.500000
#
# Coordination Sequence:
#
# PCOD8204277 Si02
#       5
#     8   8   8   8   8
#     4   9  15  26  46  75 108 143 180 218 263 317
#     4   9  20  37  58  83 113 148 185 226 276 330
#     4  10  21  38  60  87 116 150 189 231 279 333
#     4  11  24  42  61  83 111 144 185 237 289 340
#     4   9  16  27  48  78 112 147 184 222 266 320
#
# _framework density 20.081257000000001
#
# number of rings (size 3 to 8) (size 9 to 14) (size 15 to 20)
#    0.000    2.400    0.000    3.600    0.000    5.600 
#    0.000    5.000    0.000    4.800    0.000    0.000 
#    0.000    0.000    0.000    0.000    0.000    0.000 
#
# Total GULP energy -495602.318927 kJ/mol
# GULP energy per Si atom -12390.057973 kJ/mol
# Density = 2.003555 g / cm^3
# Si number density = 20.081257 Si / 1000 Ang^3
#
#
#
# Elastic Constant Matrix: (Units=GPa)
#
#
# Indices 1 2 3 4 5 6 
#
# 1 203.0534 70.4762 80.9942 0.0000 0.0000 0.0000
# 2 70.4762 83.2215 42.8407 0.0000 0.0000 0.0000
# 3 80.9942 42.8407 118.5734 0.0000 0.0000 0.0000
# 4 0.0000 0.0000 0.0000 16.7342 0.0000 0.0000
# 5 0.0000 0.0000 0.0000 0.0000 43.5385 0.0000
# 6 0.0000 0.0000 0.0000 0.0000 0.0000 -143.7375
#
#
#
# Elastic Compliance Matrix: (Units=1/GPa)
#
#
# Indices 1 2 3 4 5 6 
#
# 1 0.008153 -0.004960 -0.003777 0.000000 0.000000 0.000000
# 2 -0.004960 0.017779 -0.003036 0.000000 0.000000 0.000000
# 3 -0.003777 -0.003036 0.012110 0.000000 0.000000 0.000000
# 4 0.000000 0.000000 0.000000 0.059758 0.000000 0.000000
# 5 0.000000 0.000000 0.000000 0.000000 0.022968 0.000000
# 6 0.000000 0.000000 0.000000 0.000000 0.000000 -0.006957
#
#
# Mechanical properties :
#
#
# Convention : Reuss Voigt Hill
#
# Bulk Modulus (GPa) = 68.97860 88.16338 78.57099
# Shear Modulus (GPa) = 35.16454 -2.65712 16.25371
#
# Velocity S-wave (km/s) = 4.18917 -1.15155 2.84808
# Velocity P-wave (km/s) = 7.60415 6.49850 7.07297
#
# Compressibility (1/GPa) = 0.01449725
#
# Stress axis : x y z
#
# Youngs Moduli (GPa) = 122.65579 56.24567 82.57438
#
# Poissons Ratio (x) = 0.27898 0.31188
# Poissons Ratio (y) = 0.60837 0.25066
# Poissons Ratio (z) = 0.46327 0.17074
#
# Static dielectric constant tensor:
#      x y z
#    x 5.028670 0.000000 0.000000 
#    y 0.000000 3.278510 0.000000 
#    z 0.000000 0.000000 4.146500 
# 
# 
# High freq. dielectric constant tensor:
#      x y z
#    x 1.805810 0.000000 0.000000 
#    y 0.000000 1.746780 0.000000 
#    z 0.000000 0.000000 1.795460 
# 
# From -- ./inp_files/3439.got.cif
#   From: 2010.03.12/outbox.cif.g09.slc.cpg/sg49_2_cif.got.tgz:3439.got - 2010.04.14 03:58:27.
