data_PCOD8204015
_publ_section_title
;
Structure prediction by ZEFSAII (Michael W. Deem and Ramdas Pophale) SiO2 
 PCOD8204015
Probable space group: P C C M
;
_chemical_formula_sum "Si O2"
_cell_formula_units_Z 48
_cell_length_a 8.999878
_cell_length_b 29.383688
_cell_length_c 9.411201
_cell_angle_alpha 90.000000
_cell_angle_beta 90.000000
_cell_angle_gamma 90.000000
_cell_volume 2488.788408
_symmetry_space_group_name_H-M "P C C M"
_symmetry_group_IT_number 49
_symmetry_cell_setting 'orthorhombic'
loop_
_space_group_symop_operation_xyz
x,y,z
-x,-y,z
x,-y,1/2-z
-x,y,1/2-z
-x,-y,-z
x,y,-z
-x,y,1/2+z
x,-y,1/2+z
loop_
_atom_site_type_symbol
_atom_site_label
_atom_site_fract_x
_atom_site_fract_y
_atom_site_fract_z
Si Si1 0.649539 0.543346 0.666037
Si Si2 0.813349 0.953956 0.000000
Si Si3 0.655598 0.297545 0.667161
Si Si4 0.355201 0.802468 0.659259
Si Si5 0.850565 0.631117 0.665905
Si Si6 0.843852 0.060971 0.000000
Si Si7 0.321746 0.101860 0.240283
O O1 0.719126 0.500000 0.750000
O O2 0.500000 0.556885 0.750000
O O3 0.617499 0.531648 0.500000
O O4 0.759604 0.585014 0.677040
O O5 0.721150 0.936988 0.868050
O O6 0.978935 0.933340 0.000000
O O7 0.807719 0.007994 0.000000
O O8 0.500000 0.301001 0.750000
O O9 0.635377 0.311600 0.500000
O O10 0.726421 0.246361 0.675970
O O11 0.769605 0.328904 0.749963
O O12 0.500000 0.799533 0.750000
O O13 0.410380 0.809673 0.500000
O O14 0.260836 0.847284 0.702145
O O15 0.876608 0.644486 0.500000
O O16 0.000000 0.621536 0.750000
O O17 0.768407 0.087637 0.875093
O O18 0.500000 0.102645 0.250000
#
# Coordination Sequence:
#
# PCOD8204015 Si02
#       7
#     8   4   8   8   8   4   8
#     4  10  21  37  60  88 118 153 200 249 300 356
#     4  11  23  43  59  79 121 157 193 239 290 367
#     4  10  20  37  62  89 116 153 198 242 293 358
#     4   9  19  35  59  88 118 148 186 239 293 342
#     4  11  24  40  58  85 121 162 202 249 303 356
#     4  11  25  39  59  85 115 161 195 231 300 355
#     4  11  22  38  62  90 116 147 195 249 294 348
#
# _framework density 19.286491999999999
#
# number of rings (size 3 to 8) (size 9 to 14) (size 15 to 20)
#    0.000    1.667    0.833    4.000    3.500    8.333 
#    0.000    3.333    0.000    0.000    0.000    0.000 
#    0.000    0.000    0.000    0.000    0.000    0.000 
#
# Total GULP energy -594689.766687 kJ/mol
# GULP energy per Si atom -12389.370139 kJ/mol
# Density = 1.924260 g / cm^3
# Si number density = 19.286492 Si / 1000 Ang^3
#
#
#
# Elastic Constant Matrix: (Units=GPa)
#
#
# Indices 1 2 3 4 5 6 
#
# 1 66.2513 58.4708 50.5683 0.0000 0.0000 0.0000
# 2 58.4708 130.7179 74.7169 0.0000 0.0000 0.0000
# 3 50.5683 74.7169 184.5642 0.0000 0.0000 0.0000
# 4 0.0000 0.0000 0.0000 36.7162 0.0000 0.0000
# 5 0.0000 0.0000 0.0000 0.0000 15.9405 0.0000
# 6 0.0000 0.0000 0.0000 0.0000 0.0000 -49.2572
#
#
#
# Elastic Compliance Matrix: (Units=1/GPa)
#
#
# Indices 1 2 3 4 5 6 
#
# 1 0.026299 -0.009947 -0.003179 0.000000 0.000000 0.000000
# 2 -0.009947 0.013715 -0.002827 0.000000 0.000000 0.000000
# 3 -0.003179 -0.002827 0.007434 0.000000 0.000000 0.000000
# 4 0.000000 0.000000 0.000000 0.027236 0.000000 0.000000
# 5 0.000000 0.000000 0.000000 0.000000 0.062733 0.000000
# 6 0.000000 0.000000 0.000000 0.000000 0.000000 -0.020302
#
#
# Mechanical properties :
#
#
# Convention : Reuss Voigt Hill
#
# Bulk Modulus (GPa) = 64.33940 83.22729 73.78334
# Shear Modulus (GPa) = 32.42513 13.86505 23.14509
#
# Velocity S-wave (km/s) = 4.10473 2.68414 3.46796
# Velocity P-wave (km/s) = 7.47645 7.27000 7.37395
#
# Compressibility (1/GPa) = 0.01554257
#
# Stress axis : x y z
#
# Youngs Moduli (GPa) = 38.02429 72.91207 134.52406
#
# Poissons Ratio (x) = 0.72523 0.42764
# Poissons Ratio (y) = 0.37821 0.38030
# Poissons Ratio (z) = 0.12088 0.20612
#
# Static dielectric constant tensor:
#      x y z
#    x 3.421520 0.000000 0.000000 
#    y 0.000000 4.151080 0.000000 
#    z 0.000000 0.000000 3.786040 
# 
# 
# High freq. dielectric constant tensor:
#      x y z
#    x 1.724240 0.000000 0.000000 
#    y 0.000000 1.773460 0.000000 
#    z 0.000000 0.000000 1.776990 
# 
# From -- ./inp_files/2173.got.cif
#   From: 2010.03.12/outbox.cif.g09.slc.cpg/sg49_2_cif.got.tgz:2173.got - 2010.04.14 03:58:27.
