data_PCOD8204472
_publ_section_title
;
Structure prediction by ZEFSAII (Michael W. Deem and Ramdas Pophale) SiO2 
 PCOD8204472
Probable space group: P C C M
;
_chemical_formula_sum "Si O2"
_cell_formula_units_Z 38
_cell_length_a 21.546695
_cell_length_b 5.791905
_cell_length_c 14.694349
_cell_angle_alpha 90.000000
_cell_angle_beta 90.000000
_cell_angle_gamma 90.000000
_cell_volume 1833.802010
_symmetry_space_group_name_H-M "P C C M"
_symmetry_group_IT_number 49
_symmetry_cell_setting 'orthorhombic'
loop_
_space_group_symop_operation_xyz
x,y,z
-x,-y,z
x,-y,1/2-z
-x,y,1/2-z
-x,-y,-z
x,y,-z
-x,y,1/2+z
x,-y,1/2+z
loop_
_atom_site_type_symbol
_atom_site_label
_atom_site_fract_x
_atom_site_fract_y
_atom_site_fract_z
Si Si1 0.338648 0.125361 0.500000
Si Si2 0.500000 0.500000 0.750000
Si Si3 0.268075 0.369443 0.000000
Si Si4 0.944226 0.327136 0.101693
Si Si5 0.095328 0.000000 0.250000
Si Si6 0.828579 0.614076 0.157942
Si Si7 0.437059 0.884546 0.843812
O O1 0.301681 0.374414 0.500000
O O2 0.380475 0.118681 0.588587
O O3 0.304773 0.875260 0.500000
O O4 0.454501 0.626654 0.818972
O O5 0.228203 0.349873 0.908971
O O6 0.949189 0.139628 0.181510
O O7 0.878425 0.452488 0.108548
O O8 0.000000 0.500000 0.120877
O O9 0.949960 0.218791 0.000000
O O10 0.139165 0.853747 0.316523
O O11 0.802536 0.500000 0.250000
O O12 0.500000 0.000000 0.884119
O O13 0.415183 0.000000 0.750000
#
# Coordination Sequence:
#
# PCOD8204472 Si02
#       7
#     4   2   4   8   4   8   8
#     4  12  29  43  70 104 138 185 234 290 333 413
#     4   8  18  38  72  94 144 178 218 278 348 416
#     4  12  30  46  67  99 143 184 244 288 337 409
#     4  10  22  41  70 104 133 168 225 292 362 432
#     4  10  24  41  72  92 134 176 229 284 366 428
#     4  10  24  44  68  95 131 182 226 287 348 419
#     4   9  21  42  70 104 140 180 223 281 351 412
#
# _framework density 20.721976000000002
#
# number of rings (size 3 to 8) (size 9 to 14) (size 15 to 20)
#    0.000    2.105    1.053    0.316   13.263    7.579 
#    0.000    2.105    0.000    0.632    0.000    0.000 
#    0.000    0.000    0.000    0.000    0.000    0.000 
#
# Total GULP energy -470775.986283 kJ/mol
# GULP energy per Si atom -12388.841744 kJ/mol
# Density = 2.067481 g / cm^3
# Si number density = 20.721976 Si / 1000 Ang^3
#
#
#
# Elastic Constant Matrix: (Units=GPa)
#
#
# Indices 1 2 3 4 5 6 
#
# 1 112.2271 60.2737 91.9177 0.0000 0.0000 0.0000
# 2 60.2737 147.6766 78.4463 0.0000 0.0000 0.0000
# 3 91.9177 78.4463 180.4780 0.0000 0.0000 0.0000
# 4 0.0000 0.0000 0.0000 -8.4053 0.0000 0.0000
# 5 0.0000 0.0000 0.0000 0.0000 48.5661 0.0000
# 6 0.0000 0.0000 0.0000 0.0000 0.0000 1456.3377
#
#
#
# Elastic Compliance Matrix: (Units=1/GPa)
#
#
# Indices 1 2 3 4 5 6 
#
# 1 0.016187 -0.002896 -0.006985 0.000000 0.000000 0.000000
# 2 -0.002896 0.009323 -0.002577 0.000000 0.000000 0.000000
# 3 -0.006985 -0.002577 0.010219 0.000000 0.000000 0.000000
# 4 0.000000 0.000000 0.000000 -0.118973 0.000000 0.000000
# 5 0.000000 0.000000 0.000000 0.000000 0.020591 0.000000
# 6 0.000000 0.000000 0.000000 0.000000 0.000000 0.000687
#
#
# Mechanical properties :
#
#
# Convention : Reuss Voigt Hill
#
# Bulk Modulus (GPa) = 92.49643 100.18411 96.34027
# Shear Modulus (GPa) = -149.49189 313.28263 81.89537
#
# Velocity S-wave (km/s) = -8.50284 12.30902 6.29339
# Velocity P-wave (km/s) = 7.18777 15.82617 9.97005
#
# Compressibility (1/GPa) = 0.01081123
#
# Stress axis : x y z
#
# Youngs Moduli (GPa) = 61.77768 107.26651 97.86036
#
# Poissons Ratio (x) = 0.31065 0.68358
# Poissons Ratio (y) = 0.17891 0.25220
# Poissons Ratio (z) = 0.43153 0.27644
#
# Static dielectric constant tensor:
#      x y z
#    x 3.663170 0.000000 0.000000 
#    y 0.000000 4.109070 0.000000 
#    z 0.000000 0.000000 3.919410 
# 
# 
# High freq. dielectric constant tensor:
#      x y z
#    x 1.802330 0.000000 0.000000 
#    y 0.000000 1.823520 0.000000 
#    z 0.000000 0.000000 1.829400 
# 
# From -- ./inp_files/14465.got.cif
#   From: 2010.03.12/outbox.cif.g09.slc.cpg/sg49_8_cif.got.tgz:14465.got - 2010.04.14 03:58:27.
