data_PCOD8204580
_publ_section_title
;
Structure prediction by ZEFSAII (Michael W. Deem and Ramdas Pophale) SiO2 
 PCOD8204580
Probable space group: P C C M
;
_chemical_formula_sum "Si O2"
_cell_formula_units_Z 48
_cell_length_a 18.591408
_cell_length_b 14.712981
_cell_length_c 8.585009
_cell_angle_alpha 90.000000
_cell_angle_beta 90.000000
_cell_angle_gamma 90.000000
_cell_volume 2348.300717
_symmetry_space_group_name_H-M "P C C M"
_symmetry_group_IT_number 49
_symmetry_cell_setting 'orthorhombic'
loop_
_space_group_symop_operation_xyz
x,y,z
-x,-y,z
x,-y,1/2-z
-x,y,1/2-z
-x,-y,-z
x,y,-z
-x,y,1/2+z
x,-y,1/2+z
loop_
_atom_site_type_symbol
_atom_site_label
_atom_site_fract_x
_atom_site_fract_y
_atom_site_fract_z
Si Si1 0.430134 0.153450 0.680452
Si Si2 0.271549 0.595176 0.184516
Si Si3 0.813469 0.760768 0.175649
Si Si4 0.296644 0.082910 0.827271
Si Si5 0.575757 0.650223 0.817151
Si Si6 0.921053 0.096315 0.815566
O O1 0.500000 0.102764 0.750000
O O2 0.438420 0.179292 0.500000
O O3 0.363181 0.088679 0.708617
O O4 0.420151 0.243406 0.783427
O O5 0.242107 0.500000 0.250000
O O6 0.213280 0.669503 0.241183
O O7 0.353628 0.605994 0.241409
O O8 0.271679 0.596541 0.000000
O O9 0.744235 0.823528 0.170518
O O10 0.874919 0.815484 0.267340
O O11 0.840148 0.739151 0.000000
O O12 0.250370 0.000000 0.750000
O O13 0.322035 0.057452 0.000000
O O14 0.500000 0.609941 0.750000
O O15 0.578377 0.631183 0.000000
O O16 0.000000 0.113586 0.750000
O O17 0.890603 0.000000 0.750000
O O18 0.922843 0.088780 0.000000
#
# Coordination Sequence:
#
# PCOD8204580 Si02
#       6
#     8   8   8   8   8   8
#     4  11  21  35  55  77 107 147 195 245 302 361
#     4  12  25  42  64  91 122 160 207 258 314 373
#     4  11  23  41  64  91 126 163 202 250 305 363
#     4  11  23  37  56  82 115 152 198 245 297 358
#     4  11  21  37  59  85 115 152 200 256 318 377
#     4  11  22  39  65  99 137 174 213 253 299 356
#
# _framework density 20.440313
#
# number of rings (size 3 to 8) (size 9 to 14) (size 15 to 20)
#    0.000    0.833    1.667    9.000    0.000    4.000 
#    0.000    3.333    0.000    0.500    0.000    3.500 
#    0.000    0.000    0.000    0.000    0.000    0.000 
#
# Total GULP energy -595010.457207 kJ/mol
# GULP energy per Si atom -12396.051192 kJ/mol
# Density = 2.039379 g / cm^3
# Si number density = 20.440313 Si / 1000 Ang^3
#
#
#
# Elastic Constant Matrix: (Units=GPa)
#
#
# Indices 1 2 3 4 5 6 
#
# 1 99.5654 48.6068 55.6285 0.0000 0.0000 0.0000
# 2 48.6068 122.2913 60.8654 0.0000 0.0000 0.0000
# 3 55.6285 60.8654 199.0335 0.0000 0.0000 0.0000
# 4 0.0000 0.0000 0.0000 33.8132 0.0000 0.0000
# 5 0.0000 0.0000 0.0000 0.0000 30.1378 0.0000
# 6 0.0000 0.0000 0.0000 0.0000 0.0000 58.8999
#
#
#
# Elastic Compliance Matrix: (Units=1/GPa)
#
#
# Indices 1 2 3 4 5 6 
#
# 1 0.013443 -0.004097 -0.002504 0.000000 0.000000 0.000000
# 2 -0.004097 0.010894 -0.002186 0.000000 0.000000 0.000000
# 3 -0.002504 -0.002186 0.006393 0.000000 0.000000 0.000000
# 4 0.000000 0.000000 0.000000 0.029574 0.000000 0.000000
# 5 0.000000 0.000000 0.000000 0.000000 0.033181 0.000000
# 6 0.000000 0.000000 0.000000 0.000000 0.000000 0.016978
#
#
# Mechanical properties :
#
#
# Convention : Reuss Voigt Hill
#
# Bulk Modulus (GPa) = 76.01935 83.45462 79.73698
# Shear Modulus (GPa) = 37.75809 41.62282 39.69046
#
# Velocity S-wave (km/s) = 4.30261 4.51745 4.41134
# Velocity P-wave (km/s) = 7.87114 8.25390 8.06479
#
# Compressibility (1/GPa) = 0.01315455
#
# Stress axis : x y z
#
# Youngs Moduli (GPa) = 74.38913 91.79680 156.42496
#
# Poissons Ratio (x) = 0.37606 0.39175
# Poissons Ratio (y) = 0.30474 0.34200
# Poissons Ratio (z) = 0.18630 0.20070
#
# Static dielectric constant tensor:
#      x y z
#    x 3.763360 0.000000 0.000000 
#    y 0.000000 3.719160 0.000000 
#    z 0.000000 0.000000 3.876840 
# 
# 
# High freq. dielectric constant tensor:
#      x y z
#    x 1.783780 0.000000 0.000000 
#    y 0.000000 1.794780 0.000000 
#    z 0.000000 0.000000 1.821470 
# 
# From -- ./inp_files/4880.got.cif
#   From: 2010.03.12/outbox.cif.g09.slc.cpg/sg49_3_cif.got.tgz:4880.got - 2010.04.14 03:58:27.
