data_PCOD8204898
_publ_section_title
;
Structure prediction by ZEFSAII (Michael W. Deem and Ramdas Pophale) SiO2 
 PCOD8204898
Probable space group: P B A N
;
_chemical_formula_sum "Si O2"
_cell_formula_units_Z 64
_cell_length_a 8.736195
_cell_length_b 17.978165
_cell_length_c 19.402919
_cell_angle_alpha 90.000000
_cell_angle_beta 90.000000
_cell_angle_gamma 90.000000
_cell_volume 3047.437111
_symmetry_space_group_name_H-M "P B A N"
_symmetry_group_IT_number 50
_space_group.IT_coordinate_system_code '2'
_symmetry_cell_setting 'orthorhombic'
loop_
_space_group_symop_operation_xyz
x,y,z
1/2-x,1/2-y,z
x,1/2-y,-z
1/2-x,y,-z
-x,-y,-z
1/2+x,1/2+y,-z
-x,1/2+y,z
1/2+x,-y,z
loop_
_atom_site_type_symbol
_atom_site_label
_atom_site_fract_x
_atom_site_fract_y
_atom_site_fract_z
Si Si1 0.907722 0.154518 0.210688
Si Si2 0.907843 0.714969 0.841856
Si Si3 0.169533 0.415265 0.073263
Si Si4 0.574900 0.670650 0.647638
Si Si5 0.083863 0.154016 0.624727
Si Si6 0.081917 0.837803 0.510211
Si Si7 0.418399 0.889782 0.751563
Si Si8 0.950871 0.981585 0.852007
O O1 0.732082 0.160748 0.234805
O O2 0.957920 0.222762 0.160023
O O3 0.013024 0.148621 0.277843
O O4 0.921547 0.079121 0.167017
O O5 0.750000 0.750000 0.817450
O O6 0.885367 0.670959 0.914958
O O7 0.939152 0.651336 0.786604
O O8 0.297933 0.438085 0.127985
O O9 0.021214 0.468459 0.085314
O O10 0.250000 0.423990 0.000000
O O11 0.740617 0.632780 0.638353
O O12 0.569137 0.759116 0.641436
O O13 0.471066 0.637780 0.586249
O O14 0.039116 0.132990 0.546578
O O15 0.963427 0.107084 0.671331
O O16 0.090353 0.750000 0.500000
O O17 0.250000 0.872972 0.500000
O O18 0.405364 0.971109 0.784485
#
# Coordination Sequence:
#
# PCOD8204898 Si02
#       8
#     8   8   8   8   8   8   8   8
#     4  12  22  38  60  92 131 157 211 266 320 367
#     4  11  22  38  63  92 124 158 201 259 318 370
#     4  11  24  45  69  92 124 166 209 249 314 386
#     4  10  20  30  54  83 119 165 206 263 322 373
#     4  10  19  32  52  81 121 162 214 261 316 378
#     4   9  17  30  47  76 119 164 211 259 315 378
#     4  11  23  37  61  90 123 167 207 261 316 371
#     4  11  24  42  66  92 123 165 210 255 309 384
#
# _framework density 21.001252999999998
#
# number of rings (size 3 to 8) (size 9 to 14) (size 15 to 20)
#    0.000    1.375    3.750    2.625    1.750    2.750 
#    0.000    0.000    0.000    0.750    3.250    0.000 
#    0.000    0.000    0.000    0.000    0.000    0.000 
#
# Total GULP energy -793342.888246 kJ/mol
# GULP energy per Si atom -12395.982629 kJ/mol
# Density = 2.095345 g / cm^3
# Si number density = 21.001253 Si / 1000 Ang^3
#
#
#
# Elastic Constant Matrix: (Units=GPa)
#
#
# Indices 1 2 3 4 5 6 
#
# 1 115.0071 28.2876 28.9282 0.0000 0.0000 0.0000
# 2 28.2876 74.0045 40.1076 0.0000 0.0000 0.0000
# 3 28.9282 40.1076 91.9287 0.0000 0.0000 0.0000
# 4 0.0000 0.0000 0.0000 17.4645 0.0000 0.0000
# 5 0.0000 0.0000 0.0000 0.0000 34.6231 0.0000
# 6 0.0000 0.0000 0.0000 0.0000 0.0000 19.6652
#
#
#
# Elastic Compliance Matrix: (Units=1/GPa)
#
#
# Indices 1 2 3 4 5 6 
#
# 1 0.009846 -0.002730 -0.001907 0.000000 0.000000 0.000000
# 2 -0.002730 0.018454 -0.007192 0.000000 0.000000 0.000000
# 3 -0.001907 -0.007192 0.014616 0.000000 0.000000 0.000000
# 4 0.000000 0.000000 0.000000 0.057259 0.000000 0.000000
# 5 0.000000 0.000000 0.000000 0.000000 0.028882 0.000000
# 6 0.000000 0.000000 0.000000 0.000000 0.000000 0.050851
#
#
# Mechanical properties :
#
#
# Convention : Reuss Voigt Hill
#
# Bulk Modulus (GPa) = 51.92828 52.84304 52.38566
# Shear Modulus (GPa) = 23.81092 26.59170 25.20131
#
# Velocity S-wave (km/s) = 3.37083 3.56222 3.46785
# Velocity P-wave (km/s) = 6.31901 6.49120 6.40569
#
# Compressibility (1/GPa) = 0.01925733
#
# Stress axis : x y z
#
# Youngs Moduli (GPa) = 101.56037 54.18835 68.41744
#
# Poissons Ratio (x) = 0.14793 0.13050
# Poissons Ratio (y) = 0.27725 0.49208
# Poissons Ratio (z) = 0.19372 0.38974
#
# Static dielectric constant tensor:
#      x y z
#    x 3.926790 0.000000 0.000000 
#    y 0.000000 3.642250 0.000000 
#    z 0.000000 0.000000 3.772230 
# 
# 
# High freq. dielectric constant tensor:
#      x y z
#    x 1.836490 0.000000 0.000000 
#    y 0.000000 1.791910 0.000000 
#    z 0.000000 0.000000 1.810180 
# 
# From -- ./inp_files/30747.got.cif
#   From: 2010.03.12/outbox.cif.g09.slc.cpg/sg50_16_cif.got.tgz:30747.got - 2010.04.16 13:23:21.
