data_PCOD8204934
_publ_section_title
;
Structure prediction by ZEFSAII (Michael W. Deem and Ramdas Pophale) SiO2 
 PCOD8204934
Probable space group: P B A N
;
_chemical_formula_sum "Si O2"
_cell_formula_units_Z 56
_cell_length_a 23.088048
_cell_length_b 10.653919
_cell_length_c 12.415626
_cell_angle_alpha 90.000000
_cell_angle_beta 90.000000
_cell_angle_gamma 90.000000
_cell_volume 3053.973252
_symmetry_space_group_name_H-M "P B A N"
_symmetry_group_IT_number 50
_space_group.IT_coordinate_system_code '2'
_symmetry_cell_setting 'orthorhombic'
loop_
_space_group_symop_operation_xyz
x,y,z
1/2-x,1/2-y,z
x,1/2-y,-z
1/2-x,y,-z
-x,-y,-z
1/2+x,1/2+y,-z
-x,1/2+y,z
1/2+x,-y,z
loop_
_atom_site_type_symbol
_atom_site_label
_atom_site_fract_x
_atom_site_fract_y
_atom_site_fract_z
Si Si1 0.180202 0.497381 0.122341
Si Si2 0.037407 0.715007 0.675185
Si Si3 0.059527 0.565294 0.478160
Si Si4 0.188342 0.991895 0.126917
Si Si5 0.113232 0.750016 0.126016
Si Si6 0.086497 0.178047 0.603372
Si Si7 0.181619 0.245102 0.245119
O O1 0.245114 0.531719 0.157130
O O2 0.139779 0.614145 0.156855
O O3 0.161151 0.365823 0.175624
O O4 0.178105 0.472824 0.996134
O O5 0.076017 0.627137 0.593674
O O6 0.048212 0.849215 0.624432
O O7 0.058591 0.718416 0.798696
O O8 0.969345 0.677085 0.683085
O O9 0.105549 0.461676 0.435954
O O10 0.000000 0.500000 0.500000
O O11 0.158130 0.860555 0.153590
O O12 0.164435 0.113196 0.190448
O O13 0.094937 0.750000 0.000000
O O14 0.062267 0.250000 0.500000
O O15 0.143287 0.247716 0.647517
O O16 0.250000 0.250000 0.270669
#
# Coordination Sequence:
#
# PCOD8204934 Si02
#       7
#     8   8   8   8   8   8   8
#     4   9  17  35  53  78 107 143 186 214 254 323
#     4  10  19  34  56  78 105 138 183 223 258 322
#     4   9  17  34  54  79  93 135 188 224 250 299
#     4   9  18  32  56  78 106 145 181 216 259 321
#     4  10  20  32  53  84 115 142 171 222 277 319
#     4  11  21  34  55  75 101 135 180 224 266 319
#     4  10  21  34  53  80 106 139 176 226 276 313
#
# _framework density 18.336769
#
# number of rings (size 3 to 8) (size 9 to 14) (size 15 to 20)
#    0.000    2.286    2.857    1.714    2.000    3.714 
#    0.000    1.429    0.000    6.857    0.000    2.000 
#    0.000    0.000    0.000    0.000    0.000    0.000 
#
# Total GULP energy -693739.853615 kJ/mol
# GULP energy per Si atom -12388.211672 kJ/mol
# Density = 1.829503 g / cm^3
# Si number density = 18.336769 Si / 1000 Ang^3
#
#
#
# Elastic Constant Matrix: (Units=GPa)
#
#
# Indices 1 2 3 4 5 6 
#
# 1 62.1313 30.6992 42.2057 0.0000 0.0000 0.0000
# 2 30.6992 122.4910 39.1222 0.0000 0.0000 0.0000
# 3 42.2057 39.1222 82.4671 0.0000 0.0000 0.0000
# 4 0.0000 0.0000 0.0000 18.5960 0.0000 0.0000
# 5 0.0000 0.0000 0.0000 0.0000 18.6997 0.0000
# 6 0.0000 0.0000 0.0000 0.0000 0.0000 21.6575
#
#
#
# Elastic Compliance Matrix: (Units=1/GPa)
#
#
# Indices 1 2 3 4 5 6 
#
# 1 0.025359 -0.002605 -0.011742 0.000000 0.000000 0.000000
# 2 -0.002605 0.009889 -0.003358 0.000000 0.000000 0.000000
# 3 -0.011742 -0.003358 0.019729 0.000000 0.000000 0.000000
# 4 0.000000 0.000000 0.000000 0.053775 0.000000 0.000000
# 5 0.000000 0.000000 0.000000 0.000000 0.053477 0.000000
# 6 0.000000 0.000000 0.000000 0.000000 0.000000 0.046173
#
#
# Mechanical properties :
#
#
# Convention : Reuss Voigt Hill
#
# Bulk Modulus (GPa) = 51.11072 54.57150 52.84111
# Shear Modulus (GPa) = 19.97321 22.12814 21.05067
#
# Velocity S-wave (km/s) = 3.30395 3.47762 3.39190
# Velocity P-wave (km/s) = 6.51833 6.77867 6.64978
#
# Compressibility (1/GPa) = 0.01956537
#
# Stress axis : x y z
#
# Youngs Moduli (GPa) = 39.43414 101.11892 50.68732
#
# Poissons Ratio (x) = 0.26343 0.59519
# Poissons Ratio (y) = 0.10273 0.17022
# Poissons Ratio (z) = 0.46305 0.33958
#
# Static dielectric constant tensor:
#      x y z
#    x 3.089740 0.000000 0.000000 
#    y 0.000000 3.714690 0.000000 
#    z 0.000000 0.000000 3.361160 
# 
# 
# High freq. dielectric constant tensor:
#      x y z
#    x 1.677980 0.000000 0.000000 
#    y 0.000000 1.736100 0.000000 
#    z 0.000000 0.000000 1.699790 
# 
# From -- ./inp_files/20483.got.cif
#   From: 2010.03.12/outbox.cif.g09.slc.cpg/sg50_11_cif.got.tgz:20483.got - 2010.04.16 13:23:21.
