data_PCOD8204489
_publ_section_title
;
Structure prediction by ZEFSAII (Michael W. Deem and Ramdas Pophale) SiO2 
 PCOD8204489
Probable space group: P C C M
;
_chemical_formula_sum "Si O2"
_cell_formula_units_Z 36
_cell_length_a 8.386220
_cell_length_b 11.454771
_cell_length_c 17.921988
_cell_angle_alpha 90.000000
_cell_angle_beta 90.000000
_cell_angle_gamma 90.000000
_cell_volume 1721.626127
_symmetry_space_group_name_H-M "P C C M"
_symmetry_group_IT_number 49
_symmetry_cell_setting 'orthorhombic'
loop_
_space_group_symop_operation_xyz
x,y,z
-x,-y,z
x,-y,1/2-z
-x,y,1/2-z
-x,-y,-z
x,y,-z
-x,y,1/2+z
x,-y,1/2+z
loop_
_atom_site_type_symbol
_atom_site_label
_atom_site_fract_x
_atom_site_fract_y
_atom_site_fract_z
Si Si1 0.145624 0.136715 0.380414
Si Si2 0.366940 0.644269 0.880116
Si Si3 0.000000 0.000000 0.250000
Si Si4 0.500000 0.500000 0.250000
Si Si5 0.960325 0.753500 0.000000
Si Si6 0.685893 0.982837 0.000000
Si Si7 0.376002 0.713986 0.500000
Si Si8 0.825812 0.549781 0.500000
O O1 0.255225 0.247430 0.363533
O O2 0.979294 0.168618 0.424246
O O3 0.108609 0.082925 0.300495
O O4 0.241932 0.040422 0.426756
O O5 0.398832 0.586833 0.800923
O O6 0.524510 0.688149 0.925669
O O7 0.284630 0.537463 0.926540
O O8 0.805410 0.655996 0.000000
O O9 0.131974 0.688954 0.000000
O O10 0.711072 0.842578 0.000000
O O11 0.500000 0.000000 0.000000
O O12 0.000000 0.500000 0.500000
#
# Coordination Sequence:
#
# PCOD8204489 Si02
#       8
#     8   8   2   2   4   4   4   4
#     4  10  22  43  59  96 130 163 208 261 307 393
#     4  10  24  43  60  89 130 160 213 265 305 377
#     4  12  24  38  66  90 144 166 194 244 336 392
#     4  12  28  42  58  86 140 178 202 256 324 372
#     4   9  20  37  67  92 121 152 212 269 309 349
#     4  11  18  38  70  94 118 158 210 268 317 359
#     4  11  20  37  72  97 119 160 214 272 317 363
#     4   9  20  41  67  88 106 152 221 270 302 353
#
# _framework density 20.910464000000001
#
# number of rings (size 3 to 8) (size 9 to 14) (size 15 to 20)
#    0.000    1.778    2.222    2.667    3.111    6.222 
#    4.000    0.000    0.000    0.000    0.000    0.000 
#    0.000    0.000    0.000    0.000    0.000    0.000 
#
# Total GULP energy -445997.151463 kJ/mol
# GULP energy per Si atom -12388.809763 kJ/mol
# Density = 2.086287 g / cm^3
# Si number density = 20.910464 Si / 1000 Ang^3
#
#
#
# Elastic Constant Matrix: (Units=GPa)
#
#
# Indices 1 2 3 4 5 6 
#
# 1 145.5167 48.9092 75.8148 0.0000 0.0000 0.0000
# 2 48.9092 78.5363 62.9683 0.0000 0.0000 0.0000
# 3 75.8148 62.9683 187.5463 0.0000 0.0000 0.0000
# 4 0.0000 0.0000 0.0000 32.8100 0.0000 0.0000
# 5 0.0000 0.0000 0.0000 0.0000 20.6158 0.0000
# 6 0.0000 0.0000 0.0000 0.0000 0.0000 51.6911
#
#
#
# Elastic Compliance Matrix: (Units=1/GPa)
#
#
# Indices 1 2 3 4 5 6 
#
# 1 0.009498 -0.003881 -0.002536 0.000000 0.000000 0.000000
# 2 -0.003881 0.019009 -0.004813 0.000000 0.000000 0.000000
# 3 -0.002536 -0.004813 0.007973 0.000000 0.000000 0.000000
# 4 0.000000 0.000000 0.000000 0.030478 0.000000 0.000000
# 5 0.000000 0.000000 0.000000 0.000000 0.048506 0.000000
# 6 0.000000 0.000000 0.000000 0.000000 0.000000 0.019346
#
#
# Mechanical properties :
#
#
# Convention : Reuss Voigt Hill
#
# Bulk Modulus (GPa) = 71.33371 87.44267 79.38819
# Shear Modulus (GPa) = 30.87439 35.95053 33.41246
#
# Velocity S-wave (km/s) = 3.84670 4.15089 4.00169
# Velocity P-wave (km/s) = 7.34285 8.05492 7.70711
#
# Compressibility (1/GPa) = 0.01401862
#
# Stress axis : x y z
#
# Youngs Moduli (GPa) = 105.28411 52.60570 125.41704
#
# Poissons Ratio (x) = 0.20419 0.31811
# Poissons Ratio (y) = 0.40865 0.60367
# Poissons Ratio (z) = 0.26704 0.25321
#
# Static dielectric constant tensor:
#      x y z
#    x 3.853490 0.000000 0.000000 
#    y 0.000000 3.246790 0.000000 
#    z 0.000000 0.000000 3.662590 
# 
# 
# High freq. dielectric constant tensor:
#      x y z
#    x 1.836770 0.000000 0.000000 
#    y 0.000000 1.853400 0.000000 
#    z 0.000000 0.000000 1.799040 
# 
# From -- ./inp_files/11516.got.cif
#   From: 2010.03.12/outbox.cif.g09.slc.cpg/sg49_6_cif.got.tgz:11516.got - 2010.04.14 03:58:27.
