data_PCOD8204734
_publ_section_title
;
Structure prediction by ZEFSAII (Michael W. Deem and Ramdas Pophale) SiO2 
 PCOD8204734
Probable space group: P B A N
;
_chemical_formula_sum "Si O2"
_cell_formula_units_Z 26
_cell_length_a 5.248552
_cell_length_b 27.707722
_cell_length_c 10.413115
_cell_angle_alpha 90.000000
_cell_angle_beta 90.000000
_cell_angle_gamma 90.000000
_cell_volume 1514.331619
_symmetry_space_group_name_H-M "P B A N"
_symmetry_group_IT_number 50
_space_group.IT_coordinate_system_code '2'
_symmetry_cell_setting 'orthorhombic'
loop_
_space_group_symop_operation_xyz
x,y,z
1/2-x,1/2-y,z
x,1/2-y,-z
1/2-x,y,-z
-x,-y,-z
1/2+x,1/2+y,-z
-x,1/2+y,z
1/2+x,-y,z
loop_
_atom_site_type_symbol
_atom_site_label
_atom_site_fract_x
_atom_site_fract_y
_atom_site_fract_z
Si Si1 0.510086 0.721553 0.244978
Si Si2 0.250000 0.250000 0.000000
Si Si3 0.502096 0.869344 0.583990
Si Si4 0.505764 0.979155 0.643779
O O1 0.250000 0.750000 0.273164
O O2 0.568066 0.717265 0.091581
O O3 0.486951 0.668167 0.300033
O O4 0.750000 0.750000 0.310281
O O5 0.250000 0.864644 0.500000
O O6 0.520130 0.921769 0.647023
O O7 0.750000 0.858546 0.500000
O O8 0.500000 0.000000 0.500000
O O9 0.752140 0.001640 0.715543
#
# Coordination Sequence:
#
# PCOD8204734 Si02
#       4
#     8   2   8   8
#     4  10  22  38  56  74 104 142 173 228 255 310
#     4   8  22  44  56  68 102 136 198 218 258 292
#     4  12  21  31  52  82 113 139 173 204 274 326
#     4  10  16  30  46  68 107 147 167 203 239 319
#
# _framework density 17.169291999999999
#
# number of rings (size 3 to 8) (size 9 to 14) (size 15 to 20)
#    0.923    0.615    6.154    2.308    0.000    3.692 
#    0.000    0.000    0.000    0.000    0.000    2.154 
#    0.000    0.000    0.000    0.000    0.000    0.000 
#
# Total GULP energy -322162.686609 kJ/mol
# GULP energy per Si atom -12390.872562 kJ/mol
# Density = 1.713021 g / cm^3
# Si number density = 17.169292 Si / 1000 Ang^3
#
#
#
# Elastic Constant Matrix: (Units=GPa)
#
#
# Indices 1 2 3 4 5 6 
#
# 1 168.1267 45.0177 25.3479 0.0000 0.0000 0.0000
# 2 45.0177 149.9387 48.4549 0.0000 0.0000 0.0000
# 3 25.3479 48.4549 47.4842 0.0000 0.0000 0.0000
# 4 0.0000 0.0000 0.0000 5.3874 0.0000 0.0000
# 5 0.0000 0.0000 0.0000 0.0000 -1.6172 0.0000
# 6 0.0000 0.0000 0.0000 0.0000 0.0000 38.6708
#
#
#
# Elastic Compliance Matrix: (Units=1/GPa)
#
#
# Indices 1 2 3 4 5 6 
#
# 1 0.006625 -0.001263 -0.002248 0.000000 0.000000 0.000000
# 2 -0.001263 0.010192 -0.009726 0.000000 0.000000 0.000000
# 3 -0.002248 -0.009726 0.032184 0.000000 0.000000 0.000000
# 4 0.000000 0.000000 0.000000 0.185620 0.000000 0.000000
# 5 0.000000 0.000000 0.000000 0.000000 -0.618359 0.000000
# 6 0.000000 0.000000 0.000000 0.000000 0.000000 0.025859
#
#
# Mechanical properties :
#
#
# Convention : Reuss Voigt Hill
#
# Bulk Modulus (GPa) = 44.38979 67.02119 55.70549
# Shear Modulus (GPa) = -15.43702 24.93681 4.74990
#
# Velocity S-wave (km/s) = -3.00176 3.81518 1.66509
# Velocity P-wave (km/s) = 3.72776 7.65034 6.01764
#
# Compressibility (1/GPa) = 0.02252771
#
# Stress axis : x y z
#
# Youngs Moduli (GPa) = 150.94571 98.12068 31.07094
#
# Poissons Ratio (x) = 0.12388 0.06985
# Poissons Ratio (y) = 0.19058 0.30219
# Poissons Ratio (z) = 0.33934 0.95431
#
# Static dielectric constant tensor:
#      x y z
#    x 15.103500 0.000000 0.000000 
#    y 0.000000 3.189550 0.000000 
#    z 0.000000 0.000000 2.557070 
# 
# 
# High freq. dielectric constant tensor:
#      x y z
#    x 1.700850 0.000000 0.000000 
#    y 0.000000 1.664340 0.000000 
#    z 0.000000 0.000000 1.594100 
# 
# From -- ./inp_files/7734.got.cif
#   From: 2010.03.12/outbox.cif.g09.slc.cpg/sg50_4_cif.got.tgz:7734.got - 2010.04.16 13:23:21.
