data_PCOD8204266
_publ_section_title
;
Structure prediction by ZEFSAII (Michael W. Deem and Ramdas Pophale) SiO2 
 PCOD8204266
Probable space group: P C C M
;
_chemical_formula_sum "Si O2"
_cell_formula_units_Z 56
_cell_length_a 7.713881
_cell_length_b 23.453146
_cell_length_c 14.974704
_cell_angle_alpha 90.000000
_cell_angle_beta 90.000000
_cell_angle_gamma 90.000000
_cell_volume 2709.145240
_symmetry_space_group_name_H-M "P C C M"
_symmetry_group_IT_number 49
_symmetry_cell_setting 'orthorhombic'
loop_
_space_group_symop_operation_xyz
x,y,z
-x,-y,z
x,-y,1/2-z
-x,y,1/2-z
-x,-y,-z
x,y,-z
-x,y,1/2+z
x,-y,1/2+z
loop_
_atom_site_type_symbol
_atom_site_label
_atom_site_fract_x
_atom_site_fract_y
_atom_site_fract_z
Si Si1 0.499999 0.358846 0.606843
Si Si2 0.804217 0.150094 0.897468
Si Si3 0.192294 0.563735 0.606091
Si Si4 0.804218 0.849906 0.897468
Si Si5 0.704861 0.065235 0.250000
Si Si6 0.807709 0.563736 0.393909
Si Si7 0.499999 0.768464 0.394554
O O1 0.499998 0.358264 0.500000
O O2 0.669312 0.391372 0.644473
O O3 0.330682 0.391370 0.644473
O O4 0.500002 0.294917 0.646657
O O5 0.782209 0.093595 0.838897
O O6 0.672315 0.198489 0.862041
O O7 0.999999 0.173753 0.887829
O O8 0.762617 0.133788 0.000000
O O9 0.198129 0.564162 0.500000
O O10 0.237912 0.499999 0.640167
O O11 0.000002 0.581240 0.639429
O O12 0.782210 0.906405 0.838897
O O13 0.672317 0.801511 0.862042
O O14 0.762619 0.866212 0.000000
O O15 0.500000 0.071615 0.250000
O O16 0.764927 0.000000 0.250000
O O17 0.801873 0.564164 0.500000
O O18 0.500000 0.763452 0.500000
#
# Coordination Sequence:
#
# PCOD8204266 Si02
#       7
#     8   8   8   8   8   8   8
#     4   9  15  22  36  55  80 119 168 218 262 314
#     4  10  21  38  59  82 113 150 185 227 277 327
#     4   8  13  20  30  48  77 114 159 211 265 318
#     4  10  21  38  59  82 113 150 185 227 277 327
#     4  11  23  39  63  90 115 147 184 225 274 328
#     4   8  13  20  30  48  77 114 159 211 265 318
#     4   9  18  32  47  69 100 136 183 229 272 325
#
# _framework density 20.670725999999998
#
# number of rings (size 3 to 8) (size 9 to 14) (size 15 to 20)
#    0.000    2.714    1.429    1.714    0.000    4.571 
#    0.000    8.571    0.000    0.000    0.000    0.000 
#    0.000    0.000    0.000   10.286    0.000   64.000 
#
# Total GULP energy -694224.268173 kJ/mol
# GULP energy per Si atom -12396.861932 kJ/mol
# Density = 2.062368 g / cm^3
# Si number density = 20.670726 Si / 1000 Ang^3
#
#
#
# Elastic Constant Matrix: (Units=GPa)
#
#
# Indices 1 2 3 4 5 6 
#
# 1 176.6310 104.9019 25.0405 0.0000 0.0000 0.0000
# 2 104.9019 185.5452 36.2361 0.0000 0.0000 0.0000
# 3 25.0405 36.2361 57.6314 0.0000 0.0000 0.0000
# 4 0.0000 0.0000 0.0000 -24.0208 0.0000 0.0000
# 5 0.0000 0.0000 0.0000 0.0000 10.5681 0.0000
# 6 0.0000 0.0000 0.0000 0.0000 0.0000 19.0748
#
#
#
# Elastic Compliance Matrix: (Units=1/GPa)
#
#
# Indices 1 2 3 4 5 6 
#
# 1 0.008553 -0.004685 -0.000770 0.000000 0.000000 0.000000
# 2 -0.004685 0.008711 -0.003441 0.000000 0.000000 0.000000
# 3 -0.000770 -0.003441 0.019850 0.000000 0.000000 0.000000
# 4 0.000000 0.000000 0.000000 -0.041631 0.000000 0.000000
# 5 0.000000 0.000000 0.000000 0.000000 0.094624 0.000000
# 6 0.000000 0.000000 0.000000 0.000000 0.000000 0.052425
#
#
# Mechanical properties :
#
#
# Convention : Reuss Voigt Hill
#
# Bulk Modulus (GPa) = 51.75928 83.57382 67.66655
# Shear Modulus (GPa) = 29.98204 18.03304 24.00754
#
# Velocity S-wave (km/s) = 3.81262 2.95684 3.41167
# Velocity P-wave (km/s) = 6.66901 7.22329 6.95168
#
# Compressibility (1/GPa) = 0.01932021
#
# Stress axis : x y z
#
# Youngs Moduli (GPa) = 116.91241 114.80376 50.37793
#
# Poissons Ratio (x) = 0.53790 0.03881
# Poissons Ratio (y) = 0.54778 0.17335
# Poissons Ratio (z) = 0.09007 0.39504
#
# Static dielectric constant tensor:
#      x y z
#    x 4.087290 0.000000 0.000000 
#    y 0.000000 3.860090 0.000000 
#    z 0.000000 0.000000 3.316870 
# 
# 
# High freq. dielectric constant tensor:
#      x y z
#    x 1.823390 0.000000 0.000000 
#    y 0.000000 1.793570 0.000000 
#    z 0.000000 0.000000 1.782840 
# 
# From -- ./inp_files/12033.got.cif
#   From: 2010.03.12/outbox.cif.g09.slc.cpg/sg49_7_cif.got.tgz:12033.got - 2010.04.14 03:58:27.
