data_PCOD8204370
_publ_section_title
;
Structure prediction by ZEFSAII (Michael W. Deem and Ramdas Pophale) SiO2 
 PCOD8204370
Probable space group: P C C M
;
_chemical_formula_sum "Si O2"
_cell_formula_units_Z 38
_cell_length_a 6.170022
_cell_length_b 15.075248
_cell_length_c 18.736067
_cell_angle_alpha 90.000000
_cell_angle_beta 90.000000
_cell_angle_gamma 90.000000
_cell_volume 1742.727999
_symmetry_space_group_name_H-M "P C C M"
_symmetry_group_IT_number 49
_symmetry_cell_setting 'orthorhombic'
loop_
_space_group_symop_operation_xyz
x,y,z
-x,-y,z
x,-y,1/2-z
-x,y,1/2-z
-x,-y,-z
x,y,-z
-x,y,1/2+z
x,-y,1/2+z
loop_
_atom_site_type_symbol
_atom_site_label
_atom_site_fract_x
_atom_site_fract_y
_atom_site_fract_z
Si Si1 0.151252 0.863177 0.857776
Si Si2 0.255055 0.954380 0.000000
Si Si3 0.123024 0.412524 0.420473
Si Si4 0.805162 0.752770 0.079474
Si Si5 0.413969 0.694204 0.826945
Si Si6 0.000000 0.000000 0.250000
O O1 0.256963 0.778302 0.819646
O O2 0.905744 0.836792 0.878958
O O3 0.154306 0.941010 0.799826
O O4 0.272220 0.893725 0.929599
O O5 0.500000 0.000000 0.000000
O O6 0.000000 0.000000 0.000000
O O7 0.221829 0.429029 0.500000
O O8 0.305184 0.392846 0.361583
O O9 0.000000 0.500000 0.393903
O O10 0.970659 0.327851 0.424070
O O11 0.596505 0.721612 0.119145
O O12 0.743209 0.784440 0.000000
O O13 0.500000 0.665551 0.750000
#
# Coordination Sequence:
#
# PCOD8204370 Si02
#       6
#     8   4   8   8   8   2
#     4  11  25  42  66  95 134 182 234 298 363 438
#     4  12  28  46  70 106 141 186 253 318 370 440
#     4   9  20  41  67  98 132 173 227 285 344 418
#     4  10  21  40  68  94 128 173 229 282 346 418
#     4  11  24  40  64  98 135 180 225 286 360 442
#     4  12  24  46  66  92 140 178 230 292 378 430
#
# _framework density 21.804894000000001
#
# number of rings (size 3 to 8) (size 9 to 14) (size 15 to 20)
#    0.000    1.474    2.105    1.895    5.895    5.053 
#    0.000    7.368    0.000    0.000    0.000    0.000 
#    0.000    0.000    0.000    0.000    0.000    0.000 
#
# Total GULP energy -470883.458362 kJ/mol
# GULP energy per Si atom -12391.669957 kJ/mol
# Density = 2.175526 g / cm^3
# Si number density = 21.804894 Si / 1000 Ang^3
#
#
#
# Elastic Constant Matrix: (Units=GPa)
#
#
# Indices 1 2 3 4 5 6 
#
# 1 108.7426 37.4007 63.5248 0.0000 0.0000 0.0000
# 2 37.4007 95.3114 74.5099 0.0000 0.0000 0.0000
# 3 63.5248 74.5099 167.2950 0.0000 0.0000 0.0000
# 4 0.0000 0.0000 0.0000 35.0608 0.0000 0.0000
# 5 0.0000 0.0000 0.0000 0.0000 27.5195 0.0000
# 6 0.0000 0.0000 0.0000 0.0000 0.0000 38.3816
#
#
#
# Elastic Compliance Matrix: (Units=1/GPa)
#
#
# Indices 1 2 3 4 5 6 
#
# 1 0.012007 -0.001760 -0.003775 0.000000 0.000000 0.000000
# 2 -0.001760 0.016354 -0.006616 0.000000 0.000000 0.000000
# 3 -0.003775 -0.006616 0.010357 0.000000 0.000000 0.000000
# 4 0.000000 0.000000 0.000000 0.028522 0.000000 0.000000
# 5 0.000000 0.000000 0.000000 0.000000 0.036338 0.000000
# 6 0.000000 0.000000 0.000000 0.000000 0.000000 0.026054
#
#
# Mechanical properties :
#
#
# Convention : Reuss Voigt Hill
#
# Bulk Modulus (GPa) = 69.36442 80.24664 74.80553
# Shear Modulus (GPa) = 31.49807 33.25331 32.37569
#
# Velocity S-wave (km/s) = 3.80484 3.90941 3.85748
# Velocity P-wave (km/s) = 7.15422 7.56703 7.36352
#
# Compressibility (1/GPa) = 0.01441661
#
# Stress axis : x y z
#
# Youngs Moduli (GPa) = 83.28588 61.14580 96.54944
#
# Poissons Ratio (x) = 0.10763 0.36449
# Poissons Ratio (y) = 0.14661 0.63872
# Poissons Ratio (z) = 0.31442 0.40451
#
# Static dielectric constant tensor:
#      x y z
#    x 6.066120 0.000000 0.000000 
#    y 0.000000 4.533190 0.000000 
#    z 0.000000 0.000000 4.713890 
# 
# 
# High freq. dielectric constant tensor:
#      x y z
#    x 1.850140 0.000000 0.000000 
#    y 0.000000 1.858100 0.000000 
#    z 0.000000 0.000000 1.869470 
# 
# From -- ./inp_files/15301.got.cif
#   From: 2010.03.12/outbox.cif.g09.slc.cpg/sg49_8_cif.got.tgz:15301.got - 2010.04.14 03:58:27.
