data_PCOD8204906
_publ_section_title
;
Structure prediction by ZEFSAII (Michael W. Deem and Ramdas Pophale) SiO2 
 PCOD8204906
Probable space group: P B A N
;
_chemical_formula_sum "Si O2"
_cell_formula_units_Z 48
_cell_length_a 9.434956
_cell_length_b 28.285250
_cell_length_c 8.790651
_cell_angle_alpha 90.000000
_cell_angle_beta 90.000000
_cell_angle_gamma 90.000000
_cell_volume 2345.961816
_symmetry_space_group_name_H-M "P B A N"
_symmetry_group_IT_number 50
_space_group.IT_coordinate_system_code '2'
_symmetry_cell_setting 'orthorhombic'
loop_
_space_group_symop_operation_xyz
x,y,z
1/2-x,1/2-y,z
x,1/2-y,-z
1/2-x,y,-z
-x,-y,-z
1/2+x,1/2+y,-z
-x,1/2+y,z
1/2+x,-y,z
loop_
_atom_site_type_symbol
_atom_site_label
_atom_site_fract_x
_atom_site_fract_y
_atom_site_fract_z
Si Si1 0.831011 0.793086 0.840002
Si Si2 0.291550 0.892131 0.326474
Si Si3 0.738570 0.890759 0.822797
Si Si4 0.668800 0.295553 0.157740
Si Si5 0.513742 0.954176 0.191919
Si Si6 0.037924 0.561437 0.841488
O O1 0.750000 0.750000 0.750832
O O2 0.800272 0.842278 0.748015
O O3 0.000289 0.785070 0.863679
O O4 0.750000 0.795677 0.000000
O O5 0.250000 0.889799 0.500000
O O6 0.314724 0.839033 0.270691
O O7 0.431382 0.923852 0.317172
O O8 0.184922 0.919935 0.218199
O O9 0.577128 0.901316 0.777231
O O10 0.824676 0.938157 0.783182
O O11 0.750000 0.882076 0.000000
O O12 0.750000 0.250000 0.228831
O O13 0.750000 0.307340 0.000000
O O14 0.502795 0.009629 0.223945
O O15 0.457659 0.940481 0.024083
#
# Coordination Sequence:
#
# PCOD8204906 Si02
#       6
#     8   8   8   8   8   8
#     4  10  19  32  57  93 122 140 183 257 315 358
#     4  12  26  40  58  89 132 171 202 247 308 380
#     4   9  18  31  56  87 116 145 186 253 310 349
#     4  11  23  39  67  94 117 159 211 261 313 367
#     4  10  19  40  62  92 118 153 209 256 302 351
#     4  10  21  36  66  90 118 156 204 260 300 356
#
# _framework density 20.46069
#
# number of rings (size 3 to 8) (size 9 to 14) (size 15 to 20)
#    0.000    1.667    1.667    4.500    7.000    3.667 
#    0.000    0.833    0.000    0.000    0.000    0.000 
#    0.000    0.000    0.000    0.000    0.000    0.000 
#
# Total GULP energy -594759.965688 kJ/mol
# GULP energy per Si atom -12390.832618 kJ/mol
# Density = 2.041412 g / cm^3
# Si number density = 20.460690 Si / 1000 Ang^3
#
#
#
# Elastic Constant Matrix: (Units=GPa)
#
#
# Indices 1 2 3 4 5 6 
#
# 1 111.8885 53.4778 22.0064 0.0000 0.0000 0.0000
# 2 53.4778 148.1324 22.3070 0.0000 0.0000 0.0000
# 3 22.0064 22.3070 38.3945 0.0000 0.0000 0.0000
# 4 0.0000 0.0000 0.0000 9.4248 0.0000 0.0000
# 5 0.0000 0.0000 0.0000 0.0000 11.6170 0.0000
# 6 0.0000 0.0000 0.0000 0.0000 0.0000 30.5120
#
#
#
# Elastic Compliance Matrix: (Units=1/GPa)
#
#
# Indices 1 2 3 4 5 6 
#
# 1 0.011491 -0.003459 -0.004576 0.000000 0.000000 0.000000
# 2 -0.003459 0.008439 -0.002921 0.000000 0.000000 0.000000
# 3 -0.004576 -0.002921 0.030365 0.000000 0.000000 0.000000
# 4 0.000000 0.000000 0.000000 0.106103 0.000000 0.000000
# 5 0.000000 0.000000 0.000000 0.000000 0.086081 0.000000
# 6 0.000000 0.000000 0.000000 0.000000 0.000000 0.032774
#
#
# Mechanical properties :
#
#
# Convention : Reuss Voigt Hill
#
# Bulk Modulus (GPa) = 35.23205 54.88865 45.06035
# Shear Modulus (GPa) = 16.30644 23.68569 19.99607
#
# Velocity S-wave (km/s) = 2.82612 3.40607 3.12956
# Velocity P-wave (km/s) = 5.28262 6.50792 5.92702
#
# Compressibility (1/GPa) = 0.02838324
#
# Stress axis : x y z
#
# Youngs Moduli (GPa) = 87.02521 118.49271 32.93235
#
# Poissons Ratio (x) = 0.40989 0.15071
# Poissons Ratio (y) = 0.30104 0.09618
# Poissons Ratio (z) = 0.39826 0.34606
#
# Static dielectric constant tensor:
#      x y z
#    x 4.026140 0.000000 0.000000 
#    y 0.000000 4.748370 0.000000 
#    z 0.000000 0.000000 3.111210 
# 
# 
# High freq. dielectric constant tensor:
#      x y z
#    x 1.818300 0.000000 0.000000 
#    y 0.000000 1.829100 0.000000 
#    z 0.000000 0.000000 1.728140 
# 
# From -- ./inp_files/10113.got.cif
#   From: 2010.03.12/outbox.cif.g09.slc.cpg/sg50_6_cif.got.tgz:10113.got - 2010.04.16 13:23:21.
