data_PCOD8204711
_publ_section_title
;
Structure prediction by ZEFSAII (Michael W. Deem and Ramdas Pophale) SiO2 
 PCOD8204711
Probable space group: P C C M
;
_chemical_formula_sum "Si O2"
_cell_formula_units_Z 64
_cell_length_a 9.000000
_cell_length_b 21.000000
_cell_length_c 18.000000
_cell_angle_alpha 90.000000
_cell_angle_beta 90.000000
_cell_angle_gamma 90.000000
_cell_volume 3402.000000
_symmetry_space_group_name_H-M "P C C M"
_symmetry_group_IT_number 49
_symmetry_cell_setting 'orthorhombic'
loop_
_space_group_symop_operation_xyz
x,y,z
-x,-y,z
x,-y,1/2-z
-x,y,1/2-z
-x,-y,-z
x,y,-z
-x,y,1/2+z
x,-y,1/2+z
loop_
_atom_site_type_symbol
_atom_site_label
_atom_site_fract_x
_atom_site_fract_y
_atom_site_fract_z
Si Si1 0.672347 0.244894 0.162948
Si Si2 0.828407 0.373549 0.336903
Si Si3 0.176632 0.500000 0.415906
Si Si4 0.171594 0.373549 0.336903
Si Si5 0.829895 0.126634 0.588018
Si Si6 0.170105 0.873366 0.911982
Si Si7 0.331917 0.000000 0.411580
Si Si8 0.672347 0.755106 0.837053
O O1 0.738303 0.312055 0.135102
O O2 0.752938 0.188233 0.121195
O O3 0.500000 0.243171 0.142431
O O4 0.701172 0.236514 0.250000
O O5 0.762246 0.436216 0.376701
O O6 0.807146 0.384610 0.250000
O O7 0.738304 0.312054 0.364898
O O8 0.000000 0.362398 0.357913
O O9 0.233306 0.499999 0.500000
O O10 0.237754 0.436217 0.376700
O O11 0.000000 0.500000 0.409729
O O12 0.816392 0.130378 0.500000
O O13 0.752937 0.188233 0.621195
O O14 0.000000 0.124445 0.614129
O O15 0.750400 0.062952 0.618675
O O16 0.249602 0.937047 0.881325
O O17 0.183608 0.869622 0.000000
O O18 0.329000 0.000000 0.500000
O O19 0.500000 0.000000 0.381170
#
# Coordination Sequence:
#
# PCOD8204711 Si02
#       8
#     8   8   8   8   8   8   8   8
#     4  10  21  36  53  75 104 137 173 214 260 308
#     4   9  17  31  51  72  96 130 169 206 249 304
#     4   9  17  29  48  75 102 126 160 209 256 297
#     4   9  17  31  51  72  96 130 169 206 249 304
#     4  10  20  34  54  79 105 135 173 215 257 304
#     4  10  20  34  54  79 105 135 173 215 257 304
#     4   9  17  31  52  77 106 139 172 208 254 307
#     4  10  21  36  53  75 104 137 173 214 260 308
#
# _framework density 18.812463000000001
#
# number of rings (size 3 to 8) (size 9 to 14) (size 15 to 20)
#    0.000    2.500    0.000    2.250    0.000    7.000 
#    0.000    3.750    0.000    7.500    0.000    0.000 
#    0.000    0.000    0.000    0.000    0.000    0.000 
#
# Total GULP energy -793708.438115 kJ/mol
# GULP energy per Si atom -12401.694346 kJ/mol
# Density = 1.876965 g / cm^3
# Si number density = 18.812463 Si / 1000 Ang^3
#
#
#
# Elastic Constant Matrix: (Units=GPa)
#
#
# Indices 1 2 3 4 5 6 
#
# 1 117.1142 83.7755 32.1839 0.0000 0.0000 0.0000
# 2 83.7755 205.6547 47.9598 0.0000 0.0000 0.0000
# 3 32.1839 47.9598 33.8563 0.0000 0.0000 0.0000
# 4 0.0000 0.0000 0.0000 23.9703 0.0000 0.0000
# 5 0.0000 0.0000 0.0000 0.0000 20.6275 0.0000
# 6 0.0000 0.0000 0.0000 0.0000 0.0000 14.6498
#
#
#
# Elastic Compliance Matrix: (Units=1/GPa)
#
#
# Indices 1 2 3 4 5 6 
#
# 1 0.013170 -0.003652 -0.007346 0.000000 0.000000 0.000000
# 2 -0.003652 0.008274 -0.008249 0.000000 0.000000 0.000000
# 3 -0.007346 -0.008249 0.048206 0.000000 0.000000 0.000000
# 4 0.000000 0.000000 0.000000 0.041718 0.000000 0.000000
# 5 0.000000 0.000000 0.000000 0.000000 0.048479 0.000000
# 6 0.000000 0.000000 0.000000 0.000000 0.000000 0.068260
#
#
# Mechanical properties :
#
#
# Convention : Reuss Voigt Hill
#
# Bulk Modulus (GPa) = 32.09779 76.05153 54.07466
# Shear Modulus (GPa) = 18.05147 24.69660 21.37404
#
# Velocity S-wave (km/s) = 3.10102 3.62716 3.37436
# Velocity P-wave (km/s) = 5.46999 7.61942 6.63236
#
# Compressibility (1/GPa) = 0.03115479
#
# Stress axis : x y z
#
# Youngs Moduli (GPa) = 75.93253 120.86377 20.74441
#
# Poissons Ratio (x) = 0.44134 0.15240
# Poissons Ratio (y) = 0.27727 0.17113
# Poissons Ratio (z) = 0.55783 0.99703
#
# Static dielectric constant tensor:
#      x y z
#    x 3.472680 0.000000 0.000000 
#    y 0.000000 3.725420 0.000000 
#    z 0.000000 0.000000 3.205010 
# 
# 
# High freq. dielectric constant tensor:
#      x y z
#    x 1.724170 0.000000 0.000000 
#    y 0.000000 1.754790 0.000000 
#    z 0.000000 0.000000 1.704570 
# 
# From -- ./inp_files/16552.got.cif
#   From: 2010.03.12/outbox.ucp.g09.slc.cvg/sg49_9_cif.got.tgz:16552.got - 2010.05.04 21:28:32.
