data_PCOD8204679
_publ_section_title
;
Structure prediction by ZEFSAII (Michael W. Deem and Ramdas Pophale) SiO2 
 PCOD8204679
Probable space group: P C C M
;
_chemical_formula_sum "Si O2"
_cell_formula_units_Z 28
_cell_length_a 4.941615
_cell_length_b 11.285156
_cell_length_c 21.818293
_cell_angle_alpha 90.000000
_cell_angle_beta 90.000000
_cell_angle_gamma 90.000000
_cell_volume 1216.738480
_symmetry_space_group_name_H-M "P C C M"
_symmetry_group_IT_number 49
_symmetry_cell_setting 'orthorhombic'
loop_
_space_group_symop_operation_xyz
x,y,z
-x,-y,z
x,-y,1/2-z
-x,y,1/2-z
-x,-y,-z
x,y,-z
-x,y,1/2+z
x,-y,1/2+z
loop_
_atom_site_type_symbol
_atom_site_label
_atom_site_fract_x
_atom_site_fract_y
_atom_site_fract_z
Si Si1 0.048452 0.863931 0.870257
Si Si2 0.500000 0.500000 0.894847
Si Si3 0.764630 0.778740 0.500000
Si Si4 0.759107 0.378047 0.500000
Si Si5 0.519055 0.268733 0.679200
O O1 0.801367 0.778065 0.849813
O O2 0.146373 0.852880 0.940598
O O3 0.302035 0.833939 0.828381
O O4 0.000000 0.000000 0.856054
O O5 0.739177 0.542319 0.939385
O O6 0.413686 0.612391 0.854289
O O7 0.449683 0.736403 0.500000
O O8 0.931553 0.658666 0.500000
O O9 0.500000 0.301972 0.750000
#
# Coordination Sequence:
#
# PCOD8204679 Si02
#       5
#     8   4   4   4   8
#     4  12  26  46  71 100 135 177 228 279 335 397
#     4  11  23  46  68 104 133 177 222 280 336 403
#     4  12  21  47  64 106 132 171 221 282 342 394
#     4  11  24  38  75  94 143 170 216 279 342 403
#     4  12  27  46  69  99 138 182 225 274 330 398
#
# _framework density 23.012339000000001
#
# number of rings (size 3 to 8) (size 9 to 14) (size 15 to 20)
#    0.000    0.286    5.714    2.571    0.000    9.143 
#    0.000    7.143    0.000    0.000    0.000    0.000 
#    0.000    0.000    0.000    0.000    0.000    0.000 
#
# Total GULP energy -346966.936155 kJ/mol
# GULP energy per Si atom -12391.676291 kJ/mol
# Density = 2.295996 g / cm^3
# Si number density = 23.012339 Si / 1000 Ang^3
#
#
#
# Elastic Constant Matrix: (Units=GPa)
#
#
# Indices 1 2 3 4 5 6 
#
# 1 87.7022 10.7484 13.2610 0.0000 0.0000 0.0000
# 2 10.7484 106.5432 55.2569 0.0000 0.0000 0.0000
# 3 13.2610 55.2569 156.2163 0.0000 0.0000 0.0000
# 4 0.0000 0.0000 0.0000 34.7475 0.0000 0.0000
# 5 0.0000 0.0000 0.0000 0.0000 28.1199 0.0000
# 6 0.0000 0.0000 0.0000 0.0000 0.0000 34.5057
#
#
#
# Elastic Compliance Matrix: (Units=1/GPa)
#
#
# Indices 1 2 3 4 5 6 
#
# 1 0.011607 -0.000808 -0.000699 0.000000 0.000000 0.000000
# 2 -0.000808 0.011551 -0.004017 0.000000 0.000000 0.000000
# 3 -0.000699 -0.004017 0.007882 0.000000 0.000000 0.000000
# 4 0.000000 0.000000 0.000000 0.028779 0.000000 0.000000
# 5 0.000000 0.000000 0.000000 0.000000 0.035562 0.000000
# 6 0.000000 0.000000 0.000000 0.000000 0.000000 0.028981
#
#
# Mechanical properties :
#
#
# Convention : Reuss Voigt Hill
#
# Bulk Modulus (GPa) = 50.02506 56.55493 53.28999
# Shear Modulus (GPa) = 35.19286 37.55431 36.37359
#
# Velocity S-wave (km/s) = 3.91487 4.04409 3.98000
# Velocity P-wave (km/s) = 6.49773 6.81436 6.65793
#
# Compressibility (1/GPa) = 0.01998998
#
# Stress axis : x y z
#
# Youngs Moduli (GPa) = 86.15472 86.57388 126.87612
#
# Poissons Ratio (x) = 0.06997 0.08874
# Poissons Ratio (y) = 0.06963 0.50968
# Poissons Ratio (z) = 0.06026 0.34778
#
# Static dielectric constant tensor:
#      x y z
#    x 4.130040 0.000000 0.000000 
#    y 0.000000 4.127440 0.000000 
#    z 0.000000 0.000000 4.631190 
# 
# 
# High freq. dielectric constant tensor:
#      x y z
#    x 1.910650 0.000000 0.000000 
#    y 0.000000 1.916170 0.000000 
#    z 0.000000 0.000000 1.924190 
# 
# From -- ./inp_files/21550.got.cif
#   From: 2010.03.12/outbox.cif.g09.slc.cpg/sg49_11_cif.got.tgz:21550.got - 2010.04.14 03:58:27.
