data_PCOD8204004
_publ_section_title
;
Structure prediction by ZEFSAII (Michael W. Deem and Ramdas Pophale) SiO2 
 PCOD8204004
Probable space group: P C C M
;
_chemical_formula_sum "Si O2"
_cell_formula_units_Z 64
_cell_length_a 11.232786
_cell_length_b 14.802943
_cell_length_c 19.350002
_cell_angle_alpha 90.000000
_cell_angle_beta 90.000000
_cell_angle_gamma 90.000000
_cell_volume 3217.485261
_symmetry_space_group_name_H-M "P C C M"
_symmetry_group_IT_number 49
_symmetry_cell_setting 'orthorhombic'
loop_
_space_group_symop_operation_xyz
x,y,z
-x,-y,z
x,-y,1/2-z
-x,y,1/2-z
-x,-y,-z
x,y,-z
-x,y,1/2+z
x,-y,1/2+z
loop_
_atom_site_type_symbol
_atom_site_label
_atom_site_fract_x
_atom_site_fract_y
_atom_site_fract_z
Si Si1 0.005655 0.104411 0.078671
Si Si2 0.313353 0.480052 0.178406
Si Si3 0.681341 0.644606 0.577062
Si Si4 0.800785 0.791167 0.348038
Si Si5 0.364621 0.106708 0.746351
Si Si6 0.226411 0.199422 0.869278
Si Si7 0.411119 0.664184 0.423213
Si Si8 0.130095 0.339098 0.226655
O O1 0.143284 0.135818 0.083917
O O2 0.922207 0.157026 0.133251
O O3 0.961566 0.119129 0.000000
O O4 0.000000 0.000000 0.099428
O O5 0.385351 0.500000 0.250000
O O6 0.284312 0.568833 0.133600
O O7 0.389526 0.413727 0.131926
O O8 0.193955 0.432249 0.206834
O O9 0.700719 0.604493 0.500000
O O10 0.763243 0.732912 0.585412
O O11 0.549460 0.685108 0.586157
O O12 0.698418 0.862036 0.324967
O O13 0.809423 0.718222 0.287067
O O14 0.500000 0.144855 0.750000
O O15 0.287172 0.141107 0.810077
O O16 0.366440 0.000000 0.750000
O O17 0.332165 0.246500 0.912376
O O18 0.135875 0.275653 0.840785
O O19 0.384342 0.626623 0.500000
O O20 0.000000 0.366695 0.250000
#
# Coordination Sequence:
#
# PCOD8204004 Si02
#       8
#     8   8   8   8   8   8   8   8
#     4  11  23  38  60  89 122 162 208 257 311 377
#     4  11  22  38  58  90 119 156 197 252 306 360
#     4  11  23  40  60  87 122 163 205 248 304 368
#     4  11  21  39  61  85 120 158 200 252 305 364
#     4  10  21  36  58  91 124 154 197 254 318 385
#     4  10  20  37  61  86 119 159 204 254 310 364
#     4  10  22  39  61  86 120 162 207 254 301 365
#     4  10  20  38  59  85 113 152 194 246 301 357
#
# _framework density 19.891311000000002
#
# number of rings (size 3 to 8) (size 9 to 14) (size 15 to 20)
#    0.000    1.500    2.500    3.000    0.000    2.250 
#    0.000    1.875    0.000    0.750    0.000   10.500 
#    0.000    0.000    0.000    0.000    0.000    0.000 
#
# Total GULP energy -793275.878448 kJ/mol
# GULP energy per Si atom -12394.935601 kJ/mol
# Density = 1.984604 g / cm^3
# Si number density = 19.891311 Si / 1000 Ang^3
#
#
#
# Elastic Constant Matrix: (Units=GPa)
#
#
# Indices 1 2 3 4 5 6 
#
# 1 106.4918 49.7548 31.6144 0.0000 0.0000 0.0000
# 2 49.7548 108.3700 48.7782 0.0000 0.0000 0.0000
# 3 31.6144 48.7782 109.2370 0.0000 0.0000 0.0000
# 4 0.0000 0.0000 0.0000 19.0575 0.0000 0.0000
# 5 0.0000 0.0000 0.0000 0.0000 29.2605 0.0000
# 6 0.0000 0.0000 0.0000 0.0000 0.0000 28.6518
#
#
#
# Elastic Compliance Matrix: (Units=1/GPa)
#
#
# Indices 1 2 3 4 5 6 
#
# 1 0.012096 -0.004978 -0.001278 0.000000 0.000000 0.000000
# 2 -0.004978 0.013598 -0.004631 0.000000 0.000000 0.000000
# 3 -0.001278 -0.004631 0.011592 0.000000 0.000000 0.000000
# 4 0.000000 0.000000 0.000000 0.052473 0.000000 0.000000
# 5 0.000000 0.000000 0.000000 0.000000 0.034176 0.000000
# 6 0.000000 0.000000 0.000000 0.000000 0.000000 0.034902
#
#
# Mechanical properties :
#
#
# Convention : Reuss Voigt Hill
#
# Bulk Modulus (GPa) = 64.46839 64.93262 64.70051
# Shear Modulus (GPa) = 26.91351 28.32406 27.61878
#
# Velocity S-wave (km/s) = 3.68234 3.77761 3.73028
# Velocity P-wave (km/s) = 7.11057 7.19317 7.15199
#
# Compressibility (1/GPa) = 0.01551148
#
# Stress axis : x y z
#
# Youngs Moduli (GPa) = 82.67460 73.54142 86.26537
#
# Poissons Ratio (x) = 0.36611 0.11022
# Poissons Ratio (y) = 0.41158 0.39951
# Poissons Ratio (z) = 0.10563 0.34058
#
# Static dielectric constant tensor:
#      x y z
#    x 3.602550 0.000000 0.000000 
#    y 0.000000 3.667780 0.000000 
#    z 0.000000 0.000000 3.774170 
# 
# 
# High freq. dielectric constant tensor:
#      x y z
#    x 1.773400 0.000000 0.000000 
#    y 0.000000 1.780350 0.000000 
#    z 0.000000 0.000000 1.779760 
# 
# From -- ./inp_files/17332.got.cif
#   From: 2010.03.12/outbox.cif.g09.slc.cpg/sg49_9_cif.got.tgz:17332.got - 2010.04.14 03:58:27.
