data_PCOD8204825
_publ_section_title
;
Structure prediction by ZEFSAII (Michael W. Deem and Ramdas Pophale) SiO2 
 PCOD8204825
Probable space group: P B A N
;
_chemical_formula_sum "Si O2"
_cell_formula_units_Z 64
_cell_length_a 8.488942
_cell_length_b 22.425162
_cell_length_c 17.001014
_cell_angle_alpha 90.000000
_cell_angle_beta 90.000000
_cell_angle_gamma 90.000000
_cell_volume 3236.413324
_symmetry_space_group_name_H-M "P B A N"
_symmetry_group_IT_number 50
_space_group.IT_coordinate_system_code '2'
_symmetry_cell_setting 'orthorhombic'
loop_
_space_group_symop_operation_xyz
x,y,z
1/2-x,1/2-y,z
x,1/2-y,-z
1/2-x,y,-z
-x,-y,-z
1/2+x,1/2+y,-z
-x,1/2+y,z
1/2+x,-y,z
loop_
_atom_site_type_symbol
_atom_site_label
_atom_site_fract_x
_atom_site_fract_y
_atom_site_fract_z
Si Si1 0.065373 0.008645 0.848351
Si Si2 0.706428 0.416981 0.912155
Si Si3 0.081793 0.482484 0.679289
Si Si4 0.083316 0.828142 0.212257
Si Si5 0.229212 0.105495 0.771141
Si Si6 0.183090 0.810259 0.646539
Si Si7 0.796672 0.063963 0.413577
Si Si8 0.093055 0.282723 0.749950
O O1 0.207566 0.057770 0.842302
O O2 0.932848 0.033677 0.907710
O O3 0.134849 0.945921 0.876582
O O4 0.001913 0.999583 0.760373
O O5 0.654067 0.357141 0.866780
O O6 0.750000 0.398256 0.000000
O O7 0.205271 0.428579 0.694070
O O8 0.170073 0.541318 0.649670
O O9 0.965346 0.461675 0.610773
O O10 0.222726 0.824822 0.274027
O O11 0.942886 0.867951 0.248617
O O12 0.013058 0.761457 0.195276
O O13 0.352832 0.157477 0.797026
O O14 0.250000 0.750000 0.606306
O O15 0.198999 0.864261 0.586008
O O16 0.001843 0.801010 0.671604
O O17 0.750000 0.041290 0.500000
O O18 0.250000 0.250000 0.719446
#
# Coordination Sequence:
#
# PCOD8204825 Si02
#       8
#     8   8   8   8   8   8   8   8
#     4  11  20  35  57  86 118 161 204 247 292 371
#     4  11  22  35  54  89 130 156 190 248 315 367
#     4  12  21  38  60  85 121 159 206 250 306 371
#     4   9  20  35  57  86 115 150 205 256 298 362
#     4  10  18  32  58  85 113 148 202 259 297 348
#     4  10  20  37  62  86 111 159 212 262 297 365
#     4  12  25  38  56  88 127 162 200 255 328 378
#     4   9  18  34  58  91 109 140 202 269 303 347
#
# _framework density 19.774977
#
# number of rings (size 3 to 8) (size 9 to 14) (size 15 to 20)
#    0.000    1.500    3.750    3.000    0.000    0.250 
#    0.000    0.000    0.000    3.375    0.000    1.750 
#    0.000    0.000    0.000    0.000    0.000    0.000 
#
# Total GULP energy -793252.686711 kJ/mol
# GULP energy per Si atom -12394.573230 kJ/mol
# Density = 1.972997 g / cm^3
# Si number density = 19.774977 Si / 1000 Ang^3
#
#
#
# Elastic Constant Matrix: (Units=GPa)
#
#
# Indices 1 2 3 4 5 6 
#
# 1 82.1111 29.8292 33.7603 0.0000 0.0000 0.0000
# 2 29.8292 108.7144 25.1942 0.0000 0.0000 0.0000
# 3 33.7603 25.1942 75.3061 0.0000 0.0000 0.0000
# 4 0.0000 0.0000 0.0000 22.7750 0.0000 0.0000
# 5 0.0000 0.0000 0.0000 0.0000 30.0939 0.0000
# 6 0.0000 0.0000 0.0000 0.0000 0.0000 34.7362
#
#
#
# Elastic Compliance Matrix: (Units=1/GPa)
#
#
# Indices 1 2 3 4 5 6 
#
# 1 0.015735 -0.002908 -0.006081 0.000000 0.000000 0.000000
# 2 -0.002908 0.010509 -0.002212 0.000000 0.000000 0.000000
# 3 -0.006081 -0.002212 0.016746 0.000000 0.000000 0.000000
# 4 0.000000 0.000000 0.000000 0.043908 0.000000 0.000000
# 5 0.000000 0.000000 0.000000 0.000000 0.033229 0.000000
# 6 0.000000 0.000000 0.000000 0.000000 0.000000 0.028788
#
#
# Mechanical properties :
#
#
# Convention : Reuss Voigt Hill
#
# Bulk Modulus (GPa) = 48.57508 49.29990 48.93749
# Shear Modulus (GPa) = 28.06132 29.34420 28.70276
#
# Velocity S-wave (km/s) = 3.77109 3.85633 3.81395
# Velocity P-wave (km/s) = 6.60142 6.69425 6.64799
#
# Compressibility (1/GPa) = 0.02058669
#
# Stress axis : x y z
#
# Youngs Moduli (GPa) = 63.55066 95.15638 59.71734
#
# Poissons Ratio (x) = 0.27673 0.36316
# Poissons Ratio (y) = 0.18482 0.13210
# Poissons Ratio (z) = 0.38648 0.21050
#
# Static dielectric constant tensor:
#      x y z
#    x 3.928760 0.000000 0.000000 
#    y 0.000000 4.142690 0.000000 
#    z 0.000000 0.000000 3.029600 
# 
# 
# High freq. dielectric constant tensor:
#      x y z
#    x 1.793420 0.000000 0.000000 
#    y 0.000000 1.789950 0.000000 
#    z 0.000000 0.000000 1.708940 
# 
# From -- ./inp_files/25399.got.cif
#   From: 2010.03.12/outbox.cif.g09.slc.cpg/sg50_13_cif.got.tgz:25399.got - 2010.04.16 13:23:21.
