data_PCOD8204211
_publ_section_title
;
Structure prediction by ZEFSAII (Michael W. Deem and Ramdas Pophale) SiO2 
 PCOD8204211
Probable space group: P C C M
;
_chemical_formula_sum "Si O2"
_cell_formula_units_Z 64
_cell_length_a 18.814132
_cell_length_b 10.395414
_cell_length_c 15.548128
_cell_angle_alpha 90.000000
_cell_angle_beta 90.000000
_cell_angle_gamma 90.000000
_cell_volume 3040.913621
_symmetry_space_group_name_H-M "P C C M"
_symmetry_group_IT_number 49
_symmetry_cell_setting 'orthorhombic'
loop_
_space_group_symop_operation_xyz
x,y,z
-x,-y,z
x,-y,1/2-z
-x,y,1/2-z
-x,-y,-z
x,y,-z
-x,y,1/2+z
x,-y,1/2+z
loop_
_atom_site_type_symbol
_atom_site_label
_atom_site_fract_x
_atom_site_fract_y
_atom_site_fract_z
Si Si1 0.928360 0.922651 0.098362
Si Si2 0.417027 0.849371 0.250282
Si Si3 0.885632 0.448355 0.095148
Si Si4 0.014726 0.668205 0.344975
Si Si5 0.735520 0.496183 0.846733
Si Si6 0.681922 0.230206 0.599325
Si Si7 0.323037 0.767436 0.901297
Si Si8 0.779080 0.009871 0.899366
O O1 0.941773 0.799417 0.157081
O O2 0.859960 0.998842 0.136396
O O3 0.913543 0.880014 0.000000
O O4 0.000000 0.000000 0.105426
O O5 0.500000 0.821021 0.250000
O O6 0.384241 0.781731 0.335346
O O7 0.389290 0.788365 0.161476
O O8 0.399530 0.000000 0.250000
O O9 0.937544 0.568881 0.103029
O O10 0.819391 0.464746 0.158704
O O11 0.935457 0.322520 0.112059
O O12 0.852861 0.439276 0.000000
O O13 0.000000 0.616966 0.250000
O O14 0.705675 0.500000 0.750000
O O15 0.719781 0.631531 0.892717
O O16 0.698385 0.381402 0.898685
O O17 0.656704 0.211761 0.500000
O O18 0.737297 0.119390 0.626732
O O19 0.259857 0.861012 0.865191
O O20 0.343681 0.803072 0.000000
O O21 0.783475 0.024968 0.000000
#
# Coordination Sequence:
#
# PCOD8204211 Si02
#       8
#     8   8   8   8   8   8   8   8
#     4  10  21  37  57  82 115 161 212 264 323 385
#     4  11  24  44  72 107 139 172 217 268 328 398
#     4  11  22  38  60  85 115 164 213 267 328 395
#     4  11  22  38  55  80 119 156 212 272 334 388
#     4  12  24  40  66  97 133 171 222 275 335 393
#     4  11  22  42  67  98 133 176 223 268 326 399
#     4  11  23  43  67 100 138 178 222 273 331 397
#     4   9  20  38  64  91 126 171 223 272 324 395
#
# _framework density 21.046306000000001
#
# number of rings (size 3 to 8) (size 9 to 14) (size 15 to 20)
#    0.000    1.250    2.500    4.875    1.750    1.750 
#    0.000    3.750    0.000    1.500    0.000    0.000 
#    0.000    0.000    0.000    0.000    0.000    0.000 
#
# Total GULP energy -793398.140417 kJ/mol
# GULP energy per Si atom -12396.845944 kJ/mol
# Density = 2.099840 g / cm^3
# Si number density = 21.046306 Si / 1000 Ang^3
#
#
#
# Elastic Constant Matrix: (Units=GPa)
#
#
# Indices 1 2 3 4 5 6 
#
# 1 124.4486 37.4678 39.6143 0.0000 0.0000 0.0000
# 2 37.4678 102.7706 16.4570 0.0000 0.0000 0.0000
# 3 39.6143 16.4570 105.3314 0.0000 0.0000 0.0000
# 4 0.0000 0.0000 0.0000 24.5423 0.0000 0.0000
# 5 0.0000 0.0000 0.0000 0.0000 26.6708 0.0000
# 6 0.0000 0.0000 0.0000 0.0000 0.0000 4.7747
#
#
#
# Elastic Compliance Matrix: (Units=1/GPa)
#
#
# Indices 1 2 3 4 5 6 
#
# 1 0.010021 -0.003128 -0.003280 0.000000 0.000000 0.000000
# 2 -0.003128 0.010957 -0.000535 0.000000 0.000000 0.000000
# 3 -0.003280 -0.000535 0.010811 0.000000 0.000000 0.000000
# 4 0.000000 0.000000 0.000000 0.040746 0.000000 0.000000
# 5 0.000000 0.000000 0.000000 0.000000 0.037494 0.000000
# 6 0.000000 0.000000 0.000000 0.000000 0.000000 0.209439
#
#
# Mechanical properties :
#
#
# Convention : Reuss Voigt Hill
#
# Bulk Modulus (GPa) = 55.86125 57.73655 56.79890
# Shear Modulus (GPa) = 14.73522 27.13165 20.93343
#
# Velocity S-wave (km/s) = 2.64887 3.59436 3.15721
# Velocity P-wave (km/s) = 5.99625 6.68719 6.35113
#
# Compressibility (1/GPa) = 0.01790150
#
# Stress axis : x y z
#
# Youngs Moduli (GPa) = 99.78600 91.26884 92.49712
#
# Poissons Ratio (x) = 0.28552 0.30341
# Poissons Ratio (y) = 0.31216 0.04952
# Poissons Ratio (z) = 0.32732 0.04886
#
# Static dielectric constant tensor:
#      x y z
#    x 3.706320 0.000000 0.000000 
#    y 0.000000 4.073290 0.000000 
#    z 0.000000 0.000000 3.734030 
# 
# 
# High freq. dielectric constant tensor:
#      x y z
#    x 1.809600 0.000000 0.000000 
#    y 0.000000 1.826230 0.000000 
#    z 0.000000 0.000000 1.825750 
# 
# From -- ./inp_files/14206.got.cif
#   From: 2010.03.12/outbox.cif.g09.slc.cpg/sg49_8_cif.got.tgz:14206.got - 2010.04.14 03:58:27.
