data_PCOD8204044
_publ_section_title
;
Structure prediction by ZEFSAII (Michael W. Deem and Ramdas Pophale) SiO2 
 PCOD8204044
Probable space group: P C C M
;
_chemical_formula_sum "Si O2"
_cell_formula_units_Z 64
_cell_length_a 15.117150
_cell_length_b 12.234378
_cell_length_c 17.845538
_cell_angle_alpha 90.000000
_cell_angle_beta 90.000000
_cell_angle_gamma 90.000000
_cell_volume 3300.513112
_symmetry_space_group_name_H-M "P C C M"
_symmetry_group_IT_number 49
_symmetry_cell_setting 'orthorhombic'
loop_
_space_group_symop_operation_xyz
x,y,z
-x,-y,z
x,-y,1/2-z
-x,y,1/2-z
-x,-y,-z
x,y,-z
-x,y,1/2+z
x,-y,1/2+z
loop_
_atom_site_type_symbol
_atom_site_label
_atom_site_fract_x
_atom_site_fract_y
_atom_site_fract_z
Si Si1 0.409595 0.565288 0.086675
Si Si2 0.633582 0.814405 0.912060
Si Si3 0.139139 0.962556 0.911472
Si Si4 0.684027 0.034933 0.167176
Si Si5 0.066194 0.406772 0.089438
Si Si6 0.969466 0.166146 0.411263
Si Si7 0.735845 0.605409 0.088760
Si Si8 0.542392 0.772940 0.668300
O O1 0.500000 0.500000 0.097219
O O2 0.329864 0.489327 0.114420
O O3 0.403024 0.666757 0.143338
O O4 0.398165 0.602051 0.000000
O O5 0.700845 0.722128 0.879567
O O6 0.533256 0.783185 0.893935
O O7 0.651857 0.930543 0.877291
O O8 0.645101 0.824325 0.000000
O O9 0.113495 0.087908 0.889060
O O10 0.227423 0.920277 0.871482
O O11 0.152670 0.952291 0.000000
O O12 0.060997 0.884444 0.881975
O O13 0.606687 0.123635 0.167166
O O14 0.708889 0.000000 0.250000
O O15 0.039214 0.287914 0.121778
O O16 0.166399 0.426278 0.117900
O O17 0.000000 0.500000 0.121645
O O18 0.061868 0.407611 0.000000
O O19 0.972530 0.170843 0.500000
O O20 0.735848 0.615623 0.000000
O O21 0.500000 0.759068 0.750000
#
# Coordination Sequence:
#
# PCOD8204044 Si02
#       8
#     8   8   8   8   8   8   8   8
#     4  10  20  38  61  85 113 147 197 252 291 341
#     4  11  22  39  64  85 110 155 203 241 294 357
#     4   9  18  34  58  84 110 148 197 243 287 342
#     4  12  25  39  55  82 123 155 192 250 302 355
#     4   9  16  26  46  79 119 153 176 219 297 355
#     4   8  15  31  54  82 116 148 188 242 288 340
#     4   9  18  34  57  88 119 147 191 248 291 342
#     4  12  25  41  57  80 119 157 194 247 307 355
#
# _framework density 19.390923999999998
#
# number of rings (size 3 to 8) (size 9 to 14) (size 15 to 20)
#    0.000    2.000    2.500    2.625    0.000    5.750 
#    0.000    3.750    0.000    0.000    0.000    0.000 
#    0.000    0.000    0.000    0.000    0.000    0.000 
#
# Total GULP energy -793432.822455 kJ/mol
# GULP energy per Si atom -12397.387851 kJ/mol
# Density = 1.934679 g / cm^3
# Si number density = 19.390924 Si / 1000 Ang^3
#
#
#
# Elastic Constant Matrix: (Units=GPa)
#
#
# Indices 1 2 3 4 5 6 
#
# 1 117.3006 84.5376 25.9749 0.0000 0.0000 0.0000
# 2 84.5376 139.7585 46.4837 0.0000 0.0000 0.0000
# 3 25.9749 46.4837 56.1381 0.0000 0.0000 0.0000
# 4 0.0000 0.0000 0.0000 68.3664 0.0000 0.0000
# 5 0.0000 0.0000 0.0000 0.0000 2.4734 0.0000
# 6 0.0000 0.0000 0.0000 0.0000 0.0000 32.6857
#
#
#
# Elastic Compliance Matrix: (Units=1/GPa)
#
#
# Indices 1 2 3 4 5 6 
#
# 1 0.015139 -0.009423 0.000797 0.000000 0.000000 0.000000
# 2 -0.009423 0.015739 -0.008673 0.000000 0.000000 0.000000
# 3 0.000797 -0.008673 0.024626 0.000000 0.000000 0.000000
# 4 0.000000 0.000000 0.000000 0.014627 0.000000 0.000000
# 5 0.000000 0.000000 0.000000 0.000000 0.404308 0.000000
# 6 0.000000 0.000000 0.000000 0.000000 0.000000 0.030594
#
#
# Mechanical properties :
#
#
# Convention : Reuss Voigt Hill
#
# Bulk Modulus (GPa) = 47.82852 69.68773 58.75812
# Shear Modulus (GPa) = 9.14746 31.11848 20.13297
#
# Velocity S-wave (km/s) = 2.17431 4.01034 3.22571
# Velocity P-wave (km/s) = 5.56978 7.58024 6.65141
#
# Compressibility (1/GPa) = 0.02090803
#
# Stress axis : x y z
#
# Youngs Moduli (GPa) = 66.05243 63.53457 40.60819
#
# Poissons Ratio (x) = 0.59867 -0.03238
# Poissons Ratio (y) = 0.62240 0.35219
# Poissons Ratio (z) = -0.05267 0.55102
#
# Static dielectric constant tensor:
#      x y z
#    x 3.738430 0.000000 0.000000 
#    y 0.000000 4.010670 0.000000 
#    z 0.000000 0.000000 2.948250 
# 
# 
# High freq. dielectric constant tensor:
#      x y z
#    x 1.765260 0.000000 0.000000 
#    y 0.000000 1.762960 0.000000 
#    z 0.000000 0.000000 1.710620 
# 
# From -- ./inp_files/17980.got.cif
#   From: 2010.03.12/outbox.cif.g09.slc.cpg/sg49_9_cif.got.tgz:17980.got - 2010.04.14 03:58:27.
