data_PCOD8204007
_publ_section_title
;
Structure prediction by ZEFSAII (Michael W. Deem and Ramdas Pophale) SiO2 
 PCOD8204007
Probable space group: P C C M
;
_chemical_formula_sum "Si O2"
_cell_formula_units_Z 58
_cell_length_a 9.919351
_cell_length_b 18.733420
_cell_length_c 15.492429
_cell_angle_alpha 90.000000
_cell_angle_beta 90.000000
_cell_angle_gamma 90.000000
_cell_volume 2878.855342
_symmetry_space_group_name_H-M "P C C M"
_symmetry_group_IT_number 49
_symmetry_cell_setting 'orthorhombic'
loop_
_space_group_symop_operation_xyz
x,y,z
-x,-y,z
x,-y,1/2-z
-x,y,1/2-z
-x,-y,-z
x,y,-z
-x,y,1/2+z
x,-y,1/2+z
loop_
_atom_site_type_symbol
_atom_site_label
_atom_site_fract_x
_atom_site_fract_y
_atom_site_fract_z
Si Si1 0.160179 0.918932 0.743823
Si Si2 0.931659 0.278477 0.097462
Si Si3 0.688842 0.208390 0.818225
Si Si4 0.649534 0.410165 0.397985
Si Si5 0.500000 0.500000 0.250000
Si Si6 0.586517 0.251639 0.367602
Si Si7 0.163717 0.177009 0.908389
Si Si8 0.959028 0.422273 0.349910
O O1 0.243126 0.870763 0.813032
O O2 0.196082 0.891351 0.649137
O O3 0.000000 0.912379 0.750000
O O4 0.210596 0.000000 0.750000
O O5 0.798480 0.264093 0.150548
O O6 0.056935 0.231936 0.135716
O O7 0.956281 0.362703 0.100383
O O8 0.907888 0.254309 0.000000
O O9 0.642404 0.239715 0.727929
O O10 0.557596 0.211239 0.880312
O O11 0.632808 0.436908 0.500000
O O12 0.589976 0.457011 0.319400
O O13 0.573090 0.334719 0.390909
O O14 0.805424 0.404884 0.372806
O O15 0.697075 0.217504 0.429947
O O16 0.106915 0.149262 0.000000
O O17 0.000000 0.500000 0.386096
O O18 0.000000 0.416751 0.250000
#
# Coordination Sequence:
#
# PCOD8204007 Si02
#       8
#     8   8   8   8   2   8   8   8
#     4  10  20  37  63  93 123 163 204 247 316 384
#     4  11  22  36  59  89 120 156 209 268 317 370
#     4  10  21  38  60  93 123 160 208 268 307 375
#     4  12  25  44  66  90 127 173 220 274 334 405
#     4  12  26  44  62  90 124 168 220 266 336 402
#     4  10  21  38  63  88 120 163 212 254 320 379
#     4  10  20  37  61  89 119 159 204 252 306 370
#     4  11  24  41  63  92 126 166 213 273 335 391
#
# _framework density 20.146895000000001
#
# number of rings (size 3 to 8) (size 9 to 14) (size 15 to 20)
#    0.000    1.379    2.759    3.517    1.931    3.310 
#    0.000    7.586    0.000    0.828    0.000    0.000 
#    0.000    0.000    0.000    0.000    0.000    0.000 
#
# Total GULP energy -718513.009901 kJ/mol
# GULP energy per Si atom -12388.155343 kJ/mol
# Density = 2.010104 g / cm^3
# Si number density = 20.146895 Si / 1000 Ang^3
#
#
#
# Elastic Constant Matrix: (Units=GPa)
#
#
# Indices 1 2 3 4 5 6 
#
# 1 144.1641 54.4568 31.9095 0.0000 0.0000 0.0000
# 2 54.4568 140.5141 38.4859 0.0000 0.0000 0.0000
# 3 31.9095 38.4859 86.9606 0.0000 0.0000 0.0000
# 4 0.0000 0.0000 0.0000 -1.4204 0.0000 0.0000
# 5 0.0000 0.0000 0.0000 0.0000 -15.1970 0.0000
# 6 0.0000 0.0000 0.0000 0.0000 0.0000 29.5955
#
#
#
# Elastic Compliance Matrix: (Units=1/GPa)
#
#
# Indices 1 2 3 4 5 6 
#
# 1 0.008384 -0.002738 -0.001864 0.000000 0.000000 0.000000
# 2 -0.002738 0.008993 -0.002975 0.000000 0.000000 0.000000
# 3 -0.001864 -0.002975 0.013500 0.000000 0.000000 0.000000
# 4 0.000000 0.000000 0.000000 -0.704011 0.000000 0.000000
# 5 0.000000 0.000000 0.000000 0.000000 -0.065803 0.000000
# 6 0.000000 0.000000 0.000000 0.000000 0.000000 0.033789
#
#
# Mechanical properties :
#
#
# Convention : Reuss Voigt Hill
#
# Bulk Modulus (GPa) = 63.60946 69.03814 66.32380
# Shear Modulus (GPa) = -7.30192 19.04806 5.87307
#
# Velocity S-wave (km/s) = -1.90583 3.07817 1.70923
# Velocity P-wave (km/s) = 5.17672 6.85385 6.07345
#
# Compressibility (1/GPa) = 0.01572093
#
# Stress axis : x y z
#
# Youngs Moduli (GPa) = 119.28003 111.19891 74.07271
#
# Poissons Ratio (x) = 0.30452 0.13810
# Poissons Ratio (y) = 0.32665 0.22037
# Poissons Ratio (z) = 0.22238 0.33083
#
# Static dielectric constant tensor:
#      x y z
#    x 4.105400 0.000000 0.000000 
#    y 0.000000 3.634510 0.000000 
#    z 0.000000 0.000000 3.854880 
# 
# 
# High freq. dielectric constant tensor:
#      x y z
#    x 1.794030 0.000000 0.000000 
#    y 0.000000 1.771010 0.000000 
#    z 0.000000 0.000000 1.791750 
# 
# From -- ./inp_files/16503.got.cif
#   From: 2010.03.12/outbox.cif.g09.slc.cpg/sg49_9_cif.got.tgz:16503.got - 2010.04.14 03:58:27.
