data_PCOD8204310
_publ_section_title
;
Structure prediction by ZEFSAII (Michael W. Deem and Ramdas Pophale) SiO2 
 PCOD8204310
Probable space group: P C C M
;
_chemical_formula_sum "Si O2"
_cell_formula_units_Z 34
_cell_length_a 9.164693
_cell_length_b 19.491470
_cell_length_c 9.512356
_cell_angle_alpha 90.000000
_cell_angle_beta 90.000000
_cell_angle_gamma 90.000000
_cell_volume 1699.223911
_symmetry_space_group_name_H-M "P C C M"
_symmetry_group_IT_number 49
_symmetry_cell_setting 'orthorhombic'
loop_
_space_group_symop_operation_xyz
x,y,z
-x,-y,z
x,-y,1/2-z
-x,y,1/2-z
-x,-y,-z
x,y,-z
-x,y,1/2+z
x,-y,1/2+z
loop_
_atom_site_type_symbol
_atom_site_label
_atom_site_fract_x
_atom_site_fract_y
_atom_site_fract_z
Si Si1 0.674179 0.856038 0.765571
Si Si2 0.869754 0.631649 0.339594
Si Si3 0.000000 0.500000 0.250000
Si Si4 0.822806 0.065794 0.500000
Si Si5 0.645139 0.292658 0.336999
Si Si6 0.847382 0.096513 0.000000
O O1 0.500000 0.863648 0.750000
O O2 0.728125 0.915862 0.865617
O O3 0.720063 0.782073 0.830046
O O4 0.766812 0.865605 0.625961
O O5 0.860630 0.659764 0.500000
O O6 0.896568 0.549158 0.345135
O O7 0.727901 0.648041 0.248425
O O8 0.000000 0.667613 0.250000
O O9 0.977356 0.106867 0.500000
O O10 0.831951 0.984615 0.500000
O O11 0.500000 0.283567 0.250000
O O12 0.622917 0.314897 0.500000
#
# Coordination Sequence:
#
# PCOD8204310 Si02
#       6
#     8   8   2   4   8   4
#     4  11  24  41  64  90 126 168 221 272 330 396
#     4  10  21  38  66  97 132 171 214 259 313 374
#     4   8  22  40  68  96 142 168 218 256 318 364
#     4  11  23  45  59  93 127 165 218 271 338 398
#     4  11  24  42  64  92 131 171 216 273 329 387
#     4  11  25  39  67  89 127 169 210 279 336 398
#
# _framework density 20.009136000000002
#
# number of rings (size 3 to 8) (size 9 to 14) (size 15 to 20)
#    0.706    0.706    1.176    3.882    6.588    6.588 
#    0.000    0.588    0.000    2.824    0.000    0.000 
#    0.000    0.000    0.000    0.000    0.000    0.000 
#
# Total GULP energy -421236.096577 kJ/mol
# GULP energy per Si atom -12389.296958 kJ/mol
# Density = 1.996359 g / cm^3
# Si number density = 20.009136 Si / 1000 Ang^3
#
#
#
# Elastic Constant Matrix: (Units=GPa)
#
#
# Indices 1 2 3 4 5 6 
#
# 1 92.0490 36.1383 43.3620 0.0000 0.0000 0.0000
# 2 36.1383 69.5191 28.0986 0.0000 0.0000 0.0000
# 3 43.3620 28.0986 184.7668 0.0000 0.0000 0.0000
# 4 0.0000 0.0000 0.0000 -4.2292 0.0000 0.0000
# 5 0.0000 0.0000 0.0000 0.0000 36.1435 0.0000
# 6 0.0000 0.0000 0.0000 0.0000 0.0000 33.0580
#
#
#
# Elastic Compliance Matrix: (Units=1/GPa)
#
#
# Indices 1 2 3 4 5 6 
#
# 1 0.014600 -0.006611 -0.002421 0.000000 0.000000 0.000000
# 2 -0.006611 0.018320 -0.001235 0.000000 0.000000 0.000000
# 3 -0.002421 -0.001235 0.006168 0.000000 0.000000 0.000000
# 4 0.000000 0.000000 0.000000 -0.236451 0.000000 0.000000
# 5 0.000000 0.000000 0.000000 0.000000 0.027667 0.000000
# 6 0.000000 0.000000 0.000000 0.000000 0.000000 0.030250
#
#
# Mechanical properties :
#
#
# Convention : Reuss Voigt Hill
#
# Bulk Modulus (GPa) = 53.89363 62.39252 58.14307
# Shear Modulus (GPa) = -44.35445 28.91019 -7.72213
#
# Velocity S-wave (km/s) = -4.71330 3.80524 -1.96664
# Velocity P-wave (km/s) = 1.62090 7.11029 4.89535
#
# Compressibility (1/GPa) = 0.01855507
#
# Stress axis : x y z
#
# Youngs Moduli (GPa) = 68.49476 54.58488 162.12336
#
# Poissons Ratio (x) = 0.36085 0.39249
# Poissons Ratio (y) = 0.45281 0.20015
# Poissons Ratio (z) = 0.16582 0.06739
#
# Static dielectric constant tensor:
#      x y z
#    x 4.538350 0.000000 0.000000 
#    y 0.000000 3.535640 0.000000 
#    z 0.000000 0.000000 3.705260 
# 
# 
# High freq. dielectric constant tensor:
#      x y z
#    x 1.778840 0.000000 0.000000 
#    y 0.000000 1.770850 0.000000 
#    z 0.000000 0.000000 1.797180 
# 
# From -- ./inp_files/1588.got.cif
#   From: 2010.03.12/outbox.cif.g09.slc.cpg/sg49_1_cif.got.tgz:1588.got - 2010.04.14 03:58:27.
