data_PCOD8204479
_publ_section_title
;
Structure prediction by ZEFSAII (Michael W. Deem and Ramdas Pophale) SiO2 
 PCOD8204479
Probable space group: P C C M
;
_chemical_formula_sum "Si O2"
_cell_formula_units_Z 32
_cell_length_a 11.420051
_cell_length_b 7.055965
_cell_length_c 18.544702
_cell_angle_alpha 90.000000
_cell_angle_beta 90.000000
_cell_angle_gamma 90.000000
_cell_volume 1494.322447
_symmetry_space_group_name_H-M "P C C M"
_symmetry_group_IT_number 49
_symmetry_cell_setting 'orthorhombic'
loop_
_space_group_symop_operation_xyz
x,y,z
-x,-y,z
x,-y,1/2-z
-x,y,1/2-z
-x,-y,-z
x,y,-z
-x,y,1/2+z
x,-y,1/2+z
loop_
_atom_site_type_symbol
_atom_site_label
_atom_site_fract_x
_atom_site_fract_y
_atom_site_fract_z
Si Si1 0.631251 0.064009 0.671259
Si Si2 0.240360 0.575522 0.328983
Si Si3 0.040419 0.713939 0.578880
Si Si4 0.214373 0.206181 0.583933
O O1 0.643145 0.293253 0.670244
O O2 0.500000 0.000000 0.654610
O O3 0.672877 0.000000 0.750000
O O4 0.714903 0.974052 0.611368
O O5 0.206950 0.500000 0.250000
O O6 0.137497 0.715438 0.358430
O O7 0.263103 0.396761 0.379560
O O8 0.088532 0.785322 0.500000
O O9 0.000000 0.500000 0.568594
O O10 0.076291 0.167113 0.600970
O O11 0.235830 0.233689 0.500000
#
# Coordination Sequence:
#
# PCOD8204479 Si02
#       4
#     8   8   8   8
#     4  11  25  45  62  88 126 170 221 269 312 362
#     4  11  21  39  66  94 125 169 210 259 314 377
#     4   8  17  35  61  93 131 163 194 248 317 382
#     4  10  22  42  66  98 131 165 207 256 319 382
#
# _framework density 21.414387000000001
#
# number of rings (size 3 to 8) (size 9 to 14) (size 15 to 20)
#    0.000    2.000    2.500    2.250    0.000    9.000 
#    0.000    5.000    0.000    0.000    0.000    0.000 
#    0.000    0.000    0.000    0.000    0.000    0.000 
#
# Total GULP energy -396698.333446 kJ/mol
# GULP energy per Si atom -12396.822920 kJ/mol
# Density = 2.136565 g / cm^3
# Si number density = 21.414387 Si / 1000 Ang^3
#
#
#
# Elastic Constant Matrix: (Units=GPa)
#
#
# Indices 1 2 3 4 5 6 
#
# 1 96.3962 41.0982 56.4347 0.0000 0.0000 0.0000
# 2 41.0982 80.4332 48.8033 0.0000 0.0000 0.0000
# 3 56.4347 48.8033 134.7210 0.0000 0.0000 0.0000
# 4 0.0000 0.0000 0.0000 19.2431 0.0000 0.0000
# 5 0.0000 0.0000 0.0000 0.0000 8.9048 0.0000
# 6 0.0000 0.0000 0.0000 0.0000 0.0000 37.5545
#
#
#
# Elastic Compliance Matrix: (Units=1/GPa)
#
#
# Indices 1 2 3 4 5 6 
#
# 1 0.015161 -0.004990 -0.004543 0.000000 0.000000 0.000000
# 2 -0.004990 0.017578 -0.004277 0.000000 0.000000 0.000000
# 3 -0.004543 -0.004277 0.010875 0.000000 0.000000 0.000000
# 4 0.000000 0.000000 0.000000 0.051967 0.000000 0.000000
# 5 0.000000 0.000000 0.000000 0.000000 0.112299 0.000000
# 6 0.000000 0.000000 0.000000 0.000000 0.000000 0.026628
#
#
# Mechanical properties :
#
#
# Convention : Reuss Voigt Hill
#
# Bulk Modulus (GPa) = 62.52761 67.13585 64.83173
# Shear Modulus (GPa) = 18.69436 24.15476 21.42456
#
# Velocity S-wave (km/s) = 2.95783 3.36217 3.16646
# Velocity P-wave (km/s) = 6.39744 6.81844 6.61129
#
# Compressibility (1/GPa) = 0.01599293
#
# Stress axis : x y z
#
# Youngs Moduli (GPa) = 65.95762 56.89047 91.95043
#
# Poissons Ratio (x) = 0.28389 0.41777
# Poissons Ratio (y) = 0.32913 0.39329
# Poissons Ratio (z) = 0.29967 0.24333
#
# Static dielectric constant tensor:
#      x y z
#    x 3.966820 0.000000 0.000000 
#    y 0.000000 4.046800 0.000000 
#    z 0.000000 0.000000 3.969650 
# 
# 
# High freq. dielectric constant tensor:
#      x y z
#    x 1.817460 0.000000 0.000000 
#    y 0.000000 1.852150 0.000000 
#    z 0.000000 0.000000 1.844220 
# 
# From -- ./inp_files/17484.got.cif
#   From: 2010.03.12/outbox.cif.g09.slc.cpg/sg49_9_cif.got.tgz:17484.got - 2010.04.14 03:58:27.
