data_PCOD8204568
_publ_section_title
;
Structure prediction by ZEFSAII (Michael W. Deem and Ramdas Pophale) SiO2 
 PCOD8204568
Probable space group: P C C M
;
_chemical_formula_sum "Si O2"
_cell_formula_units_Z 48
_cell_length_a 28.534504
_cell_length_b 4.994486
_cell_length_c 15.137349
_cell_angle_alpha 90.000000
_cell_angle_beta 90.000000
_cell_angle_gamma 90.000000
_cell_volume 2157.302029
_symmetry_space_group_name_H-M "P C C M"
_symmetry_group_IT_number 49
_symmetry_cell_setting 'orthorhombic'
loop_
_space_group_symop_operation_xyz
x,y,z
-x,-y,z
x,-y,1/2-z
-x,y,1/2-z
-x,-y,-z
x,y,-z
-x,y,1/2+z
x,-y,1/2+z
loop_
_atom_site_type_symbol
_atom_site_label
_atom_site_fract_x
_atom_site_fract_y
_atom_site_fract_z
Si Si1 0.530235 0.261990 0.099659
Si Si2 0.756439 0.556580 0.000000
Si Si3 0.052853 0.532855 0.104096
Si Si4 0.684256 0.556370 0.849820
Si Si5 0.110252 0.013198 0.152738
Si Si6 0.181355 0.047407 0.500000
Si Si7 0.627297 0.057364 0.101514
O O1 0.500000 0.500000 0.147130
O O2 0.579747 0.182148 0.145327
O O3 0.500000 0.000000 0.101068
O O4 0.541583 0.360065 0.000000
O O5 0.727626 0.635440 0.088300
O O6 0.801431 0.743592 0.000000
O O7 0.774748 0.251750 0.000000
O O8 0.088923 0.301134 0.130644
O O9 0.000000 0.500000 0.138135
O O10 0.067784 0.805701 0.150395
O O11 0.054159 0.569581 0.000000
O O12 0.701007 0.500000 0.750000
O O13 0.665914 0.285502 0.893722
O O14 0.644907 0.791502 0.847542
O O15 0.132925 0.000000 0.250000
O O16 0.150256 0.912518 0.086581
O O17 0.618007 0.972926 0.000000
#
# Coordination Sequence:
#
# PCOD8204568 Si02
#       7
#     8   4   8   8   8   4   8
#     4   9  17  29  52  90 127 167 215 252 292 365
#     4  12  26  46  72  94 127 169 216 276 346 404
#     4  11  22  41  68  98 137 182 226 272 322 379
#     4  12  25  43  68 100 129 164 218 276 335 399
#     4  12  25  43  68  99 135 177 222 270 332 393
#     4  12  26  46  69  94 132 167 218 274 334 406
#     4  11  20  39  66  93 134 175 213 265 330 389
#
# _framework density 22.250012999999999
#
# number of rings (size 3 to 8) (size 9 to 14) (size 15 to 20)
#    0.000    0.833    3.333    4.500    0.000    7.333 
#    0.000    0.000    0.000    7.500    0.000    0.000 
#    0.000    0.000    0.000    0.167    0.000    0.000 
#
# Total GULP energy -595241.934533 kJ/mol
# GULP energy per Si atom -12400.873636 kJ/mol
# Density = 2.219937 g / cm^3
# Si number density = 22.250013 Si / 1000 Ang^3
#
#
#
# Elastic Constant Matrix: (Units=GPa)
#
#
# Indices 1 2 3 4 5 6 
#
# 1 107.6420 35.1858 44.9433 0.0000 0.0000 0.0000
# 2 35.1858 138.9448 10.2863 0.0000 0.0000 0.0000
# 3 44.9433 10.2863 126.0216 0.0000 0.0000 0.0000
# 4 0.0000 0.0000 0.0000 24.9043 0.0000 0.0000
# 5 0.0000 0.0000 0.0000 0.0000 7.1464 0.0000
# 6 0.0000 0.0000 0.0000 0.0000 0.0000 56.6548
#
#
#
# Elastic Compliance Matrix: (Units=1/GPa)
#
#
# Indices 1 2 3 4 5 6 
#
# 1 0.011845 -0.002703 -0.004004 0.000000 0.000000 0.000000
# 2 -0.002703 0.007858 0.000323 0.000000 0.000000 0.000000
# 3 -0.004004 0.000323 0.009337 0.000000 0.000000 0.000000
# 4 0.000000 0.000000 0.000000 0.040154 0.000000 0.000000
# 5 0.000000 0.000000 0.000000 0.000000 0.139930 0.000000
# 6 0.000000 0.000000 0.000000 0.000000 0.000000 0.017651
#
#
# Mechanical properties :
#
#
# Convention : Reuss Voigt Hill
#
# Bulk Modulus (GPa) = 61.45859 61.49324 61.47592
# Shear Modulus (GPa) = 20.41092 36.55396 28.48244
#
# Velocity S-wave (km/s) = 3.03205 4.05764 3.58174
# Velocity P-wave (km/s) = 6.31978 7.04627 6.69289
#
# Compressibility (1/GPa) = 0.01627112
#
# Stress axis : x y z
#
# Youngs Moduli (GPa) = 84.42109 127.26249 107.10435
#
# Poissons Ratio (x) = 0.34402 0.42882
# Poissons Ratio (y) = 0.22821 -0.03456
# Poissons Ratio (z) = 0.33800 -0.04107
#
# Static dielectric constant tensor:
#      x y z
#    x 3.942370 0.000000 0.000000 
#    y 0.000000 4.036470 0.000000 
#    z 0.000000 0.000000 4.009650 
# 
# 
# High freq. dielectric constant tensor:
#      x y z
#    x 1.874700 0.000000 0.000000 
#    y 0.000000 1.892060 0.000000 
#    z 0.000000 0.000000 1.861600 
# 
# From -- ./inp_files/14595.got.cif
#   From: 2010.03.12/outbox.cif.g09.slc.cpg/sg49_8_cif.got.tgz:14595.got - 2010.04.14 03:58:27.
