data_PCOD8204632
_publ_section_title
;
Structure prediction by ZEFSAII (Michael W. Deem and Ramdas Pophale) SiO2 
 PCOD8204632
Probable space group: P C C M
;
_chemical_formula_sum "Si O2"
_cell_formula_units_Z 48
_cell_length_a 9.150338
_cell_length_b 19.363209
_cell_length_c 13.964311
_cell_angle_alpha 90.000000
_cell_angle_beta 90.000000
_cell_angle_gamma 90.000000
_cell_volume 2474.195326
_symmetry_space_group_name_H-M "P C C M"
_symmetry_group_IT_number 49
_symmetry_cell_setting 'orthorhombic'
loop_
_space_group_symop_operation_xyz
x,y,z
-x,-y,z
x,-y,1/2-z
-x,y,1/2-z
-x,-y,-z
x,y,-z
-x,y,1/2+z
x,-y,1/2+z
loop_
_atom_site_type_symbol
_atom_site_label
_atom_site_fract_x
_atom_site_fract_y
_atom_site_fract_z
Si Si1 0.348216 0.180883 0.303838
Si Si2 0.179203 0.438136 0.611572
Si Si3 0.161682 0.068121 0.206745
Si Si4 0.670612 0.332761 0.234419
Si Si5 0.852603 0.406899 0.387963
Si Si6 0.408006 0.105019 0.500000
Si Si7 0.270371 0.044491 0.000000
O O1 0.500000 0.180387 0.250000
O O2 0.239049 0.136767 0.240341
O O3 0.282118 0.258191 0.307041
O O4 0.365574 0.150823 0.409330
O O5 0.201997 0.439705 0.500000
O O6 0.304101 0.391894 0.656770
O O7 0.195611 0.516922 0.647372
O O8 0.024205 0.402798 0.637198
O O9 0.169968 0.063438 0.091405
O O10 0.000000 0.069687 0.250000
O O11 0.242492 0.000000 0.250000
O O12 0.500000 0.332794 0.250000
O O13 0.761743 0.349103 0.330982
O O14 0.824020 0.394653 0.500000
O O15 0.580347 0.088626 0.500000
O O16 0.310760 0.036165 0.500000
#
# Coordination Sequence:
#
# PCOD8204632 Si02
#       7
#     8   8   8   8   8   4   4
#     4  11  24  43  61  90 125 167 209 255 299 372
#     4   9  19  37  64  88 113 155 209 258 298 359
#     4  11  24  41  64  95 134 155 200 262 316 374
#     4  11  24  37  56  87 125 162 193 246 313 367
#     4   9  19  39  62  87 116 156 209 256 299 360
#     4  11  22  39  74  93 120 164 223 253 295 375
#     4  11  22  40  73 100 113 171 213 259 315 363
#
# _framework density 19.400247
#
# number of rings (size 3 to 8) (size 9 to 14) (size 15 to 20)
#    0.000    1.667    3.333    2.000    1.167    7.000 
#    6.000    1.667    0.000    0.000    0.000    0.000 
#    0.000    0.000    0.000    0.000    0.000    0.000 
#
# Total GULP energy -595104.852189 kJ/mol
# GULP energy per Si atom -12398.017754 kJ/mol
# Density = 1.935609 g / cm^3
# Si number density = 19.400247 Si / 1000 Ang^3
#
#
#
# Elastic Constant Matrix: (Units=GPa)
#
#
# Indices 1 2 3 4 5 6 
#
# 1 66.9941 46.2901 38.2558 0.0000 0.0000 0.0000
# 2 46.2901 134.0432 55.2442 0.0000 0.0000 0.0000
# 3 38.2558 55.2442 130.0981 0.0000 0.0000 0.0000
# 4 0.0000 0.0000 0.0000 3.9956 0.0000 0.0000
# 5 0.0000 0.0000 0.0000 0.0000 32.0880 0.0000
# 6 0.0000 0.0000 0.0000 0.0000 0.0000 36.3569
#
#
#
# Elastic Compliance Matrix: (Units=1/GPa)
#
#
# Indices 1 2 3 4 5 6 
#
# 1 0.021017 -0.005710 -0.003755 0.000000 0.000000 0.000000
# 2 -0.005710 0.010594 -0.002820 0.000000 0.000000 0.000000
# 3 -0.003755 -0.002820 0.009988 0.000000 0.000000 0.000000
# 4 0.000000 0.000000 0.000000 0.250278 0.000000 0.000000
# 5 0.000000 0.000000 0.000000 0.000000 0.031164 0.000000
# 6 0.000000 0.000000 0.000000 0.000000 0.000000 0.027505
#
#
# Mechanical properties :
#
#
# Convention : Reuss Voigt Hill
#
# Bulk Modulus (GPa) = 58.72383 67.85730 63.29057
# Shear Modulus (GPa) = 13.13052 27.24443 20.18748
#
# Velocity S-wave (km/s) = 2.60440 3.75151 3.22930
# Velocity P-wave (km/s) = 6.27529 7.33612 6.82634
#
# Compressibility (1/GPa) = 0.01702886
#
# Stress axis : x y z
#
# Youngs Moduli (GPa) = 47.58160 94.39077 100.11946
#
# Poissons Ratio (x) = 0.53898 0.37598
# Poissons Ratio (y) = 0.27170 0.28230
# Poissons Ratio (z) = 0.17868 0.26615
#
# Static dielectric constant tensor:
#      x y z
#    x 3.259850 0.000000 0.000000 
#    y 0.000000 4.048320 0.000000 
#    z 0.000000 0.000000 3.588330 
# 
# 
# High freq. dielectric constant tensor:
#      x y z
#    x 1.744430 0.000000 0.000000 
#    y 0.000000 1.758530 0.000000 
#    z 0.000000 0.000000 1.771320 
# 
# From -- ./inp_files/11893.got.cif
#   From: 2010.03.12/outbox.cif.g09.slc.cpg/sg49_6_cif.got.tgz:11893.got - 2010.04.14 03:58:27.
