data_PCOD8204960
_publ_section_title
;
Structure prediction by ZEFSAII (Michael W. Deem and Ramdas Pophale) SiO2 
 PCOD8204960
Probable space group: P B A N
;
_chemical_formula_sum "Si O2"
_cell_formula_units_Z 44
_cell_length_a 10.056543
_cell_length_b 13.812011
_cell_length_c 14.575278
_cell_angle_alpha 90.000000
_cell_angle_beta 90.000000
_cell_angle_gamma 90.000000
_cell_volume 2024.521892
_symmetry_space_group_name_H-M "P B A N"
_symmetry_group_IT_number 50
_space_group.IT_coordinate_system_code '2'
_symmetry_cell_setting 'orthorhombic'
loop_
_space_group_symop_operation_xyz
x,y,z
1/2-x,1/2-y,z
x,1/2-y,-z
1/2-x,y,-z
-x,-y,-z
1/2+x,1/2+y,-z
-x,1/2+y,z
1/2+x,-y,z
loop_
_atom_site_type_symbol
_atom_site_label
_atom_site_fract_x
_atom_site_fract_y
_atom_site_fract_z
Si Si1 0.709516 0.439378 0.104987
Si Si2 0.750000 0.250000 0.785362
Si Si3 0.016890 0.275886 0.679127
Si Si4 0.067310 0.449256 0.803618
Si Si5 0.545551 0.566986 0.357928
Si Si6 0.115763 0.899283 0.534385
O O1 0.761215 0.341659 0.149518
O O2 0.550212 0.446731 0.119645
O O3 0.789803 0.528456 0.151496
O O4 0.750000 0.438204 0.000000
O O5 0.874949 0.247719 0.719162
O O6 0.089356 0.346968 0.751060
O O7 0.988794 0.326318 0.581362
O O8 0.100489 0.176647 0.659592
O O9 0.026216 0.533190 0.734151
O O10 0.442867 0.560023 0.440761
O O11 0.653918 0.486419 0.391666
O O12 0.250000 0.846908 0.500000
#
# Coordination Sequence:
#
# PCOD8204960 Si02
#       6
#     8   4   8   8   8   8
#     4  11  22  41  65  93 122 158 206 265 319 375
#     4  10  19  34  65  94 116 158 214 259 303 376
#     4  10  19  35  59  88 123 163 206 252 304 364
#     4  10  23  38  65  89 123 164 200 255 318 373
#     4  10  20  36  56  85 125 156 207 250 303 369
#     4  10  21  33  59  88 119 163 207 257 299 361
#
# _framework density 21.733525
#
# number of rings (size 3 to 8) (size 9 to 14) (size 15 to 20)
#    0.000    1.818    1.818    2.455    5.091    0.727 
#    0.000    0.909    4.000    1.091    0.000    0.000 
#    0.000    0.000    0.000    0.000    0.000    0.000 
#
# Total GULP energy -545190.060558 kJ/mol
# GULP energy per Si atom -12390.683195 kJ/mol
# Density = 2.168406 g / cm^3
# Si number density = 21.733525 Si / 1000 Ang^3
#
#
#
# Elastic Constant Matrix: (Units=GPa)
#
#
# Indices 1 2 3 4 5 6 
#
# 1 28.4357 0.7482 -3.8942 0.0000 0.0000 0.0000
# 2 0.7482 126.3612 15.8473 0.0000 0.0000 0.0000
# 3 -3.8942 15.8473 97.3578 0.0000 0.0000 0.0000
# 4 0.0000 0.0000 0.0000 6.5556 0.0000 0.0000
# 5 0.0000 0.0000 0.0000 0.0000 15.5720 0.0000
# 6 0.0000 0.0000 0.0000 0.0000 0.0000 21.8904
#
#
#
# Elastic Compliance Matrix: (Units=1/GPa)
#
#
# Indices 1 2 3 4 5 6 
#
# 1 0.035380 -0.000395 0.001479 0.000000 0.000000 0.000000
# 2 -0.000395 0.008083 -0.001332 0.000000 0.000000 0.000000
# 3 0.001479 -0.001332 0.010547 0.000000 0.000000 0.000000
# 4 0.000000 0.000000 0.000000 0.152542 0.000000 0.000000
# 5 0.000000 0.000000 0.000000 0.000000 0.064218 0.000000
# 6 0.000000 0.000000 0.000000 0.000000 0.000000 0.045682
#
#
# Mechanical properties :
#
#
# Convention : Reuss Voigt Hill
#
# Bulk Modulus (GPa) = 18.68588 30.83970 24.76279
# Shear Modulus (GPa) = 14.93494 24.76715 19.85104
#
# Velocity S-wave (km/s) = 2.62426 3.37943 3.02550
# Velocity P-wave (km/s) = 4.21885 5.42661 4.86040
#
# Compressibility (1/GPa) = 0.05351634
#
# Stress axis : x y z
#
# Youngs Moduli (GPa) = 28.26449 123.71413 94.81091
#
# Poissons Ratio (x) = 0.04887 -0.14027
# Poissons Ratio (y) = 0.01117 0.12624
# Poissons Ratio (z) = -0.04182 0.16473
#
# Static dielectric constant tensor:
#      x y z
#    x 3.710400 0.000000 0.000000 
#    y 0.000000 5.185330 0.000000 
#    z 0.000000 0.000000 3.985980 
# 
# 
# High freq. dielectric constant tensor:
#      x y z
#    x 1.819210 0.000000 0.000000 
#    y 0.000000 1.865470 0.000000 
#    z 0.000000 0.000000 1.859320 
# 
# From -- ./inp_files/25834.got.cif
#   From: 2010.03.12/outbox.cif.g09.slc.cpg/sg50_13_cif.got.tgz:25834.got - 2010.04.16 13:23:21.
