data_PCOD8204556
_publ_section_title
;
Structure prediction by ZEFSAII (Michael W. Deem and Ramdas Pophale) SiO2 
 PCOD8204556
Probable space group: P C C M
;
_chemical_formula_sum "Si O2"
_cell_formula_units_Z 64
_cell_length_a 14.747631
_cell_length_b 24.048219
_cell_length_c 8.623712
_cell_angle_alpha 90.000000
_cell_angle_beta 90.000000
_cell_angle_gamma 90.000000
_cell_volume 3058.436198
_symmetry_space_group_name_H-M "P C C M"
_symmetry_group_IT_number 49
_symmetry_cell_setting 'orthorhombic'
loop_
_space_group_symop_operation_xyz
x,y,z
-x,-y,z
x,-y,1/2-z
-x,y,1/2-z
-x,-y,-z
x,y,-z
-x,y,1/2+z
x,-y,1/2+z
loop_
_atom_site_type_symbol
_atom_site_label
_atom_site_fract_x
_atom_site_fract_y
_atom_site_fract_z
Si Si1 0.860419 0.667595 0.679083
Si Si2 0.358483 0.555088 0.670081
Si Si3 0.902926 0.939737 0.815918
Si Si4 0.665638 0.325298 0.683871
Si Si5 0.769811 0.849242 0.318102
Si Si6 0.857940 0.444686 0.674019
Si Si7 0.089383 0.225995 0.820437
Si Si8 0.596182 0.795693 0.817421
O O1 0.880826 0.680743 0.500000
O O2 0.755184 0.676782 0.714070
O O3 0.892822 0.605794 0.720547
O O4 0.917469 0.708256 0.791092
O O5 0.400053 0.500000 0.750000
O O6 0.398229 0.550164 0.500000
O O7 0.387117 0.617038 0.733557
O O8 0.250331 0.553047 0.674715
O O9 0.820406 0.899687 0.768250
O O10 0.000000 0.918872 0.750000
O O11 0.878940 0.000000 0.750000
O O12 0.910300 0.942057 0.000000
O O13 0.690515 0.327995 0.500000
O O14 0.609970 0.269639 0.724120
O O15 0.768283 0.861245 0.500000
O O16 0.824062 0.793461 0.276968
O O17 0.668366 0.838087 0.258106
O O18 0.898914 0.500000 0.750000
O O19 0.894708 0.438011 0.500000
O O20 0.000000 0.196509 0.750000
O O21 0.099910 0.210265 0.000000
O O22 0.500000 0.814170 0.750000
O O23 0.599665 0.804748 0.000000
#
# Coordination Sequence:
#
# PCOD8204556 Si02
#       8
#     8   8   8   8   8   8   8   8
#     4  11  20  31  50  76 106 143 186 234 293 359
#     4   8  14  24  40  66  96 131 174 227 289 361
#     4  11  22  40  66 101 142 184 223 263 306 356
#     4   9  18  33  52  73 106 147 190 242 307 369
#     4  12  24  41  64  94 128 167 212 258 307 366
#     4   9  16  27  43  66  96 132 177 230 286 348
#     4  12  24  39  57  83 118 157 198 245 300 360
#     4  11  23  40  62  88 120 161 208 264 321 376
#
# _framework density 20.925726000000001
#
# number of rings (size 3 to 8) (size 9 to 14) (size 15 to 20)
#    0.000    1.625    1.250    6.750    0.000    3.500 
#    0.000    0.000    0.000    1.125    0.000    7.875 
#    0.000    0.000    0.000    0.000    0.000    0.000 
#
# Total GULP energy -793251.717685 kJ/mol
# GULP energy per Si atom -12394.558089 kJ/mol
# Density = 2.087810 g / cm^3
# Si number density = 20.925726 Si / 1000 Ang^3
#
#
#
# Elastic Constant Matrix: (Units=GPa)
#
#
# Indices 1 2 3 4 5 6 
#
# 1 95.1854 42.6029 35.6349 0.0000 0.0000 0.0000
# 2 42.6029 128.2912 40.9472 0.0000 0.0000 0.0000
# 3 35.6349 40.9472 133.7583 0.0000 0.0000 0.0000
# 4 0.0000 0.0000 0.0000 34.1421 0.0000 0.0000
# 5 0.0000 0.0000 0.0000 0.0000 25.4663 0.0000
# 6 0.0000 0.0000 0.0000 0.0000 0.0000 -3.5350
#
#
#
# Elastic Compliance Matrix: (Units=1/GPa)
#
#
# Indices 1 2 3 4 5 6 
#
# 1 0.012985 -0.003555 -0.002371 0.000000 0.000000 0.000000
# 2 -0.003555 0.009612 -0.001995 0.000000 0.000000 0.000000
# 3 -0.002371 -0.001995 0.008719 0.000000 0.000000 0.000000
# 4 0.000000 0.000000 0.000000 0.029289 0.000000 0.000000
# 5 0.000000 0.000000 0.000000 0.000000 0.039268 0.000000
# 6 0.000000 0.000000 0.000000 0.000000 0.000000 -0.282884
#
#
# Mechanical properties :
#
#
# Convention : Reuss Voigt Hill
#
# Bulk Modulus (GPa) = 64.63094 66.17834 65.40464
# Shear Modulus (GPa) = -30.86209 27.08467 -1.88871
#
# Velocity S-wave (km/s) = -3.84453 3.60157 -0.95107
# Velocity P-wave (km/s) = 3.35346 6.99922 5.48793
#
# Compressibility (1/GPa) = 0.01547246
#
# Stress axis : x y z
#
# Youngs Moduli (GPa) = 77.01394 104.03376 114.69631
#
# Poissons Ratio (x) = 0.36986 0.27194
# Poissons Ratio (y) = 0.27380 0.22887
# Poissons Ratio (z) = 0.18259 0.20759
#
# Static dielectric constant tensor:
#      x y z
#    x 3.557530 0.000000 0.000000 
#    y 0.000000 3.953980 0.000000 
#    z 0.000000 0.000000 3.796740 
# 
# 
# High freq. dielectric constant tensor:
#      x y z
#    x 1.793800 0.000000 0.000000 
#    y 0.000000 1.819380 0.000000 
#    z 0.000000 0.000000 1.824090 
# 
# From -- ./inp_files/4377.got.cif
#   From: 2010.03.12/outbox.cif.g09.slc.cpg/sg49_3_cif.got.tgz:4377.got - 2010.04.14 03:58:27.
