data_PCOD8204460
_publ_section_title
;
Structure prediction by ZEFSAII (Michael W. Deem and Ramdas Pophale) SiO2 
 PCOD8204460
Probable space group: P C C M
;
_chemical_formula_sum "Si O2"
_cell_formula_units_Z 48
_cell_length_a 26.932725
_cell_length_b 4.969810
_cell_length_c 16.472121
_cell_angle_alpha 90.000000
_cell_angle_beta 90.000000
_cell_angle_gamma 90.000000
_cell_volume 2204.802061
_symmetry_space_group_name_H-M "P C C M"
_symmetry_group_IT_number 49
_symmetry_cell_setting 'orthorhombic'
loop_
_space_group_symop_operation_xyz
x,y,z
-x,-y,z
x,-y,1/2-z
-x,y,1/2-z
-x,-y,-z
x,y,-z
-x,y,1/2+z
x,-y,1/2+z
loop_
_atom_site_type_symbol
_atom_site_label
_atom_site_fract_x
_atom_site_fract_y
_atom_site_fract_z
Si Si1 0.872040 0.755428 0.804631
Si Si2 0.032990 0.239859 0.909238
Si Si3 0.555184 0.935307 0.093558
Si Si4 0.393134 0.570438 0.842227
Si Si5 0.721748 0.425826 0.843453
Si Si6 0.223118 0.911025 0.593430
O O1 0.854825 0.500000 0.750000
O O2 0.918859 0.676628 0.858676
O O3 0.828582 0.866656 0.861449
O O4 0.889946 0.000000 0.750000
O O5 0.000000 0.500000 0.912366
O O6 0.049816 0.153043 0.000000
O O7 0.000000 0.000000 0.870040
O O8 0.592274 0.121241 0.144183
O O9 0.500000 0.000000 0.125838
O O10 0.571891 0.626214 0.104762
O O11 0.558953 0.014644 0.000000
O O12 0.402499 0.500000 0.750000
O O13 0.335832 0.552782 0.866352
O O14 0.731680 0.500000 0.750000
O O15 0.747829 0.631438 0.904190
O O16 0.744036 0.131829 0.859714
O O17 0.213822 0.994972 0.500000
#
# Coordination Sequence:
#
# PCOD8204460 Si02
#       6
#     8   8   8   8   8   8
#     4  12  25  41  64  92 126 166 208 258 314 371
#     4  10  22  41  64  91 126 165 206 257 313 370
#     4  11  24  41  62  90 126 165 205 254 309 366
#     4  11  24  41  64  93 123 161 206 255 310 371
#     4  11  24  43  65  91 126 162 203 257 316 373
#     4  12  25  42  65  93 124 163 211 257 310 375
#
# _framework density 21.770662999999999
#
# number of rings (size 3 to 8) (size 9 to 14) (size 15 to 20)
#    0.000    0.833    0.000    7.500    0.000   12.000 
#    0.000    5.000    0.000    0.000    0.000    0.000 
#    0.000    0.000    0.000    0.000    0.000    0.000 
#
# Total GULP energy -595439.721649 kJ/mol
# GULP energy per Si atom -12404.994201 kJ/mol
# Density = 2.172111 g / cm^3
# Si number density = 21.770663 Si / 1000 Ang^3
#
#
#
# Elastic Constant Matrix: (Units=GPa)
#
#
# Indices 1 2 3 4 5 6 
#
# 1 122.9826 16.4972 47.9997 0.0000 0.0000 0.0000
# 2 16.4972 92.8516 12.0095 0.0000 0.0000 0.0000
# 3 47.9997 12.0095 87.2987 0.0000 0.0000 0.0000
# 4 0.0000 0.0000 0.0000 40.6020 0.0000 0.0000
# 5 0.0000 0.0000 0.0000 0.0000 19.6960 0.0000
# 6 0.0000 0.0000 0.0000 0.0000 0.0000 42.2127
#
#
#
# Elastic Compliance Matrix: (Units=1/GPa)
#
#
# Indices 1 2 3 4 5 6 
#
# 1 0.010469 -0.001136 -0.005600 0.000000 0.000000 0.000000
# 2 -0.001136 0.011088 -0.000901 0.000000 0.000000 0.000000
# 3 -0.005600 -0.000901 0.014658 0.000000 0.000000 0.000000
# 4 0.000000 0.000000 0.000000 0.024629 0.000000 0.000000
# 5 0.000000 0.000000 0.000000 0.000000 0.050772 0.000000
# 6 0.000000 0.000000 0.000000 0.000000 0.000000 0.023690
#
#
# Mechanical properties :
#
#
# Convention : Reuss Voigt Hill
#
# Bulk Modulus (GPa) = 47.75117 50.68286 49.21701
# Shear Modulus (GPa) = 31.73389 35.61058 33.67224
#
# Velocity S-wave (km/s) = 3.82205 4.04878 3.93705
# Velocity P-wave (km/s) = 6.43885 6.72218 6.58204
#
# Compressibility (1/GPa) = 0.02094190
#
# Stress axis : x y z
#
# Youngs Moduli (GPa) = 95.51744 90.18598 68.22225
#
# Poissons Ratio (x) = 0.10243 0.38205
# Poissons Ratio (y) = 0.10849 0.06146
# Poissons Ratio (z) = 0.53491 0.08125
#
# Static dielectric constant tensor:
#      x y z
#    x 3.904490 0.000000 0.000000 
#    y 0.000000 3.940970 0.000000 
#    z 0.000000 0.000000 4.260870 
# 
# 
# High freq. dielectric constant tensor:
#      x y z
#    x 1.866480 0.000000 0.000000 
#    y 0.000000 1.869320 0.000000 
#    z 0.000000 0.000000 1.859210 
# 
# From -- ./inp_files/14575.got.cif
#   From: 2010.03.12/outbox.cif.g09.slc.cpg/sg49_8_cif.got.tgz:14575.got - 2010.04.14 03:58:27.
