data_PCOD8204107
_publ_section_title
;
Structure prediction by ZEFSAII (Michael W. Deem and Ramdas Pophale) SiO2 
 PCOD8204107
Probable space group: P C C M
;
_chemical_formula_sum "Si O2"
_cell_formula_units_Z 30
_cell_length_a 9.845784
_cell_length_b 15.457773
_cell_length_c 9.435061
_cell_angle_alpha 90.000000
_cell_angle_beta 90.000000
_cell_angle_gamma 90.000000
_cell_volume 1435.958674
_symmetry_space_group_name_H-M "P C C M"
_symmetry_group_IT_number 49
_symmetry_cell_setting 'orthorhombic'
loop_
_space_group_symop_operation_xyz
x,y,z
-x,-y,z
x,-y,1/2-z
-x,y,1/2-z
-x,-y,-z
x,y,-z
-x,y,1/2+z
x,-y,1/2+z
loop_
_atom_site_type_symbol
_atom_site_label
_atom_site_fract_x
_atom_site_fract_y
_atom_site_fract_z
Si Si1 0.846769 0.772938 0.267339
Si Si2 0.321631 0.513870 0.000000
Si Si3 0.500000 0.500000 0.250000
Si Si4 0.630435 0.086714 0.165600
Si Si5 0.210317 0.329713 0.000000
Si Si6 0.904614 0.361226 0.000000
O O1 0.756168 0.848273 0.332375
O O2 0.854466 0.689669 0.364554
O O3 0.000000 0.810412 0.250000
O O4 0.773638 0.736778 0.128450
O O5 0.400087 0.550721 0.859773
O O6 0.320101 0.407945 0.000000
O O7 0.167692 0.545937 0.000000
O O8 0.500000 0.125613 0.250000
O O9 0.672991 0.000000 0.250000
O O10 0.595565 0.067601 0.000000
O O11 0.064420 0.376388 0.000000
#
# Coordination Sequence:
#
# PCOD8204107 Si02
#       6
#     8   4   2   8   4   4
#     4  10  22  41  62  95 128 159 207 264 312 368
#     4  11  21  42  58  86 121 169 208 254 310 359
#     4  10  24  38  54  82 128 154 202 268 300 366
#     4  11  24  44  66  94 126 164 208 253 307 380
#     4  10  22  37  65  90 119 161 211 258 307 364
#     4  10  20  41  63  86 121 159 211 264 303 364
#
# _framework density 20.891966
#
# number of rings (size 3 to 8) (size 9 to 14) (size 15 to 20)
#    0.000    1.600    1.333    3.600    3.733    0.533 
#   14.400    6.667    0.000    0.000    0.000    0.000 
#    0.000    0.000    0.000    0.000    0.000    0.000 
#
# Total GULP energy -371671.924746 kJ/mol
# GULP energy per Si atom -12389.064158 kJ/mol
# Density = 2.084442 g / cm^3
# Si number density = 20.891966 Si / 1000 Ang^3
#
#
#
# Elastic Constant Matrix: (Units=GPa)
#
#
# Indices 1 2 3 4 5 6 
#
# 1 88.3944 38.4085 21.1974 0.0000 0.0000 0.0000
# 2 38.4085 63.3277 20.8010 0.0000 0.0000 0.0000
# 3 21.1974 20.8010 163.9741 0.0000 0.0000 0.0000
# 4 0.0000 0.0000 0.0000 54.3480 0.0000 0.0000
# 5 0.0000 0.0000 0.0000 0.0000 27.4647 0.0000
# 6 0.0000 0.0000 0.0000 0.0000 0.0000 33.8727
#
#
#
# Elastic Compliance Matrix: (Units=1/GPa)
#
#
# Indices 1 2 3 4 5 6 
#
# 1 0.015472 -0.009107 -0.000845 0.000000 0.000000 0.000000
# 2 -0.009107 0.021837 -0.001593 0.000000 0.000000 0.000000
# 3 -0.000845 -0.001593 0.006410 0.000000 0.000000 0.000000
# 4 0.000000 0.000000 0.000000 0.018400 0.000000 0.000000
# 5 0.000000 0.000000 0.000000 0.000000 0.036410 0.000000
# 6 0.000000 0.000000 0.000000 0.000000 0.000000 0.029522
#
#
# Mechanical properties :
#
#
# Convention : Reuss Voigt Hill
#
# Bulk Modulus (GPa) = 48.47160 52.94556 50.70858
# Shear Modulus (GPa) = 31.64193 38.82301 35.23247
#
# Velocity S-wave (km/s) = 3.89594 4.31545 4.11105
# Velocity P-wave (km/s) = 6.59464 7.08720 6.84535
#
# Compressibility (1/GPa) = 0.02063064
#
# Stress axis : x y z
#
# Youngs Moduli (GPa) = 64.63083 45.79320 156.01041
#
# Poissons Ratio (x) = 0.41702 0.13182
# Poissons Ratio (y) = 0.58857 0.24852
# Poissons Ratio (z) = 0.05461 0.07295
#
# Static dielectric constant tensor:
#      x y z
#    x 3.867960 0.000000 0.000000 
#    y 0.000000 3.323600 0.000000 
#    z 0.000000 0.000000 4.011570 
# 
# 
# High freq. dielectric constant tensor:
#      x y z
#    x 1.822840 0.000000 0.000000 
#    y 0.000000 1.787380 0.000000 
#    z 0.000000 0.000000 1.844500 
# 
# From -- ./inp_files/2529.got.cif
#   From: 2010.03.12/outbox.cif.g09.slc.cpg/sg49_2_cif.got.tgz:2529.got - 2010.04.14 03:58:27.
