data_PCOD8204148
_publ_section_title
;
Structure prediction by ZEFSAII (Michael W. Deem and Ramdas Pophale) SiO2 
 PCOD8204148
Probable space group: P C C M
;
_chemical_formula_sum "Si O2"
_cell_formula_units_Z 48
_cell_length_a 15.775469
_cell_length_b 8.954764
_cell_length_c 16.260435
_cell_angle_alpha 90.000000
_cell_angle_beta 90.000000
_cell_angle_gamma 90.000000
_cell_volume 2297.040137
_symmetry_space_group_name_H-M "P C C M"
_symmetry_group_IT_number 49
_symmetry_cell_setting 'orthorhombic'
loop_
_space_group_symop_operation_xyz
x,y,z
-x,-y,z
x,-y,1/2-z
-x,y,1/2-z
-x,-y,-z
x,y,-z
-x,y,1/2+z
x,-y,1/2+z
loop_
_atom_site_type_symbol
_atom_site_label
_atom_site_fract_x
_atom_site_fract_y
_atom_site_fract_z
Si Si1 0.261046 0.088921 0.594575
Si Si2 0.581281 0.071301 0.660269
Si Si3 0.083640 0.433612 0.658873
Si Si4 0.074151 0.888708 0.095964
Si Si5 0.736482 0.581514 0.403719
Si Si6 0.579258 0.392462 0.596383
O O1 0.278817 0.112759 0.500000
O O2 0.165080 0.030195 0.609802
O O3 0.273276 0.252788 0.636422
O O4 0.327020 0.966821 0.624655
O O5 0.569178 0.248728 0.654549
O O6 0.500000 0.000000 0.612034
O O7 0.579174 0.000000 0.750000
O O8 0.087052 0.500000 0.750000
O O9 0.072215 0.254985 0.654875
O O10 0.170383 0.484684 0.614970
O O11 0.000000 0.500000 0.613755
O O12 0.064760 0.840533 0.000000
O O13 0.000000 0.000000 0.123382
O O14 0.724437 0.593540 0.500000
O O15 0.663410 0.474159 0.369587
O O16 0.500000 0.500000 0.610573
O O17 0.586546 0.346372 0.500000
#
# Coordination Sequence:
#
# PCOD8204148 Si02
#       6
#     8   8   8   8   8   8
#     4   9  18  36  61  86 113 147 190 239 287 337
#     4  11  24  39  54  81 118 154 194 232 281 344
#     4  10  21  36  54  82 118 154 193 233 285 345
#     4   9  19  37  61  87 114 148 192 240 288 338
#     4   9  19  36  59  86 112 144 190 239 286 336
#     4  10  21  38  62  90 116 147 190 238 288 341
#
# _framework density 20.896457000000002
#
# number of rings (size 3 to 8) (size 9 to 14) (size 15 to 20)
#    0.000    2.333    0.000    3.000    0.000    8.000 
#    0.000   13.333    0.000    0.000    0.000    0.000 
#    0.000    0.000    0.000    0.000    0.000    0.000 
#
# Total GULP energy -594804.665262 kJ/mol
# GULP energy per Si atom -12391.763860 kJ/mol
# Density = 2.084890 g / cm^3
# Si number density = 20.896457 Si / 1000 Ang^3
#
#
#
# Elastic Constant Matrix: (Units=GPa)
#
#
# Indices 1 2 3 4 5 6 
#
# 1 197.9777 86.0881 22.8606 0.0000 0.0000 0.0000
# 2 86.0881 136.2614 44.1139 0.0000 0.0000 0.0000
# 3 22.8606 44.1139 26.4211 0.0000 0.0000 0.0000
# 4 0.0000 0.0000 0.0000 26.0570 0.0000 0.0000
# 5 0.0000 0.0000 0.0000 0.0000 8.6250 0.0000
# 6 0.0000 0.0000 0.0000 0.0000 0.0000 49.9361
#
#
#
# Elastic Compliance Matrix: (Units=1/GPa)
#
#
# Indices 1 2 3 4 5 6 
#
# 1 0.007066 -0.005408 0.002916 0.000000 0.000000 0.000000
# 2 -0.005408 0.020112 -0.028901 0.000000 0.000000 0.000000
# 3 0.002916 -0.028901 0.083580 0.000000 0.000000 0.000000
# 4 0.000000 0.000000 0.000000 0.038377 0.000000 0.000000
# 5 0.000000 0.000000 0.000000 0.000000 0.115943 0.000000
# 6 0.000000 0.000000 0.000000 0.000000 0.000000 0.020026
#
#
# Mechanical properties :
#
#
# Convention : Reuss Voigt Hill
#
# Bulk Modulus (GPa) = 20.84549 74.08726 47.46638
# Shear Modulus (GPa) = 13.74076 30.76345 22.25211
#
# Velocity S-wave (km/s) = 2.56708 3.84107 3.26678
# Velocity P-wave (km/s) = 4.33403 7.42988 6.08223
#
# Compressibility (1/GPa) = 0.04797200
#
# Stress axis : x y z
#
# Youngs Moduli (GPa) = 141.52070 49.72078 11.96462
#
# Poissons Ratio (x) = 0.26891 -0.03489
# Poissons Ratio (y) = 0.76540 0.34579
# Poissons Ratio (z) = -0.41271 1.43698
#
# Static dielectric constant tensor:
#      x y z
#    x 5.469860 0.000000 0.000000 
#    y 0.000000 2.404830 0.000000 
#    z 0.000000 0.000000 3.443980 
# 
# 
# High freq. dielectric constant tensor:
#      x y z
#    x 1.848140 0.000000 0.000000 
#    y 0.000000 1.808740 0.000000 
#    z 0.000000 0.000000 1.784870 
# 
# From -- ./inp_files/17747.got.cif
#   From: 2010.03.12/outbox.cif.g09.slc.cpg/sg49_9_cif.got.tgz:17747.got - 2010.04.14 03:58:27.
