data_PCOD8204244
_publ_section_title
;
Structure prediction by ZEFSAII (Michael W. Deem and Ramdas Pophale) SiO2 
 PCOD8204244
Probable space group: P C C M
;
_chemical_formula_sum "Si O2"
_cell_formula_units_Z 48
_cell_length_a 28.384088
_cell_length_b 9.100961
_cell_length_c 9.034817
_cell_angle_alpha 90.000000
_cell_angle_beta 90.000000
_cell_angle_gamma 90.000000
_cell_volume 2333.896315
_symmetry_space_group_name_H-M "P C C M"
_symmetry_group_IT_number 49
_symmetry_cell_setting 'orthorhombic'
loop_
_space_group_symop_operation_xyz
x,y,z
-x,-y,z
x,-y,1/2-z
-x,y,1/2-z
-x,-y,-z
x,y,-z
-x,y,1/2+z
x,-y,1/2+z
loop_
_atom_site_type_symbol
_atom_site_label
_atom_site_fract_x
_atom_site_fract_y
_atom_site_fract_z
Si Si1 0.205982 0.846083 0.668063
Si Si2 0.281146 0.342526 0.678115
Si Si3 0.637887 0.844761 0.173403
Si Si4 0.069082 0.352439 0.500000
Si Si5 0.547201 0.650653 0.172046
Si Si6 0.957747 0.320250 0.500000
Si Si7 0.100373 0.171705 0.768802
O O1 0.225813 0.855759 0.500000
O O2 0.231829 0.721194 0.762709
O O3 0.151142 0.804318 0.657576
O O4 0.214238 0.000000 0.750000
O O5 0.289388 0.500000 0.750000
O O6 0.281017 0.352254 0.500000
O O7 0.322609 0.239967 0.735645
O O8 0.587980 0.767629 0.194027
O O9 0.632876 0.000000 0.250000
O O10 0.651735 0.857073 0.000000
O O11 0.072677 0.528600 0.500000
O O12 0.097877 0.275150 0.628355
O O13 0.013428 0.329101 0.500000
O O14 0.563064 0.500000 0.250000
O O15 0.500000 0.712168 0.250000
O O16 0.537055 0.620238 0.000000
O O17 0.943723 0.226169 0.639453
O O18 0.091621 0.000000 0.750000
#
# Coordination Sequence:
#
# PCOD8204244 Si02
#       7
#     8   8   8   4   8   4   8
#     4  11  24  44  68  94 129 166 208 260 320 384
#     4  12  26  44  68  97 130 167 213 264 319 383
#     4  11  24  42  64  93 129 172 219 268 328 386
#     4  11  25  39  67  89 131 169 209 265 320 383
#     4  10  21  37  61  91 126 169 216 269 325 386
#     4  11  23  45  59  95 127 169 213 259 324 383
#     4  11  24  41  66  94 126 166 213 263 319 384
#
# _framework density 20.566466999999999
#
# number of rings (size 3 to 8) (size 9 to 14) (size 15 to 20)
#    0.000    1.000    0.833    6.000    4.667    9.000 
#    0.000    1.667    0.000    0.000    0.000    0.000 
#    0.000    0.000    0.000    0.000    0.000    0.000 
#
# Total GULP energy -595060.628025 kJ/mol
# GULP energy per Si atom -12397.096417 kJ/mol
# Density = 2.051966 g / cm^3
# Si number density = 20.566467 Si / 1000 Ang^3
#
#
#
# Elastic Constant Matrix: (Units=GPa)
#
#
# Indices 1 2 3 4 5 6 
#
# 1 69.5860 58.3638 37.8440 0.0000 0.0000 0.0000
# 2 58.3638 124.2312 55.1183 0.0000 0.0000 0.0000
# 3 37.8440 55.1183 176.6388 0.0000 0.0000 0.0000
# 4 0.0000 0.0000 0.0000 37.3247 0.0000 0.0000
# 5 0.0000 0.0000 0.0000 0.0000 30.0675 0.0000
# 6 0.0000 0.0000 0.0000 0.0000 0.0000 49.3922
#
#
#
# Elastic Compliance Matrix: (Units=1/GPa)
#
#
# Indices 1 2 3 4 5 6 
#
# 1 0.024255 -0.010550 -0.001905 0.000000 0.000000 0.000000
# 2 -0.010550 0.013932 -0.002087 0.000000 0.000000 0.000000
# 3 -0.001905 -0.002087 0.006721 0.000000 0.000000 0.000000
# 4 0.000000 0.000000 0.000000 0.026792 0.000000 0.000000
# 5 0.000000 0.000000 0.000000 0.000000 0.033258 0.000000
# 6 0.000000 0.000000 0.000000 0.000000 0.000000 0.020246
#
#
# Mechanical properties :
#
#
# Convention : Reuss Voigt Hill
#
# Bulk Modulus (GPa) = 63.19363 74.78978 68.99171
# Shear Modulus (GPa) = 31.33580 37.96554 34.65067
#
# Velocity S-wave (km/s) = 3.90761 4.30116 4.10910
# Velocity P-wave (km/s) = 7.15210 7.81732 7.49210
#
# Compressibility (1/GPa) = 0.01582438
#
# Stress axis : x y z
#
# Youngs Moduli (GPa) = 41.22848 71.77788 148.79791
#
# Poissons Ratio (x) = 0.75726 0.28339
# Poissons Ratio (y) = 0.43496 0.31054
# Poissons Ratio (z) = 0.07852 0.14980
#
# Static dielectric constant tensor:
#      x y z
#    x 3.811490 0.000000 0.000000 
#    y 0.000000 2.618870 0.000000 
#    z 0.000000 0.000000 3.551240 
# 
# 
# High freq. dielectric constant tensor:
#      x y z
#    x 1.814800 0.000000 0.000000 
#    y 0.000000 1.813010 0.000000 
#    z 0.000000 0.000000 1.825400 
# 
# From -- ./inp_files/6918.got.cif
#   From: 2010.03.12/outbox.cif.g09.slc.cpg/sg49_4_cif.got.tgz:6918.got - 2010.04.14 03:58:27.
