data_PCOD8204521
_publ_section_title
;
Structure prediction by ZEFSAII (Michael W. Deem and Ramdas Pophale) SiO2 
 PCOD8204521
Probable space group: P C C M
;
_chemical_formula_sum "Si O2"
_cell_formula_units_Z 34
_cell_length_a 20.256109
_cell_length_b 5.116597
_cell_length_c 14.000715
_cell_angle_alpha 90.000000
_cell_angle_beta 90.000000
_cell_angle_gamma 90.000000
_cell_volume 1451.066956
_symmetry_space_group_name_H-M "P C C M"
_symmetry_group_IT_number 49
_symmetry_cell_setting 'orthorhombic'
loop_
_space_group_symop_operation_xyz
x,y,z
-x,-y,z
x,-y,1/2-z
-x,y,1/2-z
-x,-y,-z
x,y,-z
-x,y,1/2+z
x,-y,1/2+z
loop_
_atom_site_type_symbol
_atom_site_label
_atom_site_fract_x
_atom_site_fract_y
_atom_site_fract_z
Si Si1 0.426749 0.247874 0.293265
Si Si2 0.383265 0.175608 0.500000
Si Si3 0.813515 0.393343 0.647815
Si Si4 0.296209 0.331041 0.000000
Si Si5 0.104763 0.112580 0.607254
Si Si6 0.000000 0.000000 0.250000
O O1 0.389183 0.500000 0.250000
O O2 0.500000 0.249028 0.250000
O O3 0.428932 0.231749 0.407818
O O4 0.387722 0.000000 0.250000
O O5 0.323214 0.375581 0.500000
O O6 0.354944 0.881708 0.500000
O O7 0.791408 0.500000 0.750000
O O8 0.748401 0.297578 0.593261
O O9 0.849320 0.633960 0.595669
O O10 0.860235 0.140425 0.654434
O O11 0.080987 0.039178 0.500000
O O12 0.043975 0.179984 0.678451
#
# Coordination Sequence:
#
# PCOD8204521 Si02
#       6
#     8   4   8   4   8   2
#     4  10  23  43  71 104 146 190 231 287 358 426
#     4  12  26  44  71 110 144 185 246 300 339 425
#     4  12  24  46  71  95 135 187 236 288 362 423
#     4  12  26  44  73  99 142 186 246 296 347 407
#     4  12  24  44  69 100 139 178 232 295 357 424
#     4  12  26  42  72 108 140 182 238 306 338 420
#
# _framework density 23.431035000000001
#
# number of rings (size 3 to 8) (size 9 to 14) (size 15 to 20)
#    0.000    0.471    4.706    3.176    0.000    8.471 
#    0.000    2.353    0.000    0.000    0.000    0.000 
#    0.000    0.000    0.000    0.000    0.000    0.000 
#
# Total GULP energy -421477.765406 kJ/mol
# GULP energy per Si atom -12396.404865 kJ/mol
# Density = 2.337770 g / cm^3
# Si number density = 23.431035 Si / 1000 Ang^3
#
#
#
# Elastic Constant Matrix: (Units=GPa)
#
#
# Indices 1 2 3 4 5 6 
#
# 1 80.2938 20.1246 54.8289 0.0000 0.0000 0.0000
# 2 20.1246 165.6983 38.5904 0.0000 0.0000 0.0000
# 3 54.8289 38.5904 219.0195 0.0000 0.0000 0.0000
# 4 0.0000 0.0000 0.0000 33.4335 0.0000 0.0000
# 5 0.0000 0.0000 0.0000 0.0000 28.1668 0.0000
# 6 0.0000 0.0000 0.0000 0.0000 0.0000 15.6100
#
#
#
# Elastic Compliance Matrix: (Units=1/GPa)
#
#
# Indices 1 2 3 4 5 6 
#
# 1 0.015179 -0.001000 -0.003624 0.000000 0.000000 0.000000
# 2 -0.001000 0.006359 -0.000870 0.000000 0.000000 0.000000
# 3 -0.003624 -0.000870 0.005626 0.000000 0.000000 0.000000
# 4 0.000000 0.000000 0.000000 0.029910 0.000000 0.000000
# 5 0.000000 0.000000 0.000000 0.000000 0.035503 0.000000
# 6 0.000000 0.000000 0.000000 0.000000 0.000000 0.064061
#
#
# Mechanical properties :
#
#
# Convention : Reuss Voigt Hill
#
# Bulk Modulus (GPa) = 61.81432 76.89994 69.35713
# Shear Modulus (GPa) = 28.89858 38.87324 33.88591
#
# Velocity S-wave (km/s) = 3.51571 4.07756 3.80702
# Velocity P-wave (km/s) = 6.55126 7.42022 6.99924
#
# Compressibility (1/GPa) = 0.01617748
#
# Stress axis : x y z
#
# Youngs Moduli (GPa) = 65.87894 157.25395 177.73609
#
# Poissons Ratio (x) = 0.15719 0.64409
# Poissons Ratio (y) = 0.06585 0.15467
# Poissons Ratio (z) = 0.23873 0.13685
#
# Static dielectric constant tensor:
#      x y z
#    x 3.863840 0.000000 0.000000 
#    y 0.000000 1.605410 0.000000 
#    z 0.000000 0.000000 4.436560 
# 
# 
# High freq. dielectric constant tensor:
#      x y z
#    x 1.896630 0.000000 0.000000 
#    y 0.000000 1.941860 0.000000 
#    z 0.000000 0.000000 1.953250 
# 
# From -- ./inp_files/14305.got.cif
#   From: 2010.03.12/outbox.cif.g09.slc.cpg/sg49_8_cif.got.tgz:14305.got - 2010.04.14 03:58:27.
