data_PCOD8204105
_publ_section_title
;
Structure prediction by ZEFSAII (Michael W. Deem and Ramdas Pophale) SiO2 
 PCOD8204105
Probable space group: P C C M
;
_chemical_formula_sum "Si O2"
_cell_formula_units_Z 40
_cell_length_a 8.915251
_cell_length_b 22.673774
_cell_length_c 9.864247
_cell_angle_alpha 90.000000
_cell_angle_beta 90.000000
_cell_angle_gamma 90.000000
_cell_volume 1993.982428
_symmetry_space_group_name_H-M "P C C M"
_symmetry_group_IT_number 49
_symmetry_cell_setting 'orthorhombic'
loop_
_space_group_symop_operation_xyz
x,y,z
-x,-y,z
x,-y,1/2-z
-x,y,1/2-z
-x,-y,-z
x,y,-z
-x,y,1/2+z
x,-y,1/2+z
loop_
_atom_site_type_symbol
_atom_site_label
_atom_site_fract_x
_atom_site_fract_y
_atom_site_fract_z
Si Si1 0.673117 0.633854 0.000000
Si Si2 0.799438 0.237583 0.500000
Si Si3 0.170657 0.430086 0.752935
Si Si4 0.826614 0.830687 0.736639
Si Si5 0.851324 0.254525 0.000000
Si Si6 0.681591 0.623574 0.500000
Si Si7 0.347554 0.053259 0.664614
O O1 0.745098 0.600297 0.875387
O O2 0.495585 0.629345 0.000000
O O3 0.700287 0.703936 0.000000
O O4 0.759860 0.194678 0.624533
O O5 0.969540 0.260808 0.500000
O O6 0.168391 0.500000 0.750000
O O7 0.268227 0.413623 0.626177
O O8 0.000000 0.405706 0.750000
O O9 0.796458 0.778876 0.632066
O O10 0.748503 0.888647 0.681369
O O11 0.000000 0.846993 0.750000
O O12 0.769100 0.315754 0.000000
O O13 0.500000 0.062759 0.750000
O O14 0.369054 0.040484 0.500000
O O15 0.266802 0.000000 0.750000
#
# Coordination Sequence:
#
# PCOD8204105 Si02
#       7
#     4   4   8   8   4   4   8
#     4  12  25  41  62 100 129 164 215 265 333 376
#     4  10  22  37  64  89 126 166 207 254 311 394
#     4  11  24  43  66  91 124 171 219 260 317 393
#     4  10  22  40  64  93 122 161 209 259 312 369
#     4  10  20  41  60  89 124 166 209 252 315 382
#     4  12  25  39  66  94 131 164 207 275 321 382
#     4  11  24  42  64  92 128 169 213 260 315 380
#
# _framework density 20.060357
#
# number of rings (size 3 to 8) (size 9 to 14) (size 15 to 20)
#    0.000    1.200    1.000    5.400    2.800    7.600 
#    0.000    1.000    0.000    0.000    0.000    0.000 
#    0.000    0.000    0.000    0.000    0.000    0.000 
#
# Total GULP energy -495718.158460 kJ/mol
# GULP energy per Si atom -12392.953962 kJ/mol
# Density = 2.001470 g / cm^3
# Si number density = 20.060357 Si / 1000 Ang^3
#
#
#
# Elastic Constant Matrix: (Units=GPa)
#
#
# Indices 1 2 3 4 5 6 
#
# 1 85.7622 43.6638 39.9771 0.0000 0.0000 0.0000
# 2 43.6638 99.5902 42.3510 0.0000 0.0000 0.0000
# 3 39.9771 42.3510 180.3778 0.0000 0.0000 0.0000
# 4 0.0000 0.0000 0.0000 -4.2180 0.0000 0.0000
# 5 0.0000 0.0000 0.0000 0.0000 34.0114 0.0000
# 6 0.0000 0.0000 0.0000 0.0000 0.0000 48.1828
#
#
#
# Elastic Compliance Matrix: (Units=1/GPa)
#
#
# Indices 1 2 3 4 5 6 
#
# 1 0.015675 -0.005994 -0.002067 0.000000 0.000000 0.000000
# 2 -0.005994 0.013447 -0.001829 0.000000 0.000000 0.000000
# 3 -0.002067 -0.001829 0.006431 0.000000 0.000000 0.000000
# 4 0.000000 0.000000 0.000000 -0.237082 0.000000 0.000000
# 5 0.000000 0.000000 0.000000 0.000000 0.029402 0.000000
# 6 0.000000 0.000000 0.000000 0.000000 0.000000 0.020754
#
#
# Mechanical properties :
#
#
# Convention : Reuss Voigt Hill
#
# Bulk Modulus (GPa) = 63.39266 68.63490 66.01378
# Shear Modulus (GPa) = -39.57707 31.57779 -3.99964
#
# Velocity S-wave (km/s) = -4.44655 3.97185 -1.41355
# Velocity P-wave (km/s) = 2.30372 7.43791 5.50589
#
# Compressibility (1/GPa) = 0.01577470
#
# Stress axis : x y z
#
# Youngs Moduli (GPa) = 63.79558 74.36806 155.48780
#
# Poissons Ratio (x) = 0.44573 0.32137
# Poissons Ratio (y) = 0.38236 0.28435
# Poissons Ratio (z) = 0.13185 0.13600
#
# Static dielectric constant tensor:
#      x y z
#    x 3.556670 0.000000 0.000000 
#    y 0.000000 3.836710 0.000000 
#    z 0.000000 0.000000 4.111640 
# 
# 
# High freq. dielectric constant tensor:
#      x y z
#    x 1.777540 0.000000 0.000000 
#    y 0.000000 1.800180 0.000000 
#    z 0.000000 0.000000 1.809400 
# 
# From -- ./inp_files/1841.got.cif
#   From: 2010.03.12/outbox.cif.g09.slc.cpg/sg49_1_cif.got.tgz:1841.got - 2010.04.14 03:58:27.
