data_PCOD8204224
_publ_section_title
;
Structure prediction by ZEFSAII (Michael W. Deem and Ramdas Pophale) SiO2 
 PCOD8204224
Probable space group: P C C M
;
_chemical_formula_sum "Si O2"
_cell_formula_units_Z 40
_cell_length_a 9.171812
_cell_length_b 25.278609
_cell_length_c 8.674869
_cell_angle_alpha 90.000000
_cell_angle_beta 90.000000
_cell_angle_gamma 90.000000
_cell_volume 2011.274011
_symmetry_space_group_name_H-M "P C C M"
_symmetry_group_IT_number 49
_symmetry_cell_setting 'orthorhombic'
loop_
_space_group_symop_operation_xyz
x,y,z
-x,-y,z
x,-y,1/2-z
-x,y,1/2-z
-x,-y,-z
x,y,-z
-x,y,1/2+z
x,-y,1/2+z
loop_
_atom_site_type_symbol
_atom_site_label
_atom_site_fract_x
_atom_site_fract_y
_atom_site_fract_z
Si Si1 0.657544 0.749566 0.820907
Si Si2 0.155638 0.146764 0.179808
Si Si3 0.346299 0.057080 0.682679
Si Si4 0.841107 0.344320 0.181126
Si Si5 0.656167 0.555608 0.681995
O O1 0.500000 0.757295 0.750000
O O2 0.743814 0.803097 0.789173
O O3 0.737271 0.701414 0.740132
O O4 0.644156 0.736488 0.000000
O O5 0.219185 0.096567 0.269001
O O6 0.000000 0.160711 0.250000
O O7 0.142714 0.133279 0.000000
O O8 0.500000 0.077563 0.750000
O O9 0.358700 0.053534 0.500000
O O10 0.306480 0.000000 0.750000
O O11 0.773762 0.400575 0.230714
O O12 0.000000 0.337969 0.250000
O O13 0.853750 0.339254 0.000000
O O14 0.711092 0.500000 0.750000
O O15 0.500000 0.571945 0.750000
O O16 0.639810 0.550593 0.500000
#
# Coordination Sequence:
#
# PCOD8204224 Si02
#       5
#     8   8   8   8   8
#     4  11  24  41  64  90 119 155 197 243 292 349
#     4  11  24  41  61  89 122 157 197 243 295 351
#     4  11  22  39  63  90 121 158 200 246 294 348
#     4  11  24  40  60  87 120 156 196 242 296 352
#     4  10  21  37  59  86 115 152 195 242 291 346
#
# _framework density 19.887889999999999
#
# number of rings (size 3 to 8) (size 9 to 14) (size 15 to 20)
#    0.000    1.200    0.000    7.200    0.000   12.000 
#    0.000    4.000    0.000    0.000    0.000    0.000 
#    0.000    0.000    0.000    0.000    0.000    0.000 
#
# Total GULP energy -496257.390109 kJ/mol
# GULP energy per Si atom -12406.434753 kJ/mol
# Density = 1.984262 g / cm^3
# Si number density = 19.887890 Si / 1000 Ang^3
#
#
#
# Elastic Constant Matrix: (Units=GPa)
#
#
# Indices 1 2 3 4 5 6 
#
# 1 132.8788 58.2524 56.7287 0.0000 0.0000 0.0000
# 2 58.2524 104.5746 66.3645 0.0000 0.0000 0.0000
# 3 56.7287 66.3645 123.8298 0.0000 0.0000 0.0000
# 4 0.0000 0.0000 0.0000 32.9332 0.0000 0.0000
# 5 0.0000 0.0000 0.0000 0.0000 34.2188 0.0000
# 6 0.0000 0.0000 0.0000 0.0000 0.0000 57.5574
#
#
#
# Elastic Compliance Matrix: (Units=1/GPa)
#
#
# Indices 1 2 3 4 5 6 
#
# 1 0.010455 -0.004219 -0.002528 0.000000 0.000000 0.000000
# 2 -0.004219 0.016194 -0.006746 0.000000 0.000000 0.000000
# 3 -0.002528 -0.006746 0.012849 0.000000 0.000000 0.000000
# 4 0.000000 0.000000 0.000000 0.030364 0.000000 0.000000
# 5 0.000000 0.000000 0.000000 0.000000 0.029224 0.000000
# 6 0.000000 0.000000 0.000000 0.000000 0.000000 0.017374
#
#
# Mechanical properties :
#
#
# Convention : Reuss Voigt Hill
#
# Bulk Modulus (GPa) = 79.93001 80.44159 80.18580
# Shear Modulus (GPa) = 33.87142 36.93774 35.40458
#
# Velocity S-wave (km/s) = 4.13136 4.31431 4.22383
# Velocity P-wave (km/s) = 7.93946 8.08412 8.01212
#
# Compressibility (1/GPa) = 0.01251095
#
# Stress axis : x y z
#
# Youngs Moduli (GPa) = 95.65101 61.75163 77.82577
#
# Poissons Ratio (x) = 0.26054 0.19676
# Poissons Ratio (y) = 0.40357 0.52501
# Poissons Ratio (z) = 0.24183 0.41657
#
# Static dielectric constant tensor:
#      x y z
#    x 3.687670 0.000000 0.000000 
#    y 0.000000 3.858190 0.000000 
#    z 0.000000 0.000000 3.808590 
# 
# 
# High freq. dielectric constant tensor:
#      x y z
#    x 1.783560 0.000000 0.000000 
#    y 0.000000 1.791140 0.000000 
#    z 0.000000 0.000000 1.796080 
# 
# From -- ./inp_files/1676.got.cif
#   From: 2010.03.12/outbox.cif.g09.slc.cpg/sg49_1_cif.got.tgz:1676.got - 2010.04.14 03:58:27.
