data_PCOD8204647
_publ_section_title
;
Structure prediction by ZEFSAII (Michael W. Deem and Ramdas Pophale) SiO2 
 PCOD8204647
Probable space group: P C C M
;
_chemical_formula_sum "Si O2"
_cell_formula_units_Z 48
_cell_length_a 9.422882
_cell_length_b 17.869480
_cell_length_c 13.964290
_cell_angle_alpha 90.000000
_cell_angle_beta 90.000000
_cell_angle_gamma 90.000000
_cell_volume 2351.335099
_symmetry_space_group_name_H-M "P C C M"
_symmetry_group_IT_number 49
_symmetry_cell_setting 'orthorhombic'
loop_
_space_group_symop_operation_xyz
x,y,z
-x,-y,z
x,-y,1/2-z
-x,y,1/2-z
-x,-y,-z
x,y,-z
-x,y,1/2+z
x,-y,1/2+z
loop_
_atom_site_type_symbol
_atom_site_label
_atom_site_fract_x
_atom_site_fract_y
_atom_site_fract_z
Si Si1 0.084692 0.075772 0.000000
Si Si2 0.982201 0.761912 0.500000
Si Si3 0.640517 0.450201 0.500000
Si Si4 0.840106 0.078873 0.289232
Si Si5 0.304820 0.277900 0.000000
Si Si6 0.866436 0.315710 0.819351
Si Si7 0.151167 0.520440 0.140903
Si Si8 0.655063 0.779976 0.791995
O O1 0.176182 0.076805 0.096150
O O2 0.986296 0.148679 0.000000
O O3 0.000000 0.000000 0.000000
O O4 0.133507 0.719199 0.500000
O O5 0.899843 0.742768 0.597033
O O6 0.500000 0.500000 0.500000
O O7 0.621770 0.360114 0.500000
O O8 0.726311 0.471947 0.405904
O O9 0.740864 0.146720 0.257429
O O10 0.000000 0.092821 0.250000
O O11 0.781616 0.000000 0.250000
O O12 0.354076 0.231726 0.906461
O O13 0.821121 0.391688 0.872535
O O14 0.734479 0.290305 0.755014
O O15 0.000000 0.329391 0.750000
O O16 0.151307 0.500000 0.250000
O O17 0.000000 0.500000 0.093467
O O18 0.500000 0.787180 0.750000
#
# Coordination Sequence:
#
# PCOD8204647 Si02
#       8
#     4   4   4   8   4   8   8   8
#     4  12  20  37  64 106 133 169 211 281 326 384
#     4  12  23  39  74 100 134 172 230 288 329 395
#     4  12  28  43  65  94 137 177 219 273 344 424
#     4  11  22  41  70 102 136 172 226 273 326 392
#     4  12  24  47  68  96 133 184 226 282 347 390
#     4  12  22  41  69 100 127 175 229 284 337 401
#     4  11  22  43  66  97 125 165 222 285 340 389
#     4  12  27  44  69  98 144 182 223 273 341 415
#
# _framework density 20.413933
#
# number of rings (size 3 to 8) (size 9 to 14) (size 15 to 20)
#    0.000    0.333    6.667    4.250    2.333    1.333 
#    0.000    1.667    0.000    2.000    0.000    0.000 
#    0.000    0.000    0.000    0.000    0.000    0.000 
#
# Total GULP energy -595217.544516 kJ/mol
# GULP energy per Si atom -12400.365511 kJ/mol
# Density = 2.036747 g / cm^3
# Si number density = 20.413933 Si / 1000 Ang^3
#
#
#
# Elastic Constant Matrix: (Units=GPa)
#
#
# Indices 1 2 3 4 5 6 
#
# 1 110.5452 36.1344 31.7470 0.0000 0.0000 0.0000
# 2 36.1344 160.5777 25.5061 0.0000 0.0000 0.0000
# 3 31.7470 25.5061 126.4215 0.0000 0.0000 0.0000
# 4 0.0000 0.0000 0.0000 29.3487 0.0000 0.0000
# 5 0.0000 0.0000 0.0000 0.0000 25.4203 0.0000
# 6 0.0000 0.0000 0.0000 0.0000 0.0000 20.5272
#
#
#
# Elastic Compliance Matrix: (Units=1/GPa)
#
#
# Indices 1 2 3 4 5 6 
#
# 1 0.010321 -0.001974 -0.002194 0.000000 0.000000 0.000000
# 2 -0.001974 0.006811 -0.000878 0.000000 0.000000 0.000000
# 3 -0.002194 -0.000878 0.008638 0.000000 0.000000 0.000000
# 4 0.000000 0.000000 0.000000 0.034073 0.000000 0.000000
# 5 0.000000 0.000000 0.000000 0.000000 0.039339 0.000000
# 6 0.000000 0.000000 0.000000 0.000000 0.000000 0.048716
#
#
# Mechanical properties :
#
#
# Convention : Reuss Voigt Hill
#
# Bulk Modulus (GPa) = 63.78227 64.92437 64.35332
# Shear Modulus (GPa) = 30.63410 35.33637 32.98523
#
# Velocity S-wave (km/s) = 3.87802 4.16503 4.02409
# Velocity P-wave (km/s) = 7.16689 7.41640 7.29271
#
# Compressibility (1/GPa) = 0.01567834
#
# Stress axis : x y z
#
# Youngs Moduli (GPa) = 96.88655 146.81509 115.76570
#
# Poissons Ratio (x) = 0.28984 0.25394
# Poissons Ratio (y) = 0.19127 0.10170
# Poissons Ratio (z) = 0.21253 0.12897
#
# Static dielectric constant tensor:
#      x y z
#    x 3.585670 0.000000 0.000000 
#    y 0.000000 4.456520 0.000000 
#    z 0.000000 0.000000 4.110370 
# 
# 
# High freq. dielectric constant tensor:
#      x y z
#    x 1.762720 0.000000 0.000000 
#    y 0.000000 1.817130 0.000000 
#    z 0.000000 0.000000 1.819520 
# 
# From -- ./inp_files/11911.got.cif
#   From: 2010.03.12/outbox.cif.g09.slc.cpg/sg49_6_cif.got.tgz:11911.got - 2010.04.14 03:58:27.
