data_PCOD8204098
_publ_section_title
;
Structure prediction by ZEFSAII (Michael W. Deem and Ramdas Pophale) SiO2 
 PCOD8204098
Probable space group: P C C M
;
_chemical_formula_sum "Si O2"
_cell_formula_units_Z 48
_cell_length_a 13.860809
_cell_length_b 9.404156
_cell_length_c 18.764640
_cell_angle_alpha 90.000000
_cell_angle_beta 90.000000
_cell_angle_gamma 90.000000
_cell_volume 2445.956002
_symmetry_space_group_name_H-M "P C C M"
_symmetry_group_IT_number 49
_symmetry_cell_setting 'orthorhombic'
loop_
_space_group_symop_operation_xyz
x,y,z
-x,-y,z
x,-y,1/2-z
-x,y,1/2-z
-x,-y,-z
x,y,-z
-x,y,1/2+z
x,-y,1/2+z
loop_
_atom_site_type_symbol
_atom_site_label
_atom_site_fract_x
_atom_site_fract_y
_atom_site_fract_z
Si Si1 0.223314 0.442237 0.080861
Si Si2 0.791758 0.993944 0.334529
Si Si3 0.860536 0.250346 0.918774
Si Si4 0.409514 0.418755 0.823777
Si Si5 0.079909 0.802220 0.583394
Si Si6 0.587363 0.084498 0.323901
O O1 0.167230 0.587627 0.089352
O O2 0.318199 0.437111 0.127256
O O3 0.147935 0.326019 0.107666
O O4 0.255376 0.414103 0.000000
O O5 0.791570 0.833045 0.363614
O O6 0.804790 0.000000 0.250000
O O7 0.884785 0.062076 0.372464
O O8 0.691837 0.067732 0.361402
O O9 0.971393 0.235103 0.895509
O O10 0.844648 0.197230 0.000000
O O11 0.500000 0.500000 0.860401
O O12 0.388783 0.500000 0.750000
O O13 0.435092 0.251537 0.812977
O O14 0.088681 0.836476 0.500000
O O15 0.500000 0.000000 0.365464
O O16 0.597409 0.000000 0.250000
#
# Coordination Sequence:
#
# PCOD8204098 Si02
#       6
#     8   8   8   8   8   8
#     4  10  22  39  61  87 119 151 195 247 291 337
#     4  11  23  36  59  89 119 152 192 244 292 342
#     4  10  22  38  61  85 114 159 200 236 285 351
#     4  11  23  38  65  91 115 154 195 237 289 355
#     4  10  20  40  61  83 116 157 199 237 288 349
#     4  10  21  38  59  86 118 153 190 235 288 344
#
# _framework density 19.624229
#
# number of rings (size 3 to 8) (size 9 to 14) (size 15 to 20)
#    0.000    1.667    1.667    3.500    7.000    5.000 
#    0.000    0.000    0.000    5.500    0.000    0.000 
#    0.000    0.000    0.000    0.000    0.000    0.000 
#
# Total GULP energy -595019.625913 kJ/mol
# GULP energy per Si atom -12396.242207 kJ/mol
# Density = 1.957956 g / cm^3
# Si number density = 19.624229 Si / 1000 Ang^3
#
#
#
# Elastic Constant Matrix: (Units=GPa)
#
#
# Indices 1 2 3 4 5 6 
#
# 1 122.9496 48.4266 38.2364 0.0000 0.0000 0.0000
# 2 48.4266 86.1356 13.2322 0.0000 0.0000 0.0000
# 3 38.2364 13.2322 46.6505 0.0000 0.0000 0.0000
# 4 0.0000 0.0000 0.0000 28.5414 0.0000 0.0000
# 5 0.0000 0.0000 0.0000 0.0000 36.9528 0.0000
# 6 0.0000 0.0000 0.0000 0.0000 0.0000 37.9569
#
#
#
# Elastic Compliance Matrix: (Units=1/GPa)
#
#
# Indices 1 2 3 4 5 6 
#
# 1 0.013429 -0.006126 -0.009269 0.000000 0.000000 0.000000
# 2 -0.006126 0.014933 0.000785 0.000000 0.000000 0.000000
# 3 -0.009269 0.000785 0.028811 0.000000 0.000000 0.000000
# 4 0.000000 0.000000 0.000000 0.035037 0.000000 0.000000
# 5 0.000000 0.000000 0.000000 0.000000 0.027062 0.000000
# 6 0.000000 0.000000 0.000000 0.000000 0.000000 0.026346
#
#
# Mechanical properties :
#
#
# Convention : Reuss Voigt Hill
#
# Bulk Modulus (GPa) = 35.77437 50.61401 43.19419
# Shear Modulus (GPa) = 27.15118 31.07958 29.11538
#
# Velocity S-wave (km/s) = 3.72365 3.98393 3.85599
# Velocity P-wave (km/s) = 6.06273 6.85638 6.47173
#
# Compressibility (1/GPa) = 0.02795297
#
# Stress axis : x y z
#
# Youngs Moduli (GPa) = 74.46602 66.96551 34.70939
#
# Poissons Ratio (x) = 0.41023 0.32173
# Poissons Ratio (y) = 0.45618 -0.02726
# Poissons Ratio (z) = 0.69024 -0.05259
#
# Static dielectric constant tensor:
#      x y z
#    x 4.219090 0.000000 0.000000 
#    y 0.000000 3.834120 0.000000 
#    z 0.000000 0.000000 4.070850 
# 
# 
# High freq. dielectric constant tensor:
#      x y z
#    x 1.782940 0.000000 0.000000 
#    y 0.000000 1.785100 0.000000 
#    z 0.000000 0.000000 1.733430 
# 
# From -- ./inp_files/17687.got.cif
#   From: 2010.03.12/outbox.cif.g09.slc.cpg/sg49_9_cif.got.tgz:17687.got - 2010.04.14 03:58:27.
