data_PCOD8204054
_publ_section_title
;
Structure prediction by ZEFSAII (Michael W. Deem and Ramdas Pophale) SiO2 
 PCOD8204054
Probable space group: P C C M
;
_chemical_formula_sum "Si O2"
_cell_formula_units_Z 48
_cell_length_a 18.618016
_cell_length_b 13.857126
_cell_length_c 9.040693
_cell_angle_alpha 90.000000
_cell_angle_beta 90.000000
_cell_angle_gamma 90.000000
_cell_volume 2332.428219
_symmetry_space_group_name_H-M "P C C M"
_symmetry_group_IT_number 49
_symmetry_cell_setting 'orthorhombic'
loop_
_space_group_symop_operation_xyz
x,y,z
-x,-y,z
x,-y,1/2-z
-x,y,1/2-z
-x,-y,-z
x,y,-z
-x,y,1/2+z
x,-y,1/2+z
loop_
_atom_site_type_symbol
_atom_site_label
_atom_site_fract_x
_atom_site_fract_y
_atom_site_fract_z
Si Si1 0.789751 0.097833 0.172250
Si Si2 0.896440 0.592693 0.000000
Si Si3 0.302671 0.403781 0.333637
Si Si4 0.572424 0.289442 0.677638
Si Si5 0.061774 0.371203 0.500000
Si Si6 0.162385 0.699925 0.769138
Si Si7 0.379747 0.097767 0.327558
O O1 0.828384 0.185730 0.259394
O O2 0.705043 0.110137 0.190303
O O3 0.816484 0.000000 0.250000
O O4 0.812145 0.097628 0.000000
O O5 0.902984 0.477752 0.000000
O O6 0.847703 0.632149 0.870033
O O7 0.976492 0.634098 0.000000
O O8 0.278733 0.500000 0.250000
O O9 0.331878 0.423811 0.500000
O O10 0.362579 0.354730 0.232799
O O11 0.233816 0.334909 0.352898
O O12 0.500000 0.332739 0.750000
O O13 0.568911 0.290059 0.500000
O O14 0.581099 0.181695 0.738572
O O15 0.089209 0.314068 0.641069
O O16 0.402258 0.099563 0.500000
O O17 0.406040 0.000000 0.250000
#
# Coordination Sequence:
#
# PCOD8204054 Si02
#       7
#     8   4   8   8   4   8   8
#     4  10  21  38  63  94 129 168 216 273 329 385
#     4  11  26  38  67 101 136 178 224 263 327 405
#     4  12  25  43  67  96 130 169 219 271 325 389
#     4  12  26  44  66  93 130 173 217 270 332 392
#     4  11  22  46  63  97 140 180 216 269 331 393
#     4  12  23  40  68  98 135 174 220 276 330 387
#     4  10  20  38  62  93 129 168 215 271 332 392
#
# _framework density 20.579412000000001
#
# number of rings (size 3 to 8) (size 9 to 14) (size 15 to 20)
#    0.000    0.833    3.333    4.500    3.500    2.667 
#    0.000    3.333    0.000    3.000    0.000    0.000 
#    0.000    0.000    0.000    0.000    0.000    0.000 
#
# Total GULP energy -595184.535817 kJ/mol
# GULP energy per Si atom -12399.677830 kJ/mol
# Density = 2.053257 g / cm^3
# Si number density = 20.579412 Si / 1000 Ang^3
#
#
#
# Elastic Constant Matrix: (Units=GPa)
#
#
# Indices 1 2 3 4 5 6 
#
# 1 76.5520 32.4328 26.2684 0.0000 0.0000 0.0000
# 2 32.4328 109.5140 27.4745 0.0000 0.0000 0.0000
# 3 26.2684 27.4745 139.0887 0.0000 0.0000 0.0000
# 4 0.0000 0.0000 0.0000 37.1038 0.0000 0.0000
# 5 0.0000 0.0000 0.0000 0.0000 24.0690 0.0000
# 6 0.0000 0.0000 0.0000 0.0000 0.0000 27.1493
#
#
#
# Elastic Compliance Matrix: (Units=1/GPa)
#
#
# Indices 1 2 3 4 5 6 
#
# 1 0.015513 -0.004061 -0.002128 0.000000 0.000000 0.000000
# 2 -0.004061 0.010670 -0.001341 0.000000 0.000000 0.000000
# 3 -0.002128 -0.001341 0.007856 0.000000 0.000000 0.000000
# 4 0.000000 0.000000 0.000000 0.026951 0.000000 0.000000
# 5 0.000000 0.000000 0.000000 0.000000 0.041547 0.000000
# 6 0.000000 0.000000 0.000000 0.000000 0.000000 0.036833
#
#
# Mechanical properties :
#
#
# Convention : Reuss Voigt Hill
#
# Bulk Modulus (GPa) = 52.68232 55.27846 53.98039
# Shear Modulus (GPa) = 31.10272 33.59635 32.34954
#
# Velocity S-wave (km/s) = 3.89183 4.04483 3.96907
# Velocity P-wave (km/s) = 6.77128 6.98094 6.87691
#
# Compressibility (1/GPa) = 0.01898170
#
# Stress axis : x y z
#
# Youngs Moduli (GPa) = 64.46004 93.71919 127.28523
#
# Poissons Ratio (x) = 0.38055 0.27084
# Poissons Ratio (y) = 0.26174 0.17067
# Poissons Ratio (z) = 0.13716 0.12566
#
# Static dielectric constant tensor:
#      x y z
#    x 3.610200 0.000000 0.000000 
#    y 0.000000 3.849820 0.000000 
#    z 0.000000 0.000000 3.699410 
# 
# 
# High freq. dielectric constant tensor:
#      x y z
#    x 1.795560 0.000000 0.000000 
#    y 0.000000 1.809160 0.000000 
#    z 0.000000 0.000000 1.816170 
# 
# From -- ./inp_files/3749.got.cif
#   From: 2010.03.12/outbox.cif.g09.slc.cpg/sg49_2_cif.got.tgz:3749.got - 2010.04.14 03:58:27.
