data_PCOD8204073
_publ_section_title
;
Structure prediction by ZEFSAII (Michael W. Deem and Ramdas Pophale) SiO2 
 PCOD8204073
Probable space group: P C C M
;
_chemical_formula_sum "Si O2"
_cell_formula_units_Z 64
_cell_length_a 11.833154
_cell_length_b 9.107146
_cell_length_c 26.839062
_cell_angle_alpha 90.000000
_cell_angle_beta 90.000000
_cell_angle_gamma 90.000000
_cell_volume 2892.345364
_symmetry_space_group_name_H-M "P C C M"
_symmetry_group_IT_number 49
_symmetry_cell_setting 'orthorhombic'
loop_
_space_group_symop_operation_xyz
x,y,z
-x,-y,z
x,-y,1/2-z
-x,y,1/2-z
-x,-y,-z
x,y,-z
-x,y,1/2+z
x,-y,1/2+z
loop_
_atom_site_type_symbol
_atom_site_label
_atom_site_fract_x
_atom_site_fract_y
_atom_site_fract_z
Si Si1 0.116430 0.922372 0.445163
Si Si2 0.452211 0.836000 0.339188
Si Si3 0.637689 0.634198 0.286472
Si Si4 0.497108 0.826779 0.946551
Si Si5 0.167503 0.404325 0.360076
Si Si6 0.935455 0.278353 0.352505
Si Si7 0.762307 0.207142 0.944477
Si Si8 0.230349 0.150084 0.778865
O O1 0.157645 0.861014 0.500000
O O2 0.095411 0.798630 0.404382
O O3 0.205325 0.044285 0.423843
O O4 0.000000 0.000000 0.454673
O O5 0.525705 0.726007 0.303599
O O6 0.441948 0.772175 0.395801
O O7 0.326313 0.852691 0.320640
O O8 0.500000 0.000000 0.337875
O O9 0.601312 0.500000 0.250000
O O10 0.709240 0.585460 0.334380
O O11 0.733295 0.729914 0.260633
O O12 0.370494 0.771536 0.941912
O O13 0.500000 0.000000 0.948498
O O14 0.548527 0.767806 0.000000
O O15 0.121755 0.566197 0.359572
O O16 0.184274 0.342804 0.415348
O O17 0.068710 0.295779 0.338878
O O18 0.886686 0.190642 0.305340
O O19 0.811248 0.218345 0.000000
O O20 0.214513 0.000000 0.750000
#
# Coordination Sequence:
#
# PCOD8204073 Si02
#       8
#     8   8   8   8   8   8   8   8
#     4  10  21  38  62  98 130 164 218 278 331 391
#     4  11  23  41  71 101 135 170 220 285 333 402
#     4  12  25  47  69  96 132 175 225 281 340 394
#     4   9  19  35  61 100 135 172 211 260 339 408
#     4  11  24  46  65  96 132 178 229 275 335 412
#     4  11  26  44  67  92 136 182 222 277 342 402
#     4  10  20  38  67  98 134 172 218 274 332 407
#     4  12  27  44  66  98 132 173 231 281 340 400
#
# _framework density 22.127369999999999
#
# number of rings (size 3 to 8) (size 9 to 14) (size 15 to 20)
#    0.000    1.250    5.000    0.375    5.250    2.000 
#    0.000    1.875    0.000    0.000    0.000    2.625 
#    0.000    0.000    0.000    0.000    0.000    0.125 
#
# Total GULP energy -792889.011661 kJ/mol
# GULP energy per Si atom -12388.890807 kJ/mol
# Density = 2.207701 g / cm^3
# Si number density = 22.127370 Si / 1000 Ang^3
#
#
#
# Elastic Constant Matrix: (Units=GPa)
#
#
# Indices 1 2 3 4 5 6 
#
# 1 78.7568 26.4740 36.4389 0.0000 0.0000 0.0000
# 2 26.4740 91.1958 56.5767 0.0000 0.0000 0.0000
# 3 36.4389 56.5767 135.6214 0.0000 0.0000 0.0000
# 4 0.0000 0.0000 0.0000 45.9270 0.0000 0.0000
# 5 0.0000 0.0000 0.0000 0.0000 32.2223 0.0000
# 6 0.0000 0.0000 0.0000 0.0000 0.0000 28.7850
#
#
#
# Elastic Compliance Matrix: (Units=1/GPa)
#
#
# Indices 1 2 3 4 5 6 
#
# 1 0.014906 -0.002486 -0.002968 0.000000 0.000000 0.000000
# 2 -0.002486 0.015209 -0.005677 0.000000 0.000000 0.000000
# 3 -0.002968 -0.005677 0.010539 0.000000 0.000000 0.000000
# 4 0.000000 0.000000 0.000000 0.021774 0.000000 0.000000
# 5 0.000000 0.000000 0.000000 0.000000 0.031034 0.000000
# 6 0.000000 0.000000 0.000000 0.000000 0.000000 0.034740
#
#
# Mechanical properties :
#
#
# Convention : Reuss Voigt Hill
#
# Bulk Modulus (GPa) = 54.36900 60.50592 57.43746
# Shear Modulus (GPa) = 31.92958 33.79248 32.86103
#
# Velocity S-wave (km/s) = 3.80279 3.91215 3.85786
# Velocity P-wave (km/s) = 6.62615 6.91450 6.77186
#
# Compressibility (1/GPa) = 0.01839283
#
# Stress axis : x y z
#
# Youngs Moduli (GPa) = 67.08633 65.75121 94.88543
#
# Poissons Ratio (x) = 0.16346 0.28161
# Poissons Ratio (y) = 0.16677 0.53864
# Poissons Ratio (z) = 0.19911 0.37325
#
# Static dielectric constant tensor:
#      x y z
#    x 4.074860 0.000000 0.000000 
#    y 0.000000 3.725980 0.000000 
#    z 0.000000 0.000000 4.598850 
# 
# 
# High freq. dielectric constant tensor:
#      x y z
#    x 1.876900 0.000000 0.000000 
#    y 0.000000 1.851870 0.000000 
#    z 0.000000 0.000000 1.885360 
# 
# From -- ./inp_files/26689.got.cif
#   From: 2010.03.12/outbox.cif.g09.slc.cpg/sg49_14_cif.got.tgz:26689.got - 2010.04.14 03:58:27.
