data_PCOD8204470
_publ_section_title
;
Structure prediction by ZEFSAII (Michael W. Deem and Ramdas Pophale) SiO2 
 PCOD8204470
Probable space group: P C C M
;
_chemical_formula_sum "Si O2"
_cell_formula_units_Z 56
_cell_length_a 8.487911
_cell_length_b 20.516650
_cell_length_c 14.241586
_cell_angle_alpha 90.000000
_cell_angle_beta 90.000000
_cell_angle_gamma 90.000000
_cell_volume 2480.079620
_symmetry_space_group_name_H-M "P C C M"
_symmetry_group_IT_number 49
_symmetry_cell_setting 'orthorhombic'
loop_
_space_group_symop_operation_xyz
x,y,z
-x,-y,z
x,-y,1/2-z
-x,y,1/2-z
-x,-y,-z
x,y,-z
-x,y,1/2+z
x,-y,1/2+z
loop_
_atom_site_type_symbol
_atom_site_label
_atom_site_fract_x
_atom_site_fract_y
_atom_site_fract_z
Si Si1 0.290146 0.361106 0.203292
Si Si2 0.313755 0.883026 0.608782
Si Si3 0.826508 0.527678 0.896668
Si Si4 0.180208 0.775257 0.731341
Si Si5 0.827552 0.984017 0.610855
Si Si6 0.326749 0.851419 0.890200
Si Si7 0.388468 0.404288 0.609614
O O1 0.155097 0.412012 0.175443
O O2 0.258206 0.286194 0.176170
O O3 0.299735 0.357167 0.316880
O O4 0.431966 0.395551 0.144226
O O5 0.271081 0.876743 0.500000
O O6 0.192290 0.836904 0.662934
O O7 0.490063 0.861506 0.631064
O O8 0.289416 0.957777 0.641523
O O9 0.685773 0.476052 0.873137
O O10 0.000000 0.500000 0.894177
O O11 0.788237 0.554980 0.000000
O O12 0.267833 0.789939 0.830070
O O13 0.000000 0.758235 0.750000
O O14 0.833804 0.977724 0.500000
O O15 0.763827 0.915266 0.649043
O O16 0.000000 0.000000 0.652190
O O17 0.295667 0.837978 0.000000
O O18 0.368505 0.383476 0.500000
#
# Coordination Sequence:
#
# PCOD8204470 Si02
#       7
#     8   8   8   8   8   8   8
#     4  11  25  42  67  96 132 176 214 270 332 390
#     4  10  22  41  67  96 130 171 220 277 336 398
#     4  10  22  42  71 105 135 169 217 272 331 390
#     4  12  28  44  61  93 133 178 226 269 332 411
#     4   9  17  34  64  99 130 167 216 273 339 396
#     4  10  22  42  68  94 130 173 222 281 330 394
#     4  10  23  43  69  98 128 164 217 269 323 394
#
# _framework density 22.579920000000001
#
# number of rings (size 3 to 8) (size 9 to 14) (size 15 to 20)
#    0.000    1.714    0.000    3.000    6.000    8.571 
#    0.000    2.857    0.000    0.000    0.000    0.000 
#    0.000    0.000    0.000    0.000    0.000    0.000 
#
# Total GULP energy -693917.201072 kJ/mol
# GULP energy per Si atom -12391.378591 kJ/mol
# Density = 2.252853 g / cm^3
# Si number density = 22.579920 Si / 1000 Ang^3
#
#
#
# Elastic Constant Matrix: (Units=GPa)
#
#
# Indices 1 2 3 4 5 6 
#
# 1 100.0438 51.5536 29.9103 0.0000 0.0000 0.0000
# 2 51.5536 126.1002 30.5695 0.0000 0.0000 0.0000
# 3 29.9103 30.5695 89.8714 0.0000 0.0000 0.0000
# 4 0.0000 0.0000 0.0000 28.6443 0.0000 0.0000
# 5 0.0000 0.0000 0.0000 0.0000 29.2300 0.0000
# 6 0.0000 0.0000 0.0000 0.0000 0.0000 25.6466
#
#
#
# Elastic Compliance Matrix: (Units=1/GPa)
#
#
# Indices 1 2 3 4 5 6 
#
# 1 0.013282 -0.004750 -0.002805 0.000000 0.000000 0.000000
# 2 -0.004750 0.010342 -0.001937 0.000000 0.000000 0.000000
# 3 -0.002805 -0.001937 0.012719 0.000000 0.000000 0.000000
# 4 0.000000 0.000000 0.000000 0.034911 0.000000 0.000000
# 5 0.000000 0.000000 0.000000 0.000000 0.034211 0.000000
# 6 0.000000 0.000000 0.000000 0.000000 0.000000 0.038992
#
#
# Mechanical properties :
#
#
# Convention : Reuss Voigt Hill
#
# Bulk Modulus (GPa) = 57.60466 60.00913 58.80689
# Shear Modulus (GPa) = 29.54619 30.30299 29.92459
#
# Velocity S-wave (km/s) = 3.62127 3.66735 3.64438
# Velocity P-wave (km/s) = 6.56137 6.67582 6.61885
#
# Compressibility (1/GPa) = 0.01735971
#
# Stress axis : x y z
#
# Youngs Moduli (GPa) = 75.29029 96.69566 78.62112
#
# Poissons Ratio (x) = 0.45932 0.22050
# Poissons Ratio (y) = 0.35764 0.15227
# Poissons Ratio (z) = 0.21116 0.18728
#
# Static dielectric constant tensor:
#      x y z
#    x 4.083700 0.000000 0.000000 
#    y 0.000000 3.945260 0.000000 
#    z 0.000000 0.000000 4.202930 
# 
# 
# High freq. dielectric constant tensor:
#      x y z
#    x 1.892690 0.000000 0.000000 
#    y 0.000000 1.882190 0.000000 
#    z 0.000000 0.000000 1.896880 
# 
# From -- ./inp_files/12046.got.cif
#   From: 2010.03.12/outbox.cif.g09.slc.cpg/sg49_7_cif.got.tgz:12046.got - 2010.04.14 03:58:27.
