data_PCOD8204754
_publ_section_title
;
Structure prediction by ZEFSAII (Michael W. Deem and Ramdas Pophale) SiO2 
 PCOD8204754
Probable space group: P B A N
;
_chemical_formula_sum "Si O2"
_cell_formula_units_Z 54
_cell_length_a 26.651443
_cell_length_b 17.013345
_cell_length_c 6.635880
_cell_angle_alpha 90.000000
_cell_angle_beta 90.000000
_cell_angle_gamma 90.000000
_cell_volume 3008.908359
_symmetry_space_group_name_H-M "P B A N"
_symmetry_group_IT_number 50
_space_group.IT_coordinate_system_code '2'
_symmetry_cell_setting 'orthorhombic'
loop_
_space_group_symop_operation_xyz
x,y,z
1/2-x,1/2-y,z
x,1/2-y,-z
1/2-x,y,-z
-x,-y,-z
1/2+x,1/2+y,-z
-x,1/2+y,z
1/2+x,-y,z
loop_
_atom_site_type_symbol
_atom_site_label
_atom_site_fract_x
_atom_site_fract_y
_atom_site_fract_z
Si Si1 0.203481 0.531271 0.615020
Si Si2 0.962325 0.551633 0.135114
Si Si3 0.690051 0.886150 0.667136
Si Si4 0.418377 0.416334 0.739511
Si Si5 0.750000 0.974314 0.000000
Si Si6 0.996675 0.342514 0.524631
Si Si7 0.250000 0.250000 0.500000
Si Si8 0.407326 0.554932 0.459985
O O1 0.250000 0.574688 0.500000
O O2 0.199613 0.442533 0.525543
O O3 0.216419 0.527935 0.851640
O O4 0.150833 0.576612 0.584608
O O5 0.989334 0.622901 0.255059
O O6 0.930753 0.498235 0.285426
O O7 0.923115 0.589697 0.980181
O O8 0.000000 0.500000 0.000000
O O9 0.630967 0.867965 0.680248
O O10 0.715517 0.802436 0.642279
O O11 0.710644 0.923601 0.872455
O O12 0.468062 0.381655 0.640815
O O13 0.411574 0.507017 0.669392
O O14 0.002715 0.250000 0.500000
O O15 0.938881 0.364955 0.478128
#
# Coordination Sequence:
#
# PCOD8204754 Si02
#       8
#     8   8   8   8   4   8   2   8
#     4   9  18  34  53  77 103 129 182 231 264 316
#     4  11  18  36  59  81 104 149 191 221 266 336
#     4  10  21  33  51  71 103 142 182 225 264 316
#     4  10  20  37  56  78 104 148 192 223 266 331
#     4  10  16  35  48  76  98 133 182 232 260 308
#     4  11  23  36  53  83 118 139 176 231 288 335
#     4  12  20  38  44  64 110 144 174 222 274 316
#     4  10  19  35  58  79 109 144 181 229 273 328
#
# _framework density 17.946708000000001
#
# number of rings (size 3 to 8) (size 9 to 14) (size 15 to 20)
#    0.000    1.778    5.185    1.778    1.037    0.889 
#    0.000    1.481    0.000    0.444    0.000    0.000 
#    0.000    0.000    0.000    0.000    0.000    0.000 
#
# Total GULP energy -669385.198489 kJ/mol
# GULP energy per Si atom -12396.022194 kJ/mol
# Density = 1.790586 g / cm^3
# Si number density = 17.946708 Si / 1000 Ang^3
#
#
#
# Elastic Constant Matrix: (Units=GPa)
#
#
# Indices 1 2 3 4 5 6 
#
# 1 134.0025 17.7287 32.1016 0.0000 0.0000 0.0000
# 2 17.7287 37.9548 15.1319 0.0000 0.0000 0.0000
# 3 32.1016 15.1319 114.5989 0.0000 0.0000 0.0000
# 4 0.0000 0.0000 0.0000 13.7620 0.0000 0.0000
# 5 0.0000 0.0000 0.0000 0.0000 25.6678 0.0000
# 6 0.0000 0.0000 0.0000 0.0000 0.0000 25.0484
#
#
#
# Elastic Compliance Matrix: (Units=1/GPa)
#
#
# Indices 1 2 3 4 5 6 
#
# 1 0.008337 -0.003128 -0.001922 0.000000 0.000000 0.000000
# 2 -0.003128 0.028985 -0.002951 0.000000 0.000000 0.000000
# 3 -0.001922 -0.002951 0.009654 0.000000 0.000000 0.000000
# 4 0.000000 0.000000 0.000000 0.072664 0.000000 0.000000
# 5 0.000000 0.000000 0.000000 0.000000 0.038959 0.000000
# 6 0.000000 0.000000 0.000000 0.000000 0.000000 0.039923
#
#
# Mechanical properties :
#
#
# Convention : Reuss Voigt Hill
#
# Bulk Modulus (GPa) = 32.28569 46.27559 39.28064
# Shear Modulus (GPa) = 22.23722 27.66859 24.95291
#
# Velocity S-wave (km/s) = 3.52386 3.93072 3.73284
# Velocity P-wave (km/s) = 5.88095 6.81482 6.36503
#
# Compressibility (1/GPa) = 0.03097347
#
# Stress axis : x y z
#
# Youngs Moduli (GPa) = 119.94916 34.50107 103.58145
#
# Poissons Ratio (x) = 0.10791 0.19912
# Poissons Ratio (y) = 0.37517 0.30567
# Poissons Ratio (z) = 0.23058 0.10181
#
# Static dielectric constant tensor:
#      x y z
#    x 3.708840 0.000000 0.000000 
#    y 0.000000 2.864590 0.000000 
#    z 0.000000 0.000000 3.550360 
# 
# 
# High freq. dielectric constant tensor:
#      x y z
#    x 1.717050 0.000000 0.000000 
#    y 0.000000 1.633190 0.000000 
#    z 0.000000 0.000000 1.705300 
# 
# From -- ./inp_files/7237.got.cif
#   From: 2010.03.12/outbox.cif.g09.slc.cpg/sg50_4_cif.got.tgz:7237.got - 2010.04.16 13:23:21.
