data_PCOD8204537
_publ_section_title
;
Structure prediction by ZEFSAII (Michael W. Deem and Ramdas Pophale) SiO2 
 PCOD8204537
Probable space group: P C C M
;
_chemical_formula_sum "Si O2"
_cell_formula_units_Z 56
_cell_length_a 15.237947
_cell_length_b 19.950194
_cell_length_c 9.261058
_cell_angle_alpha 90.000000
_cell_angle_beta 90.000000
_cell_angle_gamma 90.000000
_cell_volume 2815.361621
_symmetry_space_group_name_H-M "P C C M"
_symmetry_group_IT_number 49
_symmetry_cell_setting 'orthorhombic'
loop_
_space_group_symop_operation_xyz
x,y,z
-x,-y,z
x,-y,1/2-z
-x,y,1/2-z
-x,-y,-z
x,y,-z
-x,y,1/2+z
x,-y,1/2+z
loop_
_atom_site_type_symbol
_atom_site_label
_atom_site_fract_x
_atom_site_fract_y
_atom_site_fract_z
Si Si1 0.270459 0.566131 0.331453
Si Si2 0.915874 0.622954 0.829667
Si Si3 0.870476 0.750445 0.661525
Si Si4 0.413780 0.676182 0.670234
Si Si5 0.082063 0.900079 0.163871
Si Si6 0.274161 0.935673 0.829692
Si Si7 0.328229 0.209423 0.334123
O O1 0.302780 0.500000 0.250000
O O2 0.275019 0.551279 0.500000
O O3 0.171591 0.583647 0.282508
O O4 0.333940 0.627107 0.289269
O O5 0.908197 0.699979 0.780181
O O6 0.000000 0.589655 0.750000
O O7 0.930313 0.620924 0.000000
O O8 0.884853 0.720904 0.500000
O O9 0.921200 0.819951 0.677240
O O10 0.768248 0.761759 0.689611
O O11 0.500000 0.648054 0.750000
O O12 0.430178 0.679893 0.500000
O O13 0.393728 0.750588 0.729837
O O14 0.174197 0.926868 0.226920
O O15 0.000000 0.931167 0.250000
O O16 0.072061 0.923277 0.000000
O O17 0.330123 0.869272 0.791293
O O18 0.316277 0.000000 0.750000
O O19 0.274897 0.947182 0.000000
O O20 0.357953 0.218871 0.500000
#
# Coordination Sequence:
#
# PCOD8204537 Si02
#       7
#     8   8   8   8   8   8   8
#     4  10  24  43  62  86 121 158 197 241 289 346
#     4  11  22  36  54  82 116 153 199 247 290 341
#     4   9  17  31  52  77 106 145 190 238 293 344
#     4  11  23  41  65  96 124 151 191 237 289 352
#     4   9  18  30  43  66 101 140 187 240 288 341
#     4   9  19  34  51  75 108 147 193 236 286 347
#     4   9  18  35  59  85 115 151 190 237 290 346
#
# _framework density 19.890872999999999
#
# number of rings (size 3 to 8) (size 9 to 14) (size 15 to 20)
#    0.000    2.286    1.429    3.000    0.000    6.000 
#    0.000    7.143    0.000    0.429    0.000    3.000 
#    0.000    0.000    0.000    0.000    0.000    0.000 
#
# Total GULP energy -694403.500802 kJ/mol
# GULP energy per Si atom -12400.062514 kJ/mol
# Density = 1.984560 g / cm^3
# Si number density = 19.890873 Si / 1000 Ang^3
#
#
#
# Elastic Constant Matrix: (Units=GPa)
#
#
# Indices 1 2 3 4 5 6 
#
# 1 90.8312 35.8594 47.1023 0.0000 0.0000 0.0000
# 2 35.8594 106.4330 48.8767 0.0000 0.0000 0.0000
# 3 47.1023 48.8767 80.8690 0.0000 0.0000 0.0000
# 4 0.0000 0.0000 0.0000 33.4832 0.0000 0.0000
# 5 0.0000 0.0000 0.0000 0.0000 28.8698 0.0000
# 6 0.0000 0.0000 0.0000 0.0000 0.0000 6.9097
#
#
#
# Elastic Compliance Matrix: (Units=1/GPa)
#
#
# Indices 1 2 3 4 5 6 
#
# 1 0.015953 -0.001533 -0.008365 0.000000 0.000000 0.000000
# 2 -0.001533 0.013153 -0.007056 0.000000 0.000000 0.000000
# 3 -0.008365 -0.007056 0.021502 0.000000 0.000000 0.000000
# 4 0.000000 0.000000 0.000000 0.029866 0.000000 0.000000
# 5 0.000000 0.000000 0.000000 0.000000 0.034638 0.000000
# 6 0.000000 0.000000 0.000000 0.000000 0.000000 0.144725
#
#
# Mechanical properties :
#
#
# Convention : Reuss Voigt Hill
#
# Bulk Modulus (GPa) = 59.88454 60.20111 60.04282
# Shear Modulus (GPa) = 16.70501 23.60551 20.15526
#
# Velocity S-wave (km/s) = 2.90113 3.44866 3.18668
# Velocity P-wave (km/s) = 6.43382 6.79626 6.61752
#
# Compressibility (1/GPa) = 0.01669880
#
# Stress axis : x y z
#
# Youngs Moduli (GPa) = 62.68601 76.03058 46.50623
#
# Poissons Ratio (x) = 0.11658 0.38902
# Poissons Ratio (y) = 0.09612 0.32816
# Poissons Ratio (z) = 0.52436 0.53649
#
# Static dielectric constant tensor:
#      x y z
#    x 3.549940 0.000000 0.000000 
#    y 0.000000 3.517570 0.000000 
#    z 0.000000 0.000000 3.468540 
# 
# 
# High freq. dielectric constant tensor:
#      x y z
#    x 1.762820 0.000000 0.000000 
#    y 0.000000 1.770770 0.000000 
#    z 0.000000 0.000000 1.769450 
# 
# From -- ./inp_files/4075.got.cif
#   From: 2010.03.12/outbox.cif.g09.slc.cpg/sg49_3_cif.got.tgz:4075.got - 2010.04.14 03:58:27.
