data_PCOD8204774
_publ_section_title
;
Structure prediction by ZEFSAII (Michael W. Deem and Ramdas Pophale) SiO2 
 PCOD8204774
Probable space group: P B A N
;
_chemical_formula_sum "Si O2"
_cell_formula_units_Z 64
_cell_length_a 21.149577
_cell_length_b 29.705616
_cell_length_c 5.087396
_cell_angle_alpha 90.000000
_cell_angle_beta 90.000000
_cell_angle_gamma 90.000000
_cell_volume 3196.213582
_symmetry_space_group_name_H-M "P B A N"
_symmetry_group_IT_number 50
_space_group.IT_coordinate_system_code '2'
_symmetry_cell_setting 'orthorhombic'
loop_
_space_group_symop_operation_xyz
x,y,z
1/2-x,1/2-y,z
x,1/2-y,-z
1/2-x,y,-z
-x,-y,-z
1/2+x,1/2+y,-z
-x,1/2+y,z
1/2+x,-y,z
loop_
_atom_site_type_symbol
_atom_site_label
_atom_site_fract_x
_atom_site_fract_y
_atom_site_fract_z
Si Si1 0.824744 0.334487 0.533347
Si Si2 0.120760 0.087589 0.051245
Si Si3 0.174829 0.508265 0.011135
Si Si4 0.824101 0.435226 0.489485
Si Si5 0.920004 0.697869 0.454284
Si Si6 0.891303 0.301298 0.031134
Si Si7 0.322981 0.129756 0.448075
Si Si8 0.477707 0.156794 0.045516
O O1 0.750000 0.332783 0.500000
O O2 0.852757 0.385252 0.514303
O O3 0.859241 0.304759 0.314684
O O4 0.838917 0.313313 0.815978
O O5 0.129408 0.034786 0.005045
O O6 0.140863 0.096622 0.351244
O O7 0.048460 0.105463 0.000029
O O8 0.166017 0.114278 0.850246
O O9 0.155287 0.542534 0.782876
O O10 0.250000 0.495561 0.000000
O O11 0.154170 0.532287 0.278005
O O12 0.750000 0.429222 0.500000
O O13 0.923265 0.750000 0.500000
O O14 0.848959 0.680219 0.507770
O O15 0.939309 0.688568 0.154789
O O16 0.966558 0.672004 0.654405
O O17 0.916149 0.250000 0.000000
O O18 0.948031 0.337224 0.993020
O O19 0.250000 0.128614 0.500000
#
# Coordination Sequence:
#
# PCOD8204774 Si02
#       8
#     8   8   8   8   8   8   8   8
#     4  11  24  42  62  88 121 145 169 218 285 342
#     4  10  20  33  52  77 111 148 183 237 280 314
#     4  10  17  29  54  83 109 144 192 230 266 320
#     4   9  19  34  54  81 112 147 179 216 269 332
#     4  10  19  33  52  71 100 141 186 236 276 325
#     4  12  24  39  64  88 111 148 188 227 267 330
#     4  10  19  30  45  71 106 142 181 230 293 335
#     4  10  22  38  55  79 109 144 187 229 277 320
#
# _framework density 20.023695
#
# number of rings (size 3 to 8) (size 9 to 14) (size 15 to 20)
#    0.000    1.750    0.000    5.250    0.000    4.750 
#    0.000    0.000    0.000    9.000    0.000    0.000 
#    0.000    0.000    0.000    0.000    0.000    0.000 
#
# Total GULP energy -793548.653044 kJ/mol
# GULP energy per Si atom -12399.197704 kJ/mol
# Density = 1.997812 g / cm^3
# Si number density = 20.023695 Si / 1000 Ang^3
#
#
#
# Elastic Constant Matrix: (Units=GPa)
#
#
# Indices 1 2 3 4 5 6 
#
# 1 63.2861 30.2840 -2.4356 0.0000 0.0000 0.0000
# 2 30.2840 89.6504 11.0535 0.0000 0.0000 0.0000
# 3 -2.4356 11.0535 72.8999 0.0000 0.0000 0.0000
# 4 0.0000 0.0000 0.0000 34.3042 0.0000 0.0000
# 5 0.0000 0.0000 0.0000 0.0000 18.0596 0.0000
# 6 0.0000 0.0000 0.0000 0.0000 0.0000 23.5177
#
#
#
# Elastic Compliance Matrix: (Units=1/GPa)
#
#
# Indices 1 2 3 4 5 6 
#
# 1 0.019039 -0.006634 0.001642 0.000000 0.000000 0.000000
# 2 -0.006634 0.013678 -0.002296 0.000000 0.000000 0.000000
# 3 0.001642 -0.002296 0.014120 0.000000 0.000000 0.000000
# 4 0.000000 0.000000 0.000000 0.029151 0.000000 0.000000
# 5 0.000000 0.000000 0.000000 0.000000 0.055372 0.000000
# 6 0.000000 0.000000 0.000000 0.000000 0.000000 0.042521
#
#
# Mechanical properties :
#
#
# Convention : Reuss Voigt Hill
#
# Bulk Modulus (GPa) = 30.99556 33.73780 32.36668
# Shear Modulus (GPa) = 25.09898 27.63859 26.36878
#
# Velocity S-wave (km/s) = 3.54427 3.71926 3.63282
# Velocity P-wave (km/s) = 5.67998 5.94385 5.81341
#
# Compressibility (1/GPa) = 0.03226268
#
# Stress axis : x y z
#
# Youngs Moduli (GPa) = 52.52405 73.10809 70.81965
#
# Poissons Ratio (x) = 0.48498 -0.11628
# Poissons Ratio (y) = 0.34843 0.16258
# Poissons Ratio (z) = -0.08624 0.16783
#
# Static dielectric constant tensor:
#      x y z
#    x 3.434210 0.000000 0.000000 
#    y 0.000000 3.723940 0.000000 
#    z 0.000000 0.000000 3.735420 
# 
# 
# High freq. dielectric constant tensor:
#      x y z
#    x 1.751340 0.000000 0.000000 
#    y 0.000000 1.777770 0.000000 
#    z 0.000000 0.000000 1.805500 
# 
# From -- ./inp_files/5542.got.cif
#   From: 2010.03.12/outbox.cif.g09.slc.cpg/sg50_3_cif.got.tgz:5542.got - 2010.04.16 13:23:21.
