data_PCOD8204257
_publ_section_title
;
Structure prediction by ZEFSAII (Michael W. Deem and Ramdas Pophale) SiO2 
 PCOD8204257
Probable space group: P C C M
;
_chemical_formula_sum "Si O2"
_cell_formula_units_Z 32
_cell_length_a 13.653420
_cell_length_b 13.679304
_cell_length_c 8.684712
_cell_angle_alpha 90.000000
_cell_angle_beta 90.000000
_cell_angle_gamma 90.000000
_cell_volume 1622.037432
_symmetry_space_group_name_H-M "P C C M"
_symmetry_group_IT_number 49
_symmetry_cell_setting 'orthorhombic'
loop_
_space_group_symop_operation_xyz
x,y,z
-x,-y,z
x,-y,1/2-z
-x,y,1/2-z
-x,-y,-z
x,y,-z
-x,y,1/2+z
x,-y,1/2+z
loop_
_atom_site_type_symbol
_atom_site_label
_atom_site_fract_x
_atom_site_fract_y
_atom_site_fract_z
Si Si1 0.396538 0.210626 0.182921
Si Si2 0.783691 0.897572 0.317700
Si Si3 0.297175 0.604691 0.183001
Si Si4 0.102905 0.708153 0.820567
O O1 0.500000 0.176263 0.250000
O O2 0.318357 0.131090 0.239381
O O3 0.372849 0.317973 0.247736
O O4 0.399018 0.213366 0.000000
O O5 0.768111 0.902740 0.500000
O O6 0.866250 0.818038 0.273210
O O7 0.820733 0.000000 0.250000
O O8 0.324913 0.500000 0.250000
O O9 0.187073 0.633416 0.235596
O O10 0.307599 0.605998 0.000000
O O11 0.000000 0.677315 0.750000
O O12 0.090153 0.699812 0.000000
#
# Coordination Sequence:
#
# PCOD8204257 Si02
#       4
#     8   8   8   8
#     4  11  22  38  59  83 111 145 181 225 274 326
#     4  10  21  38  57  82 112 145 184 228 273 324
#     4  10  21  38  57  82 112 145 184 228 273 324
#     4   9  20  36  55  79 111 145 183 227 272 322
#
# _framework density 19.728276000000001
#
# number of rings (size 3 to 8) (size 9 to 14) (size 15 to 20)
#    0.000    2.000    0.000    5.250    0.000    8.000 
#    0.000   10.000    0.000    0.000    0.000    0.000 
#    0.000    0.000    0.000    0.000    0.000    0.000 
#
# Total GULP energy -396884.226065 kJ/mol
# GULP energy per Si atom -12402.632065 kJ/mol
# Density = 1.968337 g / cm^3
# Si number density = 19.728276 Si / 1000 Ang^3
#
#
#
# Elastic Constant Matrix: (Units=GPa)
#
#
# Indices 1 2 3 4 5 6 
#
# 1 57.8222 -31.2661 10.6704 0.0000 0.0000 0.0000
# 2 -31.2661 56.5584 8.4853 0.0000 0.0000 0.0000
# 3 10.6704 8.4853 97.5001 0.0000 0.0000 0.0000
# 4 0.0000 0.0000 0.0000 8.2581 0.0000 0.0000
# 5 0.0000 0.0000 0.0000 0.0000 35.0580 0.0000
# 6 0.0000 0.0000 0.0000 0.0000 0.0000 13.9424
#
#
#
# Elastic Compliance Matrix: (Units=1/GPa)
#
#
# Indices 1 2 3 4 5 6 
#
# 1 0.026257 0.015144 -0.004191 0.000000 0.000000 0.000000
# 2 0.015144 0.026649 -0.003977 0.000000 0.000000 0.000000
# 3 -0.004191 -0.003977 0.011061 0.000000 0.000000 0.000000
# 4 0.000000 0.000000 0.000000 0.121093 0.000000 0.000000
# 5 0.000000 0.000000 0.000000 0.000000 0.028524 0.000000
# 6 0.000000 0.000000 0.000000 0.000000 0.000000 0.071724
#
#
# Mechanical properties :
#
#
# Convention : Reuss Voigt Hill
#
# Bulk Modulus (GPa) = 12.83395 20.85109 16.84252
# Shear Modulus (GPa) = 16.81640 26.38445 21.60043
#
# Velocity S-wave (km/s) = 2.92276 3.66101 3.31251
# Velocity P-wave (km/s) = 4.23196 5.33504 4.81519
#
# Compressibility (1/GPa) = 0.07791831
#
# Stress axis : x y z
#
# Youngs Moduli (GPa) = 38.08573 37.52475 90.40626
#
# Poissons Ratio (x) = -0.56827 0.37893
# Poissons Ratio (y) = -0.57676 0.35951
# Poissons Ratio (z) = 0.15963 0.14922
#
# Static dielectric constant tensor:
#      x y z
#    x 4.081810 0.000000 0.000000 
#    y 0.000000 3.419940 0.000000 
#    z 0.000000 0.000000 3.592600 
# 
# 
# High freq. dielectric constant tensor:
#      x y z
#    x 1.767330 0.000000 0.000000 
#    y 0.000000 1.768850 0.000000 
#    z 0.000000 0.000000 1.778990 
# 
# From -- ./inp_files/2464.got.cif
#   From: 2010.03.12/outbox.cif.g09.slc.cpg/sg49_2_cif.got.tgz:2464.got - 2010.04.14 03:58:27.
