data_PCOD8204053
_publ_section_title
;
Structure prediction by ZEFSAII (Michael W. Deem and Ramdas Pophale) SiO2 
 PCOD8204053
Probable space group: P C C M
;
_chemical_formula_sum "Si O2"
_cell_formula_units_Z 48
_cell_length_a 15.207460
_cell_length_b 18.527629
_cell_length_c 8.540251
_cell_angle_alpha 90.000000
_cell_angle_beta 90.000000
_cell_angle_gamma 90.000000
_cell_volume 2406.285552
_symmetry_space_group_name_H-M "P C C M"
_symmetry_group_IT_number 49
_symmetry_cell_setting 'orthorhombic'
loop_
_space_group_symop_operation_xyz
x,y,z
-x,-y,z
x,-y,1/2-z
-x,y,1/2-z
-x,-y,-z
x,y,-z
-x,y,1/2+z
x,-y,1/2+z
loop_
_atom_site_type_symbol
_atom_site_label
_atom_site_fract_x
_atom_site_fract_y
_atom_site_fract_z
Si Si1 0.404559 0.344735 0.814706
Si Si2 0.907118 0.678770 0.814161
Si Si3 0.265736 0.079332 0.813805
Si Si4 0.909119 0.843551 0.183900
Si Si5 0.758301 0.576860 0.315150
Si Si6 0.595010 0.809780 0.685215
O O1 0.500000 0.365749 0.750000
O O2 0.336114 0.404471 0.757900
O O3 0.373453 0.266682 0.753731
O O4 0.408081 0.342801 0.000000
O O5 0.894807 0.761477 0.759423
O O6 0.829449 0.635455 0.734121
O O7 0.000000 0.649109 0.750000
O O8 0.902444 0.669507 0.000000
O O9 0.170768 0.107294 0.755619
O O10 0.338699 0.129063 0.737321
O O11 0.281110 0.000000 0.750000
O O12 0.274490 0.081768 0.000000
O O13 0.000000 0.875646 0.250000
O O14 0.915144 0.845822 0.000000
O O15 0.789436 0.500000 0.250000
O O16 0.749887 0.574140 0.500000
O O17 0.500000 0.831254 0.750000
O O18 0.590737 0.803521 0.500000
#
# Coordination Sequence:
#
# PCOD8204053 Si02
#       6
#     8   8   8   8   8   8
#     4  11  22  40  64  91 120 154 195 242 290 345
#     4  10  20  38  62  89 117 152 195 245 297 351
#     4  11  23  39  57  84 119 157 196 241 293 350
#     4   9  20  37  60  85 114 149 191 239 289 341
#     4  12  25  41  60  87 120 158 198 242 295 353
#     4  11  22  39  63  90 117 152 194 241 291 346
#
# _framework density 19.947758
#
# number of rings (size 3 to 8) (size 9 to 14) (size 15 to 20)
#    0.000    1.333    0.000    7.500    0.000    4.667 
#    0.000    6.667    0.000    0.000    0.000    0.000 
#    0.000    0.000    0.000    0.000    0.000    0.000 
#
# Total GULP energy -595470.314821 kJ/mol
# GULP energy per Si atom -12405.631559 kJ/mol
# Density = 1.990236 g / cm^3
# Si number density = 19.947758 Si / 1000 Ang^3
#
#
#
# Elastic Constant Matrix: (Units=GPa)
#
#
# Indices 1 2 3 4 5 6 
#
# 1 72.3196 0.3266 34.0134 0.0000 0.0000 0.0000
# 2 0.3266 17.8561 20.2095 0.0000 0.0000 0.0000
# 3 34.0134 20.2095 142.5323 0.0000 0.0000 0.0000
# 4 0.0000 0.0000 0.0000 31.3670 0.0000 0.0000
# 5 0.0000 0.0000 0.0000 0.0000 37.3871 0.0000
# 6 0.0000 0.0000 0.0000 0.0000 0.0000 -10.6816
#
#
#
# Elastic Compliance Matrix: (Units=1/GPa)
#
#
# Indices 1 2 3 4 5 6 
#
# 1 0.015910 0.004772 -0.004473 0.000000 0.000000 0.000000
# 2 0.004772 0.068140 -0.010800 0.000000 0.000000 0.000000
# 3 -0.004473 -0.010800 0.009615 0.000000 0.000000 0.000000
# 4 0.000000 0.000000 0.000000 0.031881 0.000000 0.000000
# 5 0.000000 0.000000 0.000000 0.000000 0.026747 0.000000
# 6 0.000000 0.000000 0.000000 0.000000 0.000000 -0.093619
#
#
# Mechanical properties :
#
#
# Convention : Reuss Voigt Hill
#
# Bulk Modulus (GPa) = 13.76254 37.97855 25.87054
# Shear Modulus (GPa) = 48.12459 23.49173 35.80816
#
# Velocity S-wave (km/s) = 4.91708 3.43543 4.24146
# Velocity P-wave (km/s) = 6.25709 5.90056 6.08144
#
# Compressibility (1/GPa) = 0.07266102
#
# Stress axis : x y z
#
# Youngs Moduli (GPa) = 62.85420 14.67576 104.00651
#
# Poissons Ratio (x) = -0.07003 0.46525
# Poissons Ratio (y) = -0.29993 1.12329
# Poissons Ratio (z) = 0.28116 0.15850
#
# Static dielectric constant tensor:
#      x y z
#    x 3.953420 0.000000 0.000000 
#    y 0.000000 3.703140 0.000000 
#    z 0.000000 0.000000 3.753010 
# 
# 
# High freq. dielectric constant tensor:
#      x y z
#    x 1.792790 0.000000 0.000000 
#    y 0.000000 1.774850 0.000000 
#    z 0.000000 0.000000 1.794170 
# 
# From -- ./inp_files/3707.got.cif
#   From: 2010.03.12/outbox.cif.g09.slc.cpg/sg49_2_cif.got.tgz:3707.got - 2010.04.14 03:58:27.
