data_PCOD8204809
_publ_section_title
;
Structure prediction by ZEFSAII (Michael W. Deem and Ramdas Pophale) SiO2 
 PCOD8204809
Probable space group: P B A N
;
_chemical_formula_sum "Si O2"
_cell_formula_units_Z 56
_cell_length_a 8.608780
_cell_length_b 18.973253
_cell_length_c 18.134839
_cell_angle_alpha 90.000000
_cell_angle_beta 90.000000
_cell_angle_gamma 90.000000
_cell_volume 2962.082236
_symmetry_space_group_name_H-M "P B A N"
_symmetry_group_IT_number 50
_space_group.IT_coordinate_system_code '2'
_symmetry_cell_setting 'orthorhombic'
loop_
_space_group_symop_operation_xyz
x,y,z
1/2-x,1/2-y,z
x,1/2-y,-z
1/2-x,y,-z
-x,-y,-z
1/2+x,1/2+y,-z
-x,1/2+y,z
1/2+x,-y,z
loop_
_atom_site_type_symbol
_atom_site_label
_atom_site_fract_x
_atom_site_fract_y
_atom_site_fract_z
Si Si1 0.066146 0.425285 0.917272
Si Si2 0.434427 0.077993 0.650032
Si Si3 0.934743 0.671125 0.786624
Si Si4 0.433854 0.074715 0.082729
Si Si5 0.565258 0.671124 0.786625
Si Si6 0.434427 0.077995 0.349969
Si Si7 0.434425 0.578332 0.500000
O O1 0.250000 0.430324 0.914146
O O2 0.004000 0.365681 0.861487
O O3 1.000000 0.500000 0.891197
O O4 0.008802 0.406481 0.000001
O O5 0.493552 0.127124 0.716371
O O6 0.250000 0.073715 0.645514
O O7 0.500468 0.113811 0.574810
O O8 0.499996 0.999998 0.662891
O O9 0.996001 0.634318 0.861485
O O10 0.750000 0.673688 0.786804
O O11 0.003954 0.750001 0.783157
O O12 0.993551 0.627128 0.716368
O O13 0.500462 0.113812 0.425193
O O14 0.250000 0.579290 0.500000
O O15 0.500000 0.500000 0.500000
#
# Coordination Sequence:
#
# PCOD8204809 Si02
#       7
#     8   8   8   8   8   8   8
#     4   9  17  30  50  74  98 125 158 197 238 279
#     4  10  18  30  50  72  95 123 157 197 238 281
#     4   9  18  31  47  70  98 127 161 198 234 276
#     4   9  17  30  50  74  98 125 158 197 238 279
#     4   9  18  31  47  70  98 127 161 198 234 276
#     4  10  18  30  50  72  95 123 157 197 238 281
#     4  10  18  30  49  72  97 121 153 197 239 282
#
# _framework density 18.905619999999999
#
# number of rings (size 3 to 8) (size 9 to 14) (size 15 to 20)
#    0.000    2.571    0.000    4.714    0.000    0.571 
#    0.000    5.000    0.000   12.000    0.000    4.000 
#    0.000    0.000    0.000    0.000    0.000    0.000 
#
# Total GULP energy -694207.055453 kJ/mol
# GULP energy per Si atom -12396.554562 kJ/mol
# Density = 1.886259 g / cm^3
# Si number density = 18.905620 Si / 1000 Ang^3
#
#
#
# Elastic Constant Matrix: (Units=GPa)
#
#
# Indices 1 2 3 4 5 6 
#
# 1 54.9325 20.8259 29.7754 0.0000 0.0000 0.0000
# 2 20.8259 133.1022 99.4846 0.0000 0.0000 0.0000
# 3 29.7754 99.4846 183.6764 0.0000 0.0000 0.0000
# 4 0.0000 0.0000 0.0000 12.8775 0.0000 0.0000
# 5 0.0000 0.0000 0.0000 0.0000 21.0259 0.0000
# 6 0.0000 0.0000 0.0000 0.0000 0.0000 18.7056
#
#
#
# Elastic Compliance Matrix: (Units=1/GPa)
#
#
# Indices 1 2 3 4 5 6 
#
# 1 0.020069 -0.001190 -0.002609 0.000000 0.000000 0.000000
# 2 -0.001190 0.012694 -0.006682 0.000000 0.000000 0.000000
# 3 -0.002609 -0.006682 0.009487 0.000000 0.000000 0.000000
# 4 0.000000 0.000000 0.000000 0.077655 0.000000 0.000000
# 5 0.000000 0.000000 0.000000 0.000000 0.047560 0.000000
# 6 0.000000 0.000000 0.000000 0.000000 0.000000 0.053460
#
#
# Mechanical properties :
#
#
# Convention : Reuss Voigt Hill
#
# Bulk Modulus (GPa) = 46.97691 74.65367 60.81529
# Shear Modulus (GPa) = 20.08162 25.29681 22.68922
#
# Velocity S-wave (km/s) = 3.26268 3.66192 3.46805
# Velocity P-wave (km/s) = 6.25264 7.57976 6.94796
#
# Compressibility (1/GPa) = 0.02128705
#
# Stress axis : x y z
#
# Youngs Moduli (GPa) = 49.82700 78.77780 105.41119
#
# Poissons Ratio (x) = 0.09377 0.27498
# Poissons Ratio (y) = 0.05931 0.70440
# Poissons Ratio (z) = 0.12998 0.52643
#
# Static dielectric constant tensor:
#      x y z
#    x 3.195290 0.000000 0.000000 
#    y 0.000000 3.614110 0.000000 
#    z 0.000000 0.000000 4.200160 
# 
# 
# High freq. dielectric constant tensor:
#      x y z
#    x 1.710240 0.000000 0.000000 
#    y 0.000000 1.707760 0.000000 
#    z 0.000000 0.000000 1.758930 
# 
# From -- ./inp_files/28922.got.cif
#   From: 2010.03.12/outbox.cif.g09.slc.cpg/sg50_15_cif.got.tgz:28922.got - 2010.04.16 13:23:21.
