data_PCOD8204601
_publ_section_title
;
Structure prediction by ZEFSAII (Michael W. Deem and Ramdas Pophale) SiO2 
 PCOD8204601
Probable space group: P C C M
;
_chemical_formula_sum "Si O2"
_cell_formula_units_Z 40
_cell_length_a 6.886886
_cell_length_b 8.466729
_cell_length_c 30.935205
_cell_angle_alpha 90.000000
_cell_angle_beta 90.000000
_cell_angle_gamma 90.000000
_cell_volume 1803.813162
_symmetry_space_group_name_H-M "P C C M"
_symmetry_group_IT_number 49
_symmetry_cell_setting 'orthorhombic'
loop_
_space_group_symop_operation_xyz
x,y,z
-x,-y,z
x,-y,1/2-z
-x,y,1/2-z
-x,-y,-z
x,y,-z
-x,y,1/2+z
x,-y,1/2+z
loop_
_atom_site_type_symbol
_atom_site_label
_atom_site_fract_x
_atom_site_fract_y
_atom_site_fract_z
Si Si1 0.799232 0.156112 0.377195
Si Si2 0.117057 0.353886 0.664426
Si Si3 0.717542 0.060750 0.952311
Si Si4 0.275442 0.049144 0.703998
Si Si5 0.577190 0.343170 0.097310
O O1 0.817879 0.043391 0.335676
O O2 0.587954 0.234303 0.381050
O O3 0.969463 0.280751 0.370868
O O4 0.839784 0.052336 0.420252
O O5 0.295982 0.416865 0.636162
O O6 0.000000 0.500000 0.687349
O O7 0.214128 0.233232 0.698801
O O8 0.709379 0.240104 0.934754
O O9 0.500000 0.000000 0.955515
O O10 0.814285 0.058978 0.000000
O O11 0.500000 0.000000 0.704023
O O12 0.184202 0.000000 0.750000
O O13 0.500000 0.500000 0.072372
#
# Coordination Sequence:
#
# PCOD8204601 Si02
#       5
#     8   8   8   8   8
#     4  11  21  40  68  94 130 172 223 275 324 394
#     4  12  24  40  68  99 133 176 217 269 343 396
#     4   9  19  37  64  95 127 173 229 275 324 393
#     4  11  23  43  71 100 130 173 224 275 327 396
#     4  11  21  39  63  95 133 174 216 274 339 391
#
# _framework density 22.175246000000001
#
# number of rings (size 3 to 8) (size 9 to 14) (size 15 to 20)
#    0.000    1.200    6.000    1.200    0.000    2.000 
#    0.000    4.000    0.000    4.800    0.000    0.000 
#    0.000    0.000    0.000    0.000    0.000    0.000 
#
# Total GULP energy -495613.373211 kJ/mol
# GULP energy per Si atom -12390.334330 kJ/mol
# Density = 2.212477 g / cm^3
# Si number density = 22.175246 Si / 1000 Ang^3
#
#
#
# Elastic Constant Matrix: (Units=GPa)
#
#
# Indices 1 2 3 4 5 6 
#
# 1 86.7616 35.6917 15.5900 0.0000 0.0000 0.0000
# 2 35.6917 155.6840 50.8574 0.0000 0.0000 0.0000
# 3 15.5900 50.8574 147.0177 0.0000 0.0000 0.0000
# 4 0.0000 0.0000 0.0000 18.2669 0.0000 0.0000
# 5 0.0000 0.0000 0.0000 0.0000 -137.3611 0.0000
# 6 0.0000 0.0000 0.0000 0.0000 0.0000 43.0794
#
#
#
# Elastic Compliance Matrix: (Units=1/GPa)
#
#
# Indices 1 2 3 4 5 6 
#
# 1 0.012745 -0.002796 -0.000384 0.000000 0.000000 0.000000
# 2 -0.002796 0.007855 -0.002421 0.000000 0.000000 0.000000
# 3 -0.000384 -0.002421 0.007680 0.000000 0.000000 0.000000
# 4 0.000000 0.000000 0.000000 0.054744 0.000000 0.000000
# 5 0.000000 0.000000 0.000000 0.000000 -0.007280 0.000000
# 6 0.000000 0.000000 0.000000 0.000000 0.000000 0.023213
#
#
# Mechanical properties :
#
#
# Convention : Reuss Voigt Hill
#
# Bulk Modulus (GPa) = 58.55587 65.97129 62.26358
# Shear Modulus (GPa) = 43.15830 3.95199 23.55514
#
# Velocity S-wave (km/s) = 4.41640 1.33642 3.26272
# Velocity P-wave (km/s) = 7.24358 5.67415 6.50636
#
# Compressibility (1/GPa) = 0.01707771
#
# Stress axis : x y z
#
# Youngs Moduli (GPa) = 78.46057 127.30471 130.20748
#
# Poissons Ratio (x) = 0.35600 0.05002
# Poissons Ratio (y) = 0.21941 0.31520
# Poissons Ratio (z) = 0.03014 0.30818
#
# Static dielectric constant tensor:
#      x y z
#    x 4.071410 0.000000 0.000000 
#    y 0.000000 3.995070 0.000000 
#    z 0.000000 0.000000 4.097000 
# 
# 
# High freq. dielectric constant tensor:
#      x y z
#    x 1.894370 0.000000 0.000000 
#    y 0.000000 1.870670 0.000000 
#    z 0.000000 0.000000 1.845320 
# 
# From -- ./inp_files/24352.got.cif
#   From: 2010.03.12/outbox.cif.g09.slc.cpg/sg49_13_cif.got.tgz:24352.got - 2010.04.14 03:58:27.
