data_PCOD8204728
_publ_section_title
;
Structure prediction by ZEFSAII (Michael W. Deem and Ramdas Pophale) SiO2 
 PCOD8204728
Probable space group: P B A N
;
_chemical_formula_sum "Si O2"
_cell_formula_units_Z 40
_cell_length_a 13.953619
_cell_length_b 5.287135
_cell_length_c 22.843898
_cell_angle_alpha 90.000000
_cell_angle_beta 90.000000
_cell_angle_gamma 90.000000
_cell_volume 1685.300977
_symmetry_space_group_name_H-M "P B A N"
_symmetry_group_IT_number 50
_space_group.IT_coordinate_system_code '2'
_symmetry_cell_setting 'orthorhombic'
loop_
_space_group_symop_operation_xyz
x,y,z
1/2-x,1/2-y,z
x,1/2-y,-z
1/2-x,y,-z
-x,-y,-z
1/2+x,1/2+y,-z
-x,1/2+y,z
1/2+x,-y,z
loop_
_atom_site_type_symbol
_atom_site_label
_atom_site_fract_x
_atom_site_fract_y
_atom_site_fract_z
Si Si1 0.112637 0.184423 0.687937
Si Si2 0.600899 0.314645 0.735746
Si Si3 0.563054 0.758917 0.563488
Si Si4 0.136055 0.750828 0.133219
Si Si5 0.636250 0.750652 0.065642
O O1 0.157296 0.420910 0.724054
O O2 0.134266 0.231991 0.619006
O O3 0.999904 0.150797 0.702388
O O4 0.160809 0.920761 0.708576
O O5 0.584656 0.264940 0.804185
O O6 0.616908 0.750000 0.500000
O O7 0.500008 0.509295 0.568353
O O8 0.250000 0.750000 0.142238
O O9 0.100245 0.497938 0.100284
O O10 0.100491 0.993701 0.096790
O O11 0.750000 0.750000 0.063123
O O12 0.594043 0.750000 0.000000
#
# Coordination Sequence:
#
# PCOD8204728 Si02
#       5
#     8   8   8   8   8
#     4  10  17  30  43  65  88 117 152 172 212 260
#     4  10  18  28  44  62  90 119 143 177 206 257
#     4  10  16  25  41  63  91 112 138 184 226 258
#     4  10  19  30  45  69  92 112 141 175 218 263
#     4   9  17  30  47  66  88 110 137 179 226 264
#
# _framework density 23.734632000000001
#
# number of rings (size 3 to 8) (size 9 to 14) (size 15 to 20)
#    0.000    2.200    4.000    1.800    0.000    2.400 
#    0.000    0.000    0.000    0.000    0.000   56.000 
#    0.000    8.800    0.000    0.000    0.000    0.000 
#
# Total GULP energy -495670.147205 kJ/mol
# GULP energy per Si atom -12391.753680 kJ/mol
# Density = 2.368061 g / cm^3
# Si number density = 23.734632 Si / 1000 Ang^3
#
#
#
# Elastic Constant Matrix: (Units=GPa)
#
#
# Indices 1 2 3 4 5 6 
#
# 1 15.3126 -17.8974 -18.2630 0.0000 0.0000 0.0000
# 2 -17.8974 253.4812 73.5921 0.0000 0.0000 0.0000
# 3 -18.2630 73.5921 217.6312 0.0000 0.0000 0.0000
# 4 0.0000 0.0000 0.0000 48.6706 0.0000 0.0000
# 5 0.0000 0.0000 0.0000 0.0000 457.6074 0.0000
# 6 0.0000 0.0000 0.0000 0.0000 0.0000 -14.7236
#
#
#
# Elastic Compliance Matrix: (Units=1/GPa)
#
#
# Indices 1 2 3 4 5 6 
#
# 1 0.075879 0.003891 0.005052 0.000000 0.000000 0.000000
# 2 0.003891 0.004574 -0.001220 0.000000 0.000000 0.000000
# 3 0.005052 -0.001220 0.005431 0.000000 0.000000 0.000000
# 4 0.000000 0.000000 0.000000 0.020546 0.000000 0.000000
# 5 0.000000 0.000000 0.000000 0.000000 0.002185 0.000000
# 6 0.000000 0.000000 0.000000 0.000000 0.000000 -0.067918
#
#
# Mechanical properties :
#
#
# Convention : Reuss Voigt Hill
#
# Bulk Modulus (GPa) = 9.86881 62.36536 36.11709
# Shear Modulus (GPa) = 84.70358 128.24375 106.47367
#
# Velocity S-wave (km/s) = 5.98040 7.35864 6.70503
# Velocity P-wave (km/s) = 7.20097 9.92636 8.67141
#
# Compressibility (1/GPa) = 0.10132931
#
# Stress axis : x y z
#
# Youngs Moduli (GPa) = 13.17891 218.62499 184.11197
#
# Poissons Ratio (x) = -0.85064 -0.93010
# Poissons Ratio (y) = -0.05128 0.22465
# Poissons Ratio (z) = -0.06658 0.26677
#
# Static dielectric constant tensor:
#      x y z
#    x 3.385580 0.000000 0.000000 
#    y 0.000000 5.431250 0.000000 
#    z 0.000000 0.000000 4.611450 
# 
# 
# High freq. dielectric constant tensor:
#      x y z
#    x 1.874120 0.000000 0.000000 
#    y 0.000000 1.978920 0.000000 
#    z 0.000000 0.000000 1.954670 
# 
# From -- ./inp_files/31125.got.cif
#   From: 2010.03.12/outbox.cif.g09.slc.cpg/sg50_16_cif.got.tgz:31125.got - 2010.04.16 13:23:21.
