data_PCOD8204516
_publ_section_title
;
Structure prediction by ZEFSAII (Michael W. Deem and Ramdas Pophale) SiO2 
 PCOD8204516
Probable space group: P C C M
;
_chemical_formula_sum "Si O2"
_cell_formula_units_Z 48
_cell_length_a 9.095974
_cell_length_b 28.851536
_cell_length_c 8.979256
_cell_angle_alpha 90.000000
_cell_angle_beta 90.000000
_cell_angle_gamma 90.000000
_cell_volume 2356.451485
_symmetry_space_group_name_H-M "P C C M"
_symmetry_group_IT_number 49
_symmetry_cell_setting 'orthorhombic'
loop_
_space_group_symop_operation_xyz
x,y,z
-x,-y,z
x,-y,1/2-z
-x,y,1/2-z
-x,-y,-z
x,y,-z
-x,y,1/2+z
x,-y,1/2+z
loop_
_atom_site_type_symbol
_atom_site_label
_atom_site_fract_x
_atom_site_fract_y
_atom_site_fract_z
Si Si1 0.650794 0.704362 0.834658
Si Si2 0.157892 0.789691 0.678579
Si Si3 0.341892 0.871549 0.180506
Si Si4 0.186299 0.542336 0.500000
Si Si5 0.852023 0.433474 0.000000
Si Si6 0.847690 0.050397 0.681398
Si Si7 0.674553 0.397898 0.733220
O O1 0.500000 0.708493 0.750000
O O2 0.769595 0.740749 0.775315
O O3 0.716237 0.652401 0.831018
O O4 0.609094 0.718553 0.000000
O O5 0.153281 0.798274 0.500000
O O6 0.241803 0.829948 0.763949
O O7 0.000000 0.788199 0.750000
O O8 0.500000 0.861989 0.250000
O O9 0.283666 0.918629 0.255563
O O10 0.345332 0.874718 0.000000
O O11 0.185613 0.487418 0.500000
O O12 0.280449 0.558186 0.638118
O O13 0.028449 0.568155 0.500000
O O14 0.778164 0.404078 0.127715
O O15 0.852126 0.049624 0.500000
O O16 0.000000 0.070286 0.750000
O O17 0.820546 0.000000 0.750000
O O18 0.500000 0.401047 0.750000
#
# Coordination Sequence:
#
# PCOD8204516 Si02
#       7
#     8   8   8   4   4   8   8
#     4  10  23  42  65  91 124 161 201 253 311 373
#     4  11  24  43  65  96 128 165 212 261 317 380
#     4  12  25  43  65  94 129 172 218 270 328 386
#     4  11  23  43  61  87 131 155 213 249 316 375
#     4  11  25  39  63  91 119 173 197 259 312 375
#     4  11  22  40  65  96 132 175 221 273 328 387
#     4  11  23  41  63  93 122 161 207 258 311 376
#
# _framework density 20.369610000000002
#
# number of rings (size 3 to 8) (size 9 to 14) (size 15 to 20)
#    0.000    1.000    0.833    6.500    3.500    7.667 
#    0.000    1.667    0.000    0.000    0.000    0.000 
#    0.000    0.000    0.000    0.000    0.000    0.000 
#
# Total GULP energy -594846.228783 kJ/mol
# GULP energy per Si atom -12392.629766 kJ/mol
# Density = 2.032325 g / cm^3
# Si number density = 20.369610 Si / 1000 Ang^3
#
#
#
# Elastic Constant Matrix: (Units=GPa)
#
#
# Indices 1 2 3 4 5 6 
#
# 1 115.1583 60.3179 38.1528 0.0000 0.0000 0.0000
# 2 60.3179 96.7381 36.6432 0.0000 0.0000 0.0000
# 3 38.1528 36.6432 143.6545 0.0000 0.0000 0.0000
# 4 0.0000 0.0000 0.0000 90.9280 0.0000 0.0000
# 5 0.0000 0.0000 0.0000 0.0000 36.3488 0.0000
# 6 0.0000 0.0000 0.0000 0.0000 0.0000 34.3417
#
#
#
# Elastic Compliance Matrix: (Units=1/GPa)
#
#
# Indices 1 2 3 4 5 6 
#
# 1 0.013202 -0.007642 -0.001557 0.000000 0.000000 0.000000
# 2 -0.007642 0.015866 -0.002018 0.000000 0.000000 0.000000
# 3 -0.001557 -0.002018 0.007889 0.000000 0.000000 0.000000
# 4 0.000000 0.000000 0.000000 0.010998 0.000000 0.000000
# 5 0.000000 0.000000 0.000000 0.000000 0.027511 0.000000
# 6 0.000000 0.000000 0.000000 0.000000 0.000000 0.029119
#
#
# Mechanical properties :
#
#
# Convention : Reuss Voigt Hill
#
# Bulk Modulus (GPa) = 68.84825 69.53095 69.18960
# Shear Modulus (GPa) = 37.91869 47.01950 42.46909
#
# Velocity S-wave (km/s) = 4.31923 4.80971 4.57105
# Velocity P-wave (km/s) = 7.66467 8.06555 7.86766
#
# Compressibility (1/GPa) = 0.01452470
#
# Stress axis : x y z
#
# Youngs Moduli (GPa) = 75.74403 63.02625 126.75391
#
# Poissons Ratio (x) = 0.48165 0.19736
# Poissons Ratio (y) = 0.57884 0.25573
# Poissons Ratio (z) = 0.11794 0.12716
#
# Static dielectric constant tensor:
#      x y z
#    x 3.582800 0.000000 0.000000 
#    y 0.000000 3.933350 0.000000 
#    z 0.000000 0.000000 3.910060 
# 
# 
# High freq. dielectric constant tensor:
#      x y z
#    x 1.805140 0.000000 0.000000 
#    y 0.000000 1.811880 0.000000 
#    z 0.000000 0.000000 1.814120 
# 
# From -- ./inp_files/2144.got.cif
#   From: 2010.03.12/outbox.cif.g09.slc.cpg/sg49_2_cif.got.tgz:2144.got - 2010.04.14 03:58:27.
