data_PCOD8204238
_publ_section_title
;
Structure prediction by ZEFSAII (Michael W. Deem and Ramdas Pophale) SiO2 
 PCOD8204238
Probable space group: P C C M
;
_chemical_formula_sum "Si O2"
_cell_formula_units_Z 64
_cell_length_a 15.419411
_cell_length_b 23.900625
_cell_length_c 8.761007
_cell_angle_alpha 90.000000
_cell_angle_beta 90.000000
_cell_angle_gamma 90.000000
_cell_volume 3228.725099
_symmetry_space_group_name_H-M "P C C M"
_symmetry_group_IT_number 49
_symmetry_cell_setting 'orthorhombic'
loop_
_space_group_symop_operation_xyz
x,y,z
-x,-y,z
x,-y,1/2-z
-x,y,1/2-z
-x,-y,-z
x,y,-z
-x,y,1/2+z
x,-y,1/2+z
loop_
_atom_site_type_symbol
_atom_site_label
_atom_site_fract_x
_atom_site_fract_y
_atom_site_fract_z
Si Si1 0.249977 0.749390 0.319712
Si Si2 0.907969 0.059701 0.681334
Si Si3 0.757436 0.130557 0.821347
Si Si4 0.588189 0.674512 0.819897
Si Si5 0.088195 0.674424 0.319927
Si Si6 0.589696 0.940000 0.679946
Si Si7 0.849070 0.443872 0.319985
Si Si8 0.349433 0.556130 0.319999
O O1 0.249991 0.762486 0.500000
O O2 0.250807 0.805189 0.221863
O O3 0.333506 0.714098 0.269014
O O4 0.166121 0.714343 0.269355
O O5 0.915969 0.054862 0.500000
O O6 0.835670 0.104571 0.724903
O O7 0.000000 0.079222 0.750000
O O8 0.880289 0.000000 0.750000
O O9 0.667142 0.101470 0.775876
O O10 0.777335 0.123374 0.000000
O O11 0.500000 0.699054 0.750000
O O12 0.602574 0.611398 0.757414
O O13 0.581383 0.673685 0.000000
O O14 0.081214 0.673477 0.500000
O O15 0.102920 0.611381 0.257251
O O16 0.000000 0.698923 0.250000
O O17 0.500000 0.916266 0.750000
O O18 0.578243 0.946257 0.500000
O O19 0.612399 0.000000 0.750000
O O20 0.891993 0.500000 0.250000
O O21 0.856037 0.447305 0.500000
O O22 0.749827 0.439228 0.266002
O O23 0.392346 0.500000 0.250000
O O24 0.356327 0.552628 0.500000
#
# Coordination Sequence:
#
# PCOD8204238 Si02
#       8
#     8   8   8   8   8   8   8   8
#     4  10  22  42  61  78 109 154 195 237 291 344
#     4  11  22  39  64  94 128 164 199 241 291 344
#     4  11  24  40  60  89 121 156 201 248 291 346
#     4  10  21  38  59  81 109 146 189 236 290 350
#     4  10  21  38  59  81 108 144 186 231 283 341
#     4  10  21  37  60  89 123 157 192 236 284 338
#     4   9  17  32  54  79 108 141 178 222 276 340
#     4   9  17  32  54  79 108 142 179 225 280 345
#
# _framework density 19.822064000000001
#
# number of rings (size 3 to 8) (size 9 to 14) (size 15 to 20)
#    0.000    2.000    1.250    3.000    0.000    6.500 
#    0.000    6.250    0.000    0.000    0.000    0.000 
#    0.000    0.000    0.000    0.000    0.000    0.000 
#
# Total GULP energy -793720.628263 kJ/mol
# GULP energy per Si atom -12401.884817 kJ/mol
# Density = 1.977695 g / cm^3
# Si number density = 19.822064 Si / 1000 Ang^3
#
#
#
# Elastic Constant Matrix: (Units=GPa)
#
#
# Indices 1 2 3 4 5 6 
#
# 1 147.4159 78.7747 46.1443 0.0000 0.0000 0.0000
# 2 78.7747 133.2900 43.6422 0.0000 0.0000 0.0000
# 3 46.1443 43.6422 68.5291 0.0000 0.0000 0.0000
# 4 0.0000 0.0000 0.0000 33.5729 0.0000 0.0000
# 5 0.0000 0.0000 0.0000 0.0000 28.1477 0.0000
# 6 0.0000 0.0000 0.0000 0.0000 0.0000 -14.0145
#
#
#
# Elastic Compliance Matrix: (Units=1/GPa)
#
#
# Indices 1 2 3 4 5 6 
#
# 1 0.010727 -0.005022 -0.004025 0.000000 0.000000 0.000000
# 2 -0.005022 0.011830 -0.004152 0.000000 0.000000 0.000000
# 3 -0.004025 -0.004152 0.019947 0.000000 0.000000 0.000000
# 4 0.000000 0.000000 0.000000 0.029786 0.000000 0.000000
# 5 0.000000 0.000000 0.000000 0.000000 0.035527 0.000000
# 6 0.000000 0.000000 0.000000 0.000000 0.000000 -0.071355
#
#
# Mechanical properties :
#
#
# Convention : Reuss Voigt Hill
#
# Bulk Modulus (GPa) = 62.09002 76.26193 69.17598
# Shear Modulus (GPa) = 73.28336 21.58616 47.43476
#
# Velocity S-wave (km/s) = 6.08694 3.30357 4.89717
# Velocity P-wave (km/s) = 8.98848 7.28754 8.18233
#
# Compressibility (1/GPa) = 0.01610565
#
# Stress axis : x y z
#
# Youngs Moduli (GPa) = 93.22359 84.53156 50.13303
#
# Poissons Ratio (x) = 0.42450 0.20178
# Poissons Ratio (y) = 0.46815 0.20817
# Poissons Ratio (z) = 0.37522 0.35100
#
# Static dielectric constant tensor:
#      x y z
#    x 4.259820 0.000000 0.000000 
#    y 0.000000 3.672620 0.000000 
#    z 0.000000 0.000000 3.442590 
# 
# 
# High freq. dielectric constant tensor:
#      x y z
#    x 1.779670 0.000000 0.000000 
#    y 0.000000 1.773480 0.000000 
#    z 0.000000 0.000000 1.765140 
# 
# From -- ./inp_files/4417.got.cif
#   From: 2010.03.12/outbox.cif.g09.slc.cpg/sg49_3_cif.got.tgz:4417.got - 2010.04.14 03:58:27.
