data_PCOD8204875
_publ_section_title
;
Structure prediction by ZEFSAII (Michael W. Deem and Ramdas Pophale) SiO2 
 PCOD8204875
Probable space group: P B A N
;
_chemical_formula_sum "Si O2"
_cell_formula_units_Z 64
_cell_length_a 20.423790
_cell_length_b 20.050159
_cell_length_c 8.641818
_cell_angle_alpha 90.000000
_cell_angle_beta 90.000000
_cell_angle_gamma 90.000000
_cell_volume 3538.826518
_symmetry_space_group_name_H-M "P B A N"
_symmetry_group_IT_number 50
_space_group.IT_coordinate_system_code '2'
_symmetry_cell_setting 'orthorhombic'
loop_
_space_group_symop_operation_xyz
x,y,z
1/2-x,1/2-y,z
x,1/2-y,-z
1/2-x,y,-z
-x,-y,-z
1/2+x,1/2+y,-z
-x,1/2+y,z
1/2+x,-y,z
loop_
_atom_site_type_symbol
_atom_site_label
_atom_site_fract_x
_atom_site_fract_y
_atom_site_fract_z
Si Si1 0.991298 0.897107 0.675329
Si Si2 0.930758 0.180486 0.560760
Si Si3 0.673152 0.937720 0.029983
Si Si4 0.112360 0.501703 0.687107
Si Si5 0.883791 0.059534 0.149821
Si Si6 0.555621 0.119166 0.131800
Si Si7 0.677594 0.097511 0.550742
Si Si8 0.066197 0.328432 0.958743
O O1 0.964821 0.837487 0.787152
O O2 0.018348 0.871956 0.511873
O O3 0.046437 0.941751 0.761967
O O4 0.930650 0.941628 0.623141
O O5 0.956138 0.250000 0.500000
O O6 0.926883 0.178277 0.747557
O O7 0.859425 0.165641 0.491314
O O8 0.636194 0.866032 0.027469
O O9 0.667277 0.972904 0.196918
O O10 0.750000 0.926111 0.000000
O O11 0.637756 0.986268 0.906225
O O12 0.061371 0.550181 0.774691
O O13 0.147630 0.535425 0.542857
O O14 0.827205 0.085044 0.265470
O O15 0.892049 0.113156 0.009138
O O16 0.482297 0.133247 0.075679
O O17 0.750000 0.110028 0.500000
O O18 0.073865 0.250000 0.000000
#
# Coordination Sequence:
#
# PCOD8204875 Si02
#       8
#     8   8   8   8   8   8   8   8
#     4   9  18  32  50  72  95 120 157 205 251 291
#     4  10  20  33  50  72  98 130 163 197 241 294
#     4  10  19  31  48  70  98 130 161 197 241 293
#     4   9  18  32  50  72  95 120 157 205 251 291
#     4   9  18  32  51  74  97 121 158 206 252 289
#     4   9  18  32  51  74  97 121 158 206 252 289
#     4  10  20  33  50  72  98 130 163 197 241 294
#     4  10  19  31  48  70  98 130 161 197 241 293
#
# _framework density 18.085090999999998
#
# number of rings (size 3 to 8) (size 9 to 14) (size 15 to 20)
#    0.000    2.500    0.000    2.250    0.000    9.000 
#    0.000    0.000    0.000    0.000    0.000   14.000 
#    0.000    6.000    0.000    0.000    0.000    0.000 
#
# Total GULP energy -793032.634959 kJ/mol
# GULP energy per Si atom -12391.134921 kJ/mol
# Density = 1.804393 g / cm^3
# Si number density = 18.085091 Si / 1000 Ang^3
#
#
#
# Elastic Constant Matrix: (Units=GPa)
#
#
# Indices 1 2 3 4 5 6 
#
# 1 98.4385 30.8664 28.1839 0.0000 0.0000 0.0000
# 2 30.8664 61.6525 19.3053 0.0000 0.0000 0.0000
# 3 28.1839 19.3053 97.2662 0.0000 0.0000 0.0000
# 4 0.0000 0.0000 0.0000 18.2161 0.0000 0.0000
# 5 0.0000 0.0000 0.0000 0.0000 19.8878 0.0000
# 6 0.0000 0.0000 0.0000 0.0000 0.0000 10.3150
#
#
#
# Elastic Compliance Matrix: (Units=1/GPa)
#
#
# Indices 1 2 3 4 5 6 
#
# 1 0.012622 -0.005517 -0.002562 0.000000 0.000000 0.000000
# 2 -0.005517 0.019706 -0.002313 0.000000 0.000000 0.000000
# 3 -0.002562 -0.002313 0.011483 0.000000 0.000000 0.000000
# 4 0.000000 0.000000 0.000000 0.054897 0.000000 0.000000
# 5 0.000000 0.000000 0.000000 0.000000 0.050282 0.000000
# 6 0.000000 0.000000 0.000000 0.000000 0.000000 0.096946
#
#
# Mechanical properties :
#
#
# Convention : Reuss Voigt Hill
#
# Bulk Modulus (GPa) = 43.42755 46.00762 44.71758
# Shear Modulus (GPa) = 18.22187 21.61722 19.91955
#
# Velocity S-wave (km/s) = 3.17766 3.46107 3.32239
# Velocity P-wave (km/s) = 6.12604 6.43947 6.28471
#
# Compressibility (1/GPa) = 0.02302686
#
# Stress axis : x y z
#
# Youngs Moduli (GPa) = 79.22577 50.74558 87.08857
#
# Poissons Ratio (x) = 0.27996 0.22316
# Poissons Ratio (y) = 0.43708 0.20141
# Poissons Ratio (z) = 0.20301 0.11736
#
# Static dielectric constant tensor:
#      x y z
#    x 3.188770 0.000000 0.000000 
#    y 0.000000 3.190220 0.000000 
#    z 0.000000 0.000000 3.627830 
# 
# 
# High freq. dielectric constant tensor:
#      x y z
#    x 1.684620 0.000000 0.000000 
#    y 0.000000 1.681860 0.000000 
#    z 0.000000 0.000000 1.710830 
# 
# From -- ./inp_files/15509.got.cif
#   From: 2010.03.12/outbox.cif.g09.slc.cpg/sg50_8_cif.got.tgz:15509.got - 2010.04.16 13:23:21.
