data_PCOD8204127
_publ_section_title
;
Structure prediction by ZEFSAII (Michael W. Deem and Ramdas Pophale) SiO2 
 PCOD8204127
Probable space group: P C C M
;
_chemical_formula_sum "Si O2"
_cell_formula_units_Z 64
_cell_length_a 19.846417
_cell_length_b 19.897521
_cell_length_c 8.662169
_cell_angle_alpha 90.000000
_cell_angle_beta 90.000000
_cell_angle_gamma 90.000000
_cell_volume 3420.642888
_symmetry_space_group_name_H-M "P C C M"
_symmetry_group_IT_number 49
_symmetry_cell_setting 'orthorhombic'
loop_
_space_group_symop_operation_xyz
x,y,z
-x,-y,z
x,-y,1/2-z
-x,y,1/2-z
-x,-y,-z
x,y,-z
-x,y,1/2+z
x,-y,1/2+z
loop_
_atom_site_type_symbol
_atom_site_label
_atom_site_fract_x
_atom_site_fract_y
_atom_site_fract_z
Si Si1 0.104556 0.068888 0.179912
Si Si2 0.571180 0.572973 0.316786
Si Si3 0.931960 0.790936 0.317357
Si Si4 0.788853 0.255598 0.176199
Si Si5 0.430890 0.211263 0.316480
Si Si6 0.387772 0.932616 0.819417
Si Si7 0.760127 0.102074 0.176973
Si Si8 0.665906 0.683119 0.819033
O O1 0.070240 0.132180 0.261805
O O2 0.184609 0.070636 0.210205
O O3 0.074230 0.000000 0.250000
O O4 0.088941 0.072206 0.000000
O O5 0.587426 0.500000 0.250000
O O6 0.500000 0.600147 0.250000
O O7 0.565337 0.569678 0.500000
O O8 0.632609 0.620774 0.269485
O O9 0.933767 0.791381 0.500000
O O10 0.866234 0.748887 0.261345
O O11 0.000000 0.756990 0.250000
O O12 0.755991 0.182320 0.190464
O O13 0.745119 0.308716 0.275783
O O14 0.787844 0.280662 0.000000
O O15 0.500000 0.241773 0.250000
O O16 0.425863 0.221645 0.500000
O O17 0.427853 0.133332 0.265144
O O18 0.369818 0.248924 0.235350
O O19 0.310522 0.927166 0.765170
O O20 0.420944 0.000000 0.750000
O O21 0.391696 0.938085 0.000000
O O22 0.777420 0.082359 0.000000
O O23 0.658127 0.671522 0.000000
#
# Coordination Sequence:
#
# PCOD8204127 Si02
#       8
#     8   8   8   8   8   8   8   8
#     4  11  21  32  47  69  95 126 166 212 265 329
#     4  11  22  39  61  88 125 163 198 233 273 323
#     4  10  21  37  55  75 103 136 172 217 274 333
#     4   9  18  35  56  78 107 139 174 221 272 318
#     4  11  23  40  55  73 100 134 175 226 280 331
#     4  10  21  35  51  68  93 125 165 218 278 337
#     4   9  17  33  51  70  95 126 163 213 274 330
#     4  12  23  36  58  87 114 147 189 229 270 321
#
# _framework density 18.709934000000001
#
# number of rings (size 3 to 8) (size 9 to 14) (size 15 to 20)
#    0.000    1.625    1.250    6.000    0.000    5.500 
#    0.000    2.500    0.000    0.000    0.000    0.000 
#    0.000    0.500    0.000    5.250    0.000    2.875 
#
# Total GULP energy -793598.311160 kJ/mol
# GULP energy per Si atom -12399.973612 kJ/mol
# Density = 1.866735 g / cm^3
# Si number density = 18.709934 Si / 1000 Ang^3
#
#
#
# Elastic Constant Matrix: (Units=GPa)
#
#
# Indices 1 2 3 4 5 6 
#
# 1 111.3429 41.9661 40.6795 0.0000 0.0000 0.0000
# 2 41.9661 69.4268 30.7305 0.0000 0.0000 0.0000
# 3 40.6795 30.7305 99.4079 0.0000 0.0000 0.0000
# 4 0.0000 0.0000 0.0000 26.0870 0.0000 0.0000
# 5 0.0000 0.0000 0.0000 0.0000 16.6788 0.0000
# 6 0.0000 0.0000 0.0000 0.0000 0.0000 21.3265
#
#
#
# Elastic Compliance Matrix: (Units=1/GPa)
#
#
# Indices 1 2 3 4 5 6 
#
# 1 0.012456 -0.006109 -0.003209 0.000000 0.000000 0.000000
# 2 -0.006109 0.019683 -0.003585 0.000000 0.000000 0.000000
# 3 -0.003209 -0.003585 0.012481 0.000000 0.000000 0.000000
# 4 0.000000 0.000000 0.000000 0.038333 0.000000 0.000000
# 5 0.000000 0.000000 0.000000 0.000000 0.059956 0.000000
# 6 0.000000 0.000000 0.000000 0.000000 0.000000 0.046890
#
#
# Mechanical properties :
#
#
# Convention : Reuss Voigt Hill
#
# Bulk Modulus (GPa) = 53.14938 56.32551 54.73745
# Shear Modulus (GPa) = 22.53509 23.93859 23.23684
#
# Velocity S-wave (km/s) = 3.47428 3.58083 3.52796
# Velocity P-wave (km/s) = 6.67554 6.87506 6.77603
#
# Compressibility (1/GPa) = 0.01881489
#
# Stress axis : x y z
#
# Youngs Moduli (GPa) = 80.28180 50.80505 80.12277
#
# Poissons Ratio (x) = 0.31037 0.25710
# Poissons Ratio (y) = 0.49044 0.28723
# Poissons Ratio (z) = 0.25761 0.18213
#
# Static dielectric constant tensor:
#      x y z
#    x 3.682770 0.000000 0.000000 
#    y 0.000000 3.329790 0.000000 
#    z 0.000000 0.000000 3.398940 
# 
# 
# High freq. dielectric constant tensor:
#      x y z
#    x 1.728950 0.000000 0.000000 
#    y 0.000000 1.687060 0.000000 
#    z 0.000000 0.000000 1.730330 
# 
# From -- ./inp_files/5994.got.cif
#   From: 2010.03.12/outbox.cif.g09.slc.cpg/sg49_3_cif.got.tgz:5994.got - 2010.04.14 03:58:27.
