data_PCOD8204610
_publ_section_title
;
Structure prediction by ZEFSAII (Michael W. Deem and Ramdas Pophale) SiO2 
 PCOD8204610
Probable space group: P C C M
;
_chemical_formula_sum "Si O2"
_cell_formula_units_Z 64
_cell_length_a 9.707903
_cell_length_b 15.358937
_cell_length_c 21.510015
_cell_angle_alpha 90.000000
_cell_angle_beta 90.000000
_cell_angle_gamma 90.000000
_cell_volume 3207.209285
_symmetry_space_group_name_H-M "P C C M"
_symmetry_group_IT_number 49
_symmetry_cell_setting 'orthorhombic'
loop_
_space_group_symop_operation_xyz
x,y,z
-x,-y,z
x,-y,1/2-z
-x,y,1/2-z
-x,-y,-z
x,y,-z
-x,y,1/2+z
x,-y,1/2+z
loop_
_atom_site_type_symbol
_atom_site_label
_atom_site_fract_x
_atom_site_fract_y
_atom_site_fract_z
Si Si1 0.650807 0.006135 0.930174
Si Si2 0.163729 0.898337 0.744149
Si Si3 0.490780 0.734777 0.925052
Si Si4 0.129391 0.440707 0.931505
Si Si5 0.632919 0.556618 0.568505
Si Si6 0.247937 0.170277 0.888951
Si Si7 0.750639 0.833432 0.629047
Si Si8 0.003143 0.268269 0.428207
O O1 0.705015 0.908666 0.931261
O O2 0.500000 0.000000 0.897381
O O3 0.765328 0.067748 0.896757
O O4 0.633734 0.041646 0.000000
O O5 0.227551 0.858025 0.682105
O O6 0.235745 0.840117 0.797107
O O7 0.000000 0.885760 0.750000
O O8 0.203317 0.000000 0.750000
O O9 0.417535 0.646188 0.899202
O O10 0.645368 0.748384 0.897841
O O11 0.402453 0.811777 0.894844
O O12 0.494153 0.736359 0.000000
O O13 0.249004 0.498082 0.896249
O O14 0.072412 0.353403 0.897190
O O15 0.000000 0.500000 0.940278
O O16 0.188672 0.413505 0.000000
O O17 0.500000 0.500000 0.561323
O O18 0.693596 0.579632 0.500000
O O19 0.100694 0.189989 0.918568
O O20 0.854608 0.759607 0.604012
O O21 0.036822 0.287321 0.500000
#
# Coordination Sequence:
#
# PCOD8204610 Si02
#       8
#     8   8   8   8   8   8   8   8
#     4  11  22  38  57  86 126 159 193 241 316 387
#     4  11  24  45  61  79 114 157 214 267 292 350
#     4  11  22  37  59  94 131 155 193 250 309 378
#     4   9  17  31  51  80 120 158 189 229 289 363
#     4   9  17  31  53  82 122 164 188 222 292 368
#     4  12  23  39  60  85 117 163 201 257 307 349
#     4  12  23  39  60  85 117 163 205 254 309 354
#     4  11  22  35  57  92 123 153 201 251 305 373
#
# _framework density 19.955041999999999
#
# number of rings (size 3 to 8) (size 9 to 14) (size 15 to 20)
#    0.000    1.250    3.750    3.750    0.000    5.000 
#    0.000    2.500    0.000    0.000    0.000   13.125 
#    0.000    0.000    0.000    0.000    0.000    0.000 
#
# Total GULP energy -792945.469268 kJ/mol
# GULP energy per Si atom -12389.772957 kJ/mol
# Density = 1.990962 g / cm^3
# Si number density = 19.955042 Si / 1000 Ang^3
#
#
#
# Elastic Constant Matrix: (Units=GPa)
#
#
# Indices 1 2 3 4 5 6 
#
# 1 88.7410 21.4117 28.0677 0.0000 0.0000 0.0000
# 2 21.4117 88.5087 23.6319 0.0000 0.0000 0.0000
# 3 28.0677 23.6319 79.2754 0.0000 0.0000 0.0000
# 4 0.0000 0.0000 0.0000 9.8686 0.0000 0.0000
# 5 0.0000 0.0000 0.0000 0.0000 18.8962 0.0000
# 6 0.0000 0.0000 0.0000 0.0000 0.0000 48.7505
#
#
#
# Elastic Compliance Matrix: (Units=1/GPa)
#
#
# Indices 1 2 3 4 5 6 
#
# 1 0.013035 -0.002087 -0.003993 0.000000 0.000000 0.000000
# 2 -0.002087 0.012610 -0.003020 0.000000 0.000000 0.000000
# 3 -0.003993 -0.003020 0.014928 0.000000 0.000000 0.000000
# 4 0.000000 0.000000 0.000000 0.101331 0.000000 0.000000
# 5 0.000000 0.000000 0.000000 0.000000 0.052921 0.000000
# 6 0.000000 0.000000 0.000000 0.000000 0.000000 0.020513
#
#
# Mechanical properties :
#
#
# Convention : Reuss Voigt Hill
#
# Bulk Modulus (GPa) = 44.69720 44.74973 44.72346
# Shear Modulus (GPa) = 20.74727 27.73065 24.23896
#
# Velocity S-wave (km/s) = 3.22794 3.73185 3.48900
# Velocity P-wave (km/s) = 6.02830 6.40648 6.22026
#
# Compressibility (1/GPa) = 0.02237277
#
# Stress axis : x y z
#
# Youngs Moduli (GPa) = 76.71470 79.30475 66.98738
#
# Poissons Ratio (x) = 0.16554 0.26748
# Poissons Ratio (y) = 0.16013 0.20229
# Poissons Ratio (z) = 0.30632 0.23949
#
# Static dielectric constant tensor:
#      x y z
#    x 3.758370 0.000000 0.000000 
#    y 0.000000 3.681980 0.000000 
#    z 0.000000 0.000000 3.184850 
# 
# 
# High freq. dielectric constant tensor:
#      x y z
#    x 1.793960 0.000000 0.000000 
#    y 0.000000 1.794560 0.000000 
#    z 0.000000 0.000000 1.717350 
# 
# From -- ./inp_files/22550.got.cif
#   From: 2010.03.12/outbox.cif.g09.slc.cpg/sg49_12_cif.got.tgz:22550.got - 2010.04.14 03:58:27.
