data_PCOD8204592
_publ_section_title
;
Structure prediction by ZEFSAII (Michael W. Deem and Ramdas Pophale) SiO2 
 PCOD8204592
Probable space group: P C C M
;
_chemical_formula_sum "Si O2"
_cell_formula_units_Z 58
_cell_length_a 10.598866
_cell_length_b 11.044788
_cell_length_c 27.131938
_cell_angle_alpha 90.000000
_cell_angle_beta 90.000000
_cell_angle_gamma 90.000000
_cell_volume 3176.125113
_symmetry_space_group_name_H-M "P C C M"
_symmetry_group_IT_number 49
_symmetry_cell_setting 'orthorhombic'
loop_
_space_group_symop_operation_xyz
x,y,z
-x,-y,z
x,-y,1/2-z
-x,y,1/2-z
-x,-y,-z
x,y,-z
-x,y,1/2+z
x,-y,1/2+z
loop_
_atom_site_type_symbol
_atom_site_label
_atom_site_fract_x
_atom_site_fract_y
_atom_site_fract_z
Si Si1 0.195452 0.451004 0.444563
Si Si2 0.850387 0.071289 0.199926
Si Si3 0.000000 0.500000 0.250000
Si Si4 0.624036 0.754862 0.720643
Si Si5 0.060263 0.693899 0.555861
Si Si6 0.625012 0.566911 0.360339
Si Si7 0.220262 0.373184 0.199682
Si Si8 0.910221 0.160766 0.349372
O O1 0.247409 0.447045 0.500000
O O2 0.075131 0.366555 0.439184
O O3 0.302188 0.394926 0.409629
O O4 0.162546 0.590320 0.430381
O O5 0.715171 0.133886 0.206841
O O6 0.960566 0.166550 0.183971
O O7 0.886059 0.000000 0.250000
O O8 0.848647 0.972960 0.155409
O O9 0.917369 0.583549 0.214956
O O10 0.500000 0.802304 0.750000
O O11 0.585984 0.686196 0.670479
O O12 0.695000 0.654761 0.752973
O O13 0.082335 0.741235 0.500000
O O14 0.065937 0.806921 0.593375
O O15 0.500000 0.500000 0.377244
O O16 0.714484 0.478168 0.330376
O O17 0.197748 0.250791 0.169742
#
# Coordination Sequence:
#
# PCOD8204592 Si02
#       8
#     8   8   2   8   8   8   8   8
#     4   9  19  35  56  86 118 148 187 231 289 359
#     4  11  24  39  55  79 109 153 196 233 284 333
#     4  12  24  28  54  86 118 152 180 222 298 360
#     4  12  24  41  55  76 121 159 191 237 275 345
#     4   9  18  34  59  88 116 146 183 239 300 350
#     4  12  23  37  56  84 118 151 191 234 287 339
#     4  12  23  34  53  85 115 150 189 228 285 348
#     4  11  21  37  58  81 115 145 188 248 281 339
#
# _framework density 18.261244999999999
#
# number of rings (size 3 to 8) (size 9 to 14) (size 15 to 20)
#    0.000    1.103    5.517    3.310    1.931    0.552 
#    0.000    1.379    0.000    0.828    0.000    0.000 
#    0.000    3.310    0.000    0.000    0.000    0.000 
#
# Total GULP energy -719019.603049 kJ/mol
# GULP energy per Si atom -12396.889708 kJ/mol
# Density = 1.821968 g / cm^3
# Si number density = 18.261245 Si / 1000 Ang^3
#
#
#
# Elastic Constant Matrix: (Units=GPa)
#
#
# Indices 1 2 3 4 5 6 
#
# 1 94.7259 23.5876 36.2375 0.0000 0.0000 0.0000
# 2 23.5876 67.8765 40.7096 0.0000 0.0000 0.0000
# 3 36.2375 40.7096 114.2069 0.0000 0.0000 0.0000
# 4 0.0000 0.0000 0.0000 31.1670 0.0000 0.0000
# 5 0.0000 0.0000 0.0000 0.0000 24.1811 0.0000
# 6 0.0000 0.0000 0.0000 0.0000 0.0000 13.8034
#
#
#
# Elastic Compliance Matrix: (Units=1/GPa)
#
#
# Indices 1 2 3 4 5 6 
#
# 1 0.012331 -0.002466 -0.003034 0.000000 0.000000 0.000000
# 2 -0.002466 0.019232 -0.006073 0.000000 0.000000 0.000000
# 3 -0.003034 -0.006073 0.011883 0.000000 0.000000 0.000000
# 4 0.000000 0.000000 0.000000 0.032085 0.000000 0.000000
# 5 0.000000 0.000000 0.000000 0.000000 0.041355 0.000000
# 6 0.000000 0.000000 0.000000 0.000000 0.000000 0.072446
#
#
# Mechanical properties :
#
#
# Convention : Reuss Voigt Hill
#
# Bulk Modulus (GPa) = 49.25692 53.09761 51.17727
# Shear Modulus (GPa) = 22.80564 25.58193 24.19379
#
# Velocity S-wave (km/s) = 3.53775 3.74690 3.64383
# Velocity P-wave (km/s) = 6.61208 6.91801 6.76677
#
# Compressibility (1/GPa) = 0.02030172
#
# Stress axis : x y z
#
# Youngs Moduli (GPa) = 81.09420 51.99732 84.15127
#
# Poissons Ratio (x) = 0.12821 0.25530
# Poissons Ratio (y) = 0.19995 0.51104
# Poissons Ratio (z) = 0.24602 0.31577
#
# Static dielectric constant tensor:
#      x y z
#    x 3.295910 0.000000 0.000000 
#    y 0.000000 3.309890 0.000000 
#    z 0.000000 0.000000 3.487190 
# 
# 
# High freq. dielectric constant tensor:
#      x y z
#    x 1.700720 0.000000 0.000000 
#    y 0.000000 1.693250 0.000000 
#    z 0.000000 0.000000 1.703100 
# 
# From -- ./inp_files/24566.got.cif
#   From: 2010.03.12/outbox.cif.g09.slc.cpg/sg49_13_cif.got.tgz:24566.got - 2010.04.14 03:58:27.
