data_PCOD8204645
_publ_section_title
;
Structure prediction by ZEFSAII (Michael W. Deem and Ramdas Pophale) SiO2 
 PCOD8204645
Probable space group: P C C M
;
_chemical_formula_sum "Si O2"
_cell_formula_units_Z 40
_cell_length_a 9.195658
_cell_length_b 23.425131
_cell_length_c 8.929752
_cell_angle_alpha 90.000000
_cell_angle_beta 90.000000
_cell_angle_gamma 90.000000
_cell_volume 1923.553353
_symmetry_space_group_name_H-M "P C C M"
_symmetry_group_IT_number 49
_symmetry_cell_setting 'orthorhombic'
loop_
_space_group_symop_operation_xyz
x,y,z
-x,-y,z
x,-y,1/2-z
-x,y,1/2-z
-x,-y,-z
x,y,-z
-x,y,1/2+z
x,-y,1/2+z
loop_
_atom_site_type_symbol
_atom_site_label
_atom_site_fract_x
_atom_site_fract_y
_atom_site_fract_z
Si Si1 0.153142 0.250865 0.169396
Si Si2 0.645842 0.583549 0.500000
Si Si3 0.828541 0.621996 0.231183
Si Si4 0.679524 0.448715 0.500000
Si Si5 0.153627 0.060813 0.181087
Si Si6 0.343068 0.841141 0.820086
O O1 0.200987 0.316706 0.156753
O O2 0.263756 0.216913 0.273709
O O3 0.000000 0.245160 0.250000
O O4 0.146208 0.225614 0.000000
O O5 0.724255 0.618427 0.371553
O O6 0.668687 0.516111 0.500000
O O7 0.470933 0.587923 0.500000
O O8 0.000000 0.613397 0.250000
O O9 0.775459 0.568068 0.139555
O O10 0.270835 0.105180 0.238984
O O11 0.000000 0.080421 0.250000
O O12 0.197893 0.000000 0.250000
O O13 0.146898 0.058227 0.000000
O O14 0.500000 0.836615 0.750000
O O15 0.345230 0.848077 0.000000
#
# Coordination Sequence:
#
# PCOD8204645 Si02
#       6
#     8   4   8   4   8   8
#     4  11  24  44  68  94 128 168 215 270 330 392
#     4  11  25  39  67  89 131 169 212 261 334 397
#     4  11  24  41  66  94 126 164 218 271 329 392
#     4  11  23  45  59  95 127 171 210 265 326 409
#     4  11  22  41  68 100 136 178 228 276 331 390
#     4  12  26  44  66  97 135 175 222 272 330 392
#
# _framework density 20.794848000000002
#
# number of rings (size 3 to 8) (size 9 to 14) (size 15 to 20)
#    0.000    0.800    1.000    7.200    5.600    6.000 
#    0.000    2.000    0.000    0.000    0.000    0.000 
#    0.000    0.000    0.000    0.000    0.000    0.000 
#
# Total GULP energy -495723.197582 kJ/mol
# GULP energy per Si atom -12393.079940 kJ/mol
# Density = 2.074752 g / cm^3
# Si number density = 20.794848 Si / 1000 Ang^3
#
#
#
# Elastic Constant Matrix: (Units=GPa)
#
#
# Indices 1 2 3 4 5 6 
#
# 1 122.8434 64.4999 43.3187 0.0000 0.0000 0.0000
# 2 64.4999 75.8295 32.6090 0.0000 0.0000 0.0000
# 3 43.3187 32.6090 182.2920 0.0000 0.0000 0.0000
# 4 0.0000 0.0000 0.0000 39.5115 0.0000 0.0000
# 5 0.0000 0.0000 0.0000 0.0000 33.1322 0.0000
# 6 0.0000 0.0000 0.0000 0.0000 0.0000 -42.4259
#
#
#
# Elastic Compliance Matrix: (Units=1/GPa)
#
#
# Indices 1 2 3 4 5 6 
#
# 1 0.015029 -0.012185 -0.001392 0.000000 0.000000 0.000000
# 2 -0.012185 0.024166 -0.001427 0.000000 0.000000 0.000000
# 3 -0.001392 -0.001427 0.006072 0.000000 0.000000 0.000000
# 4 0.000000 0.000000 0.000000 0.025309 0.000000 0.000000
# 5 0.000000 0.000000 0.000000 0.000000 0.030182 0.000000
# 6 0.000000 0.000000 0.000000 0.000000 0.000000 -0.023571
#
#
# Mechanical properties :
#
#
# Convention : Reuss Voigt Hill
#
# Bulk Modulus (GPa) = 65.53749 73.53557 69.53653
# Shear Modulus (GPa) = 44.53081 22.07939 33.30510
#
# Velocity S-wave (km/s) = 4.63258 3.26202 4.00635
# Velocity P-wave (km/s) = 7.75881 7.04463 7.41033
#
# Compressibility (1/GPa) = 0.01525844
#
# Stress axis : x y z
#
# Youngs Moduli (GPa) = 66.53747 41.38071 164.69765
#
# Poissons Ratio (x) = 0.50423 0.22921
# Poissons Ratio (y) = 0.81077 0.23507
# Poissons Ratio (z) = 0.09260 0.05906
#
# Static dielectric constant tensor:
#      x y z
#    x 3.078410 0.000000 0.000000 
#    y 0.000000 3.885690 0.000000 
#    z 0.000000 0.000000 3.821350 
# 
# 
# High freq. dielectric constant tensor:
#      x y z
#    x 1.822260 0.000000 0.000000 
#    y 0.000000 1.824500 0.000000 
#    z 0.000000 0.000000 1.836720 
# 
# From -- ./inp_files/1716.got.cif
#   From: 2010.03.12/outbox.cif.g09.slc.cpg/sg49_1_cif.got.tgz:1716.got - 2010.04.14 03:58:27.
