data_PCOD8204786
_publ_section_title
;
Structure prediction by ZEFSAII (Michael W. Deem and Ramdas Pophale) SiO2 
 PCOD8204786
Probable space group: P B A N
;
_chemical_formula_sum "Si O2"
_cell_formula_units_Z 64
_cell_length_a 9.124975
_cell_length_b 14.968818
_cell_length_c 23.208603
_cell_angle_alpha 90.000000
_cell_angle_beta 90.000000
_cell_angle_gamma 90.000000
_cell_volume 3170.065173
_symmetry_space_group_name_H-M "P B A N"
_symmetry_group_IT_number 50
_space_group.IT_coordinate_system_code '2'
_symmetry_cell_setting 'orthorhombic'
loop_
_space_group_symop_operation_xyz
x,y,z
1/2-x,1/2-y,z
x,1/2-y,-z
1/2-x,y,-z
-x,-y,-z
1/2+x,1/2+y,-z
-x,1/2+y,z
1/2+x,-y,z
loop_
_atom_site_type_symbol
_atom_site_label
_atom_site_fract_x
_atom_site_fract_y
_atom_site_fract_z
Si Si1 0.281682 0.535735 0.433216
Si Si2 0.437256 0.602685 0.142503
Si Si3 0.897888 0.420635 0.858668
Si Si4 0.592850 0.292830 0.618762
Si Si5 0.897060 0.429966 0.729028
Si Si6 0.062916 0.891313 0.271179
Si Si7 0.012011 0.110741 0.386416
Si Si8 0.075944 0.759285 0.935094
O O1 0.250000 0.524045 0.500000
O O2 0.392171 0.619990 0.422483
O O3 0.346032 0.442557 0.408302
O O4 0.127278 0.551108 0.403410
O O5 0.539239 0.518419 0.132246
O O6 0.273560 0.571494 0.128419
O O7 0.441232 0.646491 0.206382
O O8 0.496141 0.678282 0.099811
O O9 0.926780 0.389068 0.792631
O O10 0.971051 0.351825 0.904142
O O11 0.750000 0.250000 0.631347
O O12 0.522327 0.318439 0.680527
O O13 0.493883 0.213536 0.589433
O O14 0.725347 0.426943 0.712716
O O15 0.941309 0.532836 0.726145
O O16 0.999294 0.378068 0.683031
O O17 0.250000 0.750000 0.932597
O O18 0.016371 0.750000 0.000000
#
# Coordination Sequence:
#
# PCOD8204786 Si02
#       8
#     8   8   8   8   8   8   8   8
#     4  11  23  41  60  84 116 151 186 227 279 331
#     4   9  19  32  53  79 107 148 183 234 284 336
#     4   9  19  32  52  81 108 145 187 233 283 333
#     4  10  20  33  57  87 107 144 190 232 268 335
#     4  10  17  32  55  82 115 142 184 233 285 337
#     4  10  18  32  55  82 115 143 186 230 289 336
#     4  11  21  37  61  85 111 150 188 231 280 330
#     4   9  18  33  52  78 110 148 193 236 280 335
#
# _framework density 20.188859000000001
#
# number of rings (size 3 to 8) (size 9 to 14) (size 15 to 20)
#    0.000    2.125    3.750    0.375    1.750    3.250 
#    0.000    1.250    0.000    1.500    0.000    0.000 
#    0.000    0.000    0.000    0.000    0.000    0.000 
#
# Total GULP energy -793178.571251 kJ/mol
# GULP energy per Si atom -12393.415176 kJ/mol
# Density = 2.014291 g / cm^3
# Si number density = 20.188859 Si / 1000 Ang^3
#
#
#
# Elastic Constant Matrix: (Units=GPa)
#
#
# Indices 1 2 3 4 5 6 
#
# 1 32.3387 22.6352 18.4026 0.0000 0.0000 0.0000
# 2 22.6352 99.1781 39.3616 0.0000 0.0000 0.0000
# 3 18.4026 39.3616 105.7263 0.0000 0.0000 0.0000
# 4 0.0000 0.0000 0.0000 29.0235 0.0000 0.0000
# 5 0.0000 0.0000 0.0000 0.0000 15.5632 0.0000
# 6 0.0000 0.0000 0.0000 0.0000 0.0000 25.0185
#
#
#
# Elastic Compliance Matrix: (Units=1/GPa)
#
#
# Indices 1 2 3 4 5 6 
#
# 1 0.038185 -0.007131 -0.003992 0.000000 0.000000 0.000000
# 2 -0.007131 0.013163 -0.003659 0.000000 0.000000 0.000000
# 3 -0.003992 -0.003659 0.011516 0.000000 0.000000 0.000000
# 4 0.000000 0.000000 0.000000 0.034455 0.000000 0.000000
# 5 0.000000 0.000000 0.000000 0.000000 0.064254 0.000000
# 6 0.000000 0.000000 0.000000 0.000000 0.000000 0.039970
#
#
# Mechanical properties :
#
#
# Convention : Reuss Voigt Hill
#
# Bulk Modulus (GPa) = 30.03002 44.22687 37.12845
# Shear Modulus (GPa) = 20.64356 24.37728 22.51042
#
# Velocity S-wave (km/s) = 3.20116 3.47862 3.34277
# Velocity P-wave (km/s) = 5.34510 6.17159 5.77316
#
# Compressibility (1/GPa) = 0.03330001
#
# Stress axis : x y z
#
# Youngs Moduli (GPa) = 26.18810 75.97300 86.83945
#
# Poissons Ratio (x) = 0.54174 0.34664
# Poissons Ratio (y) = 0.18674 0.31777
# Poissons Ratio (z) = 0.10454 0.27800
#
# Static dielectric constant tensor:
#      x y z
#    x 3.340360 0.000000 0.000000 
#    y 0.000000 3.784350 0.000000 
#    z 0.000000 0.000000 4.124540 
# 
# 
# High freq. dielectric constant tensor:
#      x y z
#    x 1.749090 0.000000 0.000000 
#    y 0.000000 1.787750 0.000000 
#    z 0.000000 0.000000 1.792450 
# 
# From -- ./inp_files/31615.got.cif
#   From: 2010.03.12/outbox.cif.g09.slc.cpg/sg50_16_cif.got.tgz:31615.got - 2010.04.16 13:23:21.
