data_PCOD8204911
_publ_section_title
;
Structure prediction by ZEFSAII (Michael W. Deem and Ramdas Pophale) SiO2 
 PCOD8204911
Probable space group: P B A N
;
_chemical_formula_sum "Si O2"
_cell_formula_units_Z 64
_cell_length_a 26.255571
_cell_length_b 24.241064
_cell_length_c 4.980076
_cell_angle_alpha 90.000000
_cell_angle_beta 90.000000
_cell_angle_gamma 90.000000
_cell_volume 3169.633996
_symmetry_space_group_name_H-M "P B A N"
_symmetry_group_IT_number 50
_space_group.IT_coordinate_system_code '2'
_symmetry_cell_setting 'orthorhombic'
loop_
_space_group_symop_operation_xyz
x,y,z
1/2-x,1/2-y,z
x,1/2-y,-z
1/2-x,y,-z
-x,-y,-z
1/2+x,1/2+y,-z
-x,1/2+y,z
1/2+x,-y,z
loop_
_atom_site_type_symbol
_atom_site_label
_atom_site_fract_x
_atom_site_fract_y
_atom_site_fract_z
Si Si1 0.649058 0.125009 0.462889
Si Si2 0.531265 0.376109 0.544218
Si Si3 0.193007 0.436980 0.956958
Si Si4 0.309776 0.813820 0.036785
Si Si5 0.993602 0.812863 0.955554
Si Si6 0.342634 0.502322 0.543124
Si Si7 0.402898 0.378992 0.091954
Si Si8 0.937214 0.560812 0.592121
O O1 0.589879 0.113900 0.516288
O O2 0.658584 0.148424 0.167184
O O3 0.674496 0.065169 0.496803
O O4 0.673865 0.168646 0.665760
O O5 0.510656 0.330511 0.339323
O O6 0.498223 0.434187 0.525396
O O7 0.524715 0.350561 0.838380
O O8 0.186877 0.464434 0.667594
O O9 0.157331 0.381901 0.977041
O O10 0.250000 0.416023 0.000000
O O11 0.176783 0.483943 0.166457
O O12 0.324382 0.750000 0.000000
O O13 0.250000 0.823577 0.000000
O O14 0.931936 0.821930 0.981114
O O15 0.007792 0.750000 0.000000
O O16 0.405102 0.494970 0.524041
O O17 0.410988 0.392135 0.405953
O O18 0.429710 0.426096 0.906901
#
# Coordination Sequence:
#
# PCOD8204911 Si02
#       8
#     8   8   8   8   8   8   8   8
#     4  12  24  38  60  86 106 128 172 224 256 296
#     4  10  21  34  52  80 108 138 171 208 258 306
#     4  10  19  33  53  76 105 139 175 214 256 304
#     4  11  26  46  62  75 100 140 174 209 268 324
#     4  10  19  33  53  76 105 139 175 214 256 304
#     4  10  21  34  52  80 108 138 171 208 258 306
#     4   8  16  30  48  72 102 138 174 206 250 308
#     4   8  16  33  50  70 108 143 166 194 246 321
#
# _framework density 20.191607000000001
#
# number of rings (size 3 to 8) (size 9 to 14) (size 15 to 20)
#    0.000    2.125    0.000    3.000    0.000    7.500 
#    0.000    0.000    0.000   10.875    0.000    0.000 
#    0.000   12.000    0.000    0.000    0.000    2.000 
#
# Total GULP energy -792983.324759 kJ/mol
# GULP energy per Si atom -12390.364449 kJ/mol
# Density = 2.014565 g / cm^3
# Si number density = 20.191607 Si / 1000 Ang^3
#
#
#
# Elastic Constant Matrix: (Units=GPa)
#
#
# Indices 1 2 3 4 5 6 
#
# 1 119.9204 4.3253 -0.1094 0.0000 0.0000 0.0000
# 2 4.3253 34.2514 0.1632 0.0000 0.0000 0.0000
# 3 -0.1094 0.1632 60.3755 0.0000 0.0000 0.0000
# 4 0.0000 0.0000 0.0000 23.8624 0.0000 0.0000
# 5 0.0000 0.0000 0.0000 0.0000 27.0742 0.0000
# 6 0.0000 0.0000 0.0000 0.0000 0.0000 15.8080
#
#
#
# Elastic Compliance Matrix: (Units=1/GPa)
#
#
# Indices 1 2 3 4 5 6 
#
# 1 0.008377 -0.001058 0.000018 0.000000 0.000000 0.000000
# 2 -0.001058 0.029330 -0.000081 0.000000 0.000000 0.000000
# 3 0.000018 -0.000081 0.016563 0.000000 0.000000 0.000000
# 4 0.000000 0.000000 0.000000 0.041907 0.000000 0.000000
# 5 0.000000 0.000000 0.000000 0.000000 0.036936 0.000000
# 6 0.000000 0.000000 0.000000 0.000000 0.000000 0.063259
#
#
# Mechanical properties :
#
#
# Convention : Reuss Voigt Hill
#
# Bulk Modulus (GPa) = 19.22042 24.81172 22.01607
# Shear Modulus (GPa) = 23.15280 27.36013 25.25646
#
# Velocity S-wave (km/s) = 3.38990 3.68506 3.54056
# Velocity P-wave (km/s) = 4.98614 5.51553 5.25750
#
# Compressibility (1/GPa) = 0.05202799
#
# Stress axis : x y z
#
# Youngs Moduli (GPa) = 119.37390 34.09489 60.37458
#
# Poissons Ratio (x) = 0.03607 -0.00109
# Poissons Ratio (y) = 0.12629 0.00490
# Poissons Ratio (z) = -0.00215 0.00277
#
# Static dielectric constant tensor:
#      x y z
#    x 3.828440 0.000000 0.000000 
#    y 0.000000 3.336950 0.000000 
#    z 0.000000 0.000000 3.778830 
# 
# 
# High freq. dielectric constant tensor:
#      x y z
#    x 1.790530 0.000000 0.000000 
#    y 0.000000 1.746850 0.000000 
#    z 0.000000 0.000000 1.808270 
# 
# From -- ./inp_files/6187.got.cif
#   From: 2010.03.12/outbox.cif.g09.slc.cpg/sg50_4_cif.got.tgz:6187.got - 2010.04.16 13:23:21.
