data_PCOD8204161
_publ_section_title
;
Structure prediction by ZEFSAII (Michael W. Deem and Ramdas Pophale) SiO2 
 PCOD8204161
Probable space group: P C C M
;
_chemical_formula_sum "Si O2"
_cell_formula_units_Z 56
_cell_length_a 22.456041
_cell_length_b 14.735852
_cell_length_c 8.759428
_cell_angle_alpha 90.000000
_cell_angle_beta 90.000000
_cell_angle_gamma 90.000000
_cell_volume 2898.572655
_symmetry_space_group_name_H-M "P C C M"
_symmetry_group_IT_number 49
_symmetry_cell_setting 'orthorhombic'
loop_
_space_group_symop_operation_xyz
x,y,z
-x,-y,z
x,-y,1/2-z
-x,y,1/2-z
-x,-y,-z
x,y,-z
-x,y,1/2+z
x,-y,1/2+z
loop_
_atom_site_type_symbol
_atom_site_label
_atom_site_fract_x
_atom_site_fract_y
_atom_site_fract_z
Si Si1 0.670328 0.724874 0.179362
Si Si2 0.437205 0.404916 0.820543
Si Si3 0.294430 0.904898 0.180048
Si Si4 0.108989 0.410513 0.176200
Si Si5 0.236360 0.406311 0.319381
Si Si6 0.939047 0.218087 0.324788
Si Si7 0.157048 0.905865 0.178945
O O1 0.609549 0.673298 0.220585
O O2 0.665618 0.826820 0.243301
O O3 0.725168 0.677437 0.262463
O O4 0.682506 0.725865 0.000000
O O5 0.415017 0.500000 0.750000
O O6 0.500000 0.374919 0.750000
O O7 0.444454 0.418422 0.000000
O O8 0.225469 0.887308 0.223066
O O9 0.315994 0.000000 0.250000
O O10 0.304730 0.905993 0.000000
O O11 0.078498 0.500000 0.250000
O O12 0.169290 0.389280 0.266429
O O13 0.064268 0.326675 0.194087
O O14 0.124854 0.429188 0.000000
O O15 0.261896 0.500000 0.250000
O O16 0.239476 0.411584 0.500000
O O17 0.938773 0.188204 0.500000
O O18 0.882018 0.175563 0.243778
O O19 0.000000 0.182821 0.250000
O O20 0.134513 0.000000 0.250000
O O21 0.147981 0.911525 0.000000
#
# Coordination Sequence:
#
# PCOD8204161 Si02
#       7
#     8   8   8   8   8   8   8
#     4  11  22  35  54  82 114 148 186 228 273 324
#     4  10  21  36  56  81 113 153 193 233 274 318
#     4  10  21  37  59  86 114 146 180 222 273 326
#     4  10  21  37  56  77 104 139 176 219 269 322
#     4  11  21  33  52  79 110 143 178 220 271 326
#     4  11  24  39  56  78 104 136 176 221 267 317
#     4  10  21  38  60  84 110 139 173 214 266 325
#
# _framework density 19.319855
#
# number of rings (size 3 to 8) (size 9 to 14) (size 15 to 20)
#    0.000    1.571    0.000    6.429    0.000   10.286 
#    0.000    2.857    0.000    0.429    0.000    3.000 
#    0.000    0.000    0.000    0.000    0.000    0.000 
#
# Total GULP energy -694671.995744 kJ/mol
# GULP energy per Si atom -12404.857067 kJ/mol
# Density = 1.927588 g / cm^3
# Si number density = 19.319855 Si / 1000 Ang^3
#
#
#
# Elastic Constant Matrix: (Units=GPa)
#
#
# Indices 1 2 3 4 5 6 
#
# 1 63.2982 44.6548 40.8122 0.0000 0.0000 0.0000
# 2 44.6548 119.1258 55.9650 0.0000 0.0000 0.0000
# 3 40.8122 55.9650 125.9722 0.0000 0.0000 0.0000
# 4 0.0000 0.0000 0.0000 38.6333 0.0000 0.0000
# 5 0.0000 0.0000 0.0000 0.0000 6.1710 0.0000
# 6 0.0000 0.0000 0.0000 0.0000 0.0000 23.9916
#
#
#
# Elastic Compliance Matrix: (Units=1/GPa)
#
#
# Indices 1 2 3 4 5 6 
#
# 1 0.023467 -0.006603 -0.004669 0.000000 0.000000 0.000000
# 2 -0.006603 0.012467 -0.003399 0.000000 0.000000 0.000000
# 3 -0.004669 -0.003399 0.010961 0.000000 0.000000 0.000000
# 4 0.000000 0.000000 0.000000 0.025884 0.000000 0.000000
# 5 0.000000 0.000000 0.000000 0.000000 0.162048 0.000000
# 6 0.000000 0.000000 0.000000 0.000000 0.000000 0.041681
#
#
# Mechanical properties :
#
#
# Convention : Reuss Voigt Hill
#
# Bulk Modulus (GPa) = 56.97476 65.69557 61.33516
# Shear Modulus (GPa) = 16.04094 24.89012 20.46553
#
# Velocity S-wave (km/s) = 2.88459 3.59321 3.25822
# Velocity P-wave (km/s) = 6.37564 7.16190 6.78018
#
# Compressibility (1/GPa) = 0.01755163
#
# Stress axis : x y z
#
# Youngs Moduli (GPa) = 42.61292 80.21419 91.23117
#
# Poissons Ratio (x) = 0.52966 0.42599
# Poissons Ratio (y) = 0.28138 0.31011
# Poissons Ratio (z) = 0.19897 0.27267
#
# Static dielectric constant tensor:
#      x y z
#    x 3.319780 0.000000 0.000000 
#    y 0.000000 3.709970 0.000000 
#    z 0.000000 0.000000 3.674470 
# 
# 
# High freq. dielectric constant tensor:
#      x y z
#    x 1.729100 0.000000 0.000000 
#    y 0.000000 1.757190 0.000000 
#    z 0.000000 0.000000 1.771930 
# 
# From -- ./inp_files/5811.got.cif
#   From: 2010.03.12/outbox.cif.g09.slc.cpg/sg49_3_cif.got.tgz:5811.got - 2010.04.14 03:58:27.
