data_PCOD8204318
_publ_section_title
;
Structure prediction by ZEFSAII (Michael W. Deem and Ramdas Pophale) SiO2 
 PCOD8204318
Probable space group: P C C M
;
_chemical_formula_sum "Si O2"
_cell_formula_units_Z 58
_cell_length_a 17.424888
_cell_length_b 8.728267
_cell_length_c 18.557608
_cell_angle_alpha 90.000000
_cell_angle_beta 90.000000
_cell_angle_gamma 90.000000
_cell_volume 2822.409433
_symmetry_space_group_name_H-M "P C C M"
_symmetry_group_IT_number 49
_symmetry_cell_setting 'orthorhombic'
loop_
_space_group_symop_operation_xyz
x,y,z
-x,-y,z
x,-y,1/2-z
-x,y,1/2-z
-x,-y,-z
x,y,-z
-x,y,1/2+z
x,-y,1/2+z
loop_
_atom_site_type_symbol
_atom_site_label
_atom_site_fract_x
_atom_site_fract_y
_atom_site_fract_z
Si Si1 0.089835 0.022098 0.419542
Si Si2 0.378789 0.281639 0.414736
Si Si3 0.268761 0.491609 0.666872
Si Si4 0.462169 0.833303 0.420784
Si Si5 0.125550 0.287462 0.309532
Si Si6 0.807669 0.194866 0.339329
Si Si7 0.342912 0.978291 0.329837
Si Si8 0.000000 0.500000 0.750000
O O1 0.113928 0.071607 0.500000
O O2 0.111248 0.152369 0.364069
O O3 0.134467 0.864209 0.400962
O O4 0.000000 0.000000 0.414358
O O5 0.362447 0.270393 0.500000
O O6 0.339784 0.433653 0.381853
O O7 0.470879 0.287942 0.399762
O O8 0.344218 0.132324 0.376385
O O9 0.296370 0.500000 0.750000
O O10 0.198463 0.376052 0.660045
O O11 0.238316 0.653218 0.636600
O O12 0.429512 0.793341 0.500000
O O13 0.391568 0.838019 0.365122
O O14 0.500000 0.000000 0.421377
O O15 0.141161 0.221478 0.230738
O O16 0.052301 0.398774 0.303452
O O17 0.745654 0.064273 0.323203
O O18 0.377632 0.000000 0.250000
#
# Coordination Sequence:
#
# PCOD8204318 Si02
#       8
#     8   8   8   8   8   8   8   2
#     4  11  25  41  59  90 128 158 195 253 317 380
#     4  10  21  39  62  87 122 170 214 254 314 385
#     4  10  21  39  60  89 122 155 209 265 308 371
#     4   8  17  34  55  84 119 158 206 255 302 369
#     4  11  22  40  66  88 115 156 206 248 301 372
#     4  11  22  40  60  91 123 159 204 262 312 377
#     4  11  20  33  60  92 126 160 211 269 324 371
#     4  12  20  40  72  92 108 154 210 254 296 372
#
# _framework density 20.549817000000001
#
# number of rings (size 3 to 8) (size 9 to 14) (size 15 to 20)
#    0.000    1.655    2.069    5.793    0.000    6.345 
#    0.000    1.034    0.000    4.138    0.000    0.000 
#    0.000    0.000    0.000    0.000    0.000    0.000 
#
# Total GULP energy -719144.855906 kJ/mol
# GULP energy per Si atom -12399.049240 kJ/mol
# Density = 2.050304 g / cm^3
# Si number density = 20.549817 Si / 1000 Ang^3
#
#
#
# Elastic Constant Matrix: (Units=GPa)
#
#
# Indices 1 2 3 4 5 6 
#
# 1 107.4956 36.5688 63.8027 0.0000 0.0000 0.0000
# 2 36.5688 92.2745 58.7628 0.0000 0.0000 0.0000
# 3 63.8027 58.7628 112.9543 0.0000 0.0000 0.0000
# 4 0.0000 0.0000 0.0000 20.6053 0.0000 0.0000
# 5 0.0000 0.0000 0.0000 0.0000 452.5382 0.0000
# 6 0.0000 0.0000 0.0000 0.0000 0.0000 40.9851
#
#
#
# Elastic Compliance Matrix: (Units=1/GPa)
#
#
# Indices 1 2 3 4 5 6 
#
# 1 0.014031 -0.000768 -0.007526 0.000000 0.000000 0.000000
# 2 -0.000768 0.016248 -0.008019 0.000000 0.000000 0.000000
# 3 -0.007526 -0.008019 0.017276 0.000000 0.000000 0.000000
# 4 0.000000 0.000000 0.000000 0.048531 0.000000 0.000000
# 5 0.000000 0.000000 0.000000 0.000000 0.002210 0.000000
# 6 0.000000 0.000000 0.000000 0.000000 0.000000 0.024399
#
#
# Mechanical properties :
#
#
# Convention : Reuss Voigt Hill
#
# Bulk Modulus (GPa) = 66.98237 70.11033 68.54635
# Shear Modulus (GPa) = 31.19191 113.06506 72.12848
#
# Velocity S-wave (km/s) = 3.90021 7.42559 5.93090
# Velocity P-wave (km/s) = 7.27654 10.37837 8.96266
#
# Compressibility (1/GPa) = 0.01492930
#
# Stress axis : x y z
#
# Youngs Moduli (GPa) = 71.27165 61.54451 57.88326
#
# Poissons Ratio (x) = 0.04725 0.43563
# Poissons Ratio (y) = 0.05472 0.46418
# Poissons Ratio (z) = 0.53639 0.49355
#
# Static dielectric constant tensor:
#      x y z
#    x 4.002620 0.000000 0.000000 
#    y 0.000000 3.767830 0.000000 
#    z 0.000000 0.000000 3.777150 
# 
# 
# High freq. dielectric constant tensor:
#      x y z
#    x 1.814420 0.000000 0.000000 
#    y 0.000000 1.796560 0.000000 
#    z 0.000000 0.000000 1.795350 
# 
# From -- ./inp_files/18202.got.cif
#   From: 2010.03.12/outbox.cif.g09.slc.cpg/sg49_10_cif.got.tgz:18202.got - 2010.04.14 03:58:27.
