data_PCOD8204932
_publ_section_title
;
Structure prediction by ZEFSAII (Michael W. Deem and Ramdas Pophale) SiO2 
 PCOD8204932
Probable space group: P B A N
;
_chemical_formula_sum "Si O2"
_cell_formula_units_Z 64
_cell_length_a 9.522972
_cell_length_b 17.963644
_cell_length_c 16.957867
_cell_angle_alpha 90.000000
_cell_angle_beta 90.000000
_cell_angle_gamma 90.000000
_cell_volume 2900.936162
_symmetry_space_group_name_H-M "P B A N"
_symmetry_group_IT_number 50
_space_group.IT_coordinate_system_code '2'
_symmetry_cell_setting 'orthorhombic'
loop_
_space_group_symop_operation_xyz
x,y,z
1/2-x,1/2-y,z
x,1/2-y,-z
1/2-x,y,-z
-x,-y,-z
1/2+x,1/2+y,-z
-x,1/2+y,z
1/2+x,-y,z
loop_
_atom_site_type_symbol
_atom_site_label
_atom_site_fract_x
_atom_site_fract_y
_atom_site_fract_z
Si Si1 0.662215 0.354247 0.316054
Si Si2 0.413999 0.664282 0.983361
Si Si3 0.477260 0.264455 0.755300
Si Si4 0.973399 0.011397 0.241265
Si Si5 0.586455 0.333389 0.484520
Si Si6 0.115710 0.365868 0.843770
Si Si7 0.975291 0.381894 0.356595
Si Si8 0.421280 0.383937 0.876736
O O1 0.617976 0.282235 0.265456
O O2 0.646346 0.430114 0.266405
O O3 0.560737 0.357960 0.394184
O O4 0.823419 0.345787 0.338634
O O5 0.500389 0.609235 0.040409
O O6 0.450069 0.750000 0.000000
O O7 0.250000 0.647696 0.000000
O O8 0.473289 0.644775 0.896136
O O9 0.364242 0.202518 0.781934
O O10 0.423862 0.318964 0.683868
O O11 0.505558 0.320364 0.828435
O O12 0.105613 0.059074 0.208924
O O13 0.010631 0.963143 0.318797
O O14 0.921168 0.961439 0.169408
O O15 0.532584 0.250000 0.500000
O O16 0.750000 0.340458 0.500000
O O17 0.503877 0.385826 0.548432
O O18 0.258066 0.365159 0.894263
#
# Coordination Sequence:
#
# PCOD8204932 Si02
#       8
#     8   8   8   8   8   8   8   8
#     4  10  19  34  55  84 122 158 204 262 310 360
#     4  11  25  42  65  98 125 153 201 258 309 364
#     4  10  20  32  57  88 113 152 204 248 298 356
#     4  10  24  38  56  90 120 166 210 254 302 368
#     4   9  16  29  54  86 116 156 204 253 315 369
#     4  11  23  42  64  89 125 167 206 249 308 374
#     4  10  19  34  55  84 122 158 204 262 310 360
#     4  11  23  42  64  89 125 167 206 249 308 374
#
# _framework density 22.061841999999999
#
# number of rings (size 3 to 8) (size 9 to 14) (size 15 to 20)
#    0.000    1.750    2.500    1.875    0.000    7.500 
#    0.000    0.000    0.000    0.000    0.000   31.500 
#    0.000    0.000    0.000    0.000    0.000    0.000 
#
# Total GULP energy -792964.910443 kJ/mol
# GULP energy per Si atom -12390.076726 kJ/mol
# Density = 2.201163 g / cm^3
# Si number density = 22.061842 Si / 1000 Ang^3
#
#
#
# Elastic Constant Matrix: (Units=GPa)
#
#
# Indices 1 2 3 4 5 6 
#
# 1 71.2381 20.0211 30.3332 0.0000 0.0000 0.0000
# 2 20.0211 127.6120 46.4584 0.0000 0.0000 0.0000
# 3 30.3332 46.4584 109.6590 0.0000 0.0000 0.0000
# 4 0.0000 0.0000 0.0000 33.1695 0.0000 0.0000
# 5 0.0000 0.0000 0.0000 0.0000 24.2436 0.0000
# 6 0.0000 0.0000 0.0000 0.0000 0.0000 17.3668
#
#
#
# Elastic Compliance Matrix: (Units=1/GPa)
#
#
# Indices 1 2 3 4 5 6 
#
# 1 0.016033 -0.001065 -0.003984 0.000000 0.000000 0.000000
# 2 -0.001065 0.009336 -0.003661 0.000000 0.000000 0.000000
# 3 -0.003984 -0.003661 0.011772 0.000000 0.000000 0.000000
# 4 0.000000 0.000000 0.000000 0.030148 0.000000 0.000000
# 5 0.000000 0.000000 0.000000 0.000000 0.041248 0.000000
# 6 0.000000 0.000000 0.000000 0.000000 0.000000 0.057581
#
#
# Mechanical properties :
#
#
# Convention : Reuss Voigt Hill
#
# Bulk Modulus (GPa) = 50.70466 55.79273 53.24869
# Shear Modulus (GPa) = 26.30034 29.06907 27.68471
#
# Velocity S-wave (km/s) = 3.45645 3.63384 3.54626
# Velocity P-wave (km/s) = 6.24198 6.55366 6.39972
#
# Compressibility (1/GPa) = 0.01972205
#
# Stress axis : x y z
#
# Youngs Moduli (GPa) = 62.37120 107.11133 84.94705
#
# Poissons Ratio (x) = 0.11409 0.33840
# Poissons Ratio (y) = 0.06643 0.31097
# Poissons Ratio (z) = 0.24847 0.39210
#
# Static dielectric constant tensor:
#      x y z
#    x 3.567780 0.000000 0.000000 
#    y 0.000000 4.016500 0.000000 
#    z 0.000000 0.000000 4.357700 
# 
# 
# High freq. dielectric constant tensor:
#      x y z
#    x 1.827130 0.000000 0.000000 
#    y 0.000000 1.873080 0.000000 
#    z 0.000000 0.000000 1.873650 
# 
# From -- ./inp_files/26072.got.cif
#   From: 2010.03.12/outbox.cif.g09.slc.cpg/sg50_14_cif.got.tgz:26072.got - 2010.04.16 13:23:21.
