data_PCOD8204276
_publ_section_title
;
Structure prediction by ZEFSAII (Michael W. Deem and Ramdas Pophale) SiO2 
 PCOD8204276
Probable space group: P C C M
;
_chemical_formula_sum "Si O2"
_cell_formula_units_Z 40
_cell_length_a 9.582736
_cell_length_b 25.173892
_cell_length_c 8.544902
_cell_angle_alpha 90.000000
_cell_angle_beta 90.000000
_cell_angle_gamma 90.000000
_cell_volume 2061.327393
_symmetry_space_group_name_H-M "P C C M"
_symmetry_group_IT_number 49
_symmetry_cell_setting 'orthorhombic'
loop_
_space_group_symop_operation_xyz
x,y,z
-x,-y,z
x,-y,1/2-z
-x,y,1/2-z
-x,-y,-z
x,y,-z
-x,y,1/2+z
x,-y,1/2+z
loop_
_atom_site_type_symbol
_atom_site_label
_atom_site_fract_x
_atom_site_fract_y
_atom_site_fract_z
Si Si1 0.153115 0.445000 0.315585
Si Si2 0.351713 0.242388 0.683358
Si Si3 0.153418 0.144731 0.683037
Si Si4 0.352864 0.942075 0.315692
Si Si5 0.652171 0.355089 0.315255
O O1 0.217449 0.500000 0.250000
O O2 0.146565 0.448823 0.500000
O O3 0.244376 0.395699 0.264519
O O4 0.000000 0.435701 0.250000
O O5 0.500000 0.222642 0.750000
O O6 0.368390 0.254048 0.500000
O O7 0.237157 0.198246 0.719895
O O8 0.301417 0.295683 0.769642
O O9 0.147801 0.132490 0.500000
O O10 0.227108 0.095879 0.768110
O O11 0.000000 0.152079 0.750000
O O12 0.500000 0.920162 0.250000
O O13 0.365383 0.945368 0.500000
O O14 0.319088 0.000000 0.250000
O O15 0.500000 0.367385 0.250000
O O16 0.655414 0.362297 0.500000
#
# Coordination Sequence:
#
# PCOD8204276 Si02
#       5
#     8   8   8   8   8
#     4  11  22  39  60  85 116 152 193 235 285 343
#     4  10  21  38  60  85 114 150 192 238 287 343
#     4  11  24  40  59  86 119 154 194 238 289 342
#     4  11  22  39  63  89 118 152 194 238 285 340
#     4  11  22  38  60  87 117 151 192 239 289 340
#
# _framework density 19.404971
#
# number of rings (size 3 to 8) (size 9 to 14) (size 15 to 20)
#    0.000    1.200    0.000    9.600    0.000    6.400 
#    0.000    6.000    0.000    0.000    0.000    0.000 
#    0.000    0.000    0.000    0.000    0.000    0.000 
#
# Total GULP energy -496213.637725 kJ/mol
# GULP energy per Si atom -12405.340943 kJ/mol
# Density = 1.936080 g / cm^3
# Si number density = 19.404971 Si / 1000 Ang^3
#
#
#
# Elastic Constant Matrix: (Units=GPa)
#
#
# Indices 1 2 3 4 5 6 
#
# 1 121.1691 79.2064 59.5204 0.0000 0.0000 0.0000
# 2 79.2064 106.7427 62.4558 0.0000 0.0000 0.0000
# 3 59.5204 62.4558 178.4352 0.0000 0.0000 0.0000
# 4 0.0000 0.0000 0.0000 41.5916 0.0000 0.0000
# 5 0.0000 0.0000 0.0000 0.0000 36.2687 0.0000
# 6 0.0000 0.0000 0.0000 0.0000 0.0000 48.4304
#
#
#
# Elastic Compliance Matrix: (Units=1/GPa)
#
#
# Indices 1 2 3 4 5 6 
#
# 1 0.016347 -0.011242 -0.001518 0.000000 0.000000 0.000000
# 2 -0.011242 0.019512 -0.003080 0.000000 0.000000 0.000000
# 3 -0.001518 -0.003080 0.007189 0.000000 0.000000 0.000000
# 4 0.000000 0.000000 0.000000 0.024043 0.000000 0.000000
# 5 0.000000 0.000000 0.000000 0.000000 0.027572 0.000000
# 6 0.000000 0.000000 0.000000 0.000000 0.000000 0.020648
#
#
# Mechanical properties :
#
#
# Convention : Reuss Voigt Hill
#
# Bulk Modulus (GPa) = 87.96099 89.85692 88.90895
# Shear Modulus (GPa) = 33.16075 38.93578 36.04826
#
# Velocity S-wave (km/s) = 4.13834 4.48424 4.31476
# Velocity P-wave (km/s) = 8.26208 8.55674 8.41070
#
# Compressibility (1/GPa) = 0.01136868
#
# Stress axis : x y z
#
# Youngs Moduli (GPa) = 61.17191 51.24997 139.10939
#
# Poissons Ratio (x) = 0.57615 0.21117
# Poissons Ratio (y) = 0.68770 0.42841
# Poissons Ratio (z) = 0.09286 0.15783
#
# Static dielectric constant tensor:
#      x y z
#    x 3.527070 0.000000 0.000000 
#    y 0.000000 3.719430 0.000000 
#    z 0.000000 0.000000 3.791010 
# 
# 
# High freq. dielectric constant tensor:
#      x y z
#    x 1.754170 0.000000 0.000000 
#    y 0.000000 1.768360 0.000000 
#    z 0.000000 0.000000 1.781260 
# 
# From -- ./inp_files/1683.got.cif
#   From: 2010.03.12/outbox.cif.g09.slc.cpg/sg49_1_cif.got.tgz:1683.got - 2010.04.14 03:58:27.
