data_PCOD8204959
_publ_section_title
;
Structure prediction by ZEFSAII (Michael W. Deem and Ramdas Pophale) SiO2 
 PCOD8204959
Probable space group: P B A N
;
_chemical_formula_sum "Si O2"
_cell_formula_units_Z 44
_cell_length_a 8.462878
_cell_length_b 27.412587
_cell_length_c 9.297854
_cell_angle_alpha 90.000000
_cell_angle_beta 90.000000
_cell_angle_gamma 90.000000
_cell_volume 2157.003380
_symmetry_space_group_name_H-M "P B A N"
_symmetry_group_IT_number 50
_space_group.IT_coordinate_system_code '2'
_symmetry_cell_setting 'orthorhombic'
loop_
_space_group_symop_operation_xyz
x,y,z
1/2-x,1/2-y,z
x,1/2-y,-z
1/2-x,y,-z
-x,-y,-z
1/2+x,1/2+y,-z
-x,1/2+y,z
1/2+x,-y,z
loop_
_atom_site_type_symbol
_atom_site_label
_atom_site_fract_x
_atom_site_fract_y
_atom_site_fract_z
Si Si1 0.746530 0.144989 0.335386
Si Si2 0.250185 0.023581 0.166659
Si Si3 0.750000 0.828867 0.000000
Si Si4 0.250000 0.750000 0.768061
Si Si5 0.527636 0.897490 0.152774
Si Si6 0.071205 0.570603 0.837756
Si Si7 0.496492 0.250000 0.000000
O O1 0.750000 0.128459 0.500000
O O2 0.713777 0.202929 0.328890
O O3 0.599866 0.118225 0.258159
O O4 0.908365 0.129570 0.258221
O O5 0.102923 0.054803 0.231239
O O6 0.420019 0.041087 0.224494
O O7 0.221949 0.965685 0.185842
O O8 0.250000 0.037597 0.000000
O O9 0.678733 0.862177 0.126352
O O10 0.608303 0.794917 0.941892
O O11 0.397026 0.733583 0.866457
O O12 0.441422 0.912472 0.003282
#
# Coordination Sequence:
#
# PCOD8204959 Si02
#       7
#     8   8   4   4   8   8   4
#     4  12  26  42  60  88 127 171 210 252 310 382
#     4  10  19  34  63  97 125 156 205 266 319 367
#     4  11  18  36  60 100 126 150 198 265 324 362
#     4  11  23  40  64  90 122 160 204 256 314 378
#     4  11  20  38  64  94 124 160 205 261 315 371
#     4  11  21  38  63  94 125 161 212 263 315 369
#     4  10  22  34  66 100 120 148 204 272 316 366
#
# _framework density 20.398669000000002
#
# number of rings (size 3 to 8) (size 9 to 14) (size 15 to 20)
#    0.000    1.091    4.545    6.273    2.545    0.000 
#    0.000    4.545    0.000    0.000    0.000    0.000 
#    0.000    0.000    0.000    0.000    0.000    0.000 
#
# Total GULP energy -545426.788678 kJ/mol
# GULP energy per Si atom -12396.063379 kJ/mol
# Density = 2.035224 g / cm^3
# Si number density = 20.398669 Si / 1000 Ang^3
#
#
#
# Elastic Constant Matrix: (Units=GPa)
#
#
# Indices 1 2 3 4 5 6 
#
# 1 100.5807 46.0354 38.4336 0.0000 0.0000 0.0000
# 2 46.0354 139.4553 37.2074 0.0000 0.0000 0.0000
# 3 38.4336 37.2074 80.8323 0.0000 0.0000 0.0000
# 4 0.0000 0.0000 0.0000 12.7976 0.0000 0.0000
# 5 0.0000 0.0000 0.0000 0.0000 5.2086 0.0000
# 6 0.0000 0.0000 0.0000 0.0000 0.0000 47.5010
#
#
#
# Elastic Compliance Matrix: (Units=1/GPa)
#
#
# Indices 1 2 3 4 5 6 
#
# 1 0.013203 -0.003059 -0.004870 0.000000 0.000000 0.000000
# 2 -0.003059 0.008884 -0.002635 0.000000 0.000000 0.000000
# 3 -0.004870 -0.002635 0.015899 0.000000 0.000000 0.000000
# 4 0.000000 0.000000 0.000000 0.078140 0.000000 0.000000
# 5 0.000000 0.000000 0.000000 0.000000 0.191990 0.000000
# 6 0.000000 0.000000 0.000000 0.000000 0.000000 0.021052
#
#
# Mechanical properties :
#
#
# Convention : Reuss Voigt Hill
#
# Bulk Modulus (GPa) = 59.31430 62.69124 61.00277
# Shear Modulus (GPa) = 14.04831 26.38089 20.21460
#
# Velocity S-wave (km/s) = 2.62713 3.60010 3.15139
# Velocity P-wave (km/s) = 6.19218 6.93402 6.57358
#
# Compressibility (1/GPa) = 0.01685934
#
# Stress axis : x y z
#
# Youngs Moduli (GPa) = 75.73895 112.56757 62.89568
#
# Poissons Ratio (x) = 0.34438 0.30628
# Poissons Ratio (y) = 0.23171 0.16570
# Poissons Ratio (z) = 0.36882 0.29656
#
# Static dielectric constant tensor:
#      x y z
#    x 3.955460 0.000000 0.000000 
#    y 0.000000 4.017650 0.000000 
#    z 0.000000 0.000000 3.037410 
# 
# 
# High freq. dielectric constant tensor:
#      x y z
#    x 1.815050 0.000000 0.000000 
#    y 0.000000 1.827450 0.000000 
#    z 0.000000 0.000000 1.718040 
# 
# From -- ./inp_files/10006.got.cif
#   From: 2010.03.12/outbox.cif.g09.slc.cpg/sg50_6_cif.got.tgz:10006.got - 2010.04.16 13:23:21.
