data_PCOD8204302
_publ_section_title
;
Structure prediction by ZEFSAII (Michael W. Deem and Ramdas Pophale) SiO2 
 PCOD8204302
Probable space group: P C C M
;
_chemical_formula_sum "Si O2"
_cell_formula_units_Z 40
_cell_length_a 17.066322
_cell_length_b 5.806233
_cell_length_c 18.687032
_cell_angle_alpha 90.000000
_cell_angle_beta 90.000000
_cell_angle_gamma 90.000000
_cell_volume 1851.717472
_symmetry_space_group_name_H-M "P C C M"
_symmetry_group_IT_number 49
_symmetry_cell_setting 'orthorhombic'
loop_
_space_group_symop_operation_xyz
x,y,z
-x,-y,z
x,-y,1/2-z
-x,y,1/2-z
-x,-y,-z
x,y,-z
-x,y,1/2+z
x,-y,1/2+z
loop_
_atom_site_type_symbol
_atom_site_label
_atom_site_fract_x
_atom_site_fract_y
_atom_site_fract_z
Si Si1 0.414703 0.409800 0.919784
Si Si2 0.320325 0.119307 0.178855
Si Si3 0.734118 0.732136 0.418711
Si Si4 0.042097 0.248971 0.082283
Si Si5 0.173287 0.408534 0.823482
O O1 0.500000 0.500000 0.900088
O O2 0.396358 0.218753 0.860696
O O3 0.349363 0.605830 0.914088
O O4 0.414419 0.303321 0.000000
O O5 0.255275 0.301076 0.203508
O O6 0.352947 0.000000 0.250000
O O7 0.274218 0.969980 0.121412
O O8 0.759229 0.778844 0.500000
O O9 0.806369 0.601678 0.382156
O O10 0.115047 0.233137 0.136801
O O11 0.000000 0.500000 0.098811
O O12 0.069887 0.254259 0.000000
O O13 0.000000 0.000000 0.096161
O O14 0.133335 0.500000 0.750000
#
# Coordination Sequence:
#
# PCOD8204302 Si02
#       5
#     8   8   8   8   8
#     4   9  20  39  61  87 124 167 215 272 331 399
#     4  11  22  38  62  91 126 166 218 276 337 399
#     4  10  21  38  63  92 122 166 218 270 326 396
#     4  10  24  45  69 102 140 179 227 281 339 411
#     4  11  23  41  65  94 130 174 214 275 335 402
#
# _framework density 21.601566999999999
#
# number of rings (size 3 to 8) (size 9 to 14) (size 15 to 20)
#    0.000    1.800    2.000    1.200    2.800    3.600 
#    0.000    7.000    0.000    0.000    0.000    0.000 
#    0.000    0.000    0.000    0.000    0.000    0.000 
#
# Total GULP energy -495699.684351 kJ/mol
# GULP energy per Si atom -12392.492109 kJ/mol
# Density = 2.155240 g / cm^3
# Si number density = 21.601567 Si / 1000 Ang^3
#
#
#
# Elastic Constant Matrix: (Units=GPa)
#
#
# Indices 1 2 3 4 5 6 
#
# 1 94.6247 31.3566 60.1119 0.0000 0.0000 0.0000
# 2 31.3566 103.9118 58.9994 0.0000 0.0000 0.0000
# 3 60.1119 58.9994 175.1655 0.0000 0.0000 0.0000
# 4 0.0000 0.0000 0.0000 38.4617 0.0000 0.0000
# 5 0.0000 0.0000 0.0000 0.0000 8.0636 0.0000
# 6 0.0000 0.0000 0.0000 0.0000 0.0000 23.6733
#
#
#
# Elastic Compliance Matrix: (Units=1/GPa)
#
#
# Indices 1 2 3 4 5 6 
#
# 1 0.013788 -0.001823 -0.004118 0.000000 0.000000 0.000000
# 2 -0.001823 0.012140 -0.003464 0.000000 0.000000 0.000000
# 3 -0.004118 -0.003464 0.008289 0.000000 0.000000 0.000000
# 4 0.000000 0.000000 0.000000 0.026000 0.000000 0.000000
# 5 0.000000 0.000000 0.000000 0.000000 0.124014 0.000000
# 6 0.000000 0.000000 0.000000 0.000000 0.000000 0.042242
#
#
# Mechanical properties :
#
#
# Convention : Reuss Voigt Hill
#
# Bulk Modulus (GPa) = 64.89845 74.95976 69.92911
# Shear Modulus (GPa) = 19.96672 28.92198 24.44435
#
# Velocity S-wave (km/s) = 3.04356 3.66305 3.36758
# Velocity P-wave (km/s) = 6.51610 7.25720 6.89661
#
# Compressibility (1/GPa) = 0.01540869
#
# Stress axis : x y z
#
# Youngs Moduli (GPa) = 72.52737 82.37153 120.64818
#
# Poissons Ratio (x) = 0.15014 0.49679
# Poissons Ratio (y) = 0.13220 0.41787
# Poissons Ratio (z) = 0.29865 0.28530
#
# Static dielectric constant tensor:
#      x y z
#    x 3.659090 0.000000 0.000000 
#    y 0.000000 3.974900 0.000000 
#    z 0.000000 0.000000 4.012990 
# 
# 
# High freq. dielectric constant tensor:
#      x y z
#    x 1.832860 0.000000 0.000000 
#    y 0.000000 1.846090 0.000000 
#    z 0.000000 0.000000 1.865610 
# 
# From -- ./inp_files/15245.got.cif
#   From: 2010.03.12/outbox.cif.g09.slc.cpg/sg49_8_cif.got.tgz:15245.got - 2010.04.14 03:58:27.
