data_PCOD8204285
_publ_section_title
;
Structure prediction by ZEFSAII (Michael W. Deem and Ramdas Pophale) SiO2 
 PCOD8204285
Probable space group: P C C M
;
_chemical_formula_sum "Si O2"
_cell_formula_units_Z 64
_cell_length_a 17.841600
_cell_length_b 20.388702
_cell_length_c 9.003796
_cell_angle_alpha 90.000000
_cell_angle_beta 90.000000
_cell_angle_gamma 90.000000
_cell_volume 3275.284450
_symmetry_space_group_name_H-M "P C C M"
_symmetry_group_IT_number 49
_symmetry_cell_setting 'orthorhombic'
loop_
_space_group_symop_operation_xyz
x,y,z
-x,-y,z
x,-y,1/2-z
-x,y,1/2-z
-x,-y,-z
x,y,-z
-x,y,1/2+z
x,-y,1/2+z
loop_
_atom_site_type_symbol
_atom_site_label
_atom_site_fract_x
_atom_site_fract_y
_atom_site_fract_z
Si Si1 0.184286 0.432815 0.672508
Si Si2 0.423921 0.693532 0.676104
Si Si3 0.860458 0.192837 0.327825
Si Si4 0.640143 0.567199 0.672746
Si Si5 0.312493 0.936256 0.167448
Si Si6 0.310369 0.806625 0.326639
Si Si7 0.922950 0.332637 0.674927
Si Si8 0.866149 0.063820 0.832833
O O1 0.158387 0.500000 0.750000
O O2 0.161749 0.435809 0.500000
O O3 0.271946 0.420719 0.694763
O O4 0.144222 0.372940 0.753221
O O5 0.500000 0.720050 0.750000
O O6 0.433105 0.686954 0.500000
O O7 0.405198 0.623588 0.745414
O O8 0.358498 0.743868 0.720165
O O9 0.862585 0.174757 0.500000
O O10 0.775087 0.207439 0.278018
O O11 0.909811 0.256198 0.290269
O O12 0.895490 0.130921 0.241506
O O13 0.615303 0.500000 0.750000
O O14 0.618165 0.565143 0.500000
O O15 0.343015 0.870459 0.244251
O O16 0.223115 0.937223 0.175578
O O17 0.345422 0.000000 0.250000
O O18 0.341991 0.937709 0.000000
O O19 0.316331 0.821160 0.500000
O O20 0.925380 0.346595 0.500000
O O21 0.000000 0.355300 0.750000
O O22 0.899233 0.000000 0.750000
O O23 0.895993 0.062012 0.000000
#
# Coordination Sequence:
#
# PCOD8204285 Si02
#       8
#     8   8   8   8   8   8   8   8
#     4  10  21  38  61  87 113 141 176 219 266 318
#     4  11  23  38  56  79 110 146 183 223 268 318
#     4   9  18  33  53  76 103 137 176 218 265 317
#     4  10  21  38  61  87 113 141 176 219 266 318
#     4   9  16  26  44  72 104 135 169 213 263 314
#     4   9  18  33  53  76 103 137 176 218 265 317
#     4  11  23  38  56  79 110 146 183 223 268 318
#     4   9  16  26  44  72 104 135 169 213 263 314
#
# _framework density 19.540286999999999
#
# number of rings (size 3 to 8) (size 9 to 14) (size 15 to 20)
#    0.000    2.250    0.000    3.000    0.000    8.000 
#    0.000    5.000    0.000    0.750    0.000    5.250 
#    0.000    0.000    0.000    0.000    0.000    0.000 
#
# Total GULP energy -793799.986317 kJ/mol
# GULP energy per Si atom -12403.124786 kJ/mol
# Density = 1.949581 g / cm^3
# Si number density = 19.540287 Si / 1000 Ang^3
#
#
#
# Elastic Constant Matrix: (Units=GPa)
#
#
# Indices 1 2 3 4 5 6 
#
# 1 28.9936 6.1538 19.0980 0.0000 0.0000 0.0000
# 2 6.1538 85.5725 46.4338 0.0000 0.0000 0.0000
# 3 19.0980 46.4338 108.1744 0.0000 0.0000 0.0000
# 4 0.0000 0.0000 0.0000 42.0330 0.0000 0.0000
# 5 0.0000 0.0000 0.0000 0.0000 19.2940 0.0000
# 6 0.0000 0.0000 0.0000 0.0000 0.0000 6.1583
#
#
#
# Elastic Compliance Matrix: (Units=1/GPa)
#
#
# Indices 1 2 3 4 5 6 
#
# 1 0.039126 0.001218 -0.007431 0.000000 0.000000 0.000000
# 2 0.001218 0.015272 -0.006771 0.000000 0.000000 0.000000
# 3 -0.007431 -0.006771 0.013463 0.000000 0.000000 0.000000
# 4 0.000000 0.000000 0.000000 0.023791 0.000000 0.000000
# 5 0.000000 0.000000 0.000000 0.000000 0.051830 0.000000
# 6 0.000000 0.000000 0.000000 0.000000 0.000000 0.162382
#
#
# Mechanical properties :
#
#
# Convention : Reuss Voigt Hill
#
# Bulk Modulus (GPa) = 23.86909 40.67906 32.27407
# Shear Modulus (GPa) = 14.45945 23.56739 19.01342
#
# Velocity S-wave (km/s) = 2.72321 3.47665 3.12274
# Velocity P-wave (km/s) = 4.70422 6.08107 5.43641
#
# Compressibility (1/GPa) = 0.04189519
#
# Stress axis : x y z
#
# Youngs Moduli (GPa) = 25.55820 65.47779 74.28017
#
# Poissons Ratio (x) = -0.07978 0.55195
# Poissons Ratio (y) = -0.03114 0.50293
# Poissons Ratio (z) = 0.18991 0.44333
#
# Static dielectric constant tensor:
#      x y z
#    x 3.251700 0.000000 0.000000 
#    y 0.000000 3.652630 0.000000 
#    z 0.000000 0.000000 3.654730 
# 
# 
# High freq. dielectric constant tensor:
#      x y z
#    x 1.728100 0.000000 0.000000 
#    y 0.000000 1.773250 0.000000 
#    z 0.000000 0.000000 1.771710 
# 
# From -- ./inp_files/5300.got.cif
#   From: 2010.03.12/outbox.cif.g09.slc.cpg/sg49_3_cif.got.tgz:5300.got - 2010.04.14 03:58:27.
