data_PCOD8204523
_publ_section_title
;
Structure prediction by ZEFSAII (Michael W. Deem and Ramdas Pophale) SiO2 
 PCOD8204523
Probable space group: P C C M
;
_chemical_formula_sum "Si O2"
_cell_formula_units_Z 64
_cell_length_a 14.444593
_cell_length_b 11.637125
_cell_length_c 18.186672
_cell_angle_alpha 90.000000
_cell_angle_beta 90.000000
_cell_angle_gamma 90.000000
_cell_volume 3057.061974
_symmetry_space_group_name_H-M "P C C M"
_symmetry_group_IT_number 49
_symmetry_cell_setting 'orthorhombic'
loop_
_space_group_symop_operation_xyz
x,y,z
-x,-y,z
x,-y,1/2-z
-x,y,1/2-z
-x,-y,-z
x,y,-z
-x,y,1/2+z
x,-y,1/2+z
loop_
_atom_site_type_symbol
_atom_site_label
_atom_site_fract_x
_atom_site_fract_y
_atom_site_fract_z
Si Si1 0.399960 0.052169 0.585556
Si Si2 0.873081 0.533148 0.828860
Si Si3 0.325195 0.276374 0.649010
Si Si4 0.749675 0.860801 0.916038
Si Si5 0.689328 0.657589 0.814040
Si Si6 0.865996 0.698217 0.585152
Si Si7 0.065317 0.751225 0.583143
Si Si8 0.604958 0.504222 0.922070
O O1 0.401462 0.083299 0.500000
O O2 0.389314 0.167658 0.631989
O O3 0.500000 0.000000 0.608674
O O4 0.308423 0.975159 0.603404
O O5 0.918194 0.500000 0.750000
O O6 0.765379 0.556820 0.815104
O O7 0.888591 0.429990 0.885995
O O8 0.916580 0.649297 0.859743
O O9 0.341216 0.307034 0.733523
O O10 0.217279 0.246843 0.632591
O O11 0.353517 0.381712 0.598757
O O12 0.717259 0.768275 0.858647
O O13 0.863421 0.860394 0.906043
O O14 0.725427 0.826423 0.000000
O O15 0.606413 0.598869 0.857920
O O16 0.836875 0.691711 0.500000
O O17 0.956436 0.781607 0.594784
O O18 0.078503 0.703940 0.500000
O O19 0.500000 0.500000 0.942046
O O20 0.655107 0.540003 0.000000
#
# Coordination Sequence:
#
# PCOD8204523 Si02
#       8
#     8   8   8   8   8   8   8   8
#     4  10  23  44  70  95 119 160 219 270 320 385
#     4  11  19  34  52  86 125 165 202 249 304 372
#     4  12  24  41  61  92 131 164 204 264 325 376
#     4   9  20  41  64  86 120 164 212 269 316 369
#     4  11  22  39  60  90 128 164 205 254 318 386
#     4  11  21  35  56  86 124 168 211 253 305 372
#     4   9  20  35  56  86 121 164 215 261 308 368
#     4  11  24  40  62  90 124 169 212 253 315 387
#
# _framework density 20.935133
#
# number of rings (size 3 to 8) (size 9 to 14) (size 15 to 20)
#    0.000    1.500    2.500    2.625    1.750    4.500 
#    0.000    1.250    0.000    3.000    0.000    1.750 
#    0.000    0.000    0.000    0.000    0.000    0.250 
#
# Total GULP energy -792844.095186 kJ/mol
# GULP energy per Si atom -12388.188987 kJ/mol
# Density = 2.088748 g / cm^3
# Si number density = 20.935133 Si / 1000 Ang^3
#
#
#
# Elastic Constant Matrix: (Units=GPa)
#
#
# Indices 1 2 3 4 5 6 
#
# 1 105.4271 41.8356 45.5493 0.0000 0.0000 0.0000
# 2 41.8356 69.0996 49.6469 0.0000 0.0000 0.0000
# 3 45.5493 49.6469 140.9651 0.0000 0.0000 0.0000
# 4 0.0000 0.0000 0.0000 27.1499 0.0000 0.0000
# 5 0.0000 0.0000 0.0000 0.0000 15.2506 0.0000
# 6 0.0000 0.0000 0.0000 0.0000 0.0000 22.5388
#
#
#
# Elastic Compliance Matrix: (Units=1/GPa)
#
#
# Indices 1 2 3 4 5 6 
#
# 1 0.012850 -0.006422 -0.001891 0.000000 0.000000 0.000000
# 2 -0.006422 0.022584 -0.005879 0.000000 0.000000 0.000000
# 3 -0.001891 -0.005879 0.009775 0.000000 0.000000 0.000000
# 4 0.000000 0.000000 0.000000 0.036832 0.000000 0.000000
# 5 0.000000 0.000000 0.000000 0.000000 0.065571 0.000000
# 6 0.000000 0.000000 0.000000 0.000000 0.000000 0.044368
#
#
# Mechanical properties :
#
#
# Convention : Reuss Voigt Hill
#
# Bulk Modulus (GPa) = 59.42795 65.50616 62.46706
# Shear Modulus (GPa) = 22.12663 24.88519 23.50591
#
# Velocity S-wave (km/s) = 3.25455 3.45147 3.35445
# Velocity P-wave (km/s) = 6.52465 6.87324 6.70122
#
# Compressibility (1/GPa) = 0.01682710
#
# Stress axis : x y z
#
# Youngs Moduli (GPa) = 77.81906 44.27980 102.29857
#
# Poissons Ratio (x) = 0.28435 0.19340
# Poissons Ratio (y) = 0.49973 0.60139
# Poissons Ratio (z) = 0.14712 0.26031
#
# Static dielectric constant tensor:
#      x y z
#    x 4.259290 0.000000 0.000000 
#    y 0.000000 3.513220 0.000000 
#    z 0.000000 0.000000 3.105190 
# 
# 
# High freq. dielectric constant tensor:
#      x y z
#    x 1.831490 0.000000 0.000000 
#    y 0.000000 1.783810 0.000000 
#    z 0.000000 0.000000 1.830430 
# 
# From -- ./inp_files/17971.got.cif
#   From: 2010.03.12/outbox.cif.g09.slc.cpg/sg49_9_cif.got.tgz:17971.got - 2010.04.14 03:58:27.
