data_PCOD8204653
_publ_section_title
;
Structure prediction by ZEFSAII (Michael W. Deem and Ramdas Pophale) SiO2 
 PCOD8204653
Probable space group: P C C M
;
_chemical_formula_sum "Si O2"
_cell_formula_units_Z 48
_cell_length_a 8.731745
_cell_length_b 17.229603
_cell_length_c 13.958276
_cell_angle_alpha 90.000000
_cell_angle_beta 90.000000
_cell_angle_gamma 90.000000
_cell_volume 2099.945852
_symmetry_space_group_name_H-M "P C C M"
_symmetry_group_IT_number 49
_symmetry_cell_setting 'orthorhombic'
loop_
_space_group_symop_operation_xyz
x,y,z
-x,-y,z
x,-y,1/2-z
-x,y,1/2-z
-x,-y,-z
x,y,-z
-x,y,1/2+z
x,-y,1/2+z
loop_
_atom_site_type_symbol
_atom_site_label
_atom_site_fract_x
_atom_site_fract_y
_atom_site_fract_z
Si Si1 0.795502 0.130290 0.500000
Si Si2 0.328422 0.500877 0.138032
Si Si3 0.126906 0.358055 0.326204
Si Si4 0.486361 0.767410 0.000000
Si Si5 0.171578 0.081798 0.788113
Si Si6 0.020730 0.726788 0.500000
Si Si7 0.656516 0.773180 0.700750
Si Si8 0.305669 0.629616 0.500000
O O1 0.632673 0.175622 0.500000
O O2 0.810896 0.079203 0.596418
O O3 0.952074 0.181319 0.500000
O O4 0.500000 0.500000 0.092294
O O5 0.340750 0.500000 0.250000
O O6 0.215554 0.572986 0.116354
O O7 0.261895 0.422343 0.093268
O O8 0.243287 0.302119 0.270276
O O9 0.000000 0.390224 0.250000
O O10 0.059853 0.300716 0.404577
O O11 0.373095 0.783894 0.088189
O O12 0.530783 0.674514 0.000000
O O13 0.274292 0.149819 0.745702
O O14 0.000000 0.094928 0.750000
O O15 0.235686 0.000000 0.750000
O O16 0.193742 0.700180 0.500000
O O17 0.500000 0.751701 0.750000
#
# Coordination Sequence:
#
# PCOD8204653 Si02
#       8
#     4   8   8   4   8   4   8   4
#     4  11  22  47  71 109 149 195 249 297 370 432
#     4  11  25  41  64  93 134 184 229 299 361 438
#     4  12  26  42  69 101 136 185 242 303 363 430
#     4  11  25  43  75 108 141 203 237 313 366 446
#     4  11  26  47  76 111 153 197 241 306 367 440
#     4  11  24  41  68  97 134 179 232 302 344 431
#     4  12  25  44  73 105 144 188 244 294 365 442
#     4  11  24  44  67  95 141 178 245 295 373 434
#
# _framework density 22.857731999999999
#
# number of rings (size 3 to 8) (size 9 to 14) (size 15 to 20)
#    0.000    0.667    1.667    5.750    7.000    6.000 
#    0.000    0.833    0.000    0.000    0.000    0.000 
#    0.000    0.000    0.000    0.000    0.000    0.000 
#
# Total GULP energy -594893.328530 kJ/mol
# GULP energy per Si atom -12393.611011 kJ/mol
# Density = 2.280571 g / cm^3
# Si number density = 22.857732 Si / 1000 Ang^3
#
#
#
# Elastic Constant Matrix: (Units=GPa)
#
#
# Indices 1 2 3 4 5 6 
#
# 1 96.6084 31.8740 29.3437 0.0000 0.0000 0.0000
# 2 31.8740 119.1081 46.8265 0.0000 0.0000 0.0000
# 3 29.3437 46.8265 159.1671 0.0000 0.0000 0.0000
# 4 0.0000 0.0000 0.0000 56.4846 0.0000 0.0000
# 5 0.0000 0.0000 0.0000 0.0000 38.6905 0.0000
# 6 0.0000 0.0000 0.0000 0.0000 0.0000 22.1052
#
#
#
# Elastic Compliance Matrix: (Units=1/GPa)
#
#
# Indices 1 2 3 4 5 6 
#
# 1 0.011618 -0.002564 -0.001388 0.000000 0.000000 0.000000
# 2 -0.002564 0.010059 -0.002487 0.000000 0.000000 0.000000
# 3 -0.001388 -0.002487 0.007270 0.000000 0.000000 0.000000
# 4 0.000000 0.000000 0.000000 0.017704 0.000000 0.000000
# 5 0.000000 0.000000 0.000000 0.000000 0.025846 0.000000
# 6 0.000000 0.000000 0.000000 0.000000 0.000000 0.045238
#
#
# Mechanical properties :
#
#
# Convention : Reuss Voigt Hill
#
# Bulk Modulus (GPa) = 62.22126 65.66357 63.94242
# Shear Modulus (GPa) = 36.77289 41.24536 39.00912
#
# Velocity S-wave (km/s) = 4.01530 4.25248 4.13559
# Velocity P-wave (km/s) = 6.98406 7.27330 7.13014
#
# Compressibility (1/GPa) = 0.01607168
#
# Stress axis : x y z
#
# Youngs Moduli (GPa) = 86.07054 99.40906 137.54833
#
# Poissons Ratio (x) = 0.25484 0.19088
# Poissons Ratio (y) = 0.22065 0.34206
# Poissons Ratio (z) = 0.11944 0.24722
#
# Static dielectric constant tensor:
#      x y z
#    x 4.550020 0.000000 0.000000 
#    y 0.000000 4.120390 0.000000 
#    z 0.000000 0.000000 3.827200 
# 
# 
# High freq. dielectric constant tensor:
#      x y z
#    x 1.914300 0.000000 0.000000 
#    y 0.000000 1.894140 0.000000 
#    z 0.000000 0.000000 1.917900 
# 
# From -- ./inp_files/11910.got.cif
#   From: 2010.03.12/outbox.cif.g09.slc.cpg/sg49_6_cif.got.tgz:11910.got - 2010.04.14 03:58:27.
