data_PCOD8204730
_publ_section_title
;
Structure prediction by ZEFSAII (Michael W. Deem and Ramdas Pophale) SiO2 
 PCOD8204730
Probable space group: P B A N
;
_chemical_formula_sum "Si O2"
_cell_formula_units_Z 44
_cell_length_a 16.444475
_cell_length_b 13.000800
_cell_length_c 11.483575
_cell_angle_alpha 90.000000
_cell_angle_beta 90.000000
_cell_angle_gamma 90.000000
_cell_volume 2455.088779
_symmetry_space_group_name_H-M "P B A N"
_symmetry_group_IT_number 50
_space_group.IT_coordinate_system_code '2'
_symmetry_cell_setting 'orthorhombic'
loop_
_space_group_symop_operation_xyz
x,y,z
1/2-x,1/2-y,z
x,1/2-y,-z
1/2-x,y,-z
-x,-y,-z
1/2+x,1/2+y,-z
-x,1/2+y,z
1/2+x,-y,z
loop_
_atom_site_type_symbol
_atom_site_label
_atom_site_fract_x
_atom_site_fract_y
_atom_site_fract_z
Si Si1 0.369565 0.977989 0.805423
Si Si2 0.463105 0.106769 0.106964
Si Si3 0.459387 0.333210 0.156112
Si Si4 0.127302 0.907831 0.816106
Si Si5 0.746959 0.128142 0.365953
Si Si6 0.750000 0.075405 0.000000
O O1 0.446706 0.910763 0.844752
O O2 0.333121 0.920792 0.692901
O O3 0.303521 0.991257 0.909198
O O4 0.398375 0.094072 0.769901
O O5 0.428502 0.216816 0.151577
O O6 0.399081 0.022562 0.148337
O O7 0.467329 0.108416 0.967831
O O8 0.551057 0.333287 0.206128
O O9 0.173430 0.918804 0.694311
O O10 0.187289 0.860053 0.917427
O O11 0.750000 0.250000 0.348131
O O12 0.750000 0.095992 0.500000
#
# Coordination Sequence:
#
# PCOD8204730 Si02
#       6
#     8   8   8   8   8   4
#     4  10  18  33  52  74 109 132 168 216 251 300
#     4  10  18  31  51  78 110 141 167 198 251 314
#     4  10  18  31  51  78 110 141 167 198 251 314
#     4  10  18  33  52  74 109 132 168 216 251 300
#     4  10  22  38  55  75  98 132 175 216 259 299
#     4  10  16  28  46  74 104 132 160 202 258 304
#
# _framework density 17.921959000000001
#
# number of rings (size 3 to 8) (size 9 to 14) (size 15 to 20)
#    0.000    2.000    3.636    2.182    0.000    0.000 
#    0.000   10.909    0.000    4.364    0.000    0.000 
#    0.000    0.000    0.000    0.000    0.000    0.000 
#
# Total GULP energy -545307.954437 kJ/mol
# GULP energy per Si atom -12393.362601 kJ/mol
# Density = 1.788117 g / cm^3
# Si number density = 17.921959 Si / 1000 Ang^3
#
#
#
# Elastic Constant Matrix: (Units=GPa)
#
#
# Indices 1 2 3 4 5 6 
#
# 1 81.8002 22.9795 46.7863 0.0000 0.0000 0.0000
# 2 22.9795 73.6518 34.7705 0.0000 0.0000 0.0000
# 3 46.7863 34.7705 106.5522 0.0000 0.0000 0.0000
# 4 0.0000 0.0000 0.0000 19.7035 0.0000 0.0000
# 5 0.0000 0.0000 0.0000 0.0000 19.6986 0.0000
# 6 0.0000 0.0000 0.0000 0.0000 0.0000 18.4126
#
#
#
# Elastic Compliance Matrix: (Units=1/GPa)
#
#
# Indices 1 2 3 4 5 6 
#
# 1 0.016583 -0.002053 -0.006612 0.000000 0.000000 0.000000
# 2 -0.002053 0.016304 -0.004419 0.000000 0.000000 0.000000
# 3 -0.006612 -0.004419 0.013730 0.000000 0.000000 0.000000
# 4 0.000000 0.000000 0.000000 0.050752 0.000000 0.000000
# 5 0.000000 0.000000 0.000000 0.000000 0.050765 0.000000
# 6 0.000000 0.000000 0.000000 0.000000 0.000000 0.054311
#
#
# Mechanical properties :
#
#
# Convention : Reuss Voigt Hill
#
# Bulk Modulus (GPa) = 48.89835 52.34185 50.62010
# Shear Modulus (GPa) = 21.23779 22.06080 21.64929
#
# Velocity S-wave (km/s) = 3.44614 3.51228 3.47937
# Velocity P-wave (km/s) = 6.57098 6.76143 6.66689
#
# Compressibility (1/GPa) = 0.02045059
#
# Stress axis : x y z
#
# Youngs Moduli (GPa) = 60.30206 61.33449 72.83169
#
# Poissons Ratio (x) = 0.12590 0.48154
# Poissons Ratio (y) = 0.12378 0.32185
# Poissons Ratio (z) = 0.39870 0.27104
#
# Static dielectric constant tensor:
#      x y z
#    x 3.547620 0.000000 0.000000 
#    y 0.000000 3.243260 0.000000 
#    z 0.000000 0.000000 3.080150 
# 
# 
# High freq. dielectric constant tensor:
#      x y z
#    x 1.704690 0.000000 0.000000 
#    y 0.000000 1.685400 0.000000 
#    z 0.000000 0.000000 1.655220 
# 
# From -- ./inp_files/21008.got.cif
#   From: 2010.03.12/outbox.cif.g09.slc.cpg/sg50_11_cif.got.tgz:21008.got - 2010.04.16 13:23:21.
