data_PCOD8204901
_publ_section_title
;
Structure prediction by ZEFSAII (Michael W. Deem and Ramdas Pophale) SiO2 
 PCOD8204901
Probable space group: P B A N
;
_chemical_formula_sum "Si O2"
_cell_formula_units_Z 58
_cell_length_a 5.150008
_cell_length_b 18.232225
_cell_length_c 29.633891
_cell_angle_alpha 90.000000
_cell_angle_beta 90.000000
_cell_angle_gamma 90.000000
_cell_volume 2782.506929
_symmetry_space_group_name_H-M "P B A N"
_symmetry_group_IT_number 50
_space_group.IT_coordinate_system_code '2'
_symmetry_cell_setting 'orthorhombic'
loop_
_space_group_symop_operation_xyz
x,y,z
1/2-x,1/2-y,z
x,1/2-y,-z
1/2-x,y,-z
-x,-y,-z
1/2+x,1/2+y,-z
-x,1/2+y,z
1/2+x,-y,z
loop_
_atom_site_type_symbol
_atom_site_label
_atom_site_fract_x
_atom_site_fract_y
_atom_site_fract_z
Si Si1 0.576622 0.545151 0.779725
Si Si2 0.747471 0.663356 0.394806
Si Si3 0.616188 0.543799 0.673437
Si Si4 0.750000 0.750000 0.000000
Si Si5 0.256849 0.836697 0.449827
Si Si6 0.786397 0.042806 0.948253
Si Si7 0.055706 0.686121 0.077894
Si Si8 0.484670 0.295981 0.178062
O O1 0.351402 0.488620 0.795680
O O2 0.600448 0.556291 0.726519
O O3 0.505565 0.623975 0.800100
O O4 0.750000 0.750000 0.384202
O O5 0.802289 0.621478 0.348134
O O6 0.480353 0.637287 0.418170
O O7 0.972880 0.638510 0.428649
O O8 0.333187 0.515540 0.658111
O O9 0.620670 0.690072 0.966733
O O10 0.250000 0.750000 0.454109
O O11 0.250000 0.871660 0.500000
O O12 0.718056 0.111730 0.917832
O O13 0.581238 0.978447 0.936316
O O14 0.750000 0.064863 0.000000
O O15 0.250000 0.750000 0.068689
O O16 0.910138 0.694956 0.125305
O O17 0.750000 0.250000 0.185221
O O18 0.250000 0.250000 0.200577
#
# Coordination Sequence:
#
# PCOD8204901 Si02
#       8
#     8   8   8   2   8   8   8   8
#     4  10  22  42  68  92 121 163 206 243 305 385
#     4  10  19  32  54  83 112 148 201 254 297 348
#     4  10  21  38  59  85 117 155 192 238 303 371
#     4  12  22  40  64  86 120 164 208 232 282 360
#     4   9  17  30  50  78 113 154 200 250 299 349
#     4  10  23  38  57  83 116 149 191 241 285 325
#     4  11  25  40  63  89 121 161 203 236 291 354
#     4  11  24  43  64  95 127 156 199 256 306 354
#
# _framework density 20.844515000000001
#
# number of rings (size 3 to 8) (size 9 to 14) (size 15 to 20)
#    0.000    1.793    0.690    3.103    4.828    3.310 
#    0.000    2.069    0.000    8.276    0.000    0.000 
#    0.000    0.000    0.000    0.000    0.000    0.000 
#
# Total GULP energy -718893.980186 kJ/mol
# GULP energy per Si atom -12394.723796 kJ/mol
# Density = 2.079707 g / cm^3
# Si number density = 20.844515 Si / 1000 Ang^3
#
#
#
# Elastic Constant Matrix: (Units=GPa)
#
#
# Indices 1 2 3 4 5 6 
#
# 1 121.7380 35.7616 38.3618 0.0000 0.0000 0.0000
# 2 35.7616 105.6138 44.8951 0.0000 0.0000 0.0000
# 3 38.3618 44.8951 66.4126 0.0000 0.0000 0.0000
# 4 0.0000 0.0000 0.0000 22.8267 0.0000 0.0000
# 5 0.0000 0.0000 0.0000 0.0000 23.5224 0.0000
# 6 0.0000 0.0000 0.0000 0.0000 0.0000 30.9525
#
#
#
# Elastic Compliance Matrix: (Units=1/GPa)
#
#
# Indices 1 2 3 4 5 6 
#
# 1 0.010173 -0.001329 -0.004978 0.000000 0.000000 0.000000
# 2 -0.001329 0.013460 -0.008332 0.000000 0.000000 0.000000
# 3 -0.004978 -0.008332 0.023565 0.000000 0.000000 0.000000
# 4 0.000000 0.000000 0.000000 0.043808 0.000000 0.000000
# 5 0.000000 0.000000 0.000000 0.000000 0.042513 0.000000
# 6 0.000000 0.000000 0.000000 0.000000 0.000000 0.032308
#
#
# Mechanical properties :
#
#
# Convention : Reuss Voigt Hill
#
# Bulk Modulus (GPa) = 55.79852 59.08905 57.44379
# Shear Modulus (GPa) = 24.86599 27.11006 25.98802
#
# Velocity S-wave (km/s) = 3.45762 3.61027 3.53477
# Velocity P-wave (km/s) = 6.53967 6.76667 6.65414
#
# Compressibility (1/GPa) = 0.01792162
#
# Stress axis : x y z
#
# Youngs Moduli (GPa) = 98.29557 74.29440 42.43547
#
# Poissons Ratio (x) = 0.09870 0.21126
# Poissons Ratio (y) = 0.13059 0.35355
# Poissons Ratio (z) = 0.48935 0.61899
#
# Static dielectric constant tensor:
#      x y z
#    x 4.088460 0.000000 0.000000 
#    y 0.000000 3.624770 0.000000 
#    z 0.000000 0.000000 3.907770 
# 
# 
# High freq. dielectric constant tensor:
#      x y z
#    x 1.832660 0.000000 0.000000 
#    y 0.000000 1.807210 0.000000 
#    z 0.000000 0.000000 1.803070 
# 
# From -- ./inp_files/32105.got.cif
#   From: 2010.03.12/outbox.cif.g09.slc.cpg/sg50_17_cif.got.tgz:32105.got - 2010.04.16 13:23:21.
