data_PCOD8204931
_publ_section_title
;
Structure prediction by ZEFSAII (Michael W. Deem and Ramdas Pophale) SiO2 
 PCOD8204931
Probable space group: P B A N
;
_chemical_formula_sum "Si O2"
_cell_formula_units_Z 40
_cell_length_a 11.941244
_cell_length_b 17.443889
_cell_length_c 8.537499
_cell_angle_alpha 90.000000
_cell_angle_beta 90.000000
_cell_angle_gamma 90.000000
_cell_volume 1778.375853
_symmetry_space_group_name_H-M "P B A N"
_symmetry_group_IT_number 50
_space_group.IT_coordinate_system_code '2'
_symmetry_cell_setting 'orthorhombic'
loop_
_space_group_symop_operation_xyz
x,y,z
1/2-x,1/2-y,z
x,1/2-y,-z
1/2-x,y,-z
-x,-y,-z
1/2+x,1/2+y,-z
-x,1/2+y,z
1/2+x,-y,z
loop_
_atom_site_type_symbol
_atom_site_label
_atom_site_fract_x
_atom_site_fract_y
_atom_site_fract_z
Si Si1 0.497571 0.108458 0.366316
Si Si2 0.192906 0.080716 0.852764
Si Si3 0.582523 0.937298 0.312493
Si Si4 0.304957 0.832228 0.795746
Si Si5 0.611602 0.084321 0.898146
O O1 0.403660 0.128520 0.234954
O O2 0.443970 0.116806 0.537920
O O3 0.604003 0.165692 0.344813
O O4 0.540022 0.022489 0.342521
O O5 0.285898 0.062346 0.721037
O O6 0.137691 0.004771 0.932158
O O7 0.250000 0.125781 0.000000
O O8 0.513956 0.903287 0.164397
O O9 0.250000 0.750000 0.821134
O O10 0.200740 0.889357 0.763955
O O11 0.370745 0.862696 0.950052
#
# Coordination Sequence:
#
# PCOD8204931 Si02
#       5
#     8   8   8   8   8
#     4  10  21  34  53  86 121 163 202 244 320 368
#     4  11  18  32  58  86 121 151 198 258 314 369
#     4  10  20  34  55  84 125 156 195 261 311 378
#     4  11  21  38  56  82 120 162 208 255 294 371
#     4  10  19  34  55  84 117 155 207 243 311 359
#
# _framework density 22.492432000000001
#
# number of rings (size 3 to 8) (size 9 to 14) (size 15 to 20)
#    0.000    1.600    4.000    3.000    0.000    4.000 
#    0.000    3.000    0.000    1.200    0.000    9.800 
#    0.000    0.000    0.000    0.000    0.000    0.000 
#
# Total GULP energy -495688.127912 kJ/mol
# GULP energy per Si atom -12392.203198 kJ/mol
# Density = 2.244124 g / cm^3
# Si number density = 22.492432 Si / 1000 Ang^3
#
#
#
# Elastic Constant Matrix: (Units=GPa)
#
#
# Indices 1 2 3 4 5 6 
#
# 1 101.5923 13.5119 19.6067 0.0000 0.0000 0.0000
# 2 13.5119 44.8031 19.7398 0.0000 0.0000 0.0000
# 3 19.6067 19.7398 75.3914 0.0000 0.0000 0.0000
# 4 0.0000 0.0000 0.0000 14.2733 0.0000 0.0000
# 5 0.0000 0.0000 0.0000 0.0000 33.8606 0.0000
# 6 0.0000 0.0000 0.0000 0.0000 0.0000 25.1874
#
#
#
# Elastic Compliance Matrix: (Units=1/GPa)
#
#
# Indices 1 2 3 4 5 6 
#
# 1 0.010557 -0.002232 -0.002161 0.000000 0.000000 0.000000
# 2 -0.002232 0.025702 -0.006149 0.000000 0.000000 0.000000
# 3 -0.002161 -0.006149 0.015436 0.000000 0.000000 0.000000
# 4 0.000000 0.000000 0.000000 0.070061 0.000000 0.000000
# 5 0.000000 0.000000 0.000000 0.000000 0.029533 0.000000
# 6 0.000000 0.000000 0.000000 0.000000 0.000000 0.039702
#
#
# Mechanical properties :
#
#
# Convention : Reuss Voigt Hill
#
# Bulk Modulus (GPa) = 32.66765 36.38929 34.52847
# Shear Modulus (GPa) = 22.49417 25.92616 24.21016
#
# Velocity S-wave (km/s) = 3.16583 3.39877 3.28437
# Velocity P-wave (km/s) = 5.28381 5.62279 5.45593
#
# Compressibility (1/GPa) = 0.03061133
#
# Stress axis : x y z
#
# Youngs Moduli (GPa) = 94.72225 38.90719 64.78263
#
# Poissons Ratio (x) = 0.08683 0.14001
# Poissons Ratio (y) = 0.21139 0.39836
# Poissons Ratio (z) = 0.20472 0.23925
#
# Static dielectric constant tensor:
#      x y z
#    x 4.597910 0.000000 0.000000 
#    y 0.000000 3.426220 0.000000 
#    z 0.000000 0.000000 4.219090 
# 
# 
# High freq. dielectric constant tensor:
#      x y z
#    x 1.912330 0.000000 0.000000 
#    y 0.000000 1.809990 0.000000 
#    z 0.000000 0.000000 1.884230 
# 
# From -- ./inp_files/11042.got.cif
#   From: 2010.03.12/outbox.cif.g09.slc.cpg/sg50_6_cif.got.tgz:11042.got - 2010.04.16 13:23:21.
