data_PCOD8204326
_publ_section_title
;
Structure prediction by ZEFSAII (Michael W. Deem and Ramdas Pophale) SiO2 
 PCOD8204326
Probable space group: P C C M
;
_chemical_formula_sum "Si O2"
_cell_formula_units_Z 32
_cell_length_a 9.046443
_cell_length_b 18.947765
_cell_length_c 9.658196
_cell_angle_alpha 90.000000
_cell_angle_beta 90.000000
_cell_angle_gamma 90.000000
_cell_volume 1655.510179
_symmetry_space_group_name_H-M "P C C M"
_symmetry_group_IT_number 49
_symmetry_cell_setting 'orthorhombic'
loop_
_space_group_symop_operation_xyz
x,y,z
-x,-y,z
x,-y,1/2-z
-x,y,1/2-z
-x,-y,-z
x,y,-z
-x,y,1/2+z
x,-y,1/2+z
loop_
_atom_site_type_symbol
_atom_site_label
_atom_site_fract_x
_atom_site_fract_y
_atom_site_fract_z
Si Si1 0.679296 0.070285 0.500000
Si Si2 0.349059 0.435877 0.834540
Si Si3 0.656717 0.903367 0.500000
Si Si4 0.859633 0.304952 0.342684
Si Si5 0.175284 0.849263 0.737967
O O1 0.519525 0.108336 0.500000
O O2 0.770527 0.092626 0.632221
O O3 0.677992 0.986584 0.500000
O O4 0.267965 0.500000 0.750000
O O5 0.500000 0.424586 0.750000
O O6 0.259293 0.364781 0.814880
O O7 0.371400 0.452528 0.000000
O O8 0.734423 0.864554 0.625321
O O9 0.915355 0.304863 0.500000
O O10 0.785040 0.229930 0.308558
O O11 0.000000 0.321115 0.250000
O O12 0.000000 0.857812 0.750000
#
# Coordination Sequence:
#
# PCOD8204326 Si02
#       5
#     4   8   4   8   8
#     4  11  23  43  61  87 128 153 208 253 309 378
#     4  10  21  39  61  92 125 161 204 248 298 355
#     4  11  25  39  63  91 118 167 196 259 315 362
#     4  10  23  41  62  88 122 159 200 249 300 358
#     4  11  23  41  62  90 122 160 208 253 307 366
#
# _framework density 19.329388000000002
#
# number of rings (size 3 to 8) (size 9 to 14) (size 15 to 20)
#    0.000    1.500    1.250    3.750    5.250    9.500 
#    0.000    2.500    0.000    0.000    0.000    0.000 
#    0.000    0.000    0.000    0.000    0.000    0.000 
#
# Total GULP energy -396651.993985 kJ/mol
# GULP energy per Si atom -12395.374812 kJ/mol
# Density = 1.928539 g / cm^3
# Si number density = 19.329388 Si / 1000 Ang^3
#
#
#
# Elastic Constant Matrix: (Units=GPa)
#
#
# Indices 1 2 3 4 5 6 
#
# 1 85.3387 58.8504 47.6048 0.0000 0.0000 0.0000
# 2 58.8504 110.2030 55.5691 0.0000 0.0000 0.0000
# 3 47.6048 55.5691 161.8522 0.0000 0.0000 0.0000
# 4 0.0000 0.0000 0.0000 32.1563 0.0000 0.0000
# 5 0.0000 0.0000 0.0000 0.0000 20.7224 0.0000
# 6 0.0000 0.0000 0.0000 0.0000 0.0000 33.3950
#
#
#
# Elastic Compliance Matrix: (Units=1/GPa)
#
#
# Indices 1 2 3 4 5 6 
#
# 1 0.019414 -0.009056 -0.002601 0.000000 0.000000 0.000000
# 2 -0.009056 0.015198 -0.002554 0.000000 0.000000 0.000000
# 3 -0.002601 -0.002554 0.007821 0.000000 0.000000 0.000000
# 4 0.000000 0.000000 0.000000 0.031098 0.000000 0.000000
# 5 0.000000 0.000000 0.000000 0.000000 0.048257 0.000000
# 6 0.000000 0.000000 0.000000 0.000000 0.000000 0.029945
#
#
# Mechanical properties :
#
#
# Convention : Reuss Voigt Hill
#
# Bulk Modulus (GPa) = 71.37726 75.71583 73.54654
# Shear Modulus (GPa) = 27.05262 30.27938 28.66600
#
# Velocity S-wave (km/s) = 3.74513 3.96219 3.85519
# Velocity P-wave (km/s) = 7.46380 7.75811 7.61238
#
# Compressibility (1/GPa) = 0.01401006
#
# Stress axis : x y z
#
# Youngs Moduli (GPa) = 51.50944 65.79714 127.86871
#
# Poissons Ratio (x) = 0.59585 0.33258
# Poissons Ratio (y) = 0.46646 0.32664
# Poissons Ratio (z) = 0.13397 0.16808
#
# Static dielectric constant tensor:
#      x y z
#    x 3.551270 0.000000 0.000000 
#    y 0.000000 3.883410 0.000000 
#    z 0.000000 0.000000 3.786290 
# 
# 
# High freq. dielectric constant tensor:
#      x y z
#    x 1.749600 0.000000 0.000000 
#    y 0.000000 1.768500 0.000000 
#    z 0.000000 0.000000 1.775230 
# 
# From -- ./inp_files/1453.got.cif
#   From: 2010.03.12/outbox.cif.g09.slc.cpg/sg49_1_cif.got.tgz:1453.got - 2010.04.14 03:58:27.
