data_PCOD8204890
_publ_section_title
;
Structure prediction by ZEFSAII (Michael W. Deem and Ramdas Pophale) SiO2 
 PCOD8204890
Probable space group: P B A N
;
_chemical_formula_sum "Si O2"
_cell_formula_units_Z 26
_cell_length_a 5.160602
_cell_length_b 28.794253
_cell_length_c 6.966772
_cell_angle_alpha 90.000000
_cell_angle_beta 90.000000
_cell_angle_gamma 90.000000
_cell_volume 1035.232220
_symmetry_space_group_name_H-M "P B A N"
_symmetry_group_IT_number 50
_space_group.IT_coordinate_system_code '2'
_symmetry_cell_setting 'orthorhombic'
loop_
_space_group_symop_operation_xyz
x,y,z
1/2-x,1/2-y,z
x,1/2-y,-z
1/2-x,y,-z
-x,-y,-z
1/2+x,1/2+y,-z
-x,1/2+y,z
1/2+x,-y,z
loop_
_atom_site_type_symbol
_atom_site_label
_atom_site_fract_x
_atom_site_fract_y
_atom_site_fract_z
Si Si1 0.250000 0.250000 0.500000
Si Si2 0.449366 0.519369 0.715054
Si Si3 0.343966 0.626599 0.708492
Si Si4 0.859978 0.821187 0.197099
O O1 0.077056 0.218307 0.643357
O O2 0.500000 0.500000 0.500000
O O3 0.725159 0.511414 0.819108
O O4 0.350879 0.571635 0.730432
O O5 0.250000 0.641240 0.500000
O O6 0.633472 0.645011 0.730497
O O7 0.122439 0.649341 0.847093
O O8 0.750000 0.798666 0.000000
#
# Coordination Sequence:
#
# PCOD8204890 Si02
#       4
#     2   8   8   8
#     4  12  26  50  80 104 132 182 234 282 360 428
#     4  10  19  31  61 105 132 178 245 284 323 400
#     4  12  22  43  71 104 140 190 234 282 349 415
#     4  12  28  47  72 105 143 179 230 292 353 425
#
# _framework density 25.115138999999999
#
# number of rings (size 3 to 8) (size 9 to 14) (size 15 to 20)
#    0.000    0.615    6.154    3.231    4.308    2.462 
#    0.000    3.077    0.000   18.462    0.000    0.000 
#    0.000    0.000    0.000    0.000    0.000    0.000 
#
# Total GULP energy -322107.738340 kJ/mol
# GULP energy per Si atom -12388.759167 kJ/mol
# Density = 2.505798 g / cm^3
# Si number density = 25.115139 Si / 1000 Ang^3
#
#
#
# Elastic Constant Matrix: (Units=GPa)
#
#
# Indices 1 2 3 4 5 6 
#
# 1 210.3248 65.8539 15.4530 0.0000 0.0000 0.0000
# 2 65.8539 162.7091 44.4678 0.0000 0.0000 0.0000
# 3 15.4530 44.4678 89.8802 0.0000 0.0000 0.0000
# 4 0.0000 0.0000 0.0000 8.3837 0.0000 0.0000
# 5 0.0000 0.0000 0.0000 0.0000 27.5899 0.0000
# 6 0.0000 0.0000 0.0000 0.0000 0.0000 14.2918
#
#
#
# Elastic Compliance Matrix: (Units=1/GPa)
#
#
# Indices 1 2 3 4 5 6 
#
# 1 0.005447 -0.002253 0.000178 0.000000 0.000000 0.000000
# 2 -0.002253 0.008039 -0.003590 0.000000 0.000000 0.000000
# 3 0.000178 -0.003590 0.012871 0.000000 0.000000 0.000000
# 4 0.000000 0.000000 0.000000 0.119280 0.000000 0.000000
# 5 0.000000 0.000000 0.000000 0.000000 0.036245 0.000000
# 6 0.000000 0.000000 0.000000 0.000000 0.000000 0.069970
#
#
# Mechanical properties :
#
#
# Convention : Reuss Voigt Hill
#
# Bulk Modulus (GPa) = 66.54410 79.38484 72.96447
# Shear Modulus (GPa) = 18.64343 32.52905 25.58624
#
# Velocity S-wave (km/s) = 2.72751 3.60279 3.19526
# Velocity P-wave (km/s) = 6.03922 6.99884 6.53666
#
# Compressibility (1/GPa) = 0.01502763
#
# Stress axis : x y z
#
# Youngs Moduli (GPa) = 183.58824 124.39332 77.69211
#
# Poissons Ratio (x) = 0.28030 -0.01385
# Poissons Ratio (y) = 0.41368 0.27890
# Poissons Ratio (z) = -0.03274 0.44655
#
# Static dielectric constant tensor:
#      x y z
#    x 1.344170 0.000000 0.000000 
#    y 0.000000 4.407080 0.000000 
#    z 0.000000 0.000000 4.651650 
# 
# 
# High freq. dielectric constant tensor:
#      x y z
#    x 2.019100 0.000000 0.000000 
#    y 0.000000 1.992000 0.000000 
#    z 0.000000 0.000000 1.999770 
# 
# From -- ./inp_files/7802.got.cif
#   From: 2010.03.12/outbox.cif.g09.slc.cpg/sg50_4_cif.got.tgz:7802.got - 2010.04.16 13:23:21.
