data_PCOD8204049
_publ_section_title
;
Structure prediction by ZEFSAII (Michael W. Deem and Ramdas Pophale) SiO2 
 PCOD8204049
Probable space group: P C C M
;
_chemical_formula_sum "Si O2"
_cell_formula_units_Z 64
_cell_length_a 25.283753
_cell_length_b 14.341549
_cell_length_c 9.225557
_cell_angle_alpha 90.000000
_cell_angle_beta 90.000000
_cell_angle_gamma 90.000000
_cell_volume 3345.262457
_symmetry_space_group_name_H-M "P C C M"
_symmetry_group_IT_number 49
_symmetry_cell_setting 'orthorhombic'
loop_
_space_group_symop_operation_xyz
x,y,z
-x,-y,z
x,-y,1/2-z
-x,y,1/2-z
-x,-y,-z
x,y,-z
-x,y,1/2+z
x,-y,1/2+z
loop_
_atom_site_type_symbol
_atom_site_label
_atom_site_fract_x
_atom_site_fract_y
_atom_site_fract_z
Si Si1 0.344280 0.903081 0.328454
Si Si2 0.554171 0.209218 0.667119
Si Si3 0.846792 0.095666 0.168423
Si Si4 0.947157 0.213137 0.171343
Si Si5 0.257696 0.210651 0.667594
Si Si6 0.555880 0.584591 0.169797
Si Si7 0.780940 0.411016 0.832172
Si Si8 0.098018 0.590654 0.829957
O O1 0.338049 0.915707 0.500000
O O2 0.402447 0.866386 0.285647
O O3 0.301596 0.829448 0.273777
O O4 0.333740 0.000000 0.250000
O O5 0.500000 0.189558 0.750000
O O6 0.539287 0.199165 0.500000
O O7 0.579876 0.312173 0.694951
O O8 0.900067 0.145629 0.223182
O O9 0.798325 0.163813 0.201577
O O10 0.837282 0.000000 0.250000
O O11 0.850795 0.072714 0.000000
O O12 0.934491 0.318767 0.219700
O O13 0.000000 0.178543 0.250000
O O14 0.954733 0.206975 0.000000
O O15 0.273689 0.194279 0.500000
O O16 0.253455 0.320064 0.703858
O O17 0.588491 0.500000 0.250000
O O18 0.500000 0.587899 0.250000
O O19 0.550211 0.561513 0.000000
O O20 0.756377 0.500000 0.750000
O O21 0.841271 0.393264 0.783036
O O22 0.778897 0.434818 0.000000
O O23 0.074272 0.500000 0.750000
O O24 0.092977 0.574305 0.000000
#
# Coordination Sequence:
#
# PCOD8204049 Si02
#       8
#     8   8   8   8   8   8   8   8
#     4  11  24  41  59  84 115 146 184 234 285 332
#     4   9  20  37  57  81 113 150 187 227 273 326
#     4  10  21  38  58  79 105 138 180 229 280 331
#     4  10  21  37  54  75 108 145 180 225 276 327
#     4  10  20  38  62  85 112 146 183 227 278 331
#     4   9  15  26  46  74 105 139 177 218 261 309
#     4   9  17  32  56  84 113 146 182 222 271 326
#     4   9  17  32  53  77 107 143 179 220 268 321
#
# _framework density 19.131533000000001
#
# number of rings (size 3 to 8) (size 9 to 14) (size 15 to 20)
#    0.000    2.375    1.250    1.500    0.000    5.250 
#    0.000    4.375    0.000    3.000    0.000    0.000 
#    0.000    0.000    0.000    0.000    0.000    0.000 
#
# Total GULP energy -793462.055482 kJ/mol
# GULP energy per Si atom -12397.844617 kJ/mol
# Density = 1.908799 g / cm^3
# Si number density = 19.131533 Si / 1000 Ang^3
#
#
#
# Elastic Constant Matrix: (Units=GPa)
#
#
# Indices 1 2 3 4 5 6 
#
# 1 86.2961 40.5857 43.4471 0.0000 0.0000 0.0000
# 2 40.5857 115.1435 50.5253 0.0000 0.0000 0.0000
# 3 43.4471 50.5253 70.7391 0.0000 0.0000 0.0000
# 4 0.0000 0.0000 0.0000 29.5573 0.0000 0.0000
# 5 0.0000 0.0000 0.0000 0.0000 25.8274 0.0000
# 6 0.0000 0.0000 0.0000 0.0000 0.0000 26.3673
#
#
#
# Elastic Compliance Matrix: (Units=1/GPa)
#
#
# Indices 1 2 3 4 5 6 
#
# 1 0.017107 -0.002067 -0.009030 0.000000 0.000000 0.000000
# 2 -0.002067 0.012899 -0.007943 0.000000 0.000000 0.000000
# 3 -0.009030 -0.007943 0.025356 0.000000 0.000000 0.000000
# 4 0.000000 0.000000 0.000000 0.033833 0.000000 0.000000
# 5 0.000000 0.000000 0.000000 0.000000 0.038719 0.000000
# 6 0.000000 0.000000 0.000000 0.000000 0.000000 0.037926
#
#
# Mechanical properties :
#
#
# Convention : Reuss Voigt Hill
#
# Bulk Modulus (GPa) = 57.86958 60.14386 59.00672
# Shear Modulus (GPa) = 23.84577 25.52510 24.68543
#
# Velocity S-wave (km/s) = 3.53429 3.65662 3.59597
# Velocity P-wave (km/s) = 6.85338 7.02375 6.93909
#
# Compressibility (1/GPa) = 0.01728024
#
# Stress axis : x y z
#
# Youngs Moduli (GPa) = 58.45684 77.52477 39.43798
#
# Poissons Ratio (x) = 0.16027 0.35613
# Poissons Ratio (y) = 0.12085 0.31327
# Poissons Ratio (z) = 0.52787 0.61581
#
# Static dielectric constant tensor:
#      x y z
#    x 3.301650 0.000000 0.000000 
#    y 0.000000 4.087030 0.000000 
#    z 0.000000 0.000000 3.469770 
# 
# 
# High freq. dielectric constant tensor:
#      x y z
#    x 1.722210 0.000000 0.000000 
#    y 0.000000 1.759000 0.000000 
#    z 0.000000 0.000000 1.739210 
# 
# From -- ./inp_files/4370.got.cif
#   From: 2010.03.12/outbox.cif.g09.slc.cpg/sg49_3_cif.got.tgz:4370.got - 2010.04.14 03:58:27.
