data_PCOD8204341
_publ_section_title
;
Structure prediction by ZEFSAII (Michael W. Deem and Ramdas Pophale) SiO2 
 PCOD8204341
Probable space group: P C C M
;
_chemical_formula_sum "Si O2"
_cell_formula_units_Z 64
_cell_length_a 9.126269
_cell_length_b 14.340287
_cell_length_c 22.985164
_cell_angle_alpha 90.000000
_cell_angle_beta 90.000000
_cell_angle_gamma 90.000000
_cell_volume 3008.144648
_symmetry_space_group_name_H-M "P C C M"
_symmetry_group_IT_number 49
_symmetry_cell_setting 'orthorhombic'
loop_
_space_group_symop_operation_xyz
x,y,z
-x,-y,z
x,-y,1/2-z
-x,y,1/2-z
-x,-y,-z
x,y,-z
-x,y,1/2+z
x,-y,1/2+z
loop_
_atom_site_type_symbol
_atom_site_label
_atom_site_fract_x
_atom_site_fract_y
_atom_site_fract_z
Si Si1 0.930778 0.780530 0.936365
Si Si2 0.816512 0.408389 0.854628
Si Si3 0.727431 0.747320 0.436179
Si Si4 0.643815 0.063419 0.882004
Si Si5 0.851478 0.385290 0.367225
Si Si6 0.327745 0.136722 0.257648
Si Si7 0.864535 0.938914 0.848417
Si Si8 0.672287 0.347455 0.254165
O O1 0.840794 0.685123 0.921888
O O2 0.914166 0.847430 0.881761
O O3 0.102529 0.766366 0.941912
O O4 0.873305 0.815045 0.000000
O O5 0.711220 0.338886 0.891608
O O6 0.820051 0.508444 0.887021
O O7 0.747706 0.419602 0.790418
O O8 0.982019 0.372758 0.844138
O O9 0.665278 0.720072 0.500000
O O10 0.634835 0.839272 0.416496
O O11 0.702050 0.082156 0.816611
O O12 0.500000 0.000000 0.887820
O O13 0.777560 0.995737 0.899695
O O14 0.731144 0.359899 0.319097
O O15 0.500000 0.128338 0.250000
O O16 0.239612 0.090883 0.204925
O O17 0.282540 0.243854 0.266053
O O18 0.000000 0.000000 0.824565
O O19 0.500000 0.364667 0.250000
#
# Coordination Sequence:
#
# PCOD8204341 Si02
#       8
#     8   8   8   8   8   8   8   8
#     4  10  22  42  64  90 124 161 210 269 315 363
#     4  10  21  39  63  93 127 161 206 262 317 376
#     4  10  22  42  64  90 123 164 213 263 313 370
#     4  12  24  40  64  89 127 166 205 255 318 374
#     4  10  21  39  63  94 125 162 208 258 317 383
#     4  11  23  41  61  91 132 165 201 259 317 376
#     4  12  24  40  63  97 121 162 211 256 313 374
#     4  11  22  37  65  91 128 168 200 249 320 384
#
# _framework density 21.275573000000001
#
# number of rings (size 3 to 8) (size 9 to 14) (size 15 to 20)
#    0.000    1.250    5.000    1.125    0.000    4.500 
#    2.250    2.500    0.000    0.000    0.000    1.750 
#    0.000    0.000    0.000    0.000    0.000    0.000 
#
# Total GULP energy -793031.907064 kJ/mol
# GULP energy per Si atom -12391.123548 kJ/mol
# Density = 2.122715 g / cm^3
# Si number density = 21.275573 Si / 1000 Ang^3
#
#
#
# Elastic Constant Matrix: (Units=GPa)
#
#
# Indices 1 2 3 4 5 6 
#
# 1 75.6341 31.6789 30.4571 0.0000 0.0000 0.0000
# 2 31.6789 107.5574 33.6980 0.0000 0.0000 0.0000
# 3 30.4571 33.6980 112.5204 0.0000 0.0000 0.0000
# 4 0.0000 0.0000 0.0000 21.2634 0.0000 0.0000
# 5 0.0000 0.0000 0.0000 0.0000 119.6783 0.0000
# 6 0.0000 0.0000 0.0000 0.0000 0.0000 33.7906
#
#
#
# Elastic Compliance Matrix: (Units=1/GPa)
#
#
# Indices 1 2 3 4 5 6 
#
# 1 0.016085 -0.003723 -0.003239 0.000000 0.000000 0.000000
# 2 -0.003723 0.011122 -0.002323 0.000000 0.000000 0.000000
# 3 -0.003239 -0.002323 0.010460 0.000000 0.000000 0.000000
# 4 0.000000 0.000000 0.000000 0.047029 0.000000 0.000000
# 5 0.000000 0.000000 0.000000 0.000000 0.008356 0.000000
# 6 0.000000 0.000000 0.000000 0.000000 0.000000 0.029594
#
#
# Mechanical properties :
#
#
# Convention : Reuss Voigt Hill
#
# Bulk Modulus (GPa) = 52.36478 54.15331 53.25904
# Shear Modulus (GPa) = 33.87974 48.27165 41.07569
#
# Velocity S-wave (km/s) = 3.99485 4.76844 4.39868
# Velocity P-wave (km/s) = 6.77824 7.47167 7.13339
#
# Compressibility (1/GPa) = 0.01909681
#
# Stress axis : x y z
#
# Youngs Moduli (GPa) = 62.16919 89.91470 95.60463
#
# Poissons Ratio (x) = 0.33473 0.30967
# Poissons Ratio (y) = 0.23144 0.22210
# Poissons Ratio (z) = 0.20137 0.20888
#
# Static dielectric constant tensor:
#      x y z
#    x 3.688820 0.000000 0.000000 
#    y 0.000000 4.204410 0.000000 
#    z 0.000000 0.000000 4.308480 
# 
# 
# High freq. dielectric constant tensor:
#      x y z
#    x 1.821780 0.000000 0.000000 
#    y 0.000000 1.854280 0.000000 
#    z 0.000000 0.000000 1.817140 
# 
# From -- ./inp_files/22547.got.cif
#   From: 2010.03.12/outbox.cif.g09.slc.cpg/sg49_12_cif.got.tgz:22547.got - 2010.04.14 03:58:27.
