data_PCOD8204611
_publ_section_title
;
Structure prediction by ZEFSAII (Michael W. Deem and Ramdas Pophale) SiO2 
 PCOD8204611
Probable space group: P C C M
;
_chemical_formula_sum "Si O2"
_cell_formula_units_Z 64
_cell_length_a 16.578900
_cell_length_b 11.748423
_cell_length_c 17.897917
_cell_angle_alpha 90.000000
_cell_angle_beta 90.000000
_cell_angle_gamma 90.000000
_cell_volume 3486.083430
_symmetry_space_group_name_H-M "P C C M"
_symmetry_group_IT_number 49
_symmetry_cell_setting 'orthorhombic'
loop_
_space_group_symop_operation_xyz
x,y,z
-x,-y,z
x,-y,1/2-z
-x,y,1/2-z
-x,-y,-z
x,y,-z
-x,y,1/2+z
x,-y,1/2+z
loop_
_atom_site_type_symbol
_atom_site_label
_atom_site_fract_x
_atom_site_fract_y
_atom_site_fract_z
Si Si1 0.107379 0.346365 0.911322
Si Si2 0.781620 0.142088 0.588835
Si Si3 0.042177 0.256732 0.673952
Si Si4 0.434777 0.151629 0.588716
Si Si5 0.606393 0.902561 0.088871
Si Si6 0.175481 0.443103 0.326221
Si Si7 0.152056 0.097448 0.585507
Si Si8 0.286511 0.712864 0.914603
O O1 0.169595 0.250623 0.881260
O O2 0.134663 0.468351 0.882218
O O3 0.018686 0.317964 0.882421
O O4 0.104740 0.350301 0.000000
O O5 0.779664 0.139696 0.500000
O O6 0.689855 0.149677 0.620632
O O7 0.824799 0.026819 0.617147
O O8 0.111281 0.346488 0.694704
O O9 0.078557 0.145361 0.634490
O O10 0.000000 0.216905 0.750000
O O11 0.428249 0.146260 0.500000
O O12 0.528114 0.172800 0.613571
O O13 0.375155 0.251731 0.616671
O O14 0.404818 0.030176 0.620473
O O15 0.610671 0.906973 0.000000
O O16 0.205062 0.500000 0.250000
O O17 0.254160 0.390855 0.365371
O O18 0.122144 0.090452 0.500000
O O19 0.229856 0.177184 0.591685
O O20 0.290736 0.670380 0.000000
#
# Coordination Sequence:
#
# PCOD8204611 Si02
#       8
#     8   8   8   8   8   8   8   8
#     4  11  23  36  54  77 100 136 182 216 262 318
#     4   9  17  31  49  74 111 144 171 210 256 318
#     4  11  22  37  56  73 101 131 174 230 275 313
#     4   8  12  20  42  78 110 137 167 202 250 303
#     4   8  12  21  42  73 111 142 162 197 252 306
#     4  11  22  37  56  72  99 134 177 229 276 307
#     4   9  17  31  52  76 106 141 173 212 265 317
#     4   9  16  28  50  80 109 135 174 220 259 309
#
# _framework density 18.358712000000001
#
# number of rings (size 3 to 8) (size 9 to 14) (size 15 to 20)
#    0.000    2.500    2.500    1.875    0.000    2.500 
#    0.000    3.125    0.000    0.750    0.000    6.125 
#    0.000    2.000    0.000    0.125    0.000    0.000 
#
# Total GULP energy -793376.366648 kJ/mol
# GULP energy per Si atom -12396.505729 kJ/mol
# Density = 1.831693 g / cm^3
# Si number density = 18.358712 Si / 1000 Ang^3
#
#
#
# Elastic Constant Matrix: (Units=GPa)
#
#
# Indices 1 2 3 4 5 6 
#
# 1 125.7626 51.5754 36.2701 0.0000 0.0000 0.0000
# 2 51.5754 42.3239 18.0546 0.0000 0.0000 0.0000
# 3 36.2701 18.0546 60.3039 0.0000 0.0000 0.0000
# 4 0.0000 0.0000 0.0000 8.1954 0.0000 0.0000
# 5 0.0000 0.0000 0.0000 0.0000 5.1074 0.0000
# 6 0.0000 0.0000 0.0000 0.0000 0.0000 24.6914
#
#
#
# Elastic Compliance Matrix: (Units=1/GPa)
#
#
# Indices 1 2 3 4 5 6 
#
# 1 0.016937 -0.018679 -0.004594 0.000000 0.000000 0.000000
# 2 -0.018679 0.047687 -0.003043 0.000000 0.000000 0.000000
# 3 -0.004594 -0.003043 0.020257 0.000000 0.000000 0.000000
# 4 0.000000 0.000000 0.000000 0.122019 0.000000 0.000000
# 5 0.000000 0.000000 0.000000 0.000000 0.195794 0.000000
# 6 0.000000 0.000000 0.000000 0.000000 0.000000 0.040500
#
#
# Mechanical properties :
#
#
# Convention : Reuss Voigt Hill
#
# Bulk Modulus (GPa) = 31.00879 48.91009 39.95944
# Shear Modulus (GPa) = 9.87017 15.76486 12.81752
#
# Velocity S-wave (km/s) = 2.32120 2.93356 2.64516
# Velocity P-wave (km/s) = 4.91031 6.17847 5.58053
#
# Compressibility (1/GPa) = 0.03224892
#
# Stress axis : x y z
#
# Youngs Moduli (GPa) = 59.04281 20.96986 49.36584
#
# Poissons Ratio (x) = 0.39170 0.22680
# Poissons Ratio (y) = 1.10287 0.15020
# Poissons Ratio (z) = 0.27126 0.06380
#
# Static dielectric constant tensor:
#      x y z
#    x 3.728670 0.000000 0.000000 
#    y 0.000000 3.343020 0.000000 
#    z 0.000000 0.000000 3.019300 
# 
# 
# High freq. dielectric constant tensor:
#      x y z
#    x 1.717870 0.000000 0.000000 
#    y 0.000000 1.694890 0.000000 
#    z 0.000000 0.000000 1.675680 
# 
# From -- ./inp_files/14164.got.cif
#   From: 2010.03.12/outbox.cif.g09.slc.cpg/sg49_8_cif.got.tgz:14164.got - 2010.04.14 03:58:27.
