data_PCOD8204037
_publ_section_title
;
Structure prediction by ZEFSAII (Michael W. Deem and Ramdas Pophale) SiO2 
 PCOD8204037
Probable space group: P C C M
;
_chemical_formula_sum "Si O2"
_cell_formula_units_Z 32
_cell_length_a 5.151280
_cell_length_b 16.870212
_cell_length_c 19.658000
_cell_angle_alpha 90.000000
_cell_angle_beta 90.000000
_cell_angle_gamma 90.000000
_cell_volume 1708.342824
_symmetry_space_group_name_H-M "P C C M"
_symmetry_group_IT_number 49
_symmetry_cell_setting 'orthorhombic'
loop_
_space_group_symop_operation_xyz
x,y,z
-x,-y,z
x,-y,1/2-z
-x,y,1/2-z
-x,-y,-z
x,y,-z
-x,y,1/2+z
x,-y,1/2+z
loop_
_atom_site_type_symbol
_atom_site_label
_atom_site_fract_x
_atom_site_fract_y
_atom_site_fract_z
Si Si1 0.253823 0.550099 0.421005
Si Si2 0.500000 0.793557 0.250000
Si Si3 0.233799 0.723726 0.368852
Si Si4 0.250270 0.945892 0.000000
Si Si5 0.713737 0.817164 0.613495
O O1 0.500000 0.500000 0.395400
O O2 0.281404 0.571698 0.500000
O O3 0.231678 0.630491 0.379271
O O4 0.000000 0.500000 0.405473
O O5 0.288326 0.738576 0.288613
O O6 0.654823 0.844679 0.307723
O O7 0.467335 0.765124 0.412291
O O8 0.964559 0.761803 0.392377
O O9 0.247672 0.894029 0.068053
O O10 0.500000 0.000000 0.000000
O O11 0.000000 0.000000 0.000000
#
# Coordination Sequence:
#
# PCOD8204037 Si02
#       5
#     8   4   8   4   8
#     4  10  21  35  54  87 127 161 203 261 316 355
#     4   8  22  38  68  84 126 152 234 236 304 354
#     4  10  20  37  65  86 117 165 217 252 290 366
#     4  12  26  44  66 100 132 150 194 254 316 372
#     4  10  22  39  67  89 120 162 201 254 299 371
#
# _framework density 18.731603
#
# number of rings (size 3 to 8) (size 9 to 14) (size 15 to 20)
#    1.500    0.500    0.000    3.750    3.500    0.000 
#    0.000    1.250    0.000    0.000    0.000    0.000 
#    0.000    0.000    0.000    0.000    0.000    0.000 
#
# Total GULP energy -396532.352687 kJ/mol
# GULP energy per Si atom -12391.636021 kJ/mol
# Density = 1.868897 g / cm^3
# Si number density = 18.731603 Si / 1000 Ang^3
#
#
#
# Elastic Constant Matrix: (Units=GPa)
#
#
# Indices 1 2 3 4 5 6 
#
# 1 164.5612 65.4118 43.3481 0.0000 0.0000 0.0000
# 2 65.4118 132.9853 78.3821 0.0000 0.0000 0.0000
# 3 43.3481 78.3821 114.2783 0.0000 0.0000 0.0000
# 4 0.0000 0.0000 0.0000 9.6267 0.0000 0.0000
# 5 0.0000 0.0000 0.0000 0.0000 20.6614 0.0000
# 6 0.0000 0.0000 0.0000 0.0000 0.0000 34.7843
#
#
#
# Elastic Compliance Matrix: (Units=1/GPa)
#
#
# Indices 1 2 3 4 5 6 
#
# 1 0.007573 -0.003411 -0.000533 0.000000 0.000000 0.000000
# 2 -0.003411 0.014158 -0.008417 0.000000 0.000000 0.000000
# 3 -0.000533 -0.008417 0.014726 0.000000 0.000000 0.000000
# 4 0.000000 0.000000 0.000000 0.103877 0.000000 0.000000
# 5 0.000000 0.000000 0.000000 0.000000 0.048400 0.000000
# 6 0.000000 0.000000 0.000000 0.000000 0.000000 0.028749
#
#
# Mechanical properties :
#
#
# Convention : Reuss Voigt Hill
#
# Bulk Modulus (GPa) = 85.21466 87.34541 86.28004
# Shear Modulus (GPa) = 20.31552 27.99334 24.15443
#
# Velocity S-wave (km/s) = 3.29684 3.87000 3.59486
# Velocity P-wave (km/s) = 7.75135 8.16703 7.96190
#
# Compressibility (1/GPa) = 0.01173507
#
# Stress axis : x y z
#
# Youngs Moduli (GPa) = 132.04935 70.62922 67.90603
#
# Poissons Ratio (x) = 0.24089 0.03621
# Poissons Ratio (y) = 0.45037 0.57159
# Poissons Ratio (z) = 0.07042 0.59451
#
# Static dielectric constant tensor:
#      x y z
#    x 3.625060 0.000000 0.000000 
#    y 0.000000 3.199860 0.000000 
#    z 0.000000 0.000000 3.356630 
# 
# 
# High freq. dielectric constant tensor:
#      x y z
#    x 1.751390 0.000000 0.000000 
#    y 0.000000 1.707590 0.000000 
#    z 0.000000 0.000000 1.716760 
# 
# From -- ./inp_files/15091.got.cif
#   From: 2010.03.12/outbox.cif.g09.slc.cpg/sg49_8_cif.got.tgz:15091.got - 2010.04.14 03:58:27.
