data_PCOD8204528
_publ_section_title
;
Structure prediction by ZEFSAII (Michael W. Deem and Ramdas Pophale) SiO2 
 PCOD8204528
Probable space group: P C C M
;
_chemical_formula_sum "Si O2"
_cell_formula_units_Z 18
_cell_length_a 11.664959
_cell_length_b 7.470799
_cell_length_c 8.988089
_cell_angle_alpha 90.000000
_cell_angle_beta 90.000000
_cell_angle_gamma 90.000000
_cell_volume 783.281074
_symmetry_space_group_name_H-M "P C C M"
_symmetry_group_IT_number 49
_symmetry_cell_setting 'orthorhombic'
loop_
_space_group_symop_operation_xyz
x,y,z
-x,-y,z
x,-y,1/2-z
-x,y,1/2-z
-x,-y,-z
x,y,-z
-x,y,1/2+z
x,-y,1/2+z
loop_
_atom_site_type_symbol
_atom_site_label
_atom_site_fract_x
_atom_site_fract_y
_atom_site_fract_z
Si Si1 0.347607 0.340002 0.500000
Si Si2 0.341716 0.073889 0.000000
Si Si3 0.154640 0.630408 0.500000
Si Si4 0.000000 0.500000 0.750000
Si Si5 0.500000 0.500000 0.750000
Si Si6 0.500000 0.000000 0.750000
O O1 0.233422 0.456011 0.500000
O O2 0.420531 0.375093 0.647908
O O3 0.308373 0.134259 0.500000
O O4 0.227401 0.188709 0.000000
O O5 0.419385 0.123253 0.855997
O O6 0.076924 0.629523 0.647481
#
# Coordination Sequence:
#
# PCOD8204528 Si02
#       6
#     4   4   4   2   2   2
#     4  11  24  41  68 105 139 190 219 275 341 432
#     4  11  26  43  71 103 150 186 224 277 343 430
#     4  11  26  48  75  96 135 183 237 304 350 399
#     4  10  26  54  70 100 132 176 254 314 346 392
#     4  10  24  38  66 110 156 180 220 262 346 426
#     4  10  26  42  66 114 152 176 222 270 338 446
#
# _framework density 22.980257000000002
#
# number of rings (size 3 to 8) (size 9 to 14) (size 15 to 20)
#    0.000    1.333    0.000    2.667   24.889    0.000 
#    0.000    6.667    0.000    0.000    0.000    0.000 
#    0.000    0.000    0.000    0.000    0.000    0.000 
#
# Total GULP energy -223264.143024 kJ/mol
# GULP energy per Si atom -12403.563501 kJ/mol
# Density = 2.292795 g / cm^3
# Si number density = 22.980257 Si / 1000 Ang^3
#
#
#
# Elastic Constant Matrix: (Units=GPa)
#
#
# Indices 1 2 3 4 5 6 
#
# 1 176.7584 88.4928 98.4347 0.0000 0.0000 0.0000
# 2 88.4928 175.6392 60.6686 0.0000 0.0000 0.0000
# 3 98.4347 60.6686 211.2447 0.0000 0.0000 0.0000
# 4 0.0000 0.0000 0.0000 24.7502 0.0000 0.0000
# 5 0.0000 0.0000 0.0000 0.0000 52.3049 0.0000
# 6 0.0000 0.0000 0.0000 0.0000 0.0000 51.9311
#
#
#
# Elastic Compliance Matrix: (Units=1/GPa)
#
#
# Indices 1 2 3 4 5 6 
#
# 1 0.009262 -0.003525 -0.003303 0.000000 0.000000 0.000000
# 2 -0.003525 0.007662 -0.000558 0.000000 0.000000 0.000000
# 3 -0.003303 -0.000558 0.006433 0.000000 0.000000 0.000000
# 4 0.000000 0.000000 0.000000 0.040404 0.000000 0.000000
# 5 0.000000 0.000000 0.000000 0.000000 0.019119 0.000000
# 6 0.000000 0.000000 0.000000 0.000000 0.000000 0.019256
#
#
# Mechanical properties :
#
#
# Convention : Reuss Voigt Hill
#
# Bulk Modulus (GPa) = 116.48987 117.64828 117.06908
# Shear Modulus (GPa) = 41.74622 46.86700 44.30661
#
# Velocity S-wave (km/s) = 4.26680 4.52092 4.39570
# Velocity P-wave (km/s) = 8.66461 8.86330 8.76452
#
# Compressibility (1/GPa) = 0.00858444
#
# Stress axis : x y z
#
# Youngs Moduli (GPa) = 107.96736 130.50691 155.44015
#
# Poissons Ratio (x) = 0.46010 0.51348
# Poissons Ratio (y) = 0.38064 0.08671
# Poissons Ratio (z) = 0.35666 0.07280
#
# Static dielectric constant tensor:
#      x y z
#    x 4.215860 0.000000 0.000000 
#    y 0.000000 3.827620 0.000000 
#    z 0.000000 0.000000 4.678900 
# 
# 
# High freq. dielectric constant tensor:
#      x y z
#    x 1.899220 0.000000 0.000000 
#    y 0.000000 1.901660 0.000000 
#    z 0.000000 0.000000 1.943170 
# 
# From -- ./inp_files/977.got.cif
#   From: 2010.03.12/outbox.cif.g09.slc.cpg/sg49_1_cif.got.tgz:977.got - 2010.04.14 03:58:27.
