data_PCOD8204403
_publ_section_title
;
Structure prediction by ZEFSAII (Michael W. Deem and Ramdas Pophale) SiO2 
 PCOD8204403
Probable space group: P C C M
;
_chemical_formula_sum "Si O2"
_cell_formula_units_Z 58
_cell_length_a 17.807600
_cell_length_b 8.690413
_cell_length_c 18.321819
_cell_angle_alpha 90.000000
_cell_angle_beta 90.000000
_cell_angle_gamma 90.000000
_cell_volume 2835.400401
_symmetry_space_group_name_H-M "P C C M"
_symmetry_group_IT_number 49
_symmetry_cell_setting 'orthorhombic'
loop_
_space_group_symop_operation_xyz
x,y,z
-x,-y,z
x,-y,1/2-z
-x,y,1/2-z
-x,-y,-z
x,y,-z
-x,y,1/2+z
x,-y,1/2+z
loop_
_atom_site_type_symbol
_atom_site_label
_atom_site_fract_x
_atom_site_fract_y
_atom_site_fract_z
Si Si1 0.087377 0.013428 0.420520
Si Si2 0.381722 0.301321 0.416241
Si Si3 0.259163 0.484503 0.664374
Si Si4 0.473204 0.841115 0.413990
Si Si5 0.125797 0.278488 0.309763
Si Si6 0.810065 0.199943 0.346414
Si Si7 0.319687 0.958664 0.415963
Si Si8 0.000000 0.500000 0.750000
O O1 0.120495 0.061270 0.500000
O O2 0.104436 0.136758 0.359116
O O3 0.119948 0.846139 0.397678
O O4 0.000000 0.000000 0.427507
O O5 0.376233 0.353317 0.500000
O O6 0.336570 0.427927 0.370805
O O7 0.469821 0.296174 0.388658
O O8 0.348433 0.131324 0.404666
O O9 0.273550 0.500000 0.750000
O O10 0.191337 0.368111 0.648438
O O11 0.231078 0.643860 0.628699
O O12 0.486332 0.854537 0.500000
O O13 0.384331 0.829575 0.396632
O O14 0.500000 0.000000 0.376957
O O15 0.158617 0.210890 0.234938
O O16 0.054183 0.391193 0.298436
O O17 0.748388 0.064968 0.359200
O O18 0.293762 0.935205 0.500000
#
# Coordination Sequence:
#
# PCOD8204403 Si02
#       8
#     8   8   8   8   8   8   8   2
#     4  11  25  42  61  91 124 150 190 250 315 378
#     4   9  17  32  57  85 118 162 206 248 301 368
#     4  10  22  38  54  83 117 156 203 252 297 357
#     4   7  12  26  50  83 116 151 197 245 290 347
#     4  11  23  41  66  86 111 154 203 243 296 367
#     4  11  21  38  58  88 119 156 199 248 297 361
#     4   9  17  31  57  90 123 155 198 255 310 357
#     4  12  20  44  72  88 108 146 206 254 288 364
#
# _framework density 20.455665
#
# number of rings (size 3 to 8) (size 9 to 14) (size 15 to 20)
#    0.000    2.207    2.069    4.138    0.000    4.414 
#    0.000    1.034    0.000    8.276    0.000   11.586 
#    0.000    0.000    0.000    0.000    0.000    0.414 
#
# Total GULP energy -718523.943410 kJ/mol
# GULP energy per Si atom -12388.343852 kJ/mol
# Density = 2.040911 g / cm^3
# Si number density = 20.455665 Si / 1000 Ang^3
#
#
#
# Elastic Constant Matrix: (Units=GPa)
#
#
# Indices 1 2 3 4 5 6 
#
# 1 95.7134 33.9490 44.4231 0.0000 0.0000 0.0000
# 2 33.9490 84.5204 45.6321 0.0000 0.0000 0.0000
# 3 44.4231 45.6321 72.0807 0.0000 0.0000 0.0000
# 4 0.0000 0.0000 0.0000 14.4811 0.0000 0.0000
# 5 0.0000 0.0000 0.0000 0.0000 -43.9037 0.0000
# 6 0.0000 0.0000 0.0000 0.0000 0.0000 46.4410
#
#
#
# Elastic Compliance Matrix: (Units=1/GPa)
#
#
# Indices 1 2 3 4 5 6 
#
# 1 0.014765 -0.001546 -0.008121 0.000000 0.000000 0.000000
# 2 -0.001546 0.018137 -0.010529 0.000000 0.000000 0.000000
# 3 -0.008121 -0.010529 0.025544 0.000000 0.000000 0.000000
# 4 0.000000 0.000000 0.000000 0.069055 0.000000 0.000000
# 5 0.000000 0.000000 0.000000 0.000000 -0.022777 0.000000
# 6 0.000000 0.000000 0.000000 0.000000 0.000000 0.021533
#
#
# Mechanical properties :
#
#
# Convention : Reuss Voigt Hill
#
# Bulk Modulus (GPa) = 55.39008 55.59141 55.49075
# Shear Modulus (GPa) = 28.95727 11.95771 20.45749
#
# Velocity S-wave (km/s) = 3.76654 2.42041 3.16585
# Velocity P-wave (km/s) = 6.78621 5.92002 6.36786
#
# Compressibility (1/GPa) = 0.01805377
#
# Stress axis : x y z
#
# Youngs Moduli (GPa) = 67.72545 55.13546 39.14823
#
# Poissons Ratio (x) = 0.08526 0.31792
# Poissons Ratio (y) = 0.10472 0.41220
# Poissons Ratio (z) = 0.55000 0.58053
#
# Static dielectric constant tensor:
#      x y z
#    x 4.160120 0.000000 0.000000 
#    y 0.000000 3.706370 0.000000 
#    z 0.000000 0.000000 3.517030 
# 
# 
# High freq. dielectric constant tensor:
#      x y z
#    x 1.822370 0.000000 0.000000 
#    y 0.000000 1.789530 0.000000 
#    z 0.000000 0.000000 1.765860 
# 
# From -- ./inp_files/18203.got.cif
#   From: 2010.03.12/outbox.cif.g09.slc.cpg/sg49_10_cif.got.tgz:18203.got - 2010.04.14 03:58:27.
