data_PCOD8204850
_publ_section_title
;
Structure prediction by ZEFSAII (Michael W. Deem and Ramdas Pophale) SiO2 
 PCOD8204850
Probable space group: P B A N
;
_chemical_formula_sum "Si O2"
_cell_formula_units_Z 48
_cell_length_a 18.062269
_cell_length_b 13.992847
_cell_length_c 9.335491
_cell_angle_alpha 90.000000
_cell_angle_beta 90.000000
_cell_angle_gamma 90.000000
_cell_volume 2359.475956
_symmetry_space_group_name_H-M "P B A N"
_symmetry_group_IT_number 50
_space_group.IT_coordinate_system_code '2'
_symmetry_cell_setting 'orthorhombic'
loop_
_space_group_symop_operation_xyz
x,y,z
1/2-x,1/2-y,z
x,1/2-y,-z
1/2-x,y,-z
-x,-y,-z
1/2+x,1/2+y,-z
-x,1/2+y,z
1/2+x,-y,z
loop_
_atom_site_type_symbol
_atom_site_label
_atom_site_fract_x
_atom_site_fract_y
_atom_site_fract_z
Si Si1 0.507712 0.400149 0.184572
Si Si2 0.706163 0.555624 0.130421
Si Si3 0.414545 0.236368 0.658045
Si Si4 0.250000 0.750000 0.500000
Si Si5 0.172592 0.636168 0.250962
Si Si6 0.042096 0.393246 0.121394
Si Si7 0.250000 0.250000 0.261452
Si Si8 0.250000 0.750000 0.000000
O O1 0.438833 0.366603 0.282604
O O2 0.583837 0.361343 0.251148
O O3 0.501753 0.514678 0.188002
O O4 0.500239 0.360208 0.021967
O O5 0.701429 0.474436 0.253820
O O6 0.624879 0.580480 0.074215
O O7 0.749499 0.652399 0.171381
O O8 0.750000 0.507910 0.000000
O O9 0.446446 0.250000 0.500000
O O10 0.456349 0.311315 0.760215
O O11 0.325778 0.248796 0.648199
O O12 0.199278 0.685002 0.397516
O O13 0.199329 0.686488 0.104950
#
# Coordination Sequence:
#
# PCOD8204850 Si02
#       8
#     8   8   8   2   8   8   4   2
#     4  10  21  39  62  89 118 162 206 259 311 365
#     4  10  18  36  63  94 121 163 208 259 314 371
#     4  11  23  39  61  91 126 168 205 250 314 375
#     4  10  24  46  56  88 128 164 208 262 316 376
#     4  10  22  39  63  89 123 160 210 257 317 367
#     4   9  21  39  59  90 126 153 207 264 305 366
#     4  10  22  40  60  92 133 167 204 258 311 379
#     4  10  20  38  60  92 112 156 208 266 296 364
#
# _framework density 20.343501
#
# number of rings (size 3 to 8) (size 9 to 14) (size 15 to 20)
#    0.000    2.000    0.833    2.000    3.500    3.333 
#    9.000    0.000    0.000    0.000    0.000    0.000 
#    0.000    0.000    0.000    0.000    0.000    0.000 
#
# Total GULP energy -595001.564926 kJ/mol
# GULP energy per Si atom -12395.865936 kJ/mol
# Density = 2.029720 g / cm^3
# Si number density = 20.343501 Si / 1000 Ang^3
#
#
#
# Elastic Constant Matrix: (Units=GPa)
#
#
# Indices 1 2 3 4 5 6 
#
# 1 63.6548 40.3609 51.3196 0.0000 0.0000 0.0000
# 2 40.3609 107.3829 54.7004 0.0000 0.0000 0.0000
# 3 51.3196 54.7004 132.1608 0.0000 0.0000 0.0000
# 4 0.0000 0.0000 0.0000 11.5442 0.0000 0.0000
# 5 0.0000 0.0000 0.0000 0.0000 24.1910 0.0000
# 6 0.0000 0.0000 0.0000 0.0000 0.0000 35.0443
#
#
#
# Elastic Compliance Matrix: (Units=1/GPa)
#
#
# Indices 1 2 3 4 5 6 
#
# 1 0.025372 -0.005725 -0.007483 0.000000 0.000000 0.000000
# 2 -0.005725 0.013092 -0.003196 0.000000 0.000000 0.000000
# 3 -0.007483 -0.003196 0.011795 0.000000 0.000000 0.000000
# 4 0.000000 0.000000 0.000000 0.086624 0.000000 0.000000
# 5 0.000000 0.000000 0.000000 0.000000 0.041338 0.000000
# 6 0.000000 0.000000 0.000000 0.000000 0.000000 0.028535
#
#
# Mechanical properties :
#
#
# Convention : Reuss Voigt Hill
#
# Bulk Modulus (GPa) = 57.29802 66.21782 61.75792
# Shear Modulus (GPa) = 20.37649 24.61039 22.49344
#
# Velocity S-wave (km/s) = 3.16827 3.48191 3.32879
# Velocity P-wave (km/s) = 6.45061 6.98466 6.72294
#
# Compressibility (1/GPa) = 0.01745261
#
# Stress axis : x y z
#
# Youngs Moduli (GPa) = 39.41281 76.38230 84.78174
#
# Poissons Ratio (x) = 0.43726 0.63442
# Poissons Ratio (y) = 0.22562 0.27094
# Poissons Ratio (z) = 0.29493 0.24410
#
# Static dielectric constant tensor:
#      x y z
#    x 3.683750 0.000000 0.000000 
#    y 0.000000 3.880300 0.000000 
#    z 0.000000 0.000000 3.448710 
# 
# 
# High freq. dielectric constant tensor:
#      x y z
#    x 1.796120 0.000000 0.000000 
#    y 0.000000 1.805000 0.000000 
#    z 0.000000 0.000000 1.778400 
# 
# From -- ./inp_files/14282.got.cif
#   From: 2010.03.12/outbox.cif.g09.slc.cpg/sg50_8_cif.got.tgz:14282.got - 2010.04.16 13:23:21.
