data_PCOD8204430
_publ_section_title
;
Structure prediction by ZEFSAII (Michael W. Deem and Ramdas Pophale) SiO2 
 PCOD8204430
Probable space group: P C C M
;
_chemical_formula_sum "Si O2"
_cell_formula_units_Z 64
_cell_length_a 11.729395
_cell_length_b 15.042636
_cell_length_c 17.389831
_cell_angle_alpha 90.000000
_cell_angle_beta 90.000000
_cell_angle_gamma 90.000000
_cell_volume 3068.279510
_symmetry_space_group_name_H-M "P C C M"
_symmetry_group_IT_number 49
_symmetry_cell_setting 'orthorhombic'
loop_
_space_group_symop_operation_xyz
x,y,z
-x,-y,z
x,-y,1/2-z
-x,y,1/2-z
-x,-y,-z
x,y,-z
-x,y,1/2+z
x,-y,1/2+z
loop_
_atom_site_type_symbol
_atom_site_label
_atom_site_fract_x
_atom_site_fract_y
_atom_site_fract_z
Si Si1 0.858476 0.763663 0.318400
Si Si2 0.367997 0.482405 0.834152
Si Si3 0.515693 0.790726 0.661051
Si Si4 0.318788 0.701741 0.587443
Si Si5 0.894964 0.221586 0.649656
Si Si6 0.701025 0.069624 0.179516
Si Si7 0.125326 0.962448 0.589109
Si Si8 0.688702 0.655663 0.589257
O O1 0.886975 0.731656 0.232660
O O2 0.779556 0.847695 0.298215
O O3 0.799108 0.686828 0.365468
O O4 0.970418 0.782892 0.370325
O O5 0.500000 0.500000 0.828114
O O6 0.312503 0.500000 0.750000
O O7 0.344240 0.382776 0.860104
O O8 0.319231 0.550464 0.897388
O O9 0.500000 0.768114 0.750000
O O10 0.390991 0.787103 0.620313
O O11 0.578857 0.887293 0.652442
O O12 0.581237 0.709330 0.621529
O O13 0.354023 0.682466 0.500000
O O14 0.183571 0.722285 0.591262
O O15 0.853121 0.120236 0.645070
O O16 0.682883 0.000000 0.250000
O O17 0.768768 0.027382 0.107679
O O18 0.132176 0.934995 0.500000
O O19 0.000000 0.000000 0.608834
O O20 0.702305 0.676766 0.500000
#
# Coordination Sequence:
#
# PCOD8204430 Si02
#       8
#     8   8   8   8   8   8   8   8
#     4  10  22  39  69  93 124 167 218 269 327 394
#     4  11  22  40  68  97 129 173 224 276 316 389
#     4  11  24  42  61  89 127 169 221 266 322 387
#     4  12  25  41  65  96 136 177 212 265 338 402
#     4  11  22  42  63  94 128 171 216 267 324 399
#     4  11  22  40  65  91 120 164 221 277 320 382
#     4  11  23  38  61  93 128 162 209 272 333 387
#     4  11  23  40  66 100 132 165 214 280 334 386
#
# _framework density 20.858594
#
# number of rings (size 3 to 8) (size 9 to 14) (size 15 to 20)
#    0.000    1.000    3.750    4.125    0.000    4.500 
#    0.000    0.625    0.000    5.250    0.000    0.000 
#    0.000    0.000    0.000    0.000    0.000    0.000 
#
# Total GULP energy -793125.179571 kJ/mol
# GULP energy per Si atom -12392.580931 kJ/mol
# Density = 2.081112 g / cm^3
# Si number density = 20.858594 Si / 1000 Ang^3
#
#
#
# Elastic Constant Matrix: (Units=GPa)
#
#
# Indices 1 2 3 4 5 6 
#
# 1 80.3737 48.9691 34.0361 0.0000 0.0000 0.0000
# 2 48.9691 95.0520 34.4660 0.0000 0.0000 0.0000
# 3 34.0361 34.4660 122.1287 0.0000 0.0000 0.0000
# 4 0.0000 0.0000 0.0000 29.5930 0.0000 0.0000
# 5 0.0000 0.0000 0.0000 0.0000 28.4752 0.0000
# 6 0.0000 0.0000 0.0000 0.0000 0.0000 26.6362
#
#
#
# Elastic Compliance Matrix: (Units=1/GPa)
#
#
# Indices 1 2 3 4 5 6 
#
# 1 0.018965 -0.008749 -0.002816 0.000000 0.000000 0.000000
# 2 -0.008749 0.015756 -0.002008 0.000000 0.000000 0.000000
# 3 -0.002816 -0.002008 0.009540 0.000000 0.000000 0.000000
# 4 0.000000 0.000000 0.000000 0.033792 0.000000 0.000000
# 5 0.000000 0.000000 0.000000 0.000000 0.035118 0.000000
# 6 0.000000 0.000000 0.000000 0.000000 0.000000 0.037543
#
#
# Mechanical properties :
#
#
# Convention : Reuss Voigt Hill
#
# Bulk Modulus (GPa) = 58.43351 59.16633 58.79992
# Shear Modulus (GPa) = 27.23812 28.94643 28.09227
#
# Velocity S-wave (km/s) = 3.61757 3.72929 3.67385
# Velocity P-wave (km/s) = 6.74715 6.85350 6.80053
#
# Compressibility (1/GPa) = 0.01711347
#
# Stress axis : x y z
#
# Youngs Moduli (GPa) = 52.72814 63.46683 104.82527
#
# Poissons Ratio (x) = 0.55529 0.29521
# Poissons Ratio (y) = 0.46134 0.21051
# Poissons Ratio (z) = 0.14850 0.12746
#
# Static dielectric constant tensor:
#      x y z
#    x 4.064970 0.000000 0.000000 
#    y 0.000000 3.844730 0.000000 
#    z 0.000000 0.000000 3.696510 
# 
# 
# High freq. dielectric constant tensor:
#      x y z
#    x 1.819940 0.000000 0.000000 
#    y 0.000000 1.804120 0.000000 
#    z 0.000000 0.000000 1.815100 
# 
# From -- ./inp_files/17301.got.cif
#   From: 2010.03.12/outbox.cif.g09.slc.cpg/sg49_9_cif.got.tgz:17301.got - 2010.04.14 03:58:27.
