data_PCOD8204565
_publ_section_title
;
Structure prediction by ZEFSAII (Michael W. Deem and Ramdas Pophale) SiO2 
 PCOD8204565
Probable space group: P C C M
;
_chemical_formula_sum "Si O2"
_cell_formula_units_Z 48
_cell_length_a 9.748387
_cell_length_b 11.341235
_cell_length_c 22.050069
_cell_angle_alpha 90.000000
_cell_angle_beta 90.000000
_cell_angle_gamma 90.000000
_cell_volume 2437.828018
_symmetry_space_group_name_H-M "P C C M"
_symmetry_group_IT_number 49
_symmetry_cell_setting 'orthorhombic'
loop_
_space_group_symop_operation_xyz
x,y,z
-x,-y,z
x,-y,1/2-z
-x,y,1/2-z
-x,-y,-z
x,y,-z
-x,y,1/2+z
x,-y,1/2+z
loop_
_atom_site_type_symbol
_atom_site_label
_atom_site_fract_x
_atom_site_fract_y
_atom_site_fract_z
Si Si1 0.338115 0.138095 0.742490
Si Si2 0.525991 0.870847 0.069359
Si Si3 0.655097 0.499539 0.815097
Si Si4 0.002440 0.359920 0.428948
Si Si5 0.247955 0.737415 0.358708
Si Si6 0.279077 0.262379 0.620693
O O1 0.500000 0.174971 0.750000
O O2 0.244462 0.206475 0.791482
O O3 0.274697 0.172220 0.677377
O O4 0.319902 0.000000 0.750000
O O5 0.660020 0.821116 0.100668
O O6 0.394495 0.786375 0.075318
O O7 0.500000 0.000000 0.098789
O O8 0.565018 0.885932 0.000000
O O9 0.500000 0.500000 0.796447
O O10 0.736835 0.500000 0.750000
O O11 0.686783 0.609216 0.857198
O O12 0.683590 0.388161 0.854833
O O13 0.964866 0.352627 0.500000
O O14 0.899660 0.281465 0.388697
O O15 0.000000 0.500000 0.409350
O O16 0.141449 0.286760 0.417033
#
# Coordination Sequence:
#
# PCOD8204565 Si02
#       6
#     8   8   8   8   8   8
#     4  11  22  40  69 100 132 167 209 270 329 384
#     4  11  24  42  65  92 124 170 224 271 314 371
#     4  11  20  35  60  99 135 161 197 264 335 390
#     4  11  26  45  63  90 134 181 218 262 322 385
#     4  12  22  41  65  96 130 168 215 263 325 386
#     4  12  22  41  65  96 130 168 215 263 325 386
#
# _framework density 19.689657
#
# number of rings (size 3 to 8) (size 9 to 14) (size 15 to 20)
#    0.000    0.667    6.667    2.000    0.000    0.667 
#    0.000    6.667    0.000    6.000    0.000    0.000 
#    0.000    0.000    0.000    0.000    0.000    0.000 
#
# Total GULP energy -594881.362038 kJ/mol
# GULP energy per Si atom -12393.361709 kJ/mol
# Density = 1.964484 g / cm^3
# Si number density = 19.689657 Si / 1000 Ang^3
#
#
#
# Elastic Constant Matrix: (Units=GPa)
#
#
# Indices 1 2 3 4 5 6 
#
# 1 62.6425 4.2631 4.8344 0.0000 0.0000 0.0000
# 2 4.2631 106.4931 14.0697 0.0000 0.0000 0.0000
# 3 4.8344 14.0697 68.5543 0.0000 0.0000 0.0000
# 4 0.0000 0.0000 0.0000 22.1951 0.0000 0.0000
# 5 0.0000 0.0000 0.0000 0.0000 33.3699 0.0000
# 6 0.0000 0.0000 0.0000 0.0000 0.0000 315.7761
#
#
#
# Elastic Compliance Matrix: (Units=1/GPa)
#
#
# Indices 1 2 3 4 5 6 
#
# 1 0.016078 -0.000508 -0.001030 0.000000 0.000000 0.000000
# 2 -0.000508 0.009668 -0.001948 0.000000 0.000000 0.000000
# 3 -0.001030 -0.001948 0.015059 0.000000 0.000000 0.000000
# 4 0.000000 0.000000 0.000000 0.045055 0.000000 0.000000
# 5 0.000000 0.000000 0.000000 0.000000 0.029967 0.000000
# 6 0.000000 0.000000 0.000000 0.000000 0.000000 0.003167
#
#
# Mechanical properties :
#
#
# Convention : Reuss Voigt Hill
#
# Bulk Modulus (GPa) = 29.55616 31.55824 30.55720
# Shear Modulus (GPa) = 36.43167 88.56974 62.50070
#
# Velocity S-wave (km/s) = 4.30617 6.71420 5.64020
# Velocity P-wave (km/s) = 6.30617 8.72754 7.61373
#
# Compressibility (1/GPa) = 0.03383389
#
# Stress axis : x y z
#
# Youngs Moduli (GPa) = 62.19827 103.43383 66.40340
#
# Poissons Ratio (x) = 0.05250 0.06837
# Poissons Ratio (y) = 0.03157 0.12938
# Poissons Ratio (z) = 0.06404 0.20153
#
# Static dielectric constant tensor:
#      x y z
#    x 3.565640 0.000000 0.000000 
#    y 0.000000 3.707470 0.000000 
#    z 0.000000 0.000000 3.471830 
# 
# 
# High freq. dielectric constant tensor:
#      x y z
#    x 1.743330 0.000000 0.000000 
#    y 0.000000 1.783910 0.000000 
#    z 0.000000 0.000000 1.781250 
# 
# From -- ./inp_files/22373.got.cif
#   From: 2010.03.12/outbox.cif.g09.slc.cpg/sg49_12_cif.got.tgz:22373.got - 2010.04.14 03:58:27.
