data_PCOD8204373
_publ_section_title
;
Structure prediction by ZEFSAII (Michael W. Deem and Ramdas Pophale) SiO2 
 PCOD8204373
Probable space group: P C C M
;
_chemical_formula_sum "Si O2"
_cell_formula_units_Z 56
_cell_length_a 14.308344
_cell_length_b 5.617125
_cell_length_c 29.290662
_cell_angle_alpha 90.000000
_cell_angle_beta 90.000000
_cell_angle_gamma 90.000000
_cell_volume 2354.141963
_symmetry_space_group_name_H-M "P C C M"
_symmetry_group_IT_number 49
_symmetry_cell_setting 'orthorhombic'
loop_
_space_group_symop_operation_xyz
x,y,z
-x,-y,z
x,-y,1/2-z
-x,y,1/2-z
-x,-y,-z
x,y,-z
-x,y,1/2+z
x,-y,1/2+z
loop_
_atom_site_type_symbol
_atom_site_label
_atom_site_fract_x
_atom_site_fract_y
_atom_site_fract_z
Si Si1 0.848481 0.876512 0.050073
Si Si2 0.750000 0.750000 0.397090
Si Si3 0.651519 0.623488 0.050073
Si Si4 0.857903 0.247078 0.730233
Si Si5 0.642097 0.747078 0.230233
Si Si6 0.399999 0.104223 0.134601
Si Si7 0.899999 0.604223 0.865399
O O1 0.750000 0.750000 0.045521
O O2 0.912893 0.737874 0.086168
O O3 0.828483 0.136160 0.070056
O O4 0.897294 0.890601 0.000000
O O5 0.671517 0.636160 0.429944
O O6 0.810820 0.574092 0.365722
O O7 0.689180 0.925908 0.365722
O O8 0.587107 0.762126 0.086168
O O9 0.602706 0.609399 0.000000
O O10 0.901134 0.500000 0.750000
O O11 0.750000 0.250000 0.743617
O O12 0.874781 0.220612 0.675939
O O13 0.902734 0.000000 0.750000
O O14 0.597266 0.500000 0.250000
O O15 0.625219 0.720612 0.175939
O O16 0.598866 0.000000 0.250000
O O17 0.500000 0.000000 0.146545
O O18 0.000000 0.500000 0.853455
#
# Coordination Sequence:
#
# PCOD8204373 Si02
#       7
#     8   8   8   8   8   8   8
#     4   9  19  38  65  97 135 180 231 283 346 418
#     4  10  21  40  70  94 132 184 228 288 347 416
#     4   9  19  38  65  97 135 180 231 283 346 418
#     4  10  23  43  73  98 131 179 230 289 353 418
#     4  10  23  43  73  98 131 179 230 289 353 418
#     4  11  25  42  66 100 137 178 229 289 351 429
#     4  11  25  42  66 100 137 178 229 289 351 429
#
# _framework density 23.787860999999999
#
# number of rings (size 3 to 8) (size 9 to 14) (size 15 to 20)
#    0.000    2.000    0.000    3.000   10.000    3.429 
#    0.000    2.857    0.000    0.000    0.000    0.000 
#    0.000    0.000    0.000    0.000    0.000    0.000 
#
# Total GULP energy -693886.398342 kJ/mol
# GULP energy per Si atom -12390.828542 kJ/mol
# Density = 2.373372 g / cm^3
# Si number density = 23.787861 Si / 1000 Ang^3
#
#
#
# Elastic Constant Matrix: (Units=GPa)
#
#
# Indices 1 2 3 4 5 6 
#
# 1 62.3395 22.8659 29.1598 0.0000 0.0000 0.0000
# 2 22.8659 152.1323 70.4595 0.0000 0.0000 0.0000
# 3 29.1598 70.4595 179.2549 0.0000 0.0000 0.0000
# 4 0.0000 0.0000 0.0000 15.7292 0.0000 0.0000
# 5 0.0000 0.0000 0.0000 0.0000 -70.8267 0.0000
# 6 0.0000 0.0000 0.0000 0.0000 0.0000 5.3126
#
#
#
# Elastic Compliance Matrix: (Units=1/GPa)
#
#
# Indices 1 2 3 4 5 6 
#
# 1 0.017683 -0.001621 -0.002240 0.000000 0.000000 0.000000
# 2 -0.001621 0.008185 -0.002954 0.000000 0.000000 0.000000
# 3 -0.002240 -0.002954 0.007104 0.000000 0.000000 0.000000
# 4 0.000000 0.000000 0.000000 0.063576 0.000000 0.000000
# 5 0.000000 0.000000 0.000000 0.000000 -0.014119 0.000000
# 6 0.000000 0.000000 0.000000 0.000000 0.000000 0.188231
#
#
# Mechanical properties :
#
#
# Convention : Reuss Voigt Hill
#
# Bulk Modulus (GPa) = 51.69441 70.96634 61.33038
# Shear Modulus (GPa) = 17.19779 8.12579 12.66179
#
# Velocity S-wave (km/s) = 2.69172 1.85023 2.30962
# Velocity P-wave (km/s) = 5.60705 5.87046 5.74027
#
# Compressibility (1/GPa) = 0.01934445
#
# Stress axis : x y z
#
# Youngs Moduli (GPa) = 56.55090 122.17886 140.76764
#
# Poissons Ratio (x) = 0.19800 0.31526
# Poissons Ratio (y) = 0.09165 0.41576
# Poissons Ratio (z) = 0.12665 0.36086
#
# Static dielectric constant tensor:
#      x y z
#    x 3.731930 0.000000 0.000000 
#    y 0.000000 4.861280 0.000000 
#    z 0.000000 0.000000 4.609080 
# 
# 
# High freq. dielectric constant tensor:
#      x y z
#    x 1.914150 0.000000 0.000000 
#    y 0.000000 1.942030 0.000000 
#    z 0.000000 0.000000 1.955190 
# 
# From -- ./inp_files/25823.got.cif
#   From: 2010.03.12/outbox.cif.g09.slc.cpg/sg49_13_cif.got.tgz:25823.got - 2010.04.14 03:58:27.
