data_PCOD8204629
_publ_section_title
;
Structure prediction by ZEFSAII (Michael W. Deem and Ramdas Pophale) SiO2 
 PCOD8204629
Probable space group: P C C M
;
_chemical_formula_sum "Si O2"
_cell_formula_units_Z 48
_cell_length_a 9.082076
_cell_length_b 30.149467
_cell_length_c 8.513382
_cell_angle_alpha 90.000000
_cell_angle_beta 90.000000
_cell_angle_gamma 90.000000
_cell_volume 2331.132136
_symmetry_space_group_name_H-M "P C C M"
_symmetry_group_IT_number 49
_symmetry_cell_setting 'orthorhombic'
loop_
_space_group_symop_operation_xyz
x,y,z
-x,-y,z
x,-y,1/2-z
-x,y,1/2-z
-x,-y,-z
x,y,-z
-x,y,1/2+z
x,-y,1/2+z
loop_
_atom_site_type_symbol
_atom_site_label
_atom_site_fract_x
_atom_site_fract_y
_atom_site_fract_z
Si Si1 0.161171 0.286876 0.317373
Si Si2 0.343219 0.951636 0.685421
Si Si3 0.657127 0.624853 0.318504
Si Si4 0.840247 0.873697 0.315144
Si Si5 0.660817 0.206830 0.684344
Si Si6 0.843165 0.452362 0.683907
O O1 0.159752 0.272923 0.500000
O O2 0.238079 0.333641 0.290660
O O3 0.242168 0.249838 0.216154
O O4 0.000000 0.291994 0.250000
O O5 0.500000 0.934356 0.750000
O O6 0.353037 0.953602 0.500000
O O7 0.213104 0.919350 0.738064
O O8 0.305200 0.000000 0.750000
O O9 0.500000 0.638012 0.250000
O O10 0.643773 0.612341 0.500000
O O11 0.718147 0.582529 0.227004
O O12 0.848760 0.879912 0.500000
O O13 0.726801 0.835195 0.273341
O O14 0.000000 0.860792 0.250000
O O15 0.500000 0.216552 0.750000
O O16 0.655610 0.196682 0.500000
O O17 0.796351 0.500000 0.750000
O O18 0.858918 0.456494 0.500000
O O19 0.000000 0.436270 0.750000
#
# Coordination Sequence:
#
# PCOD8204629 Si02
#       6
#     8   8   8   8   8   8
#     4  11  24  42  65  93 125 162 203 250 302 361
#     4  11  22  40  64  93 125 163 207 254 307 364
#     4  11  24  41  62  90 124 161 204 251 304 361
#     4  12  25  43  64  91 125 163 206 254 307 364
#     4  12  25  43  66  93 125 162 204 252 304 362
#     4  11  22  39  63  90 122 159 203 251 304 362
#
# _framework density 20.590852999999999
#
# number of rings (size 3 to 8) (size 9 to 14) (size 15 to 20)
#    0.000    0.667    0.000   10.000    0.000    6.000 
#    0.000    3.333    0.000    0.000    0.000    0.000 
#    0.000    0.000    0.000    0.000    0.000    0.000 
#
# Total GULP energy -595616.481365 kJ/mol
# GULP energy per Si atom -12408.676695 kJ/mol
# Density = 2.054399 g / cm^3
# Si number density = 20.590853 Si / 1000 Ang^3
#
#
#
# Elastic Constant Matrix: (Units=GPa)
#
#
# Indices 1 2 3 4 5 6 
#
# 1 127.8321 43.2305 44.1925 0.0000 0.0000 0.0000
# 2 43.2305 93.1811 44.9923 0.0000 0.0000 0.0000
# 3 44.1925 44.9923 166.0043 0.0000 0.0000 0.0000
# 4 0.0000 0.0000 0.0000 383.2008 0.0000 0.0000
# 5 0.0000 0.0000 0.0000 0.0000 35.5588 0.0000
# 6 0.0000 0.0000 0.0000 0.0000 0.0000-1300.7876
#
#
#
# Elastic Compliance Matrix: (Units=1/GPa)
#
#
# Indices 1 2 3 4 5 6 
#
# 1 0.009615 -0.003710 -0.001554 0.000000 0.000000 0.000000
# 2 -0.003710 0.013780 -0.002747 0.000000 0.000000 0.000000
# 3 -0.001554 -0.002747 0.007182 0.000000 0.000000 0.000000
# 4 0.000000 0.000000 0.000000 0.002610 0.000000 0.000000
# 5 0.000000 0.000000 0.000000 0.000000 0.028122 0.000000
# 6 0.000000 0.000000 0.000000 0.000000 0.000000 -0.000769
#
#
# Mechanical properties :
#
#
# Convention : Reuss Voigt Hill
#
# Bulk Modulus (GPa) = 68.70999 72.42759 70.56879
# Shear Modulus (GPa) = 61.41489 -159.43212 -49.00862
#
# Velocity S-wave (km/s) = 5.46727 -8.80890 -4.88394
# Velocity P-wave (km/s) = 8.56133 8.25901 1.59453
#
# Compressibility (1/GPa) = 0.01455393
#
# Stress axis : x y z
#
# Youngs Moduli (GPa) = 104.00687 72.57139 139.23455
#
# Poissons Ratio (x) = 0.26927 0.21636
# Poissons Ratio (y) = 0.38590 0.38247
# Poissons Ratio (z) = 0.16162 0.19935
#
# Static dielectric constant tensor:
#      x y z
#    x 3.770990 0.000000 0.000000 
#    y 0.000000 3.819560 0.000000 
#    z 0.000000 0.000000 3.952750 
# 
# 
# High freq. dielectric constant tensor:
#      x y z
#    x 1.814990 0.000000 0.000000 
#    y 0.000000 1.818450 0.000000 
#    z 0.000000 0.000000 1.828530 
# 
# From -- ./inp_files/2090.got.cif
#   From: 2010.03.12/outbox.cif.g09.slc.cpg/sg49_2_cif.got.tgz:2090.got - 2010.04.14 03:58:27.
