data_PCOD8204475
_publ_section_title
;
Structure prediction by ZEFSAII (Michael W. Deem and Ramdas Pophale) SiO2 
 PCOD8204475
Probable space group: P C C M
;
_chemical_formula_sum "Si O2"
_cell_formula_units_Z 56
_cell_length_a 14.583860
_cell_length_b 8.910893
_cell_length_c 20.023278
_cell_angle_alpha 90.000000
_cell_angle_beta 90.000000
_cell_angle_gamma 90.000000
_cell_volume 2602.129417
_symmetry_space_group_name_H-M "P C C M"
_symmetry_group_IT_number 49
_symmetry_cell_setting 'orthorhombic'
loop_
_space_group_symop_operation_xyz
x,y,z
-x,-y,z
x,-y,1/2-z
-x,y,1/2-z
-x,-y,-z
x,y,-z
-x,y,1/2+z
x,-y,1/2+z
loop_
_atom_site_type_symbol
_atom_site_label
_atom_site_fract_x
_atom_site_fract_y
_atom_site_fract_z
Si Si1 0.624855 0.421029 0.179549
Si Si2 0.778779 0.189477 0.194061
Si Si3 0.517208 0.161221 0.674460
Si Si4 0.725379 0.385347 0.424285
Si Si5 0.926114 0.379626 0.424106
Si Si6 0.016597 0.824763 0.177118
Si Si7 0.723572 0.123550 0.662303
O O1 0.595843 0.500000 0.250000
O O2 0.721266 0.339568 0.187835
O O3 0.544747 0.306636 0.153519
O O4 0.645937 0.541190 0.121213
O O5 0.877071 0.208471 0.159189
O O6 0.788272 0.156379 0.273488
O O7 0.723038 0.056602 0.154995
O O8 0.500000 0.125457 0.750000
O O9 0.623825 0.198379 0.671590
O O10 0.500000 0.000000 0.635544
O O11 0.688354 0.388196 0.500000
O O12 0.826185 0.460010 0.417321
O O13 0.753799 0.213107 0.403806
O O14 0.941766 0.325188 0.500000
O O15 0.000000 0.500000 0.401201
O O16 0.944008 0.239266 0.375648
O O17 0.000000 0.753151 0.250000
O O18 0.000000 0.000000 0.178564
#
# Coordination Sequence:
#
# PCOD8204475 Si02
#       7
#     8   8   8   8   8   8   8
#     4  12  23  38  64  98 125 161 213 269 318 375
#     4  11  20  37  62  92 126 157 208 268 316 370
#     4  11  19  37  62  96 126 161 204 261 317 375
#     4  11  24  42  61  89 128 169 211 261 324 386
#     4  10  22  42  62  83 120 166 211 258 314 381
#     4  11  22  36  58  92 126 159 207 260 317 372
#     4  11  20  38  63  89 127 164 205 258 322 381
#
# _framework density 21.520837
#
# number of rings (size 3 to 8) (size 9 to 14) (size 15 to 20)
#    0.000    1.000    4.286    5.143    0.000    2.571 
#    0.000    2.857    0.000    0.857    0.000    0.000 
#    0.000    0.000    0.000    0.000    0.000    0.000 
#
# Total GULP energy -693746.425020 kJ/mol
# GULP energy per Si atom -12388.329018 kJ/mol
# Density = 2.147185 g / cm^3
# Si number density = 21.520837 Si / 1000 Ang^3
#
#
#
# Elastic Constant Matrix: (Units=GPa)
#
#
# Indices 1 2 3 4 5 6 
#
# 1 98.9394 13.7711 17.5878 0.0000 0.0000 0.0000
# 2 13.7711 93.3712 41.6221 0.0000 0.0000 0.0000
# 3 17.5878 41.6221 100.4751 0.0000 0.0000 0.0000
# 4 0.0000 0.0000 0.0000 22.2620 0.0000 0.0000
# 5 0.0000 0.0000 0.0000 0.0000 16.8365 0.0000
# 6 0.0000 0.0000 0.0000 0.0000 0.0000 38.2666
#
#
#
# Elastic Compliance Matrix: (Units=1/GPa)
#
#
# Indices 1 2 3 4 5 6 
#
# 1 0.010492 -0.000894 -0.001466 0.000000 0.000000 0.000000
# 2 -0.000894 0.013212 -0.005317 0.000000 0.000000 0.000000
# 3 -0.001466 -0.005317 0.012412 0.000000 0.000000 0.000000
# 4 0.000000 0.000000 0.000000 0.044920 0.000000 0.000000
# 5 0.000000 0.000000 0.000000 0.000000 0.059395 0.000000
# 6 0.000000 0.000000 0.000000 0.000000 0.000000 0.026132
#
#
# Mechanical properties :
#
#
# Convention : Reuss Voigt Hill
#
# Bulk Modulus (GPa) = 48.16411 48.74973 48.45692
# Shear Modulus (GPa) = 26.47788 30.12666 28.30227
#
# Velocity S-wave (km/s) = 3.51142 3.74556 3.63038
# Velocity P-wave (km/s) = 6.23449 6.43484 6.33546
#
# Compressibility (1/GPa) = 0.02076235
#
# Stress axis : x y z
#
# Youngs Moduli (GPa) = 95.30823 75.69035 80.56862
#
# Poissons Ratio (x) = 0.06765 0.11814
# Poissons Ratio (y) = 0.08519 0.42835
# Poissons Ratio (z) = 0.13976 0.40241
#
# Static dielectric constant tensor:
#      x y z
#    x 3.979360 0.000000 0.000000 
#    y 0.000000 4.303850 0.000000 
#    z 0.000000 0.000000 3.517120 
# 
# 
# High freq. dielectric constant tensor:
#      x y z
#    x 1.865240 0.000000 0.000000 
#    y 0.000000 1.850200 0.000000 
#    z 0.000000 0.000000 1.793990 
# 
# From -- ./inp_files/20888.got.cif
#   From: 2010.03.12/outbox.cif.g09.slc.cpg/sg49_11_cif.got.tgz:20888.got - 2010.04.14 03:58:27.
