data_PCOD8204150
_publ_section_title
;
Structure prediction by ZEFSAII (Michael W. Deem and Ramdas Pophale) SiO2 
 PCOD8204150
Probable space group: P C C M
;
_chemical_formula_sum "Si O2"
_cell_formula_units_Z 40
_cell_length_a 25.328392
_cell_length_b 9.578531
_cell_length_c 8.608720
_cell_angle_alpha 90.000000
_cell_angle_beta 90.000000
_cell_angle_gamma 90.000000
_cell_volume 2088.551125
_symmetry_space_group_name_H-M "P C C M"
_symmetry_group_IT_number 49
_symmetry_cell_setting 'orthorhombic'
loop_
_space_group_symop_operation_xyz
x,y,z
-x,-y,z
x,-y,1/2-z
-x,y,1/2-z
-x,-y,-z
x,y,-z
-x,y,1/2+z
x,-y,1/2+z
loop_
_atom_site_type_symbol
_atom_site_label
_atom_site_fract_x
_atom_site_fract_y
_atom_site_fract_z
Si Si1 0.740354 0.150138 0.817582
Si Si2 0.356254 0.653657 0.816687
Si Si3 0.054732 0.347878 0.816199
Si Si4 0.851193 0.849427 0.183608
Si Si5 0.557774 0.853441 0.184098
O O1 0.696122 0.261517 0.771796
O O2 0.795322 0.205540 0.747590
O O3 0.724238 0.000000 0.750000
O O4 0.746879 0.133247 0.000000
O O5 0.349707 0.500000 0.750000
O O6 0.405903 0.726212 0.736219
O O7 0.365621 0.649010 0.000000
O O8 0.065508 0.500000 0.750000
O O9 0.102807 0.252605 0.758958
O O10 0.000000 0.285692 0.750000
O O11 0.050763 0.355004 0.000000
O O12 0.864850 0.000000 0.250000
O O13 0.847878 0.857445 0.000000
O O14 0.500000 0.823779 0.250000
O O15 0.580234 0.000000 0.250000
O O16 0.555452 0.863187 0.000000
#
# Coordination Sequence:
#
# PCOD8204150 Si02
#       5
#     8   8   8   8   8
#     4  10  21  37  59  83 110 145 185 228 276 329
#     4  11  24  40  58  85 117 151 190 233 282 334
#     4  10  21  36  55  79 107 143 182 223 270 325
#     4  10  21  36  56  82 110 141 181 226 275 326
#     4  11  22  39  63  89 117 151 191 234 279 332
#
# _framework density 19.152032999999999
#
# number of rings (size 3 to 8) (size 9 to 14) (size 15 to 20)
#    0.000    1.600    0.000    7.200    0.000    9.600 
#    0.000    8.000    0.000    0.000    0.000    0.000 
#    0.000    0.000    0.000    0.000    0.000    0.000 
#
# Total GULP energy -496164.079933 kJ/mol
# GULP energy per Si atom -12404.101998 kJ/mol
# Density = 1.910844 g / cm^3
# Si number density = 19.152033 Si / 1000 Ang^3
#
#
#
# Elastic Constant Matrix: (Units=GPa)
#
#
# Indices 1 2 3 4 5 6 
#
# 1 146.0931 97.0983 66.8909 0.0000 0.0000 0.0000
# 2 97.0983 127.7070 55.3079 0.0000 0.0000 0.0000
# 3 66.8909 55.3079 119.9508 0.0000 0.0000 0.0000
# 4 0.0000 0.0000 0.0000 23.8190 0.0000 0.0000
# 5 0.0000 0.0000 0.0000 0.0000 197.6785 0.0000
# 6 0.0000 0.0000 0.0000 0.0000 0.0000 1418.1143
#
#
#
# Elastic Compliance Matrix: (Units=1/GPa)
#
#
# Indices 1 2 3 4 5 6 
#
# 1 0.015188 -0.009846 -0.003930 0.000000 0.000000 0.000000
# 2 -0.009846 0.016167 -0.001964 0.000000 0.000000 0.000000
# 3 -0.003930 -0.001964 0.011434 0.000000 0.000000 0.000000
# 4 0.000000 0.000000 0.000000 0.041983 0.000000 0.000000
# 5 0.000000 0.000000 0.000000 0.000000 0.005059 0.000000
# 6 0.000000 0.000000 0.000000 0.000000 0.000000 0.000705
#
#
# Mechanical properties :
#
#
# Convention : Reuss Voigt Hill
#
# Bulk Modulus (GPa) = 88.41977 92.48278 90.45128
# Shear Modulus (GPa) = 39.75019 339.55262 189.65141
#
# Velocity S-wave (km/s) = 4.56072 13.32960 9.96188
# Velocity P-wave (km/s) = 8.60239 16.89076 13.40334
#
# Compressibility (1/GPa) = 0.01130969
#
# Stress axis : x y z
#
# Youngs Moduli (GPa) = 65.84024 61.85434 87.46026
#
# Poissons Ratio (x) = 0.60902 0.34371
# Poissons Ratio (y) = 0.64826 0.17175
# Poissons Ratio (z) = 0.25875 0.12147
#
# Static dielectric constant tensor:
#      x y z
#    x 3.792060 0.000000 0.000000 
#    y 0.000000 3.529300 0.000000 
#    z 0.000000 0.000000 3.676800 
# 
# 
# High freq. dielectric constant tensor:
#      x y z
#    x 1.758920 0.000000 0.000000 
#    y 0.000000 1.741790 0.000000 
#    z 0.000000 0.000000 1.764960 
# 
# From -- ./inp_files/1694.got.cif
#   From: 2010.03.12/outbox.cif.g09.slc.cpg/sg49_1_cif.got.tgz:1694.got - 2010.04.14 03:58:27.
