data_PCOD8204651
_publ_section_title
;
Structure prediction by ZEFSAII (Michael W. Deem and Ramdas Pophale) SiO2 
 PCOD8204651
Probable space group: P C C M
;
_chemical_formula_sum "Si O2"
_cell_formula_units_Z 48
_cell_length_a 8.747378
_cell_length_b 14.160644
_cell_length_c 17.523396
_cell_angle_alpha 90.000000
_cell_angle_beta 90.000000
_cell_angle_gamma 90.000000
_cell_volume 2170.596879
_symmetry_space_group_name_H-M "P C C M"
_symmetry_group_IT_number 49
_symmetry_cell_setting 'orthorhombic'
loop_
_space_group_symop_operation_xyz
x,y,z
-x,-y,z
x,-y,1/2-z
-x,y,1/2-z
-x,-y,-z
x,y,-z
-x,y,1/2+z
x,-y,1/2+z
loop_
_atom_site_type_symbol
_atom_site_label
_atom_site_fract_x
_atom_site_fract_y
_atom_site_fract_z
Si Si1 0.150580 0.123497 0.367072
Si Si2 0.667737 0.838981 0.777132
Si Si3 0.832091 0.488375 0.160299
Si Si4 0.403159 0.359516 0.818799
Si Si5 0.177292 0.086355 0.086800
Si Si6 0.315871 0.311293 0.587177
O O1 0.204862 0.115745 0.279085
O O2 0.242819 0.207822 0.406964
O O3 0.968565 0.138072 0.373697
O O4 0.177307 0.026797 0.412921
O O5 0.500000 0.868427 0.750000
O O6 0.690162 0.725341 0.777744
O O7 0.681181 0.879404 0.862481
O O8 0.846131 0.500000 0.250000
O O9 0.707712 0.568012 0.136002
O O10 0.778725 0.385154 0.137320
O O11 0.000000 0.500000 0.122512
O O12 0.500000 0.410288 0.750000
O O13 0.511259 0.310718 0.881890
O O14 0.194719 0.121619 0.000000
O O15 0.315641 0.344763 0.500000
#
# Coordination Sequence:
#
# PCOD8204651 Si02
#       6
#     8   8   8   8   8   8
#     4  11  22  46  69  97 137 185 234 277 348 429
#     4  11  23  44  70 100 132 181 235 281 344 427
#     4  11  24  41  69 100 132 176 227 275 338 415
#     4  11  22  45  67  96 134 180 223 275 341 413
#     4  11  25  43  68 100 140 182 227 295 355 412
#     4  12  25  43  71 100 133 178 228 287 347 415
#
# _framework density 22.113733
#
# number of rings (size 3 to 8) (size 9 to 14) (size 15 to 20)
#    0.000    0.833    5.000    3.500    2.333    5.000 
#    0.000    0.833    0.000    0.000    0.000    0.000 
#    0.000    0.000    0.000    0.000    0.000    0.000 
#
# Total GULP energy -595130.818323 kJ/mol
# GULP energy per Si atom -12398.558715 kJ/mol
# Density = 2.206340 g / cm^3
# Si number density = 22.113733 Si / 1000 Ang^3
#
#
#
# Elastic Constant Matrix: (Units=GPa)
#
#
# Indices 1 2 3 4 5 6 
#
# 1 132.1093 65.9370 56.5388 0.0000 0.0000 0.0000
# 2 65.9370 93.4413 31.4071 0.0000 0.0000 0.0000
# 3 56.5388 31.4071 143.7895 0.0000 0.0000 0.0000
# 4 0.0000 0.0000 0.0000 24.3783 0.0000 0.0000
# 5 0.0000 0.0000 0.0000 0.0000 18.8724 0.0000
# 6 0.0000 0.0000 0.0000 0.0000 0.0000 46.6184
#
#
#
# Elastic Compliance Matrix: (Units=1/GPa)
#
#
# Indices 1 2 3 4 5 6 
#
# 1 0.013036 -0.008068 -0.003363 0.000000 0.000000 0.000000
# 2 -0.008068 0.016544 -0.000441 0.000000 0.000000 0.000000
# 3 -0.003363 -0.000441 0.008373 0.000000 0.000000 0.000000
# 4 0.000000 0.000000 0.000000 0.041020 0.000000 0.000000
# 5 0.000000 0.000000 0.000000 0.000000 0.052987 0.000000
# 6 0.000000 0.000000 0.000000 0.000000 0.000000 0.021451
#
#
# Mechanical properties :
#
#
# Convention : Reuss Voigt Hill
#
# Bulk Modulus (GPa) = 70.38607 75.23400 72.81003
# Shear Modulus (GPa) = 27.48875 32.33764 29.91319
#
# Velocity S-wave (km/s) = 3.52953 3.82819 3.68189
# Velocity P-wave (km/s) = 6.96479 7.32362 7.14646
#
# Compressibility (1/GPa) = 0.01420736
#
# Stress axis : x y z
#
# Youngs Moduli (GPa) = 76.71109 60.44647 119.42469
#
# Poissons Ratio (x) = 0.48770 0.40168
# Poissons Ratio (y) = 0.61893 0.05267
# Poissons Ratio (z) = 0.25802 0.02666
#
# Static dielectric constant tensor:
#      x y z
#    x 4.335420 0.000000 0.000000 
#    y 0.000000 3.899460 0.000000 
#    z 0.000000 0.000000 4.106290 
# 
# 
# High freq. dielectric constant tensor:
#      x y z
#    x 1.870300 0.000000 0.000000 
#    y 0.000000 1.871920 0.000000 
#    z 0.000000 0.000000 1.860590 
# 
# From -- ./inp_files/16272.got.cif
#   From: 2010.03.12/outbox.cif.g09.slc.cpg/sg49_9_cif.got.tgz:16272.got - 2010.04.14 03:58:27.
