data_PCOD8204993
_publ_section_title
;
Structure prediction by ZEFSAII (Michael W. Deem and Ramdas Pophale) SiO2 
 PCOD8204993
Probable space group: P B A N
;
_chemical_formula_sum "Si O2"
_cell_formula_units_Z 30
_cell_length_a 13.170625
_cell_length_b 8.154048
_cell_length_c 12.362203
_cell_angle_alpha 90.000000
_cell_angle_beta 90.000000
_cell_angle_gamma 90.000000
_cell_volume 1327.625297
_symmetry_space_group_name_H-M "P B A N"
_symmetry_group_IT_number 50
_space_group.IT_coordinate_system_code '2'
_symmetry_cell_setting 'orthorhombic'
loop_
_space_group_symop_operation_xyz
x,y,z
1/2-x,1/2-y,z
x,1/2-y,-z
1/2-x,y,-z
-x,-y,-z
1/2+x,1/2+y,-z
-x,1/2+y,z
1/2+x,-y,z
loop_
_atom_site_type_symbol
_atom_site_label
_atom_site_fract_x
_atom_site_fract_y
_atom_site_fract_z
Si Si1 0.750000 0.250000 0.500000
Si Si2 0.128138 0.569488 0.320902
Si Si3 0.421968 0.973680 0.902815
Si Si4 0.750000 0.250000 0.138002
Si Si5 0.554045 0.752724 0.753287
O O1 0.816574 0.371972 0.571596
O O2 0.182778 0.631627 0.212341
O O3 0.130050 0.369356 0.315640
O O4 0.012642 0.637931 0.325940
O O5 0.322420 0.867647 0.937092
O O6 0.477793 0.877750 0.809258
O O7 0.389036 0.146286 0.846817
O O8 0.500000 0.000000 0.000000
#
# Coordination Sequence:
#
# PCOD8204993 Si02
#       5
#     2   8   8   4   8
#     4  10  20  36  62  94 126 160 214 260 320 412
#     4   9  19  37  60  86 120 163 206 265 324 386
#     4  10  19  36  61  88 121 167 214 258 317 397
#     4   9  20  37  58  86 124 164 209 267 329 381
#     4   9  19  36  58  83 121 161 201 258 328 375
#
# _framework density 22.596736
#
# number of rings (size 3 to 8) (size 9 to 14) (size 15 to 20)
#    0.000    2.667    0.000    0.800    0.000    2.133 
#    0.000   29.333    0.000   41.600    0.000    0.000 
#    0.000    0.000    0.000    0.000    0.000    0.000 
#
# Total GULP energy -371712.914552 kJ/mol
# GULP energy per Si atom -12390.430485 kJ/mol
# Density = 2.254531 g / cm^3
# Si number density = 22.596736 Si / 1000 Ang^3
#
#
#
# Elastic Constant Matrix: (Units=GPa)
#
#
# Indices 1 2 3 4 5 6 
#
# 1 107.7209 71.1753 54.2878 0.0000 0.0000 0.0000
# 2 71.1753 180.1661 63.6202 0.0000 0.0000 0.0000
# 3 54.2878 63.6202 111.5374 0.0000 0.0000 0.0000
# 4 0.0000 0.0000 0.0000 32.9549 0.0000 0.0000
# 5 0.0000 0.0000 0.0000 0.0000 25.2815 0.0000
# 6 0.0000 0.0000 0.0000 0.0000 0.0000 48.5706
#
#
#
# Elastic Compliance Matrix: (Units=1/GPa)
#
#
# Indices 1 2 3 4 5 6 
#
# 1 0.014273 -0.003989 -0.004672 0.000000 0.000000 0.000000
# 2 -0.003989 0.008065 -0.002659 0.000000 0.000000 0.000000
# 3 -0.004672 -0.002659 0.012756 0.000000 0.000000 0.000000
# 4 0.000000 0.000000 0.000000 0.030345 0.000000 0.000000
# 5 0.000000 0.000000 0.000000 0.000000 0.039555 0.000000
# 6 0.000000 0.000000 0.000000 0.000000 0.000000 0.020589
#
#
# Mechanical properties :
#
#
# Convention : Reuss Voigt Hill
#
# Bulk Modulus (GPa) = 80.28717 86.39901 83.34309
# Shear Modulus (GPa) = 32.81409 35.38414 34.09911
#
# Velocity S-wave (km/s) = 3.81486 3.96143 3.88884
# Velocity P-wave (km/s) = 7.41699 7.69689 7.55824
#
# Compressibility (1/GPa) = 0.01245529
#
# Stress axis : x y z
#
# Youngs Moduli (GPa) = 70.06026 123.98973 78.39412
#
# Poissons Ratio (x) = 0.49460 0.36625
# Poissons Ratio (y) = 0.27947 0.20843
# Poissons Ratio (z) = 0.32731 0.32966
#
# Static dielectric constant tensor:
#      x y z
#    x 4.600050 0.000000 0.000000 
#    y 0.000000 4.980230 0.000000 
#    z 0.000000 0.000000 3.696850 
# 
# 
# High freq. dielectric constant tensor:
#      x y z
#    x 1.877100 0.000000 0.000000 
#    y 0.000000 1.909890 0.000000 
#    z 0.000000 0.000000 1.863600 
# 
# From -- ./inp_files/18414.got.cif
#   From: 2010.03.12/outbox.cif.g09.slc.cpg/sg50_10_cif.got.tgz:18414.got - 2010.04.16 13:23:21.
