data_PCOD8204280
_publ_section_title
;
Structure prediction by ZEFSAII (Michael W. Deem and Ramdas Pophale) SiO2 
 PCOD8204280
Probable space group: P C C M
;
_chemical_formula_sum "Si O2"
_cell_formula_units_Z 58
_cell_length_a 18.807213
_cell_length_b 19.109423
_cell_length_c 8.979526
_cell_angle_alpha 90.000000
_cell_angle_beta 90.000000
_cell_angle_gamma 90.000000
_cell_volume 3227.196645
_symmetry_space_group_name_H-M "P C C M"
_symmetry_group_IT_number 49
_symmetry_cell_setting 'orthorhombic'
loop_
_space_group_symop_operation_xyz
x,y,z
-x,-y,z
x,-y,1/2-z
-x,y,1/2-z
-x,-y,-z
x,y,-z
-x,y,1/2+z
x,-y,1/2+z
loop_
_atom_site_type_symbol
_atom_site_label
_atom_site_fract_x
_atom_site_fract_y
_atom_site_fract_z
Si Si1 0.500000 0.500000 0.750000
Si Si2 0.076606 0.815495 0.177379
Si Si3 0.614466 0.606710 0.665685
Si Si4 0.700775 0.181920 0.668612
Si Si5 0.756862 0.431136 0.674323
Si Si6 0.819908 0.074785 0.325201
Si Si7 0.428467 0.239966 0.325565
Si Si8 0.175066 0.712189 0.671842
O O1 0.550455 0.550750 0.653658
O O2 0.120290 0.880156 0.243439
O O3 0.113325 0.742088 0.222691
O O4 0.000000 0.818070 0.250000
O O5 0.071897 0.821470 0.000000
O O6 0.645699 0.617131 0.500000
O O7 0.676556 0.580331 0.772042
O O8 0.587110 0.680908 0.729196
O O9 0.672483 0.185047 0.500000
O O10 0.742915 0.110008 0.698379
O O11 0.634427 0.187337 0.778907
O O12 0.752110 0.247002 0.701156
O O13 0.789762 0.500000 0.750000
O O14 0.752217 0.442982 0.500000
O O15 0.810031 0.368010 0.714663
O O16 0.838756 0.069764 0.500000
O O17 0.817574 0.000000 0.250000
O O18 0.500000 0.212489 0.250000
O O19 0.438947 0.236525 0.500000
O O20 0.151367 0.721308 0.500000
#
# Coordination Sequence:
#
# PCOD8204280 Si02
#       8
#     2   8   8   8   8   8   8   8
#     4  12  22  36  48  66 102 148 182 228 290 348
#     4  11  22  37  60  89 121 155 188 224 265 320
#     4  11  23  34  47  69  98 136 182 228 278 338
#     4   9  18  35  56  78 107 143 183 227 276 328
#     4  11  22  35  53  75 104 139 181 232 284 333
#     4  10  21  38  60  89 122 154 187 222 265 321
#     4  11  22  34  50  74 102 136 183 234 282 334
#     4   9  19  36  56  79 109 146 185 231 280 331
#
# _framework density 17.972255000000001
#
# number of rings (size 3 to 8) (size 9 to 14) (size 15 to 20)
#    0.000    1.655    2.759    3.517    0.000    5.241 
#    0.000    1.379    0.000    0.828    0.000    5.793 
#    0.000    0.000    0.000    0.000    0.000    0.000 
#
# Total GULP energy -719276.555766 kJ/mol
# GULP energy per Si atom -12401.319927 kJ/mol
# Density = 1.793135 g / cm^3
# Si number density = 17.972255 Si / 1000 Ang^3
#
#
#
# Elastic Constant Matrix: (Units=GPa)
#
#
# Indices 1 2 3 4 5 6 
#
# 1 98.7911 58.1857 56.1159 0.0000 0.0000 0.0000
# 2 58.1857 109.0661 61.3574 0.0000 0.0000 0.0000
# 3 56.1159 61.3574 116.7967 0.0000 0.0000 0.0000
# 4 0.0000 0.0000 0.0000 20.7364 0.0000 0.0000
# 5 0.0000 0.0000 0.0000 0.0000 29.6124 0.0000
# 6 0.0000 0.0000 0.0000 0.0000 0.0000 17.0788
#
#
#
# Elastic Compliance Matrix: (Units=1/GPa)
#
#
# Indices 1 2 3 4 5 6 
#
# 1 0.016365 -0.006114 -0.004651 0.000000 0.000000 0.000000
# 2 -0.006114 0.015300 -0.005100 0.000000 0.000000 0.000000
# 3 -0.004651 -0.005100 0.013475 0.000000 0.000000 0.000000
# 4 0.000000 0.000000 0.000000 0.048224 0.000000 0.000000
# 5 0.000000 0.000000 0.000000 0.000000 0.033770 0.000000
# 6 0.000000 0.000000 0.000000 0.000000 0.000000 0.058552
#
#
# Mechanical properties :
#
#
# Convention : Reuss Voigt Hill
#
# Bulk Modulus (GPa) = 74.56729 75.10796 74.83763
# Shear Modulus (GPa) = 22.53403 23.41852 22.97628
#
# Velocity S-wave (km/s) = 3.54478 3.61368 3.57939
# Velocity P-wave (km/s) = 7.63769 7.70022 7.66901
#
# Compressibility (1/GPa) = 0.01341071
#
# Stress axis : x y z
#
# Youngs Moduli (GPa) = 61.10470 65.36087 74.20890
#
# Poissons Ratio (x) = 0.39964 0.34513
# Poissons Ratio (y) = 0.37362 0.37845
# Poissons Ratio (z) = 0.28418 0.33332
#
# Static dielectric constant tensor:
#      x y z
#    x 3.179210 0.000000 0.000000 
#    y 0.000000 3.473920 0.000000 
#    z 0.000000 0.000000 3.337390 
# 
# 
# High freq. dielectric constant tensor:
#      x y z
#    x 1.679470 0.000000 0.000000 
#    y 0.000000 1.688350 0.000000 
#    z 0.000000 0.000000 1.704630 
# 
# From -- ./inp_files/5122.got.cif
#   From: 2010.03.12/outbox.cif.g09.slc.cpg/sg49_3_cif.got.tgz:5122.got - 2010.04.14 03:58:27.
