data_PCOD8204667
_publ_section_title
;
Structure prediction by ZEFSAII (Michael W. Deem and Ramdas Pophale) SiO2 
 PCOD8204667
Probable space group: P C C M
;
_chemical_formula_sum "Si O2"
_cell_formula_units_Z 48
_cell_length_a 8.641468
_cell_length_b 18.210084
_cell_length_c 14.222558
_cell_angle_alpha 90.000000
_cell_angle_beta 90.000000
_cell_angle_gamma 90.000000
_cell_volume 2238.088155
_symmetry_space_group_name_H-M "P C C M"
_symmetry_group_IT_number 49
_symmetry_cell_setting 'orthorhombic'
loop_
_space_group_symop_operation_xyz
x,y,z
-x,-y,z
x,-y,1/2-z
-x,y,1/2-z
-x,-y,-z
x,y,-z
-x,y,1/2+z
x,-y,1/2+z
loop_
_atom_site_type_symbol
_atom_site_label
_atom_site_fract_x
_atom_site_fract_y
_atom_site_fract_z
Si Si1 0.027754 0.584430 0.500000
Si Si2 0.601520 0.574930 0.000000
Si Si3 0.697922 0.193190 0.105636
Si Si4 0.363933 0.341038 0.183854
Si Si5 0.874114 0.664933 0.321476
Si Si6 0.182736 0.916209 0.749907
Si Si7 0.668819 0.808631 0.106210
O O1 0.212884 0.583527 0.500000
O O2 0.000000 0.500000 0.500000
O O3 0.950150 0.619690 0.407068
O O4 0.500000 0.500000 0.000000
O O5 0.556880 0.613752 0.901904
O O6 0.772242 0.267646 0.143282
O O7 0.757549 0.120844 0.155924
O O8 0.514780 0.195034 0.116147
O O9 0.752799 0.184391 0.000000
O O10 0.500000 0.312954 0.250000
O O11 0.240800 0.384114 0.252642
O O12 0.271074 0.269822 0.144418
O O13 0.000000 0.696860 0.250000
O O14 0.256860 0.876279 0.660477
O O15 0.000000 0.910183 0.750000
O O16 0.239412 0.000000 0.750000
O O17 0.724609 0.817821 0.000000
#
# Coordination Sequence:
#
# PCOD8204667 Si02
#       7
#     4   4   8   8   8   8   8
#     4  12  30  50  70 102 149 184 235 304 360 435
#     4  12  30  50  70 106 143 188 237 296 368 429
#     4  11  23  40  69 102 136 183 237 292 353 427
#     4  12  24  44  75 105 139 186 242 292 352 433
#     4  12  24  45  74 105 140 187 239 291 358 425
#     4  11  25  44  64  97 143 187 235 297 366 433
#     4  11  23  41  70 103 136 182 238 294 354 424
#
# _framework density 21.446874999999999
#
# number of rings (size 3 to 8) (size 9 to 14) (size 15 to 20)
#    0.000    0.500    6.667    1.000    2.333    3.333 
#    0.000    3.333    0.000    0.000    0.000    0.000 
#    0.000    0.000    0.000    0.000    0.000    0.000 
#
# Total GULP energy -594673.122256 kJ/mol
# GULP energy per Si atom -12389.023380 kJ/mol
# Density = 2.139806 g / cm^3
# Si number density = 21.446875 Si / 1000 Ang^3
#
#
#
# Elastic Constant Matrix: (Units=GPa)
#
#
# Indices 1 2 3 4 5 6 
#
# 1 82.1157 41.1285 65.8839 0.0000 0.0000 0.0000
# 2 41.1285 141.6722 83.1637 0.0000 0.0000 0.0000
# 3 65.8839 83.1637 206.4747 0.0000 0.0000 0.0000
# 4 0.0000 0.0000 0.0000 33.2939 0.0000 0.0000
# 5 0.0000 0.0000 0.0000 0.0000 9.2313 0.0000
# 6 0.0000 0.0000 0.0000 0.0000 0.0000 33.1135
#
#
#
# Elastic Compliance Matrix: (Units=1/GPa)
#
#
# Indices 1 2 3 4 5 6 
#
# 1 0.016913 -0.002281 -0.004478 0.000000 0.000000 0.000000
# 2 -0.002281 0.009552 -0.003119 0.000000 0.000000 0.000000
# 3 -0.004478 -0.003119 0.007528 0.000000 0.000000 0.000000
# 4 0.000000 0.000000 0.000000 0.030036 0.000000 0.000000
# 5 0.000000 0.000000 0.000000 0.000000 0.108327 0.000000
# 6 0.000000 0.000000 0.000000 0.000000 0.000000 0.030199
#
#
# Mechanical properties :
#
#
# Convention : Reuss Voigt Hill
#
# Bulk Modulus (GPa) = 70.24272 90.06830 80.15551
# Shear Modulus (GPa) = 22.02072 31.13349 26.57711
#
# Velocity S-wave (km/s) = 3.20778 3.81419 3.52406
# Velocity P-wave (km/s) = 6.82223 7.84121 7.34940
#
# Compressibility (1/GPa) = 0.01423635
#
# Stress axis : x y z
#
# Youngs Moduli (GPa) = 59.12454 104.69039 132.82866
#
# Poissons Ratio (x) = 0.23885 0.59480
# Poissons Ratio (y) = 0.13489 0.41434
# Poissons Ratio (z) = 0.26476 0.32657
#
# Static dielectric constant tensor:
#      x y z
#    x 4.153660 0.000000 0.000000 
#    y 0.000000 3.730150 0.000000 
#    z 0.000000 0.000000 4.458490 
# 
# 
# High freq. dielectric constant tensor:
#      x y z
#    x 1.860830 0.000000 0.000000 
#    y 0.000000 1.817160 0.000000 
#    z 0.000000 0.000000 1.873700 
# 
# From -- ./inp_files/11871.got.cif
#   From: 2010.03.12/outbox.cif.g09.slc.cpg/sg49_6_cif.got.tgz:11871.got - 2010.04.14 03:58:27.
