data_PCOD8204695
_publ_section_title
;
Structure prediction by ZEFSAII (Michael W. Deem and Ramdas Pophale) SiO2 
 PCOD8204695
Probable space group: P C C M
;
_chemical_formula_sum "Si O2"
_cell_formula_units_Z 26
_cell_length_a 6.859220
_cell_length_b 15.629015
_cell_length_c 10.155247
_cell_angle_alpha 90.000000
_cell_angle_beta 90.000000
_cell_angle_gamma 90.000000
_cell_volume 1088.671444
_symmetry_space_group_name_H-M "P C C M"
_symmetry_group_IT_number 49
_symmetry_cell_setting 'orthorhombic'
loop_
_space_group_symop_operation_xyz
x,y,z
-x,-y,z
x,-y,1/2-z
-x,y,1/2-z
-x,-y,-z
x,y,-z
-x,y,1/2+z
x,-y,1/2+z
loop_
_atom_site_type_symbol
_atom_site_label
_atom_site_fract_x
_atom_site_fract_y
_atom_site_fract_z
Si Si1 0.265550 0.081414 0.000000
Si Si2 0.272741 0.112073 0.500000
Si Si3 0.000000 0.500000 0.250000
Si Si4 0.678196 0.378266 0.652159
Si Si5 0.725468 0.189540 0.735803
O O1 0.495639 0.099681 0.000000
O O2 0.177434 0.127005 0.871204
O O3 0.191236 0.984218 0.000000
O O4 0.186239 0.166000 0.622338
O O5 0.858408 0.443486 0.341417
O O6 0.500000 0.404920 0.750000
O O7 0.602151 0.374954 0.500000
O O8 0.763877 0.287302 0.696909
O O9 0.500000 0.169757 0.750000
#
# Coordination Sequence:
#
# PCOD8204695 Si02
#       5
#     4   4   2   8   8
#     4   9  14  26  46  79 126 168 216 266 315 373
#     4   9  16  24  46  83 124 170 218 262 315 373
#     4  12  28  48  72 104 128 168 230 282 342 414
#     4  11  25  46  72 101 138 178 220 277 341 406
#     4   9  17  30  51  84 126 171 214 264 323 386
#
# _framework density 23.882321000000001
#
# number of rings (size 3 to 8) (size 9 to 14) (size 15 to 20)
#    0.000    2.154    1.538    1.846    6.462    7.385 
#    0.000    0.000    0.000    0.000    0.000    6.462 
#    0.000    0.000    0.000    0.000    0.000    1.846 
#
# Total GULP energy -322183.471831 kJ/mol
# GULP energy per Si atom -12391.671994 kJ/mol
# Density = 2.382796 g / cm^3
# Si number density = 23.882321 Si / 1000 Ang^3
#
#
#
# Elastic Constant Matrix: (Units=GPa)
#
#
# Indices 1 2 3 4 5 6 
#
# 1 91.9151 31.6460 34.6348 0.0000 0.0000 0.0000
# 2 31.6460 149.8663 107.2321 0.0000 0.0000 0.0000
# 3 34.6348 107.2321 240.2376 0.0000 0.0000 0.0000
# 4 0.0000 0.0000 0.0000 10.7761 0.0000 0.0000
# 5 0.0000 0.0000 0.0000 0.0000 -13.4104 0.0000
# 6 0.0000 0.0000 0.0000 0.0000 0.0000 -26.4302
#
#
#
# Elastic Compliance Matrix: (Units=1/GPa)
#
#
# Indices 1 2 3 4 5 6 
#
# 1 0.011855 -0.001881 -0.000869 0.000000 0.000000 0.000000
# 2 -0.001881 0.010102 -0.004238 0.000000 0.000000 0.000000
# 3 -0.000869 -0.004238 0.006180 0.000000 0.000000 0.000000
# 4 0.000000 0.000000 0.000000 0.092798 0.000000 0.000000
# 5 0.000000 0.000000 0.000000 0.000000 -0.074569 0.000000
# 6 0.000000 0.000000 0.000000 0.000000 0.000000 -0.037836
#
#
# Mechanical properties :
#
#
# Convention : Reuss Voigt Hill
#
# Bulk Modulus (GPa) = 70.62432 92.11608 81.37020
# Shear Modulus (GPa) = 183.63612 14.75416 99.19514
#
# Velocity S-wave (km/s) = 8.77833 2.48823 6.45175
# Velocity P-wave (km/s) = 11.50571 6.84906 9.46813
#
# Compressibility (1/GPa) = 0.01415943
#
# Stress axis : x y z
#
# Youngs Moduli (GPa) = 84.35321 98.98811 161.82394
#
# Poissons Ratio (x) = 0.18622 0.14069
# Poissons Ratio (y) = 0.15869 0.68581
# Poissons Ratio (z) = 0.07334 0.41951
#
# Static dielectric constant tensor:
#      x y z
#    x 3.875470 0.000000 0.000000 
#    y 0.000000 4.315530 0.000000 
#    z 0.000000 0.000000 4.772120 
# 
# 
# High freq. dielectric constant tensor:
#      x y z
#    x 1.938940 0.000000 0.000000 
#    y 0.000000 1.951360 0.000000 
#    z 0.000000 0.000000 1.957440 
# 
# From -- ./inp_files/1213.got.cif
#   From: 2010.03.12/outbox.cif.g09.slc.cpg/sg49_1_cif.got.tgz:1213.got - 2010.04.14 03:58:27.
