data_PCOD8204694
_publ_section_title
;
Structure prediction by ZEFSAII (Michael W. Deem and Ramdas Pophale) SiO2 
 PCOD8204694
Probable space group: P C C M
;
_chemical_formula_sum "Si O2"
_cell_formula_units_Z 40
_cell_length_a 9.272204
_cell_length_b 11.747921
_cell_length_c 15.714679
_cell_angle_alpha 90.000000
_cell_angle_beta 90.000000
_cell_angle_gamma 90.000000
_cell_volume 1711.786156
_symmetry_space_group_name_H-M "P C C M"
_symmetry_group_IT_number 49
_symmetry_cell_setting 'orthorhombic'
loop_
_space_group_symop_operation_xyz
x,y,z
-x,-y,z
x,-y,1/2-z
-x,y,1/2-z
-x,-y,-z
x,y,-z
-x,y,1/2+z
x,-y,1/2+z
loop_
_atom_site_type_symbol
_atom_site_label
_atom_site_fract_x
_atom_site_fract_y
_atom_site_fract_z
Si Si1 0.774591 0.448371 0.600528
Si Si2 0.340128 0.958543 0.402342
Si Si3 0.643566 0.260804 0.696141
Si Si4 0.863405 0.129761 0.194729
Si Si5 0.069695 0.662513 0.098046
O O1 0.739120 0.438076 0.500000
O O2 0.649261 0.388160 0.656361
O O3 0.799194 0.579668 0.630943
O O4 0.915322 0.378175 0.631420
O O5 0.294569 0.981860 0.500000
O O6 0.345649 0.824857 0.384282
O O7 0.500000 0.000000 0.382330
O O8 0.227152 0.019510 0.337170
O O9 0.500000 0.245706 0.750000
O O10 0.774195 0.226013 0.756752
O O11 0.913885 0.202892 0.113324
O O12 0.000000 0.087972 0.250000
O O13 0.068582 0.636216 0.000000
#
# Coordination Sequence:
#
# PCOD8204694 Si02
#       5
#     8   8   8   8   8
#     4   9  19  40  68  97 134 178 222 273 333 408
#     4  11  25  46  71  95 134 189 235 278 348 429
#     4  12  24  42  66  97 140 177 219 286 352 410
#     4  12  24  42  68 103 135 174 226 290 346 404
#     4   9  19  40  67  98 135 174 223 277 335 403
#
# _framework density 23.367404000000001
#
# number of rings (size 3 to 8) (size 9 to 14) (size 15 to 20)
#    0.000    1.400    4.000    3.000    0.000    2.400 
#    0.000    3.000    0.000    2.400    0.000    0.000 
#    0.000    0.000    0.000    0.000    0.000    0.000 
#
# Total GULP energy -495663.324520 kJ/mol
# GULP energy per Si atom -12391.583113 kJ/mol
# Density = 2.331422 g / cm^3
# Si number density = 23.367404 Si / 1000 Ang^3
#
#
#
# Elastic Constant Matrix: (Units=GPa)
#
#
# Indices 1 2 3 4 5 6 
#
# 1 98.0173 23.6449 47.9876 0.0000 0.0000 0.0000
# 2 23.6449 124.6496 33.1571 0.0000 0.0000 0.0000
# 3 47.9876 33.1571 85.4156 0.0000 0.0000 0.0000
# 4 0.0000 0.0000 0.0000 71.3848 0.0000 0.0000
# 5 0.0000 0.0000 0.0000 0.0000 29.3845 0.0000
# 6 0.0000 0.0000 0.0000 0.0000 0.0000 36.4020
#
#
#
# Elastic Compliance Matrix: (Units=1/GPa)
#
#
# Indices 1 2 3 4 5 6 
#
# 1 0.014118 -0.000634 -0.007686 0.000000 0.000000 0.000000
# 2 -0.000634 0.008975 -0.003128 0.000000 0.000000 0.000000
# 3 -0.007686 -0.003128 0.017240 0.000000 0.000000 0.000000
# 4 0.000000 0.000000 0.000000 0.014009 0.000000 0.000000
# 5 0.000000 0.000000 0.000000 0.000000 0.034032 0.000000
# 6 0.000000 0.000000 0.000000 0.000000 0.000000 0.027471
#
#
# Mechanical properties :
#
#
# Convention : Reuss Voigt Hill
#
# Bulk Modulus (GPa) = 57.34651 57.51796 57.43224
# Shear Modulus (GPa) = 34.59005 40.98712 37.78859
#
# Velocity S-wave (km/s) = 3.85160 4.19266 4.02574
# Velocity P-wave (km/s) = 6.66140 6.93584 6.80001
#
# Compressibility (1/GPa) = 0.01743785
#
# Stress axis : x y z
#
# Youngs Moduli (GPa) = 70.83207 111.42429 58.00608
#
# Poissons Ratio (x) = 0.07060 0.44582
# Poissons Ratio (y) = 0.04488 0.18144
# Poissons Ratio (z) = 0.54439 0.34852
#
# Static dielectric constant tensor:
#      x y z
#    x 4.109980 0.000000 0.000000 
#    y 0.000000 4.329540 0.000000 
#    z 0.000000 0.000000 4.093900 
# 
# 
# High freq. dielectric constant tensor:
#      x y z
#    x 1.908860 0.000000 0.000000 
#    y 0.000000 1.937020 0.000000 
#    z 0.000000 0.000000 1.925130 
# 
# From -- ./inp_files/16024.got.cif
#   From: 2010.03.12/outbox.cif.g09.slc.cpg/sg49_9_cif.got.tgz:16024.got - 2010.04.14 03:58:27.
