data_PCOD8204501
_publ_section_title
;
Structure prediction by ZEFSAII (Michael W. Deem and Ramdas Pophale) SiO2 
 PCOD8204501
Probable space group: P C C M
;
_chemical_formula_sum "Si O2"
_cell_formula_units_Z 32
_cell_length_a 4.949766
_cell_length_b 9.923026
_cell_length_c 29.441184
_cell_angle_alpha 90.000000
_cell_angle_beta 90.000000
_cell_angle_gamma 90.000000
_cell_volume 1446.052528
_symmetry_space_group_name_H-M "P C C M"
_symmetry_group_IT_number 49
_symmetry_cell_setting 'orthorhombic'
loop_
_space_group_symop_operation_xyz
x,y,z
-x,-y,z
x,-y,1/2-z
-x,y,1/2-z
-x,-y,-z
x,y,-z
-x,y,1/2+z
x,-y,1/2+z
loop_
_atom_site_type_symbol
_atom_site_label
_atom_site_fract_x
_atom_site_fract_y
_atom_site_fract_z
Si Si1 0.699509 0.231049 0.595180
Si Si2 0.500000 0.000000 0.840881
Si Si3 0.747477 0.780101 0.281726
Si Si4 0.257436 0.901585 0.500000
Si Si5 0.186747 0.630067 0.129906
O O1 0.645295 0.104424 0.626718
O O2 0.706413 0.197470 0.542404
O O3 0.489050 0.355701 0.607082
O O4 0.011366 0.255046 0.606583
O O5 0.293362 0.919839 0.808636
O O6 0.500000 0.740448 0.250000
O O7 0.786577 0.654842 0.316218
O O8 0.000000 0.801348 0.250000
O O9 0.500000 0.000000 0.500000
O O10 0.000000 0.000000 0.500000
O O11 0.000000 0.500000 0.120377
#
# Coordination Sequence:
#
# PCOD8204501 Si02
#       5
#     8   4   8   4   8
#     4  11  24  42  68  99 130 174 216 268 340 400
#     4  10  23  39  64  92 134 164 208 267 341 402
#     4  11  24  40  62  94 127 169 218 274 329 387
#     4  12  24  42  69 106 141 162 212 273 333 412
#     4  11  25  46  66  90 132 181 226 272 324 392
#
# _framework density 22.129213
#
# number of rings (size 3 to 8) (size 9 to 14) (size 15 to 20)
#    0.000    1.000    1.250    5.625    3.500    8.500 
#    0.000    7.500    0.000    0.000    0.000    0.000 
#    0.000    0.000    0.000    0.000    0.000    0.000 
#
# Total GULP energy -396509.700811 kJ/mol
# GULP energy per Si atom -12390.928150 kJ/mol
# Density = 2.207885 g / cm^3
# Si number density = 22.129213 Si / 1000 Ang^3
#
#
#
# Elastic Constant Matrix: (Units=GPa)
#
#
# Indices 1 2 3 4 5 6 
#
# 1 129.1978 -0.4211 46.7709 0.0000 0.0000 0.0000
# 2 -0.4211 43.2142 21.1743 0.0000 0.0000 0.0000
# 3 46.7709 21.1743 175.6282 0.0000 0.0000 0.0000
# 4 0.0000 0.0000 0.0000 22.0504 0.0000 0.0000
# 5 0.0000 0.0000 0.0000 0.0000 37.8483 0.0000
# 6 0.0000 0.0000 0.0000 0.0000 0.0000 37.9406
#
#
#
# Elastic Compliance Matrix: (Units=1/GPa)
#
#
# Indices 1 2 3 4 5 6 
#
# 1 0.008633 0.001287 -0.002454 0.000000 0.000000 0.000000
# 2 0.001287 0.024785 -0.003331 0.000000 0.000000 0.000000
# 3 -0.002454 -0.003331 0.006749 0.000000 0.000000 0.000000
# 4 0.000000 0.000000 0.000000 0.045351 0.000000 0.000000
# 5 0.000000 0.000000 0.000000 0.000000 0.026421 0.000000
# 6 0.000000 0.000000 0.000000 0.000000 0.000000 0.026357
#
#
# Mechanical properties :
#
#
# Convention : Reuss Voigt Hill
#
# Bulk Modulus (GPa) = 32.08199 53.67651 42.87925
# Shear Modulus (GPa) = 31.70934 38.26892 34.98913
#
# Velocity S-wave (km/s) = 3.78950 4.16304 3.98065
# Velocity P-wave (km/s) = 5.80311 6.88597 6.36760
#
# Compressibility (1/GPa) = 0.03117013
#
# Stress axis : x y z
#
# Youngs Moduli (GPa) = 115.83932 40.34683 148.17133
#
# Poissons Ratio (x) = -0.05191 0.36362
# Poissons Ratio (y) = -0.14903 0.49353
# Poissons Ratio (z) = 0.28427 0.13439
#
# Static dielectric constant tensor:
#      x y z
#    x 4.302070 0.000000 0.000000 
#    y 0.000000 3.747720 0.000000 
#    z 0.000000 0.000000 4.214710 
# 
# 
# High freq. dielectric constant tensor:
#      x y z
#    x 1.895230 0.000000 0.000000 
#    y 0.000000 1.861700 0.000000 
#    z 0.000000 0.000000 1.878050 
# 
# From -- ./inp_files/25570.got.cif
#   From: 2010.03.12/outbox.cif.g09.slc.cpg/sg49_13_cif.got.tgz:25570.got - 2010.04.14 03:58:27.
