data_PCOD8204380
_publ_section_title
;
Structure prediction by ZEFSAII (Michael W. Deem and Ramdas Pophale) SiO2 
 PCOD8204380
Probable space group: P C C M
;
_chemical_formula_sum "Si O2"
_cell_formula_units_Z 56
_cell_length_a 5.169876
_cell_length_b 33.545880
_cell_length_c 13.553251
_cell_angle_alpha 90.000000
_cell_angle_beta 90.000000
_cell_angle_gamma 90.000000
_cell_volume 2350.513755
_symmetry_space_group_name_H-M "P C C M"
_symmetry_group_IT_number 49
_symmetry_cell_setting 'orthorhombic'
loop_
_space_group_symop_operation_xyz
x,y,z
-x,-y,z
x,-y,1/2-z
-x,y,1/2-z
-x,-y,-z
x,y,-z
-x,y,1/2+z
x,-y,1/2+z
loop_
_atom_site_type_symbol
_atom_site_label
_atom_site_fract_x
_atom_site_fract_y
_atom_site_fract_z
Si Si1 0.170258 0.887623 0.882007
Si Si2 0.303285 0.588056 0.500000
Si Si3 0.882454 0.706440 0.349576
Si Si4 0.807489 0.640136 0.500000
Si Si5 0.748802 0.482520 0.363150
Si Si6 0.669741 0.842112 0.117690
Si Si7 0.750083 0.023389 0.882674
Si Si8 0.389610 0.246377 0.889522
O O1 0.399298 0.859415 0.843341
O O2 0.226404 0.931832 0.840848
O O3 0.902089 0.869479 0.839456
O O4 0.160738 0.888577 0.000000
O O5 0.590798 0.606012 0.500000
O O6 0.261447 0.564044 0.395148
O O7 0.094431 0.622644 0.500000
O O8 0.773564 0.668353 0.406294
O O9 0.632752 0.734799 0.328614
O O10 0.000000 0.689153 0.250000
O O11 0.124133 0.728760 0.399647
O O12 0.500000 0.500000 0.417518
O O13 0.747844 0.500000 0.250000
O O14 0.000000 0.500000 0.415866
O O15 0.686049 0.796575 0.155605
O O16 0.685720 0.843240 0.000000
O O17 0.500000 0.000000 0.840627
O O18 0.735641 0.024574 0.000000
O O19 0.000000 0.000000 0.844899
O O20 0.504046 0.242094 0.000000
#
# Coordination Sequence:
#
# PCOD8204380 Si02
#       8
#     8   4   8   4   8   8   8   8
#     4   9  15  24  34  57  93 122 176 253 305 363
#     4  12  24  43  72 100 138 182 222 274 332 383
#     4  12  25  45  68  94 132 175 221 276 330 392
#     4  12  26  47  68 102 138 180 228 274 328 389
#     4  10  21  41  68 100 136 176 225 273 327 387
#     4   9  17  26  45  72  95 130 182 249 316 370
#     4   9  15  21  30  44  72 125 180 227 291 368
#     4  11  20  39  66  89 119 165 217 266 331 406
#
# _framework density 23.824577000000001
#
# number of rings (size 3 to 8) (size 9 to 14) (size 15 to 20)
#    0.000    1.714    1.429    4.286    0.000    5.714 
#    7.714    0.000    0.000    0.000    0.000    0.000 
#    0.000    0.000    0.000    0.000    0.000  150.000 
#
# Total GULP energy -693850.485962 kJ/mol
# GULP energy per Si atom -12390.187249 kJ/mol
# Density = 2.377035 g / cm^3
# Si number density = 23.824577 Si / 1000 Ang^3
#
#
#
# Elastic Constant Matrix: (Units=GPa)
#
#
# Indices 1 2 3 4 5 6 
#
# 1 206.8664 67.3293 9.5814 0.0000 0.0000 0.0000
# 2 67.3293 158.9210 31.6196 0.0000 0.0000 0.0000
# 3 9.5814 31.6196 69.0721 0.0000 0.0000 0.0000
# 4 0.0000 0.0000 0.0000 -32.3343 0.0000 0.0000
# 5 0.0000 0.0000 0.0000 0.0000 5.1987 0.0000
# 6 0.0000 0.0000 0.0000 0.0000 0.0000 57.0860
#
#
#
# Elastic Compliance Matrix: (Units=1/GPa)
#
#
# Indices 1 2 3 4 5 6 
#
# 1 0.005615 -0.002447 0.000341 0.000000 0.000000 0.000000
# 2 -0.002447 0.007989 -0.003318 0.000000 0.000000 0.000000
# 3 0.000341 -0.003318 0.015949 0.000000 0.000000 0.000000
# 4 0.000000 0.000000 0.000000 -0.030927 0.000000 0.000000
# 5 0.000000 0.000000 0.000000 0.000000 0.192356 0.000000
# 6 0.000000 0.000000 0.000000 0.000000 0.000000 0.017517
#
#
# Mechanical properties :
#
#
# Convention : Reuss Voigt Hill
#
# Bulk Modulus (GPa) = 53.45806 72.43558 62.94682
# Shear Modulus (GPa) = 22.16495 27.74538 24.95516
#
# Velocity S-wave (km/s) = 3.05346 3.41628 3.23995
# Velocity P-wave (km/s) = 5.90918 6.78462 6.36197
#
# Compressibility (1/GPa) = 0.01870625
#
# Stress axis : x y z
#
# Youngs Moduli (GPa) = 178.10957 125.17074 62.69931
#
# Poissons Ratio (x) = 0.30624 -0.02139
# Poissons Ratio (y) = 0.43575 0.20803
# Poissons Ratio (z) = -0.06076 0.41530
#
# Static dielectric constant tensor:
#      x y z
#    x 6.268920 0.000000 0.000000 
#    y 0.000000 4.248290 0.000000 
#    z 0.000000 0.000000 4.030760 
# 
# 
# High freq. dielectric constant tensor:
#      x y z
#    x 1.966770 0.000000 0.000000 
#    y 0.000000 1.934670 0.000000 
#    z 0.000000 0.000000 1.945260 
# 
# From -- ./inp_files/10778.got.cif
#   From: 2010.03.12/outbox.cif.g09.slc.cpg/sg49_6_cif.got.tgz:10778.got - 2010.04.14 03:58:27.
