data_PCOD8204999
_publ_section_title
;
Structure prediction by ZEFSAII (Michael W. Deem and Ramdas Pophale) SiO2 
 PCOD8204999
Probable space group: P B A N
;
_chemical_formula_sum "Si O2"
_cell_formula_units_Z 64
_cell_length_a 14.690766
_cell_length_b 8.650979
_cell_length_c 22.133253
_cell_angle_alpha 90.000000
_cell_angle_beta 90.000000
_cell_angle_gamma 90.000000
_cell_volume 2812.904238
_symmetry_space_group_name_H-M "P B A N"
_symmetry_group_IT_number 50
_space_group.IT_coordinate_system_code '2'
_symmetry_cell_setting 'orthorhombic'
loop_
_space_group_symop_operation_xyz
x,y,z
1/2-x,1/2-y,z
x,1/2-y,-z
1/2-x,y,-z
-x,-y,-z
1/2+x,1/2+y,-z
-x,1/2+y,z
1/2+x,-y,z
loop_
_atom_site_type_symbol
_atom_site_label
_atom_site_fract_x
_atom_site_fract_y
_atom_site_fract_z
Si Si1 0.375176 0.065439 0.729143
Si Si2 0.777878 0.413738 0.930454
Si Si3 0.943344 0.199627 0.132554
Si Si4 0.551934 0.436114 0.558707
Si Si5 0.272054 0.074490 0.608027
Si Si6 0.046093 0.760509 0.732157
Si Si7 0.095644 0.614044 0.388076
Si Si8 0.374029 0.043689 0.863411
O O1 0.443504 0.921609 0.731583
O O2 0.333968 0.072659 0.796318
O O3 0.296704 0.054874 0.678993
O O4 0.439823 0.212163 0.715915
O O5 0.750000 0.250000 0.899996
O O6 0.884847 0.417198 0.911385
O O7 0.718486 0.553887 0.902744
O O8 0.750000 0.411407 0.000000
O O9 0.926660 0.160629 0.203735
O O10 0.922321 0.379353 0.122794
O O11 0.050585 0.171187 0.118081
O O12 0.500000 0.500000 0.500000
O O13 0.647094 0.524102 0.564111
O O14 0.486379 0.488937 0.613787
O O15 0.569145 0.251795 0.564408
O O16 0.250000 0.250000 0.592624
O O17 0.188204 0.965272 0.590259
O O18 0.111637 0.825488 0.679591
#
# Coordination Sequence:
#
# PCOD8204999 Si02
#       8
#     8   8   8   8   8   8   8   8
#     4  10  21  38  62  96 132 169 213 269 337 399
#     4   9  18  34  56  84 122 170 223 267 322 396
#     4   9  19  34  56  88 122 165 212 267 324 388
#     4  12  27  50  73  99 135 181 218 271 331 398
#     4  12  27  44  70 106 136 172 225 276 338 405
#     4  10  19  36  65  91 133 165 214 266 335 397
#     4  12  24  44  73 101 135 175 225 273 335 399
#     4   9  19  36  57  87 121 165 213 265 326 387
#
# _framework density 22.752284
#
# number of rings (size 3 to 8) (size 9 to 14) (size 15 to 20)
#    0.000    1.625    2.500    1.500    3.500    1.000 
#    0.000    2.500    0.000    0.750    0.000    0.000 
#    0.000    0.000    0.000    0.000    0.000    0.000 
#
# Total GULP energy -793084.589397 kJ/mol
# GULP energy per Si atom -12391.946709 kJ/mol
# Density = 2.270050 g / cm^3
# Si number density = 22.752284 Si / 1000 Ang^3
#
#
#
# Elastic Constant Matrix: (Units=GPa)
#
#
# Indices 1 2 3 4 5 6 
#
# 1 99.8417 41.9317 6.5934 0.0000 0.0000 0.0000
# 2 41.9317 82.0553 12.3235 0.0000 0.0000 0.0000
# 3 6.5934 12.3235 67.5779 0.0000 0.0000 0.0000
# 4 0.0000 0.0000 0.0000 20.2914 0.0000 0.0000
# 5 0.0000 0.0000 0.0000 0.0000 30.8279 0.0000
# 6 0.0000 0.0000 0.0000 0.0000 0.0000 35.4585
#
#
#
# Elastic Compliance Matrix: (Units=1/GPa)
#
#
# Indices 1 2 3 4 5 6 
#
# 1 0.012753 -0.006508 -0.000057 0.000000 0.000000 0.000000
# 2 -0.006508 0.015852 -0.002256 0.000000 0.000000 0.000000
# 3 -0.000057 -0.002256 0.015215 0.000000 0.000000 0.000000
# 4 0.000000 0.000000 0.000000 0.049282 0.000000 0.000000
# 5 0.000000 0.000000 0.000000 0.000000 0.032438 0.000000
# 6 0.000000 0.000000 0.000000 0.000000 0.000000 0.028202
#
#
# Mechanical properties :
#
#
# Convention : Reuss Voigt Hill
#
# Bulk Modulus (GPa) = 38.20250 41.24137 39.72193
# Shear Modulus (GPa) = 27.76083 29.89064 28.82574
#
# Velocity S-wave (km/s) = 3.49683 3.62849 3.56327
# Velocity P-wave (km/s) = 5.75594 5.97664 5.86733
#
# Compressibility (1/GPa) = 0.02617630
#
# Stress axis : x y z
#
# Youngs Moduli (GPa) = 78.41249 63.08507 65.72596
#
# Poissons Ratio (x) = 0.41058 0.00377
# Poissons Ratio (y) = 0.51034 0.14826
# Poissons Ratio (z) = 0.00450 0.14230
#
# Static dielectric constant tensor:
#      x y z
#    x 4.086250 0.000000 0.000000 
#    y 0.000000 4.118360 0.000000 
#    z 0.000000 0.000000 4.145450 
# 
# 
# High freq. dielectric constant tensor:
#      x y z
#    x 1.890620 0.000000 0.000000 
#    y 0.000000 1.888110 0.000000 
#    z 0.000000 0.000000 1.894420 
# 
# From -- ./inp_files/31790.got.cif
#   From: 2010.03.12/outbox.cif.g09.slc.cpg/sg50_16_cif.got.tgz:31790.got - 2010.04.16 13:23:21.
