data_PCOD8204849
_publ_section_title
;
Structure prediction by ZEFSAII (Michael W. Deem and Ramdas Pophale) SiO2 
 PCOD8204849
Probable space group: P B A N
;
_chemical_formula_sum "Si O2"
_cell_formula_units_Z 56
_cell_length_a 29.190887
_cell_length_b 13.736882
_cell_length_c 6.775990
_cell_angle_alpha 90.000000
_cell_angle_beta 90.000000
_cell_angle_gamma 90.000000
_cell_volume 2717.116225
_symmetry_space_group_name_H-M "P B A N"
_symmetry_group_IT_number 50
_space_group.IT_coordinate_system_code '2'
_symmetry_cell_setting 'orthorhombic'
loop_
_space_group_symop_operation_xyz
x,y,z
1/2-x,1/2-y,z
x,1/2-y,-z
1/2-x,y,-z
-x,-y,-z
1/2+x,1/2+y,-z
-x,1/2+y,z
1/2+x,-y,z
loop_
_atom_site_type_symbol
_atom_site_label
_atom_site_fract_x
_atom_site_fract_y
_atom_site_fract_z
Si Si1 0.068655 0.350429 0.607361
Si Si2 0.324344 0.143040 0.557420
Si Si3 0.544372 0.980776 0.727796
Si Si4 0.997599 0.854778 0.938865
Si Si5 0.295474 0.997507 0.868154
Si Si6 0.197787 0.635980 0.521710
Si Si7 0.349601 0.004548 0.242033
O O1 0.056442 0.250000 0.500000
O O2 0.122888 0.364499 0.624481
O O3 0.041184 0.441051 0.499203
O O4 0.051029 0.341922 0.830265
O O5 0.307101 0.250000 0.500000
O O6 0.292866 0.093913 0.728094
O O7 0.319074 0.084663 0.354452
O O8 0.531737 0.092624 0.780804
O O9 0.597765 0.966751 0.766691
O O10 0.511074 0.915489 0.862968
O O11 0.018536 0.750000 0.000000
O O12 0.312168 0.903921 0.740959
O O13 0.250000 0.980907 0.000000
O O14 0.337270 0.006363 0.015251
O O15 0.192715 0.750000 0.500000
O O16 0.250000 0.600325 0.500000
O O17 0.162837 0.595456 0.356116
#
# Coordination Sequence:
#
# PCOD8204849 Si02
#       7
#     8   8   8   8   8   8   8
#     4  10  18  36  61  84 112 158 199 237 287 349
#     4   9  21  37  59  88 122 156 199 244 287 347
#     4  10  22  38  58  84 121 158 187 245 302 341
#     4  11  21  36  58  88 119 151 201 244 285 356
#     4  11  21  38  63  87 117 156 193 245 295 346
#     4  10  21  40  63  88 117 148 196 244 290 351
#     4  10  21  40  60  87 121 153 198 244 294 353
#
# _framework density 20.610085999999999
#
# number of rings (size 3 to 8) (size 9 to 14) (size 15 to 20)
#    0.000    1.857    2.857    1.286    0.000    1.143 
#    2.571    2.857    0.000    0.000    0.000    0.000 
#    0.000    0.000    0.000    0.000    0.000    0.000 
#
# Total GULP energy -693865.049893 kJ/mol
# GULP energy per Si atom -12390.447320 kJ/mol
# Density = 2.056318 g / cm^3
# Si number density = 20.610086 Si / 1000 Ang^3
#
#
#
# Elastic Constant Matrix: (Units=GPa)
#
#
# Indices 1 2 3 4 5 6 
#
# 1 22.3274 12.2731 7.2578 0.0000 0.0000 0.0000
# 2 12.2731 138.1498 44.3590 0.0000 0.0000 0.0000
# 3 7.2578 44.3590 107.5607 0.0000 0.0000 0.0000
# 4 0.0000 0.0000 0.0000 19.5299 0.0000 0.0000
# 5 0.0000 0.0000 0.0000 0.0000 22.5110 0.0000
# 6 0.0000 0.0000 0.0000 0.0000 0.0000 23.0100
#
#
#
# Elastic Compliance Matrix: (Units=1/GPa)
#
#
# Indices 1 2 3 4 5 6 
#
# 1 0.047350 -0.003666 -0.001683 0.000000 0.000000 0.000000
# 2 -0.003666 0.008627 -0.003311 0.000000 0.000000 0.000000
# 3 -0.001683 -0.003311 0.010776 0.000000 0.000000 0.000000
# 4 0.000000 0.000000 0.000000 0.051204 0.000000 0.000000
# 5 0.000000 0.000000 0.000000 0.000000 0.044423 0.000000
# 6 0.000000 0.000000 0.000000 0.000000 0.000000 0.043459
#
#
# Mechanical properties :
#
#
# Convention : Reuss Voigt Hill
#
# Bulk Modulus (GPa) = 20.22901 43.97974 32.10437
# Shear Modulus (GPa) = 20.86491 26.62004 23.74247
#
# Velocity S-wave (km/s) = 3.18522 3.59779 3.39777
# Velocity P-wave (km/s) = 4.83362 6.21643 5.56812
#
# Compressibility (1/GPa) = 0.04943397
#
# Stress axis : x y z
#
# Youngs Moduli (GPa) = 21.11917 115.91223 92.79924
#
# Poissons Ratio (x) = 0.42495 0.15619
# Poissons Ratio (y) = 0.07743 0.30722
# Poissons Ratio (z) = 0.03554 0.38373
#
# Static dielectric constant tensor:
#      x y z
#    x 3.545650 0.000000 0.000000 
#    y 0.000000 3.814050 0.000000 
#    z 0.000000 0.000000 3.961910 
# 
# 
# High freq. dielectric constant tensor:
#      x y z
#    x 1.793040 0.000000 0.000000 
#    y 0.000000 1.803230 0.000000 
#    z 0.000000 0.000000 1.815430 
# 
# From -- ./inp_files/7203.got.cif
#   From: 2010.03.12/outbox.cif.g09.slc.cpg/sg50_4_cif.got.tgz:7203.got - 2010.04.16 13:23:21.
