data_PCOD8204878
_publ_section_title
;
Structure prediction by ZEFSAII (Michael W. Deem and Ramdas Pophale) SiO2 
 PCOD8204878
Probable space group: P B A N
;
_chemical_formula_sum "Si O2"
_cell_formula_units_Z 56
_cell_length_a 9.001603
_cell_length_b 18.760747
_cell_length_c 19.583641
_cell_angle_alpha 90.000000
_cell_angle_beta 90.000000
_cell_angle_gamma 90.000000
_cell_volume 3307.222555
_symmetry_space_group_name_H-M "P B A N"
_symmetry_group_IT_number 50
_space_group.IT_coordinate_system_code '2'
_symmetry_cell_setting 'orthorhombic'
loop_
_space_group_symop_operation_xyz
x,y,z
1/2-x,1/2-y,z
x,1/2-y,-z
1/2-x,y,-z
-x,-y,-z
1/2+x,1/2+y,-z
-x,1/2+y,z
1/2+x,-y,z
loop_
_atom_site_type_symbol
_atom_site_label
_atom_site_fract_x
_atom_site_fract_y
_atom_site_fract_z
Si Si1 0.576522 0.573026 0.079054
Si Si2 0.088035 0.170541 0.685225
Si Si3 0.582358 0.165077 0.813975
Si Si4 0.417642 0.665077 0.186025
Si Si5 0.076523 0.073026 0.079054
Si Si6 0.574738 0.250000 0.421122
Si Si7 0.911965 0.829459 0.685224
O O1 0.508303 0.638381 0.120780
O O2 0.500000 0.500000 0.102877
O O3 0.750000 0.567094 0.094327
O O4 0.543402 0.588524 1.000000
O O5 0.118360 0.250000 0.712952
O O6 0.250000 0.132990 0.673344
O O7 0.992719 0.132556 0.744755
O O8 0.994613 0.178399 0.614111
O O9 0.583123 0.250000 0.814580
O O10 0.750000 0.135674 0.816714
O O11 0.491696 0.138381 0.879220
O O12 0.507281 0.132556 0.744754
O O13 0.750000 0.250000 0.409360
O O14 0.530398 0.250000 0.500000
O O15 0.505387 0.321601 0.385889
#
# Coordination Sequence:
#
# PCOD8204878 Si02
#       7
#     8   8   8   8   8   8   8
#     4  10  21  36  52  69  92 122 158 200 244 289
#     4   8  15  25  39  59  86 119 152 188 227 271
#     4  10  19  31  49  70  95 125 157 196 240 286
#     4  10  19  31  49  70  95 125 157 196 240 286
#     4  10  21  36  52  69  92 122 158 200 244 289
#     4   9  15  23  37  59  90 125 156 187 229 279
#     4   8  15  25  39  59  86 119 152 188 227 271
#
# _framework density 16.932637
#
# number of rings (size 3 to 8) (size 9 to 14) (size 15 to 20)
#    0.857    1.857    0.000    2.571    0.000    5.143 
#    0.000    2.857    0.000    0.000    0.000    0.000 
#    0.000    1.143    0.000    4.286    0.000    6.571 
#
# Total GULP energy -693764.506349 kJ/mol
# GULP energy per Si atom -12388.651899 kJ/mol
# Density = 1.689410 g / cm^3
# Si number density = 16.932637 Si / 1000 Ang^3
#
#
#
# Elastic Constant Matrix: (Units=GPa)
#
#
# Indices 1 2 3 4 5 6 
#
# 1 142.9417 21.6615 73.5964 0.0000 0.0000 0.0000
# 2 21.6615 17.0153 23.1813 0.0000 0.0000 0.0000
# 3 73.5964 23.1813 118.2368 0.0000 0.0000 0.0000
# 4 0.0000 0.0000 0.0000 3.4811 0.0000 0.0000
# 5 0.0000 0.0000 0.0000 0.0000 32.0893 0.0000
# 6 0.0000 0.0000 0.0000 0.0000 0.0000 21.1640
#
#
#
# Elastic Compliance Matrix: (Units=1/GPa)
#
#
# Indices 1 2 3 4 5 6 
#
# 1 0.010760 -0.006240 -0.005474 0.000000 0.000000 0.000000
# 2 -0.006240 0.083809 -0.012547 0.000000 0.000000 0.000000
# 3 -0.005474 -0.012547 0.014325 0.000000 0.000000 0.000000
# 4 0.000000 0.000000 0.000000 0.287267 0.000000 0.000000
# 5 0.000000 0.000000 0.000000 0.000000 0.031163 0.000000
# 6 0.000000 0.000000 0.000000 0.000000 0.000000 0.047250
#
#
# Mechanical properties :
#
#
# Convention : Reuss Voigt Hill
#
# Bulk Modulus (GPa) = 16.56431 57.23025 36.89728
# Shear Modulus (GPa) = 9.20437 21.99717 15.60077
#
# Velocity S-wave (km/s) = 2.33403 3.60821 3.03866
# Velocity P-wave (km/s) = 4.13126 7.15759 5.84373
#
# Compressibility (1/GPa) = 0.06037075
#
# Stress axis : x y z
#
# Youngs Moduli (GPa) = 92.93715 11.93190 69.80860
#
# Poissons Ratio (x) = 0.07446 0.38214
# Poissons Ratio (y) = 0.57996 0.87590
# Poissons Ratio (z) = 0.50874 0.14971
#
# Static dielectric constant tensor:
#      x y z
#    x 3.528590 0.000000 0.000000 
#    y 0.000000 2.598860 0.000000 
#    z 0.000000 0.000000 3.099220 
# 
# 
# High freq. dielectric constant tensor:
#      x y z
#    x 1.681420 0.000000 0.000000 
#    y 0.000000 1.583760 0.000000 
#    z 0.000000 0.000000 1.650440 
# 
# From -- ./inp_files/28926.got.cif
#   From: 2010.03.12/outbox.cif.g09.slc.cpg/sg50_15_cif.got.tgz:28926.got - 2010.04.16 13:23:21.
