data_PCOD8204675
_publ_section_title
;
Structure prediction by ZEFSAII (Michael W. Deem and Ramdas Pophale) SiO2 
 PCOD8204675
Probable space group: P C C M
;
_chemical_formula_sum "Si O2"
_cell_formula_units_Z 34
_cell_length_a 8.721974
_cell_length_b 19.905430
_cell_length_c 10.128042
_cell_angle_alpha 90.000000
_cell_angle_beta 90.000000
_cell_angle_gamma 90.000000
_cell_volume 1758.376395
_symmetry_space_group_name_H-M "P C C M"
_symmetry_group_IT_number 49
_symmetry_cell_setting 'orthorhombic'
loop_
_space_group_symop_operation_xyz
x,y,z
-x,-y,z
x,-y,1/2-z
-x,y,1/2-z
-x,-y,-z
x,y,-z
-x,y,1/2+z
x,-y,1/2+z
loop_
_atom_site_type_symbol
_atom_site_label
_atom_site_fract_x
_atom_site_fract_y
_atom_site_fract_z
Si Si1 0.159065 0.906952 0.000000
Si Si2 0.318896 0.857618 0.735819
Si Si3 0.382347 0.370804 0.853170
Si Si4 0.812223 0.065611 0.500000
Si Si5 0.863155 0.731670 0.149845
Si Si6 0.500000 0.500000 0.250000
O O1 0.233888 0.872623 0.872839
O O2 0.975762 0.895534 0.000000
O O3 0.181428 0.986080 0.000000
O O4 0.500000 0.856339 0.750000
O O5 0.278218 0.915429 0.631854
O O6 0.267051 0.786434 0.677443
O O7 0.500000 0.336626 0.750000
O O8 0.212353 0.341914 0.827945
O O9 0.387683 0.452169 0.836923
O O10 0.436646 0.351134 0.000000
O O11 0.000000 0.741938 0.250000
O O12 0.924540 0.738676 0.000000
#
# Coordination Sequence:
#
# PCOD8204675 Si02
#       6
#     4   8   8   4   8   2
#     4  11  25  41  69  89 125 169 208 257 328 377
#     4  12  25  41  63  93 125 164 211 270 318 373
#     4   9  19  36  62  92 126 160 207 251 306 369
#     4  11  23  45  63  93 125 165 212 257 316 397
#     4  11  24  42  62  90 126 167 211 263 314 377
#     4   8  18  36  64  96 126 168 198 256 318 364
#
# _framework density 19.336017999999999
#
# number of rings (size 3 to 8) (size 9 to 14) (size 15 to 20)
#    0.706    0.706    1.176    4.588    1.647    5.647 
#    0.000    0.588    0.000    2.824    0.000    0.000 
#    0.000    0.000    0.000    0.000    0.000    0.000 
#
# Total GULP energy -421496.294484 kJ/mol
# GULP energy per Si atom -12396.949838 kJ/mol
# Density = 1.929201 g / cm^3
# Si number density = 19.336018 Si / 1000 Ang^3
#
#
#
# Elastic Constant Matrix: (Units=GPa)
#
#
# Indices 1 2 3 4 5 6 
#
# 1 126.5402 31.0198 57.0473 0.0000 0.0000 0.0000
# 2 31.0198 74.9162 20.5996 0.0000 0.0000 0.0000
# 3 57.0473 20.5996 145.1442 0.0000 0.0000 0.0000
# 4 0.0000 0.0000 0.0000 25.6446 0.0000 0.0000
# 5 0.0000 0.0000 0.0000 0.0000 32.7922 0.0000
# 6 0.0000 0.0000 0.0000 0.0000 0.0000 33.3578
#
#
#
# Elastic Compliance Matrix: (Units=1/GPa)
#
#
# Indices 1 2 3 4 5 6 
#
# 1 0.010329 -0.003289 -0.003593 0.000000 0.000000 0.000000
# 2 -0.003289 0.014937 -0.000827 0.000000 0.000000 0.000000
# 3 -0.003593 -0.000827 0.008419 0.000000 0.000000 0.000000
# 4 0.000000 0.000000 0.000000 0.038995 0.000000 0.000000
# 5 0.000000 0.000000 0.000000 0.000000 0.030495 0.000000
# 6 0.000000 0.000000 0.000000 0.000000 0.000000 0.029978
#
#
# Mechanical properties :
#
#
# Convention : Reuss Voigt Hill
#
# Bulk Modulus (GPa) = 54.74220 62.65933 58.70077
# Shear Modulus (GPa) = 32.32902 34.22118 33.27510
#
# Velocity S-wave (km/s) = 4.09339 4.21148 4.15286
# Velocity P-wave (km/s) = 7.12135 7.49164 7.30884
#
# Compressibility (1/GPa) = 0.01826744
#
# Stress axis : x y z
#
# Youngs Moduli (GPa) = 96.81930 66.94567 118.77591
#
# Poissons Ratio (x) = 0.22017 0.42673
# Poissons Ratio (y) = 0.31841 0.09828
# Poissons Ratio (z) = 0.34785 0.05539
#
# Static dielectric constant tensor:
#      x y z
#    x 3.425670 0.000000 0.000000 
#    y 0.000000 3.533480 0.000000 
#    z 0.000000 0.000000 3.694350 
# 
# 
# High freq. dielectric constant tensor:
#      x y z
#    x 1.740090 0.000000 0.000000 
#    y 0.000000 1.755150 0.000000 
#    z 0.000000 0.000000 1.771700 
# 
# From -- ./inp_files/1568.got.cif
#   From: 2010.03.12/outbox.cif.g09.slc.cpg/sg49_1_cif.got.tgz:1568.got - 2010.04.14 03:58:27.
