data_PCOD8204698
_publ_section_title
;
Structure prediction by ZEFSAII (Michael W. Deem and Ramdas Pophale) SiO2 
 PCOD8204698
Probable space group: P C C M
;
_chemical_formula_sum "Si O2"
_cell_formula_units_Z 18
_cell_length_a 5.205109
_cell_length_b 5.089358
_cell_length_c 26.203001
_cell_angle_alpha 90.000000
_cell_angle_beta 90.000000
_cell_angle_gamma 90.000000
_cell_volume 694.134872
_symmetry_space_group_name_H-M "P C C M"
_symmetry_group_IT_number 49
_symmetry_cell_setting 'orthorhombic'
loop_
_space_group_symop_operation_xyz
x,y,z
-x,-y,z
x,-y,1/2-z
-x,y,1/2-z
-x,-y,-z
x,y,-z
-x,y,1/2+z
x,-y,1/2+z
loop_
_atom_site_type_symbol
_atom_site_label
_atom_site_fract_x
_atom_site_fract_y
_atom_site_fract_z
Si Si1 0.000000 0.500000 0.750000
Si Si2 0.671495 0.744969 0.664399
Si Si3 0.000000 0.000000 0.416913
Si Si4 0.752847 0.679644 0.000000
O O1 0.823480 0.689792 0.716340
O O2 0.500000 0.500000 0.648102
O O3 0.871149 0.779562 0.618347
O O4 0.500000 0.000000 0.673937
O O5 0.772168 0.131895 0.450493
O O6 0.500000 0.500000 0.000000
O O7 0.000000 0.500000 0.000000
#
# Coordination Sequence:
#
# PCOD8204698 Si02
#       4
#     2   8   4   4
#     4  12  30  54  76 130 160 226 282 350 426 512
#     4  12  30  51  85 118 170 220 282 350 426 509
#     4  11  30  51  80 126 164 217 290 345 432 508
#     4  11  30  53  87 122 172 224 286 356 432 510
#
# _framework density 25.931560000000001
#
# number of rings (size 3 to 8) (size 9 to 14) (size 15 to 20)
#    0.000    0.444    0.000    3.333   15.556   15.111 
#    0.000    3.333    0.000    0.000    0.000    0.000 
#    0.000    0.000    0.000    0.000    0.000    0.000 
#
# Total GULP energy -223345.903620 kJ/mol
# GULP energy per Si atom -12408.105757 kJ/mol
# Density = 2.587254 g / cm^3
# Si number density = 25.931560 Si / 1000 Ang^3
#
#
#
# Elastic Constant Matrix: (Units=GPa)
#
#
# Indices 1 2 3 4 5 6 
#
# 1 179.4023 93.1390 90.0751 0.0000 0.0000 0.0000
# 2 93.1390 187.6808 85.8597 0.0000 0.0000 0.0000
# 3 90.0751 85.8597 208.0242 0.0000 0.0000 0.0000
# 4 0.0000 0.0000 0.0000 40.2754 0.0000 0.0000
# 5 0.0000 0.0000 0.0000 0.0000 -353.0659 0.0000
# 6 0.0000 0.0000 0.0000 0.0000 0.0000 60.2742
#
#
#
# Elastic Compliance Matrix: (Units=1/GPa)
#
#
# Indices 1 2 3 4 5 6 
#
# 1 0.008345 -0.003068 -0.002347 0.000000 0.000000 0.000000
# 2 -0.003068 0.007696 -0.001848 0.000000 0.000000 0.000000
# 3 -0.002347 -0.001848 0.006586 0.000000 0.000000 0.000000
# 4 0.000000 0.000000 0.000000 0.024829 0.000000 0.000000
# 5 0.000000 0.000000 0.000000 0.000000 -0.002832 0.000000
# 6 0.000000 0.000000 0.000000 0.000000 0.000000 0.016591
#
#
# Mechanical properties :
#
#
# Convention : Reuss Voigt Hill
#
# Bulk Modulus (GPa) = 123.43640 123.69498 123.56569
# Shear Modulus (GPa) = 63.74146 -30.10103 16.82021
#
# Velocity S-wave (km/s) = 4.96327 -3.41073 2.54960
# Velocity P-wave (km/s) = 8.97494 5.68272 7.51142
#
# Compressibility (1/GPa) = 0.00810134
#
# Stress axis : x y z
#
# Youngs Moduli (GPa) = 119.82926 129.93768 151.82827
#
# Poissons Ratio (x) = 0.39859 0.35640
# Poissons Ratio (y) = 0.36758 0.28061
# Poissons Ratio (z) = 0.28129 0.24015
#
# Static dielectric constant tensor:
#      x y z
#    x 5.088800 0.000000 0.000000 
#    y 0.000000 3.097770 0.000000 
#    z 0.000000 0.000000 5.129250 
# 
# 
# High freq. dielectric constant tensor:
#      x y z
#    x 2.048890 0.000000 0.000000 
#    y 0.000000 2.056230 0.000000 
#    z 0.000000 0.000000 2.055900 
# 
# From -- ./inp_files/21366.got.cif
#   From: 2010.03.12/outbox.cif.g09.slc.cpg/sg49_11_cif.got.tgz:21366.got - 2010.04.14 03:58:27.
