data_PCOD8204955
_publ_section_title
;
Structure prediction by ZEFSAII (Michael W. Deem and Ramdas Pophale) SiO2 
 PCOD8204955
Probable space group: P B A N
;
_chemical_formula_sum "Si O2"
_cell_formula_units_Z 32
_cell_length_a 5.107072
_cell_length_b 34.003039
_cell_length_c 8.332759
_cell_angle_alpha 90.000000
_cell_angle_beta 90.000000
_cell_angle_gamma 90.000000
_cell_volume 1447.033334
_symmetry_space_group_name_H-M "P B A N"
_symmetry_group_IT_number 50
_space_group.IT_coordinate_system_code '2'
_symmetry_cell_setting 'orthorhombic'
loop_
_space_group_symop_operation_xyz
x,y,z
1/2-x,1/2-y,z
x,1/2-y,-z
1/2-x,y,-z
-x,-y,-z
1/2+x,1/2+y,-z
-x,1/2+y,z
1/2+x,-y,z
loop_
_atom_site_type_symbol
_atom_site_label
_atom_site_fract_x
_atom_site_fract_y
_atom_site_fract_z
Si Si1 0.264596 0.523973 0.812969
Si Si2 0.159559 0.606137 0.321549
Si Si3 0.651115 0.858029 0.824667
Si Si4 0.495351 0.232193 0.179829
O O1 0.469970 0.489243 0.769823
O O2 0.377045 0.559833 0.706751
O O3 0.250000 0.535340 0.000000
O O4 0.250000 0.616269 0.500000
O O5 0.397548 0.615903 0.203286
O O6 0.893419 0.631323 0.292852
O O7 0.535342 0.814247 0.813890
O O8 0.750000 0.867999 0.000000
O O9 0.250000 0.250000 0.275350
O O10 0.750000 0.250000 0.268535
O O11 0.497401 0.250000 0.000000
#
# Coordination Sequence:
#
# PCOD8204955 Si02
#       4
#     8   8   8   8
#     4  10  21  40  67  96 129 171 227 285 328 379
#     4  12  27  43  63  99 147 182 219 271 341 417
#     4  12  23  41  70 100 129 174 229 285 334 388
#     4  10  19  34  61 100 124 151 210 293 324 376
#
# _framework density 22.114212999999999
#
# number of rings (size 3 to 8) (size 9 to 14) (size 15 to 20)
#    0.000    1.000    2.500    6.000    3.500    3.000 
#    0.000    0.000    0.000   11.250    0.000    0.000 
#    0.000    0.000    0.000    0.000    0.000    0.000 
#
# Total GULP energy -396518.323078 kJ/mol
# GULP energy per Si atom -12391.197596 kJ/mol
# Density = 2.206388 g / cm^3
# Si number density = 22.114213 Si / 1000 Ang^3
#
#
#
# Elastic Constant Matrix: (Units=GPa)
#
#
# Indices 1 2 3 4 5 6 
#
# 1 178.5907 50.4330 10.8031 0.0000 0.0000 0.0000
# 2 50.4330 118.4446 35.8205 0.0000 0.0000 0.0000
# 3 10.8031 35.8205 35.0075 0.0000 0.0000 0.0000
# 4 0.0000 0.0000 0.0000 3.3154 0.0000 0.0000
# 5 0.0000 0.0000 0.0000 0.0000 -15.1113 0.0000
# 6 0.0000 0.0000 0.0000 0.0000 0.0000 50.1760
#
#
#
# Elastic Compliance Matrix: (Units=1/GPa)
#
#
# Indices 1 2 3 4 5 6 
#
# 1 0.006398 -0.003080 0.001177 0.000000 0.000000 0.000000
# 2 -0.003080 0.013709 -0.013077 0.000000 0.000000 0.000000
# 3 0.001177 -0.013077 0.041583 0.000000 0.000000 0.000000
# 4 0.000000 0.000000 0.000000 0.301622 0.000000 0.000000
# 5 0.000000 0.000000 0.000000 0.000000 -0.066176 0.000000
# 6 0.000000 0.000000 0.000000 0.000000 0.000000 0.019930
#
#
# Mechanical properties :
#
#
# Convention : Reuss Voigt Hill
#
# Bulk Modulus (GPa) = 31.51579 58.46178 44.98879
# Shear Modulus (GPa) = 13.98200 23.34177 18.66188
#
# Velocity S-wave (km/s) = 2.51721 3.25239 2.90812
# Velocity P-wave (km/s) = 4.76768 6.37163 5.62710
#
# Compressibility (1/GPa) = 0.03173012
#
# Stress axis : x y z
#
# Youngs Moduli (GPa) = 156.29791 72.94410 24.04858
#
# Poissons Ratio (x) = 0.22469 -0.02832
# Poissons Ratio (y) = 0.48145 0.31448
# Poissons Ratio (z) = -0.18404 0.95388
#
# Static dielectric constant tensor:
#      x y z
#    x 3.919870 0.000000 0.000000 
#    y 0.000000 4.008400 0.000000 
#    z 0.000000 0.000000 3.594000 
# 
# 
# High freq. dielectric constant tensor:
#      x y z
#    x 1.905530 0.000000 0.000000 
#    y 0.000000 1.877270 0.000000 
#    z 0.000000 0.000000 1.827800 
# 
# From -- ./inp_files/7902.got.cif
#   From: 2010.03.12/outbox.cif.g09.slc.cpg/sg50_4_cif.got.tgz:7902.got - 2010.04.16 13:23:21.
