data_PCOD8204766
_publ_section_title
;
Structure prediction by ZEFSAII (Michael W. Deem and Ramdas Pophale) SiO2 
 PCOD8204766
Probable space group: P B A N
;
_chemical_formula_sum "Si O2"
_cell_formula_units_Z 52
_cell_length_a 27.653650
_cell_length_b 18.501286
_cell_length_c 5.462149
_cell_angle_alpha 90.000000
_cell_angle_beta 90.000000
_cell_angle_gamma 90.000000
_cell_volume 2794.588847
_symmetry_space_group_name_H-M "P B A N"
_symmetry_group_IT_number 50
_space_group.IT_coordinate_system_code '2'
_symmetry_cell_setting 'orthorhombic'
loop_
_space_group_symop_operation_xyz
x,y,z
1/2-x,1/2-y,z
x,1/2-y,-z
1/2-x,y,-z
-x,-y,-z
1/2+x,1/2+y,-z
-x,1/2+y,z
1/2+x,-y,z
loop_
_atom_site_type_symbol
_atom_site_label
_atom_site_fract_x
_atom_site_fract_y
_atom_site_fract_z
Si Si1 0.297919 0.055788 0.123690
Si Si2 0.250000 0.157794 0.500000
Si Si3 0.033459 0.110287 0.782735
Si Si4 0.665833 0.815166 0.182421
Si Si5 0.063950 0.138280 0.289141
Si Si6 0.892032 0.482647 0.773764
Si Si7 0.432294 0.966046 0.729164
O O1 0.284406 0.107298 0.343794
O O2 0.334069 0.994664 0.225392
O O3 0.250000 0.020253 0.000000
O O4 0.325182 0.105667 0.927655
O O5 0.287396 0.206954 0.655373
O O6 0.034895 0.160549 0.537532
O O7 0.986546 0.060876 0.763507
O O8 0.080881 0.059669 0.780428
O O9 0.036492 0.158849 0.032488
O O10 0.615411 0.822581 0.324602
O O11 0.659452 0.750000 0.000000
O O12 0.067528 0.051897 0.284514
O O13 0.907531 0.438447 0.526414
O O14 0.904149 0.439258 0.025752
#
# Coordination Sequence:
#
# PCOD8204766 Si02
#       7
#     8   4   8   8   8   8   8
#     4  10  21  33  47  62  78 114 151 193 238 274
#     4  10  22  37  50  56  76 104 160 204 242 282
#     4  10  17  28  49  69  87 106 126 162 229 283
#     4  11  23  36  49  62  78 113 151 201 248 279
#     4  10  18  31  46  65  89 103 132 171 224 284
#     4  10  17  28  43  64  90 104 132 170 217 276
#     4  10  17  27  48  69  88 106 126 161 230 280
#
# _framework density 18.607388
#
# number of rings (size 3 to 8) (size 9 to 14) (size 15 to 20)
#    0.000    1.846    3.077    6.462    2.154    4.000 
#    0.000    0.000    0.000    0.000    0.000    0.000 
#    0.000    0.000    0.000    0.000    0.000    0.000 
#
# Total GULP energy -644226.397681 kJ/mol
# GULP energy per Si atom -12388.969186 kJ/mol
# Density = 1.856504 g / cm^3
# Si number density = 18.607388 Si / 1000 Ang^3
#
#
#
# Elastic Constant Matrix: (Units=GPa)
#
#
# Indices 1 2 3 4 5 6 
#
# 1 123.3704 28.8034 39.5637 0.0000 0.0000 0.0000
# 2 28.8034 13.4644 10.0865 0.0000 0.0000 0.0000
# 3 39.5637 10.0865 168.2972 0.0000 0.0000 0.0000
# 4 0.0000 0.0000 0.0000 14.4896 0.0000 0.0000
# 5 0.0000 0.0000 0.0000 0.0000 5.0278 0.0000
# 6 0.0000 0.0000 0.0000 0.0000 0.0000 1.9880
#
#
#
# Elastic Compliance Matrix: (Units=1/GPa)
#
#
# Indices 1 2 3 4 5 6 
#
# 1 0.016739 -0.034405 -0.001873 0.000000 0.000000 0.000000
# 2 -0.034405 0.148478 -0.000811 0.000000 0.000000 0.000000
# 3 -0.001873 -0.000811 0.006431 0.000000 0.000000 0.000000
# 4 0.000000 0.000000 0.000000 0.069015 0.000000 0.000000
# 5 0.000000 0.000000 0.000000 0.000000 0.198893 0.000000
# 6 0.000000 0.000000 0.000000 0.000000 0.000000 0.503012
#
#
# Mechanical properties :
#
#
# Convention : Reuss Voigt Hill
#
# Bulk Modulus (GPa) = 10.25959 51.33769 30.79864
# Shear Modulus (GPa) = 4.76537 19.41298 12.08917
#
# Velocity S-wave (km/s) = 1.60205 3.23351 2.55168
# Velocity P-wave (km/s) = 2.99128 6.44908 5.02685
#
# Compressibility (1/GPa) = 0.09746978
#
# Stress axis : x y z
#
# Youngs Moduli (GPa) = 59.74063 6.73500 155.50240
#
# Poissons Ratio (x) = 0.23172 0.29126
# Poissons Ratio (y) = 2.05540 0.12604
# Poissons Ratio (z) = 0.11190 0.00546
#
# Static dielectric constant tensor:
#      x y z
#    x 3.514310 0.000000 0.000000 
#    y 0.000000 2.623660 0.000000 
#    z 0.000000 0.000000 5.183410 
# 
# 
# High freq. dielectric constant tensor:
#      x y z
#    x 1.721160 0.000000 0.000000 
#    y 0.000000 1.617250 0.000000 
#    z 0.000000 0.000000 1.764950 
# 
# From -- ./inp_files/4638.got.cif
#   From: 2010.03.12/outbox.cif.g09.slc.cpg/sg50_3_cif.got.tgz:4638.got - 2010.04.16 13:23:21.
