data_PCOD8204831
_publ_section_title
;
Structure prediction by ZEFSAII (Michael W. Deem and Ramdas Pophale) SiO2 
 PCOD8204831
Probable space group: P B A N
;
_chemical_formula_sum "Si O2"
_cell_formula_units_Z 64
_cell_length_a 5.292444
_cell_length_b 27.260774
_cell_length_c 21.537115
_cell_angle_alpha 90.000000
_cell_angle_beta 90.000000
_cell_angle_gamma 90.000000
_cell_volume 3107.291384
_symmetry_space_group_name_H-M "P B A N"
_symmetry_group_IT_number 50
_space_group.IT_coordinate_system_code '2'
_symmetry_cell_setting 'orthorhombic'
loop_
_space_group_symop_operation_xyz
x,y,z
1/2-x,1/2-y,z
x,1/2-y,-z
1/2-x,y,-z
-x,-y,-z
1/2+x,1/2+y,-z
-x,1/2+y,z
1/2+x,-y,z
loop_
_atom_site_type_symbol
_atom_site_label
_atom_site_fract_x
_atom_site_fract_y
_atom_site_fract_z
Si Si1 0.848717 0.386216 0.163195
Si Si2 0.081551 0.876900 0.713211
Si Si3 0.503713 0.224277 0.170024
Si Si4 0.497417 0.054744 0.473675
Si Si5 0.737774 0.469822 0.927006
Si Si6 0.501010 0.234953 0.693408
Si Si7 0.426592 0.073027 0.331754
Si Si8 0.071568 0.474093 0.211578
O O1 0.618519 0.387648 0.213388
O O2 0.968309 0.332765 0.150986
O O3 0.748975 0.414679 0.101983
O O4 0.086032 0.417249 0.191153
O O5 0.999352 0.821206 0.709632
O O6 0.351093 0.887161 0.680212
O O7 0.856240 0.906711 0.680499
O O8 0.750000 0.250000 0.140641
O O9 0.502750 0.230639 0.244603
O O10 0.250000 0.250000 0.142184
O O11 0.250000 0.082938 0.500000
O O12 0.471614 0.052917 0.400108
O O13 0.750000 0.081701 0.500000
O O14 0.500000 0.000000 0.500000
O O15 0.471840 0.495335 0.906466
O O16 0.750000 0.461540 0.000000
O O17 0.750000 0.250000 0.654126
O O18 0.250000 0.250000 0.655052
O O19 0.449463 0.025589 0.286578
O O20 0.804478 0.494884 0.185127
#
# Coordination Sequence:
#
# PCOD8204831 Si02
#       8
#     8   8   8   8   8   8   8   8
#     4  11  22  39  61  90 123 173 204 252 332 384
#     4  11  22  36  56  89 126 160 187 255 311 372
#     4  10  21  33  55  83 122 156 206 238 297 387
#     4  10  22  38  61  76 106 160 210 240 288 349
#     4  10  23  43  66  90 122 164 229 282 308 371
#     4  10  18  33  53  79 122 159 192 227 299 379
#     4  11  24  37  57  85 122 155 206 249 296 356
#     4  11  24  35  52  79 122 157 189 244 304 364
#
# _framework density 20.596716000000001
#
# number of rings (size 3 to 8) (size 9 to 14) (size 15 to 20)
#    0.000    1.500    2.500    3.750    8.750    4.000 
#    0.000    0.000    0.000    0.375    0.000    1.750 
#    0.000   35.000    0.000    0.000    0.000    0.000 
#
# Total GULP energy -792965.191356 kJ/mol
# GULP energy per Si atom -12390.081115 kJ/mol
# Density = 2.054984 g / cm^3
# Si number density = 20.596716 Si / 1000 Ang^3
#
#
#
# Elastic Constant Matrix: (Units=GPa)
#
#
# Indices 1 2 3 4 5 6 
#
# 1 196.8574 58.9610 46.7247 0.0000 0.0000 0.0000
# 2 58.9610 134.2319 36.8336 0.0000 0.0000 0.0000
# 3 46.7247 36.8336 89.2949 0.0000 0.0000 0.0000
# 4 0.0000 0.0000 0.0000 12.1081 0.0000 0.0000
# 5 0.0000 0.0000 0.0000 0.0000 24.3560 0.0000
# 6 0.0000 0.0000 0.0000 0.0000 0.0000 28.6063
#
#
#
# Elastic Compliance Matrix: (Units=1/GPa)
#
#
# Indices 1 2 3 4 5 6 
#
# 1 0.006282 -0.002095 -0.002423 0.000000 0.000000 0.000000
# 2 -0.002095 0.009099 -0.002657 0.000000 0.000000 0.000000
# 3 -0.002423 -0.002657 0.013563 0.000000 0.000000 0.000000
# 4 0.000000 0.000000 0.000000 0.082589 0.000000 0.000000
# 5 0.000000 0.000000 0.000000 0.000000 0.041058 0.000000
# 6 0.000000 0.000000 0.000000 0.000000 0.000000 0.034957
#
#
# Mechanical properties :
#
#
# Convention : Reuss Voigt Hill
#
# Bulk Modulus (GPa) = 68.52121 78.38032 73.45076
# Shear Modulus (GPa) = 24.18219 31.53840 27.86030
#
# Velocity S-wave (km/s) = 3.43020 3.91734 3.68184
# Velocity P-wave (km/s) = 7.00204 7.65494 7.33576
#
# Compressibility (1/GPa) = 0.01459402
#
# Stress axis : x y z
#
# Youngs Moduli (GPa) = 159.17640 109.90253 73.73005
#
# Poissons Ratio (x) = 0.23019 0.17867
# Poissons Ratio (y) = 0.33340 0.19592
# Poissons Ratio (z) = 0.38574 0.29204
#
# Static dielectric constant tensor:
#      x y z
#    x -2.256240 0.000000 0.000000 
#    y 0.000000 3.640750 0.000000 
#    z 0.000000 0.000000 3.616500 
# 
# 
# High freq. dielectric constant tensor:
#      x y z
#    x 1.841840 0.000000 0.000000 
#    y 0.000000 1.789480 0.000000 
#    z 0.000000 0.000000 1.764910 
# 
# From -- ./inp_files/30491.got.cif
#   From: 2010.03.12/outbox.cif.g09.slc.cpg/sg50_16_cif.got.tgz:30491.got - 2010.04.16 13:23:21.
