data_PCOD8204106
_publ_section_title
;
Structure prediction by ZEFSAII (Michael W. Deem and Ramdas Pophale) SiO2 
 PCOD8204106
Probable space group: P C C M
;
_chemical_formula_sum "Si O2"
_cell_formula_units_Z 40
_cell_length_a 9.127131
_cell_length_b 9.793183
_cell_length_c 22.719066
_cell_angle_alpha 90.000000
_cell_angle_beta 90.000000
_cell_angle_gamma 90.000000
_cell_volume 2030.713365
_symmetry_space_group_name_H-M "P C C M"
_symmetry_group_IT_number 49
_symmetry_cell_setting 'orthorhombic'
loop_
_space_group_symop_operation_xyz
x,y,z
-x,-y,z
x,-y,1/2-z
-x,y,1/2-z
-x,-y,-z
x,y,-z
-x,y,1/2+z
x,-y,1/2+z
loop_
_atom_site_type_symbol
_atom_site_label
_atom_site_fract_x
_atom_site_fract_y
_atom_site_fract_z
Si Si1 0.144581 0.587137 0.000000
Si Si2 0.323387 0.738792 0.191406
Si Si3 0.344605 0.224227 0.174324
Si Si4 0.857958 0.907355 0.500000
Si Si5 0.665828 0.506318 0.890828
Si Si6 0.828130 0.030936 0.126669
O O1 0.103751 0.746701 0.000000
O O2 0.232784 0.547944 0.942165
O O3 0.000000 0.500000 0.000000
O O4 0.481253 0.801874 0.174085
O O5 0.296008 0.730690 0.260751
O O6 0.313406 0.585595 0.167150
O O7 0.197027 0.831134 0.163087
O O8 0.294879 0.339472 0.127780
O O9 0.264549 0.086811 0.156660
O O10 0.770162 0.945405 0.440404
O O11 0.000000 0.000000 0.500000
O O12 0.500000 0.500000 0.914101
O O13 0.000000 0.000000 0.128115
#
# Coordination Sequence:
#
# PCOD8204106 Si02
#       6
#     4   8   8   4   8   8
#     4  12  25  41  67  88 120 162 202 250 305 359
#     4  10  20  41  61  89 124 158 197 245 298 359
#     4  10  22  37  64  91 120 159 198 242 304 360
#     4  10  24  43  60  83 121 161 200 245 303 354
#     4  10  22  40  64  91 122 155 200 250 297 355
#     4  11  23  39  61  85 122 160 203 249 297 357
#
# _framework density 19.697510999999999
#
# number of rings (size 3 to 8) (size 9 to 14) (size 15 to 20)
#    0.000    1.600    2.000    2.100    5.600    5.600 
#    0.000    3.000    0.000    3.600    0.000    0.000 
#    0.000    0.000    0.000    0.000    0.000    0.000 
#
# Total GULP energy -496042.660761 kJ/mol
# GULP energy per Si atom -12401.066519 kJ/mol
# Density = 1.965268 g / cm^3
# Si number density = 19.697511 Si / 1000 Ang^3
#
#
#
# Elastic Constant Matrix: (Units=GPa)
#
#
# Indices 1 2 3 4 5 6 
#
# 1 66.5797 32.1569 37.0994 0.0000 0.0000 0.0000
# 2 32.1569 86.8313 23.9951 0.0000 0.0000 0.0000
# 3 37.0994 23.9951 118.6683 0.0000 0.0000 0.0000
# 4 0.0000 0.0000 0.0000 29.6608 0.0000 0.0000
# 5 0.0000 0.0000 0.0000 0.0000 24.4267 0.0000
# 6 0.0000 0.0000 0.0000 0.0000 0.0000 27.4206
#
#
#
# Elastic Compliance Matrix: (Units=1/GPa)
#
#
# Indices 1 2 3 4 5 6 
#
# 1 0.021023 -0.006323 -0.005294 0.000000 0.000000 0.000000
# 2 -0.006323 0.014100 -0.000874 0.000000 0.000000 0.000000
# 3 -0.005294 -0.000874 0.010259 0.000000 0.000000 0.000000
# 4 0.000000 0.000000 0.000000 0.033714 0.000000 0.000000
# 5 0.000000 0.000000 0.000000 0.000000 0.040939 0.000000
# 6 0.000000 0.000000 0.000000 0.000000 0.000000 0.036469
#
#
# Mechanical properties :
#
#
# Convention : Reuss Voigt Hill
#
# Bulk Modulus (GPa) = 49.02076 50.95355 49.98715
# Shear Modulus (GPa) = 26.55531 28.22348 27.38940
#
# Velocity S-wave (km/s) = 3.67571 3.78940 3.73299
# Velocity P-wave (km/s) = 6.55402 6.71344 6.63421
#
# Compressibility (1/GPa) = 0.02039952
#
# Stress axis : x y z
#
# Youngs Moduli (GPa) = 47.56620 70.92324 97.47791
#
# Poissons Ratio (x) = 0.44843 0.51605
# Poissons Ratio (y) = 0.30075 0.08523
# Poissons Ratio (z) = 0.25182 0.06201
#
# Static dielectric constant tensor:
#      x y z
#    x 3.295790 0.000000 0.000000 
#    y 0.000000 3.648510 0.000000 
#    z 0.000000 0.000000 3.916380 
# 
# 
# High freq. dielectric constant tensor:
#      x y z
#    x 1.749590 0.000000 0.000000 
#    y 0.000000 1.782020 0.000000 
#    z 0.000000 0.000000 1.783960 
# 
# From -- ./inp_files/22226.got.cif
#   From: 2010.03.12/outbox.cif.g09.slc.cpg/sg49_12_cif.got.tgz:22226.got - 2010.04.14 03:58:27.
