data_PCOD8204602
_publ_section_title
;
Structure prediction by ZEFSAII (Michael W. Deem and Ramdas Pophale) SiO2 
 PCOD8204602
Probable space group: P C C M
;
_chemical_formula_sum "Si O2"
_cell_formula_units_Z 56
_cell_length_a 10.963207
_cell_length_b 15.052093
_cell_length_c 15.358161
_cell_angle_alpha 90.000000
_cell_angle_beta 90.000000
_cell_angle_gamma 90.000000
_cell_volume 2534.391616
_symmetry_space_group_name_H-M "P C C M"
_symmetry_group_IT_number 49
_symmetry_cell_setting 'orthorhombic'
loop_
_space_group_symop_operation_xyz
x,y,z
-x,-y,z
x,-y,1/2-z
-x,y,1/2-z
-x,-y,-z
x,y,-z
-x,y,1/2+z
x,-y,1/2+z
loop_
_atom_site_type_symbol
_atom_site_label
_atom_site_fract_x
_atom_site_fract_y
_atom_site_fract_z
Si Si1 0.873810 0.544039 0.339997
Si Si2 0.612059 0.560562 0.599130
Si Si3 0.720568 0.220301 0.400985
Si Si4 0.364250 0.977150 0.649165
Si Si5 0.266756 0.851776 0.094359
Si Si6 0.130541 0.739335 0.765959
Si Si7 0.473858 0.739518 0.152278
O O1 0.844440 0.500000 0.250000
O O2 0.751147 0.522603 0.395940
O O3 0.888392 0.648148 0.319925
O O4 0.000000 0.500000 0.380087
O O5 0.500000 0.500000 0.634900
O O6 0.583516 0.584605 0.500000
O O7 0.609697 0.651044 0.655501
O O8 0.775232 0.221725 0.500000
O O9 0.679399 0.122132 0.371554
O O10 0.808534 0.266580 0.330019
O O11 0.598758 0.280639 0.399191
O O12 0.500000 0.000000 0.614963
O O13 0.355290 0.000000 0.750000
O O14 0.268759 0.041678 0.600090
O O15 0.195996 0.809645 0.173821
O O16 0.405790 0.818017 0.102047
O O17 0.211878 0.824082 0.000000
O O18 0.000000 0.781973 0.750000
O O19 0.500000 0.772584 0.250000
#
# Coordination Sequence:
#
# PCOD8204602 Si02
#       7
#     8   8   8   8   8   8   8
#     4  11  24  46  72  97 128 181 235 284 347 425
#     4  11  26  41  62 102 141 175 225 290 359 427
#     4  12  25  42  68 105 144 183 229 289 348 413
#     4  11  21  39  67 105 145 183 228 277 341 417
#     4  12  24  41  68 102 139 180 228 284 347 411
#     4  12  26  48  71  95 134 181 240 291 344 412
#     4  12  22  40  65  99 138 182 224 276 351 421
#
# _framework density 22.096032999999998
#
# number of rings (size 3 to 8) (size 9 to 14) (size 15 to 20)
#    0.000    0.429    7.143    1.714    4.000    1.429 
#    0.000    1.429    0.000    2.143    0.000    0.000 
#    0.000    0.000    0.000    0.000    0.000    0.000 
#
# Total GULP energy -693935.307984 kJ/mol
# GULP energy per Si atom -12391.701928 kJ/mol
# Density = 2.204574 g / cm^3
# Si number density = 22.096033 Si / 1000 Ang^3
#
#
#
# Elastic Constant Matrix: (Units=GPa)
#
#
# Indices 1 2 3 4 5 6 
#
# 1 142.4303 29.0706 31.0901 0.0000 0.0000 0.0000
# 2 29.0706 80.0822 3.1434 0.0000 0.0000 0.0000
# 3 31.0901 3.1434 107.8997 0.0000 0.0000 0.0000
# 4 0.0000 0.0000 0.0000 21.9991 0.0000 0.0000
# 5 0.0000 0.0000 0.0000 0.0000 21.6852 0.0000
# 6 0.0000 0.0000 0.0000 0.0000 0.0000 30.9367
#
#
#
# Elastic Compliance Matrix: (Units=1/GPa)
#
#
# Indices 1 2 3 4 5 6 
#
# 1 0.008094 -0.002850 -0.002249 0.000000 0.000000 0.000000
# 2 -0.002850 0.013505 0.000428 0.000000 0.000000 0.000000
# 3 -0.002249 0.000428 0.009903 0.000000 0.000000 0.000000
# 4 0.000000 0.000000 0.000000 0.045456 0.000000 0.000000
# 5 0.000000 0.000000 0.000000 0.000000 0.046114 0.000000
# 6 0.000000 0.000000 0.000000 0.000000 0.000000 0.032324
#
#
# Mechanical properties :
#
#
# Convention : Reuss Voigt Hill
#
# Bulk Modulus (GPa) = 45.12706 50.78003 47.95355
# Shear Modulus (GPa) = 29.04857 32.73141 30.88999
#
# Velocity S-wave (km/s) = 3.62974 3.85297 3.74302
# Velocity P-wave (km/s) = 6.16719 6.54410 6.35844
#
# Compressibility (1/GPa) = 0.02215965
#
# Stress axis : x y z
#
# Youngs Moduli (GPa) = 123.55507 74.04736 100.97494
#
# Poissons Ratio (x) = 0.21102 0.22710
# Poissons Ratio (y) = 0.35210 -0.04319
# Poissons Ratio (z) = 0.27788 -0.03167
#
# Static dielectric constant tensor:
#      x y z
#    x 4.169830 0.000000 0.000000 
#    y 0.000000 4.805340 0.000000 
#    z 0.000000 0.000000 3.963930 
# 
# 
# High freq. dielectric constant tensor:
#      x y z
#    x 1.857080 0.000000 0.000000 
#    y 0.000000 1.870400 0.000000 
#    z 0.000000 0.000000 1.868820 
# 
# From -- ./inp_files/12898.got.cif
#   From: 2010.03.12/outbox.cif.g09.slc.cpg/sg49_7_cif.got.tgz:12898.got - 2010.04.14 03:58:27.
