data_PCOD8204412
_publ_section_title
;
Structure prediction by ZEFSAII (Michael W. Deem and Ramdas Pophale) SiO2 
 PCOD8204412
Probable space group: P C C M
;
_chemical_formula_sum "Si O2"
_cell_formula_units_Z 48
_cell_length_a 8.670316
_cell_length_b 15.437995
_cell_length_c 16.019367
_cell_angle_alpha 90.000000
_cell_angle_beta 90.000000
_cell_angle_gamma 90.000000
_cell_volume 2144.229038
_symmetry_space_group_name_H-M "P C C M"
_symmetry_group_IT_number 49
_symmetry_cell_setting 'orthorhombic'
loop_
_space_group_symop_operation_xyz
x,y,z
-x,-y,z
x,-y,1/2-z
-x,y,1/2-z
-x,-y,-z
x,y,-z
-x,y,1/2+z
x,-y,1/2+z
loop_
_atom_site_type_symbol
_atom_site_label
_atom_site_fract_x
_atom_site_fract_y
_atom_site_fract_z
Si Si1 0.164932 0.644355 0.286520
Si Si2 0.599973 0.725519 0.673242
Si Si3 0.150516 0.812696 0.399873
Si Si4 0.184251 0.137893 0.406746
Si Si5 0.604899 0.582172 0.094823
Si Si6 0.673672 0.976418 0.154577
O O1 0.264227 0.662938 0.204352
O O2 0.167175 0.723288 0.351761
O O3 0.249801 0.570503 0.341769
O O4 0.000000 0.615385 0.250000
O O5 0.500000 0.760832 0.750000
O O6 0.675662 0.810908 0.635457
O O7 0.491638 0.670873 0.610702
O O8 0.163940 0.800339 0.500000
O O9 0.284832 0.877208 0.367259
O O10 0.984529 0.846831 0.368320
O O11 0.178247 0.172277 0.500000
O O12 0.216096 0.035806 0.402136
O O13 0.500000 0.500000 0.112254
O O14 0.665254 0.583956 0.000000
O O15 0.500000 0.000000 0.129740
O O16 0.707788 0.000000 0.250000
#
# Coordination Sequence:
#
# PCOD8204412 Si02
#       6
#     8   8   8   8   8   8
#     4  11  22  41  70 102 134 174 224 278 339 404
#     4  10  22  38  66  95 131 174 224 276 334 409
#     4  11  24  42  64  92 132 177 227 281 344 407
#     4  11  23  40  62  89 126 172 222 279 342 401
#     4  10  23  45  71 101 140 181 220 271 340 414
#     4  11  26  40  60  90 128 175 230 290 342 402
#
# _framework density 22.385670000000001
#
# number of rings (size 3 to 8) (size 9 to 14) (size 15 to 20)
#    0.000    1.333    1.667    3.000    7.000    6.333 
#    0.000    1.667    0.000    2.000    0.000    0.000 
#    0.000    0.000    0.000    0.000    0.000    0.000 
#
# Total GULP energy -595118.894037 kJ/mol
# GULP energy per Si atom -12398.310292 kJ/mol
# Density = 2.233472 g / cm^3
# Si number density = 22.385670 Si / 1000 Ang^3
#
#
#
# Elastic Constant Matrix: (Units=GPa)
#
#
# Indices 1 2 3 4 5 6 
#
# 1 130.4656 13.2980 38.6242 0.0000 0.0000 0.0000
# 2 13.2980 62.0383 22.1473 0.0000 0.0000 0.0000
# 3 38.6242 22.1473 88.4843 0.0000 0.0000 0.0000
# 4 0.0000 0.0000 0.0000 29.9264 0.0000 0.0000
# 5 0.0000 0.0000 0.0000 0.0000 32.7922 0.0000
# 6 0.0000 0.0000 0.0000 0.0000 0.0000 29.9084
#
#
#
# Elastic Compliance Matrix: (Units=1/GPa)
#
#
# Indices 1 2 3 4 5 6 
#
# 1 0.008820 -0.000567 -0.003708 0.000000 0.000000 0.000000
# 2 -0.000567 0.017737 -0.004192 0.000000 0.000000 0.000000
# 3 -0.003708 -0.004192 0.013969 0.000000 0.000000 0.000000
# 4 0.000000 0.000000 0.000000 0.033415 0.000000 0.000000
# 5 0.000000 0.000000 0.000000 0.000000 0.030495 0.000000
# 6 0.000000 0.000000 0.000000 0.000000 0.000000 0.033435
#
#
# Mechanical properties :
#
#
# Convention : Reuss Voigt Hill
#
# Bulk Modulus (GPa) = 42.38640 47.68081 45.03361
# Shear Modulus (GPa) = 30.73676 32.31997 31.52836
#
# Velocity S-wave (km/s) = 3.70950 3.80383 3.75696
# Velocity P-wave (km/s) = 6.10924 6.37480 6.24344
#
# Compressibility (1/GPa) = 0.02359247
#
# Stress axis : x y z
#
# Youngs Moduli (GPa) = 113.37241 56.37888 71.58477
#
# Poissons Ratio (x) = 0.03196 0.26546
# Poissons Ratio (y) = 0.06426 0.30009
# Poissons Ratio (z) = 0.42042 0.23635
#
# Static dielectric constant tensor:
#      x y z
#    x 4.442650 0.000000 0.000000 
#    y 0.000000 3.861680 0.000000 
#    z 0.000000 0.000000 4.063730 
# 
# 
# High freq. dielectric constant tensor:
#      x y z
#    x 1.896640 0.000000 0.000000 
#    y 0.000000 1.870430 0.000000 
#    z 0.000000 0.000000 1.886140 
# 
# From -- ./inp_files/16301.got.cif
#   From: 2010.03.12/outbox.cif.g09.slc.cpg/sg49_9_cif.got.tgz:16301.got - 2010.04.14 03:58:27.
