data_PCOD8204824
_publ_section_title
;
Structure prediction by ZEFSAII (Michael W. Deem and Ramdas Pophale) SiO2 
 PCOD8204824
Probable space group: P B A N
;
_chemical_formula_sum "Si O2"
_cell_formula_units_Z 44
_cell_length_a 16.184364
_cell_length_b 16.799403
_cell_length_c 8.914537
_cell_angle_alpha 90.000000
_cell_angle_beta 90.000000
_cell_angle_gamma 90.000000
_cell_volume 2423.752544
_symmetry_space_group_name_H-M "P B A N"
_symmetry_group_IT_number 50
_space_group.IT_coordinate_system_code '2'
_symmetry_cell_setting 'orthorhombic'
loop_
_space_group_symop_operation_xyz
x,y,z
1/2-x,1/2-y,z
x,1/2-y,-z
1/2-x,y,-z
-x,-y,-z
1/2+x,1/2+y,-z
-x,1/2+y,z
1/2+x,-y,z
loop_
_atom_site_type_symbol
_atom_site_label
_atom_site_fract_x
_atom_site_fract_y
_atom_site_fract_z
Si Si1 0.498870 0.582973 0.358375
Si Si2 0.499413 0.235636 0.173273
Si Si3 0.840602 0.717761 0.337368
Si Si4 0.250000 0.575465 0.500000
Si Si5 0.879094 0.955452 0.589197
Si Si6 0.607235 0.325201 0.404572
O O1 0.488701 0.642658 0.218261
O O2 0.592738 0.565571 0.416317
O O3 0.455445 0.497967 0.321757
O O4 0.458570 0.621539 0.507107
O O5 0.404927 0.253506 0.213998
O O6 0.564271 0.295381 0.251987
O O7 0.514583 0.250000 0.000000
O O8 0.750000 0.750000 0.296258
O O9 0.869289 0.750000 0.500000
O O10 0.842500 0.622309 0.331843
O O11 0.307052 0.520017 0.398835
O O12 0.306640 0.626882 0.615819
O O13 0.633567 0.250000 0.500000
#
# Coordination Sequence:
#
# PCOD8204824 Si02
#       6
#     8   8   8   4   8   8
#     4   9  18  34  57  80 112 139 190 239 284 336
#     4  11  21  36  57  81 115 156 191 227 286 361
#     4  11  20  34  57  84 112 147 199 248 284 336
#     4  10  19  28  57  88 104 132 176 246 293 324
#     4  10  18  32  56  86 109 138 184 250 289 330
#     4   9  17  34  56  82 104 136 190 234 279 329
#
# _framework density 18.153668
#
# number of rings (size 3 to 8) (size 9 to 14) (size 15 to 20)
#    0.000    2.000    3.636    1.909    0.000    0.364 
#    0.000    0.909    0.000   19.636    0.000    0.000 
#    0.000    0.000    0.000    0.000    0.000    0.000 
#
# Total GULP energy -545163.699584 kJ/mol
# GULP energy per Si atom -12390.084081 kJ/mol
# Density = 1.811235 g / cm^3
# Si number density = 18.153668 Si / 1000 Ang^3
#
#
#
# Elastic Constant Matrix: (Units=GPa)
#
#
# Indices 1 2 3 4 5 6 
#
# 1 112.4894 55.9354 37.2749 0.0000 0.0000 0.0000
# 2 55.9354 138.2267 41.4698 0.0000 0.0000 0.0000
# 3 37.2749 41.4698 98.8449 0.0000 0.0000 0.0000
# 4 0.0000 0.0000 0.0000 18.4246 0.0000 0.0000
# 5 0.0000 0.0000 0.0000 0.0000 15.3108 0.0000
# 6 0.0000 0.0000 0.0000 0.0000 0.0000 35.2068
#
#
#
# Elastic Compliance Matrix: (Units=1/GPa)
#
#
# Indices 1 2 3 4 5 6 
#
# 1 0.011766 -0.003924 -0.002791 0.000000 0.000000 0.000000
# 2 -0.003924 0.009585 -0.002542 0.000000 0.000000 0.000000
# 3 -0.002791 -0.002542 0.012236 0.000000 0.000000 0.000000
# 4 0.000000 0.000000 0.000000 0.054275 0.000000 0.000000
# 5 0.000000 0.000000 0.000000 0.000000 0.065313 0.000000
# 6 0.000000 0.000000 0.000000 0.000000 0.000000 0.028404
#
#
# Mechanical properties :
#
#
# Convention : Reuss Voigt Hill
#
# Bulk Modulus (GPa) = 66.34012 68.76901 67.55456
# Shear Modulus (GPa) = 24.37661 28.11384 26.24522
#
# Velocity S-wave (km/s) = 3.66839 3.93957 3.80640
# Velocity P-wave (km/s) = 7.38686 7.65882 7.52407
#
# Compressibility (1/GPa) = 0.01507384
#
# Stress axis : x y z
#
# Youngs Moduli (GPa) = 84.99363 104.33132 81.72934
#
# Poissons Ratio (x) = 0.40938 0.22807
# Poissons Ratio (y) = 0.33351 0.20772
# Poissons Ratio (z) = 0.23718 0.26516
#
# Static dielectric constant tensor:
#      x y z
#    x 3.596160 0.000000 0.000000 
#    y 0.000000 4.035120 0.000000 
#    z 0.000000 0.000000 2.726700 
# 
# 
# High freq. dielectric constant tensor:
#      x y z
#    x 1.715990 0.000000 0.000000 
#    y 0.000000 1.734810 0.000000 
#    z 0.000000 0.000000 1.622050 
# 
# From -- ./inp_files/12876.got.cif
#   From: 2010.03.12/outbox.cif.g09.slc.cpg/sg50_7_cif.got.tgz:12876.got - 2010.04.16 13:23:21.
