data_PCOD8204085
_publ_section_title
;
Structure prediction by ZEFSAII (Michael W. Deem and Ramdas Pophale) SiO2 
 PCOD8204085
Probable space group: P C C M
;
_chemical_formula_sum "Si O2"
_cell_formula_units_Z 56
_cell_length_a 8.891956
_cell_length_b 17.950441
_cell_length_c 17.107130
_cell_angle_alpha 90.000000
_cell_angle_beta 90.000000
_cell_angle_gamma 90.000000
_cell_volume 2730.546541
_symmetry_space_group_name_H-M "P C C M"
_symmetry_group_IT_number 49
_symmetry_cell_setting 'orthorhombic'
loop_
_space_group_symop_operation_xyz
x,y,z
-x,-y,z
x,-y,1/2-z
-x,y,1/2-z
-x,-y,-z
x,y,-z
-x,y,1/2+z
x,-y,1/2+z
loop_
_atom_site_type_symbol
_atom_site_label
_atom_site_fract_x
_atom_site_fract_y
_atom_site_fract_z
Si Si1 0.010475 0.766129 0.089294
Si Si2 0.485216 0.584655 0.591189
Si Si3 0.528503 0.189934 0.668766
Si Si4 0.244310 0.690076 0.671422
Si Si5 0.616356 0.064182 0.910325
Si Si6 0.061426 0.076135 0.661432
Si Si7 0.285362 0.310653 0.655347
O O1 0.994480 0.849388 0.123465
O O2 0.180618 0.738102 0.099126
O O3 0.914912 0.699783 0.128938
O O4 0.964122 0.771592 0.000000
O O5 0.500000 0.500000 0.619761
O O6 0.450168 0.590826 0.500000
O O7 0.347399 0.625638 0.634466
O O8 0.650079 0.618127 0.609747
O O9 0.500000 0.144080 0.750000
O O10 0.693993 0.224671 0.659694
O O11 0.483093 0.139327 0.595476
O O12 0.428780 0.262954 0.677904
O O13 0.209854 0.668662 0.761494
O O14 0.757317 0.071090 0.850649
O O15 0.500000 0.000000 0.885309
O O16 0.672312 0.055066 0.000000
O O17 0.000000 0.077387 0.750000
O O18 0.000000 0.000000 0.621260
#
# Coordination Sequence:
#
# PCOD8204085 Si02
#       7
#     8   8   8   8   8   8   8
#     4  12  24  39  64  92 128 167 208 265 318 380
#     4  10  21  39  64  95 131 165 205 258 314 374
#     4   9  20  36  60  84 115 155 204 256 304 367
#     4  10  22  38  61  93 124 162 210 257 306 371
#     4  11  25  42  62  90 124 161 213 272 324 383
#     4  11  26  44  64  89 124 172 215 266 328 391
#     4  10  20  39  62  89 121 164 206 252 308 371
#
# _framework density 20.508714999999999
#
# number of rings (size 3 to 8) (size 9 to 14) (size 15 to 20)
#    0.000    1.571    1.429    3.857    4.000    6.571 
#    0.000    0.714    0.000    4.286    0.000    0.000 
#    0.000    0.000    0.000    0.000    0.000    0.000 
#
# Total GULP energy -693955.761439 kJ/mol
# GULP energy per Si atom -12392.067169 kJ/mol
# Density = 2.046204 g / cm^3
# Si number density = 20.508715 Si / 1000 Ang^3
#
#
#
# Elastic Constant Matrix: (Units=GPa)
#
#
# Indices 1 2 3 4 5 6 
#
# 1 57.3575 24.2709 14.9467 0.0000 0.0000 0.0000
# 2 24.2709 121.3640 29.0431 0.0000 0.0000 0.0000
# 3 14.9467 29.0431 80.1301 0.0000 0.0000 0.0000
# 4 0.0000 0.0000 0.0000 27.9418 0.0000 0.0000
# 5 0.0000 0.0000 0.0000 0.0000 34.8643 0.0000
# 6 0.0000 0.0000 0.0000 0.0000 0.0000 28.3454
#
#
#
# Elastic Compliance Matrix: (Units=1/GPa)
#
#
# Indices 1 2 3 4 5 6 
#
# 1 0.019469 -0.003312 -0.002431 0.000000 0.000000 0.000000
# 2 -0.003312 0.009586 -0.002857 0.000000 0.000000 0.000000
# 3 -0.002431 -0.002857 0.013969 0.000000 0.000000 0.000000
# 4 0.000000 0.000000 0.000000 0.035789 0.000000 0.000000
# 5 0.000000 0.000000 0.000000 0.000000 0.028683 0.000000
# 6 0.000000 0.000000 0.000000 0.000000 0.000000 0.035279
#
#
# Mechanical properties :
#
#
# Convention : Reuss Voigt Hill
#
# Bulk Modulus (GPa) = 38.72308 43.93034 41.32671
# Shear Modulus (GPa) = 29.65930 30.93638 30.29784
#
# Velocity S-wave (km/s) = 3.80699 3.88809 3.84776
# Velocity P-wave (km/s) = 6.18438 6.45160 6.31940
#
# Compressibility (1/GPa) = 0.02582439
#
# Stress axis : x y z
#
# Youngs Moduli (GPa) = 51.36251 104.32355 71.58932
#
# Poissons Ratio (x) = 0.34550 0.17405
# Poissons Ratio (y) = 0.17010 0.20450
# Poissons Ratio (z) = 0.12488 0.29800
#
# Static dielectric constant tensor:
#      x y z
#    x 3.663750 0.000000 0.000000 
#    y 0.000000 3.725140 0.000000 
#    z 0.000000 0.000000 3.750190 
# 
# 
# High freq. dielectric constant tensor:
#      x y z
#    x 1.800260 0.000000 0.000000 
#    y 0.000000 1.791510 0.000000 
#    z 0.000000 0.000000 1.804390 
# 
# From -- ./inp_files/11989.got.cif
#   From: 2010.03.12/outbox.cif.g09.slc.cpg/sg49_6_cif.got.tgz:11989.got - 2010.04.14 03:58:27.
