data_PCOD8204702
_publ_section_title
;
Structure prediction by ZEFSAII (Michael W. Deem and Ramdas Pophale) SiO2 
 PCOD8204702
Probable space group: P C C M
;
_chemical_formula_sum "Si O2"
_cell_formula_units_Z 56
_cell_length_a 15.181943
_cell_length_b 20.088960
_cell_length_c 8.725800
_cell_angle_alpha 90.000000
_cell_angle_beta 90.000000
_cell_angle_gamma 90.000000
_cell_volume 2661.276905
_symmetry_space_group_name_H-M "P C C M"
_symmetry_group_IT_number 49
_symmetry_cell_setting 'orthorhombic'
loop_
_space_group_symop_operation_xyz
x,y,z
-x,-y,z
x,-y,1/2-z
-x,y,1/2-z
-x,-y,-z
x,y,-z
-x,y,1/2+z
x,-y,1/2+z
loop_
_atom_site_type_symbol
_atom_site_label
_atom_site_fract_x
_atom_site_fract_y
_atom_site_fract_z
Si Si1 0.269732 0.569048 0.318116
Si Si2 0.908731 0.616900 0.679575
Si Si3 0.867339 0.750239 0.827582
Si Si4 0.408557 0.668549 0.819970
Si Si5 0.087211 0.897586 0.323112
Si Si6 0.277380 0.932760 0.682090
Si Si7 0.333200 0.209325 0.824938
O O1 0.306355 0.500000 0.250000
O O2 0.274470 0.567778 0.500000
O O3 0.169688 0.578871 0.264685
O O4 0.328958 0.628827 0.256442
O O5 0.904393 0.601528 0.500000
O O6 0.901146 0.696174 0.706703
O O7 0.000000 0.589894 0.750000
O O8 0.916568 0.818774 0.792492
O O9 0.763814 0.760976 0.810898
O O10 0.888475 0.724859 0.000000
O O11 0.500000 0.642299 0.750000
O O12 0.397277 0.747015 0.781536
O O13 0.408164 0.656658 0.000000
O O14 0.086083 0.914617 0.500000
O O15 0.177409 0.927127 0.251746
O O16 0.000000 0.930490 0.250000
O O17 0.275282 0.935051 0.500000
O O18 0.333349 0.867713 0.732542
O O19 0.320902 0.000000 0.750000
O O20 0.366639 0.213833 0.000000
#
# Coordination Sequence:
#
# PCOD8204702 Si02
#       7
#     8   8   8   8   8   8   8
#     4  12  26  47  70  96 132 171 211 261 314 371
#     4  12  24  38  59  90 125 168 218 265 315 371
#     4   9  17  32  54  79 112 154 200 255 316 368
#     4  12  25  43  70 104 133 165 207 252 310 378
#     4   9  18  30  44  68 103 147 197 252 309 365
#     4   9  19  34  52  77 111 155 203 250 309 372
#     4   9  18  36  61  87 121 161 201 253 313 369
#
# _framework density 21.042528999999998
#
# number of rings (size 3 to 8) (size 9 to 14) (size 15 to 20)
#    0.000    1.714    1.429    6.000    0.000    3.714 
#    0.000    7.143    0.000    0.429    0.000    3.000 
#    0.000    0.000    0.000    0.000    0.000    0.000 
#
# Total GULP energy -694415.030407 kJ/mol
# GULP energy per Si atom -12400.268400 kJ/mol
# Density = 2.099463 g / cm^3
# Si number density = 21.042529 Si / 1000 Ang^3
#
#
#
# Elastic Constant Matrix: (Units=GPa)
#
#
# Indices 1 2 3 4 5 6 
#
# 1 75.8521 26.5571 36.0308 0.0000 0.0000 0.0000
# 2 26.5571 104.3323 43.8184 0.0000 0.0000 0.0000
# 3 36.0308 43.8184 126.9647 0.0000 0.0000 0.0000
# 4 0.0000 0.0000 0.0000 34.1450 0.0000 0.0000
# 5 0.0000 0.0000 0.0000 0.0000 30.8915 0.0000
# 6 0.0000 0.0000 0.0000 0.0000 0.0000 2.7135
#
#
#
# Elastic Compliance Matrix: (Units=1/GPa)
#
#
# Indices 1 2 3 4 5 6 
#
# 1 0.015775 -0.002497 -0.003615 0.000000 0.000000 0.000000
# 2 -0.002497 0.011605 -0.003296 0.000000 0.000000 0.000000
# 3 -0.003615 -0.003296 0.010040 0.000000 0.000000 0.000000
# 4 0.000000 0.000000 0.000000 0.029287 0.000000 0.000000
# 5 0.000000 0.000000 0.000000 0.000000 0.032371 0.000000
# 6 0.000000 0.000000 0.000000 0.000000 0.000000 0.368524
#
#
# Mechanical properties :
#
#
# Convention : Reuss Voigt Hill
#
# Bulk Modulus (GPa) = 53.75610 57.77355 55.76482
# Shear Modulus (GPa) = 10.14981 26.93286 18.54133
#
# Velocity S-wave (km/s) = 2.19862 3.58149 2.97161
# Velocity P-wave (km/s) = 5.66102 6.67967 6.19133
#
# Compressibility (1/GPa) = 0.01860254
#
# Stress axis : x y z
#
# Youngs Moduli (GPa) = 63.39154 86.17071 99.60431
#
# Poissons Ratio (x) = 0.21519 0.36006
# Poissons Ratio (y) = 0.15830 0.32834
# Poissons Ratio (z) = 0.22915 0.28406
#
# Static dielectric constant tensor:
#      x y z
#    x 3.745550 0.000000 0.000000 
#    y 0.000000 3.973140 0.000000 
#    z 0.000000 0.000000 3.622250 
# 
# 
# High freq. dielectric constant tensor:
#      x y z
#    x 1.808500 0.000000 0.000000 
#    y 0.000000 1.828430 0.000000 
#    z 0.000000 0.000000 1.815190 
# 
# From -- ./inp_files/4073.got.cif
#   From: 2010.03.12/outbox.cif.g09.slc.cpg/sg49_3_cif.got.tgz:4073.got - 2010.04.14 03:58:27.
