data_PCOD8204059
_publ_section_title
;
Structure prediction by ZEFSAII (Michael W. Deem and Ramdas Pophale) SiO2 
 PCOD8204059
Probable space group: P C C M
;
_chemical_formula_sum "Si O2"
_cell_formula_units_Z 40
_cell_length_a 23.038763
_cell_length_b 8.914811
_cell_length_c 9.901494
_cell_angle_alpha 90.000000
_cell_angle_beta 90.000000
_cell_angle_gamma 90.000000
_cell_volume 2033.630403
_symmetry_space_group_name_H-M "P C C M"
_symmetry_group_IT_number 49
_symmetry_cell_setting 'orthorhombic'
loop_
_space_group_symop_operation_xyz
x,y,z
-x,-y,z
x,-y,1/2-z
-x,y,1/2-z
-x,-y,-z
x,y,-z
-x,y,1/2+z
x,-y,1/2+z
loop_
_atom_site_type_symbol
_atom_site_label
_atom_site_fract_x
_atom_site_fract_y
_atom_site_fract_z
Si Si1 0.623599 0.169471 0.500000
Si Si2 0.568752 0.672431 0.749726
Si Si3 0.367795 0.187401 0.500000
Si Si4 0.054640 0.347806 0.166648
Si Si5 0.235002 0.811959 0.000000
Si Si6 0.246756 0.832375 0.500000
Si Si7 0.169091 0.822669 0.739478
O O1 0.589902 0.232725 0.625528
O O2 0.688738 0.232137 0.500000
O O3 0.627326 0.990979 0.500000
O O4 0.588910 0.500000 0.750000
O O5 0.500000 0.683704 0.750000
O O6 0.597735 0.751364 0.625135
O O7 0.301204 0.249159 0.500000
O O8 0.067883 0.500000 0.250000
O O9 0.107187 0.237430 0.194020
O O10 0.000000 0.277579 0.250000
O O11 0.044905 0.367694 0.000000
O O12 0.195973 0.754532 0.124211
O O13 0.242724 0.989223 0.000000
O O14 0.215541 0.768358 0.630782
O O15 0.162564 0.000000 0.750000
#
# Coordination Sequence:
#
# PCOD8204059 Si02
#       7
#     4   8   4   8   4   4   8
#     4  11  22  38  67  89 117 160 204 261 296 367
#     4  11  24  41  59  85 125 165 199 250 319 373
#     4  11  22  40  63  93 117 156 216 251 304 365
#     4  11  24  42  62  87 122 163 203 249 301 353
#     4   9  20  34  61  88 122 153 190 245 304 357
#     4   9  18  38  57  88 120 153 192 243 306 353
#     4  10  20  38  63  89 118 155 197 243 297 360
#
# _framework density 19.669257000000002
#
# number of rings (size 3 to 8) (size 9 to 14) (size 15 to 20)
#    0.000    1.600    1.000    4.200    2.800    7.600 
#    0.000    7.000    0.000    0.000    0.000    0.000 
#    0.000    0.000    0.000    0.000    0.000    0.000 
#
# Total GULP energy -495569.932728 kJ/mol
# GULP energy per Si atom -12389.248318 kJ/mol
# Density = 1.962449 g / cm^3
# Si number density = 19.669257 Si / 1000 Ang^3
#
#
#
# Elastic Constant Matrix: (Units=GPa)
#
#
# Indices 1 2 3 4 5 6 
#
# 1 130.4509 49.1104 66.9048 0.0000 0.0000 0.0000
# 2 49.1104 65.9737 44.9781 0.0000 0.0000 0.0000
# 3 66.9048 44.9781 198.1690 0.0000 0.0000 0.0000
# 4 0.0000 0.0000 0.0000 13.9410 0.0000 0.0000
# 5 0.0000 0.0000 0.0000 0.0000 47.4327 0.0000
# 6 0.0000 0.0000 0.0000 0.0000 0.0000 -21.9876
#
#
#
# Elastic Compliance Matrix: (Units=1/GPa)
#
#
# Indices 1 2 3 4 5 6 
#
# 1 0.011465 -0.006975 -0.002288 0.000000 0.000000 0.000000
# 2 -0.006975 0.022175 -0.002678 0.000000 0.000000 0.000000
# 3 -0.002288 -0.002678 0.006426 0.000000 0.000000 0.000000
# 4 0.000000 0.000000 0.000000 0.071731 0.000000 0.000000
# 5 0.000000 0.000000 0.000000 0.000000 0.021082 0.000000
# 6 0.000000 0.000000 0.000000 0.000000 0.000000 -0.045480
#
#
# Mechanical properties :
#
#
# Convention : Reuss Voigt Hill
#
# Bulk Modulus (GPa) = 61.78454 79.62003 70.70228
# Shear Modulus (GPa) = 42.85364 23.45057 33.15211
#
# Velocity S-wave (km/s) = 4.67273 3.45664 4.10991
# Velocity P-wave (km/s) = 7.78412 7.51654 7.65150
#
# Compressibility (1/GPa) = 0.01618528
#
# Stress axis : x y z
#
# Youngs Moduli (GPa) = 87.22424 45.09490 155.60700
#
# Poissons Ratio (x) = 0.31452 0.35597
# Poissons Ratio (y) = 0.60836 0.41678
# Poissons Ratio (z) = 0.19954 0.12078
#
# Static dielectric constant tensor:
#      x y z
#    x 3.899900 0.000000 0.000000 
#    y 0.000000 3.435190 0.000000 
#    z 0.000000 0.000000 4.004630 
# 
# 
# High freq. dielectric constant tensor:
#      x y z
#    x 1.786850 0.000000 0.000000 
#    y 0.000000 1.744910 0.000000 
#    z 0.000000 0.000000 1.792290 
# 
# From -- ./inp_files/6261.got.cif
#   From: 2010.03.12/outbox.cif.g09.slc.cpg/sg49_4_cif.got.tgz:6261.got - 2010.04.14 03:58:27.
