data_PCOD8204779
_publ_section_title
;
Structure prediction by ZEFSAII (Michael W. Deem and Ramdas Pophale) SiO2 
 PCOD8204779
Probable space group: P B A N
;
_chemical_formula_sum "Si O2"
_cell_formula_units_Z 48
_cell_length_a 16.206904
_cell_length_b 14.739418
_cell_length_c 9.693647
_cell_angle_alpha 90.000000
_cell_angle_beta 90.000000
_cell_angle_gamma 90.000000
_cell_volume 2315.621619
_symmetry_space_group_name_H-M "P B A N"
_symmetry_group_IT_number 50
_space_group.IT_coordinate_system_code '2'
_symmetry_cell_setting 'orthorhombic'
loop_
_space_group_symop_operation_xyz
x,y,z
1/2-x,1/2-y,z
x,1/2-y,-z
1/2-x,y,-z
-x,-y,-z
1/2+x,1/2+y,-z
-x,1/2+y,z
1/2+x,-y,z
loop_
_atom_site_type_symbol
_atom_site_label
_atom_site_fract_x
_atom_site_fract_y
_atom_site_fract_z
Si Si1 0.529800 0.848112 0.745337
Si Si2 0.630576 0.464803 0.241765
Si Si3 0.819988 0.511208 0.281442
Si Si4 0.162011 0.218491 0.342676
Si Si5 0.064855 0.920179 0.486176
Si Si6 0.426773 0.564348 0.043219
O O1 0.578063 0.943118 0.754215
O O2 0.591486 0.763205 0.754012
O O3 0.481020 0.840151 0.598433
O O4 0.464050 0.848860 0.873019
O O5 0.723541 0.494927 0.268204
O O6 0.597297 0.395454 0.360386
O O7 0.621206 0.409459 0.097963
O O8 0.843781 0.611520 0.330932
O O9 0.854299 0.446977 0.400157
O O10 0.863329 0.492162 0.136361
O O11 0.250000 0.250000 0.283883
O O12 0.150824 0.250000 0.500000
O O13 0.000000 0.000000 0.500000
O O14 0.500000 0.500000 0.000000
#
# Coordination Sequence:
#
# PCOD8204779 Si02
#       6
#     8   8   8   8   8   8
#     4   9  18  35  49  75 111 153 193 226 274 343
#     4  10  17  31  52  79 105 145 193 244 281 325
#     4  11  20  32  53  83 114 146 189 237 293 346
#     4  11  21  31  52  83 122 156 178 228 296 358
#     4   9  18  30  52  76 109 148 195 235 269 336
#     4   9  20  35  53  69 107 155 197 239 273 336
#
# _framework density 20.728774999999999
#
# number of rings (size 3 to 8) (size 9 to 14) (size 15 to 20)
#    0.000    2.167    1.667    4.000    2.333    0.000 
#    0.000    3.333    0.000    2.000    0.000    0.000 
#    0.000  349.333    0.000    0.000    0.000    0.000 
#
# Total GULP energy -594770.805672 kJ/mol
# GULP energy per Si atom -12391.058452 kJ/mol
# Density = 2.068160 g / cm^3
# Si number density = 20.728775 Si / 1000 Ang^3
#
#
#
# Elastic Constant Matrix: (Units=GPa)
#
#
# Indices 1 2 3 4 5 6 
#
# 1 100.3597 37.3046 65.0629 0.0000 0.0000 0.0000
# 2 37.3046 33.9226 21.4405 0.0000 0.0000 0.0000
# 3 65.0629 21.4405 163.6942 0.0000 0.0000 0.0000
# 4 0.0000 0.0000 0.0000 10.0573 0.0000 0.0000
# 5 0.0000 0.0000 0.0000 0.0000 33.0577 0.0000
# 6 0.0000 0.0000 0.0000 0.0000 0.0000 30.1770
#
#
#
# Elastic Compliance Matrix: (Units=1/GPa)
#
#
# Indices 1 2 3 4 5 6 
#
# 1 0.020888 -0.019323 -0.005771 0.000000 0.000000 0.000000
# 2 -0.019323 0.050014 0.001129 0.000000 0.000000 0.000000
# 3 -0.005771 0.001129 0.008255 0.000000 0.000000 0.000000
# 4 0.000000 0.000000 0.000000 0.099430 0.000000 0.000000
# 5 0.000000 0.000000 0.000000 0.000000 0.030250 0.000000
# 6 0.000000 0.000000 0.000000 0.000000 0.000000 0.033138
#
#
# Mechanical properties :
#
#
# Convention : Reuss Voigt Hill
#
# Bulk Modulus (GPa) = 32.02295 60.62139 46.32217
# Shear Modulus (GPa) = 16.64918 26.26964 21.45941
#
# Velocity S-wave (km/s) = 2.83714 3.56378 3.22102
# Velocity P-wave (km/s) = 5.12002 6.80019 6.01902
#
# Compressibility (1/GPa) = 0.03122760
#
# Stress axis : x y z
#
# Youngs Moduli (GPa) = 47.87361 19.99420 121.13875
#
# Poissons Ratio (x) = 0.38635 0.69915
# Poissons Ratio (y) = 0.92506 -0.13681
# Poissons Ratio (z) = 0.27630 -0.02258
#
# Static dielectric constant tensor:
#      x y z
#    x 4.186440 0.000000 0.000000 
#    y 0.000000 3.179320 0.000000 
#    z 0.000000 0.000000 4.851600 
# 
# 
# High freq. dielectric constant tensor:
#      x y z
#    x 1.829610 0.000000 0.000000 
#    y 0.000000 1.747290 0.000000 
#    z 0.000000 0.000000 1.824650 
# 
# From -- ./inp_files/13142.got.cif
#   From: 2010.03.12/outbox.cif.g09.slc.cpg/sg50_7_cif.got.tgz:13142.got - 2010.04.16 13:23:21.
