data_PCOD8204753
_publ_section_title
;
Structure prediction by ZEFSAII (Michael W. Deem and Ramdas Pophale) SiO2 
 PCOD8204753
Probable space group: P B A N
;
_chemical_formula_sum "Si O2"
_cell_formula_units_Z 44
_cell_length_a 29.665640
_cell_length_b 9.157347
_cell_length_c 8.524036
_cell_angle_alpha 90.000000
_cell_angle_beta 90.000000
_cell_angle_gamma 90.000000
_cell_volume 2315.627341
_symmetry_space_group_name_H-M "P B A N"
_symmetry_group_IT_number 50
_space_group.IT_coordinate_system_code '2'
_symmetry_cell_setting 'orthorhombic'
loop_
_space_group_symop_operation_xyz
x,y,z
1/2-x,1/2-y,z
x,1/2-y,-z
1/2-x,y,-z
-x,-y,-z
1/2+x,1/2+y,-z
-x,1/2+y,z
1/2+x,-y,z
loop_
_atom_site_type_symbol
_atom_site_label
_atom_site_fract_x
_atom_site_fract_y
_atom_site_fract_z
Si Si1 0.383110 0.161131 0.845200
Si Si2 0.531739 0.761427 0.315537
Si Si3 0.250000 0.250000 0.500000
Si Si4 0.532936 0.461280 0.143039
Si Si5 0.134106 0.592105 0.054483
Si Si6 0.811895 0.620249 0.753241
Si Si7 0.250000 0.250000 0.000000
O O1 0.426875 0.133425 0.737279
O O2 0.347943 0.249811 0.740158
O O3 0.398923 0.250000 0.000000
O O4 0.359285 0.012983 0.903274
O O5 0.527822 0.750000 0.500000
O O6 0.540462 0.600975 0.250769
O O7 0.486331 0.829591 0.246929
O O8 0.219088 0.364464 0.401456
O O9 0.580953 0.403135 0.086848
O O10 0.500000 0.500000 0.000000
O O11 0.162048 0.533250 0.208809
O O12 0.152032 0.750000 0.000000
O O13 0.780415 0.641074 0.902037
#
# Coordination Sequence:
#
# PCOD8204753 Si02
#       7
#     8   8   2   8   8   8   2
#     4  10  18  38  61  85 118 162 213 253 303 366
#     4  12  24  37  56  88 126 167 212 268 315 361
#     4  10  24  38  72 100 124 154 200 268 332 402
#     4  12  22  39  60  87 123 174 223 259 297 368
#     4  11  21  37  64  93 122 165 217 257 304 364
#     4  10  20  38  64  95 120 154 204 257 319 373
#     4  10  16  34  66  90 108 142 210 258 284 378
#
# _framework density 19.001329999999999
#
# number of rings (size 3 to 8) (size 9 to 14) (size 15 to 20)
#    0.000    1.091    8.182    2.182    1.273    0.000 
#    0.000    0.455    0.000    1.091    0.000    0.000 
#    0.000    0.000    0.000    0.000    0.000    0.000 
#
# Total GULP energy -545387.619210 kJ/mol
# GULP energy per Si atom -12395.173164 kJ/mol
# Density = 1.895808 g / cm^3
# Si number density = 19.001330 Si / 1000 Ang^3
#
#
#
# Elastic Constant Matrix: (Units=GPa)
#
#
# Indices 1 2 3 4 5 6 
#
# 1 101.9906 21.4153 40.0485 0.0000 0.0000 0.0000
# 2 21.4153 113.0210 29.9414 0.0000 0.0000 0.0000
# 3 40.0485 29.9414 109.2338 0.0000 0.0000 0.0000
# 4 0.0000 0.0000 0.0000 21.5818 0.0000 0.0000
# 5 0.0000 0.0000 0.0000 0.0000 33.5298 0.0000
# 6 0.0000 0.0000 0.0000 0.0000 0.0000 21.4958
#
#
#
# Elastic Compliance Matrix: (Units=1/GPa)
#
#
# Indices 1 2 3 4 5 6 
#
# 1 0.011592 -0.001154 -0.003933 0.000000 0.000000 0.000000
# 2 -0.001154 0.009656 -0.002223 0.000000 0.000000 0.000000
# 3 -0.003933 -0.002223 0.011206 0.000000 0.000000 0.000000
# 4 0.000000 0.000000 0.000000 0.046335 0.000000 0.000000
# 5 0.000000 0.000000 0.000000 0.000000 0.029824 0.000000
# 6 0.000000 0.000000 0.000000 0.000000 0.000000 0.046521
#
#
# Mechanical properties :
#
#
# Convention : Reuss Voigt Hill
#
# Bulk Modulus (GPa) = 56.08165 56.33954 56.21059
# Shear Modulus (GPa) = 28.45755 30.84415 29.65085
#
# Velocity S-wave (km/s) = 3.87416 4.03334 3.95455
# Velocity P-wave (km/s) = 7.04208 7.16974 7.10619
#
# Compressibility (1/GPa) = 0.01783114
#
# Stress axis : x y z
#
# Youngs Moduli (GPa) = 86.26814 103.56605 89.23585
#
# Poissons Ratio (x) = 0.11955 0.35101
# Poissons Ratio (y) = 0.09958 0.19841
# Poissons Ratio (z) = 0.33933 0.23027
#
# Static dielectric constant tensor:
#      x y z
#    x 3.776610 0.000000 0.000000 
#    y 0.000000 3.117040 0.000000 
#    z 0.000000 0.000000 5.947570 
# 
# 
# High freq. dielectric constant tensor:
#      x y z
#    x 1.751230 0.000000 0.000000 
#    y 0.000000 1.716860 0.000000 
#    z 0.000000 0.000000 1.724020 
# 
# From -- ./inp_files/16877.got.cif
#   From: 2010.03.12/outbox.cif.g09.slc.cpg/sg50_9_cif.got.tgz:16877.got - 2010.04.16 13:23:21.
