data_PCOD8204424
_publ_section_title
;
Structure prediction by ZEFSAII (Michael W. Deem and Ramdas Pophale) SiO2 
 PCOD8204424
Probable space group: P C C M
;
_chemical_formula_sum "Si O2"
_cell_formula_units_Z 32
_cell_length_a 17.447611
_cell_length_b 4.914243
_cell_length_c 17.717534
_cell_angle_alpha 90.000000
_cell_angle_beta 90.000000
_cell_angle_gamma 90.000000
_cell_volume 1519.133261
_symmetry_space_group_name_H-M "P C C M"
_symmetry_group_IT_number 49
_symmetry_cell_setting 'orthorhombic'
loop_
_space_group_symop_operation_xyz
x,y,z
-x,-y,z
x,-y,1/2-z
-x,y,1/2-z
-x,-y,-z
x,y,-z
-x,y,1/2+z
x,-y,1/2+z
loop_
_atom_site_type_symbol
_atom_site_label
_atom_site_fract_x
_atom_site_fract_y
_atom_site_fract_z
Si Si1 0.448031 0.260470 0.084456
Si Si2 0.911797 0.980560 0.912218
Si Si3 0.682917 0.266665 0.299741
Si Si4 0.845396 0.486534 0.165353
O O1 0.500000 0.500000 0.119768
O O2 0.373500 0.188018 0.133028
O O3 0.500000 0.000000 0.082120
O O4 0.420652 0.341651 0.000000
O O5 0.856031 0.179035 0.864562
O O6 0.891110 0.672117 0.892966
O O7 0.899125 0.040753 0.000000
O O8 0.000000 0.000000 0.888514
O O9 0.641396 0.500000 0.250000
O O10 0.757763 0.413554 0.333849
O O11 0.703932 0.000000 0.250000
O O12 0.879622 0.500000 0.250000
#
# Coordination Sequence:
#
# PCOD8204424 Si02
#       4
#     8   8   8   8
#     4  10  22  39  59  87 121 157 202 252 302 362
#     4  11  24  41  62  90 122 157 201 250 301 363
#     4  11  23  40  61  88 121 157 202 252 303 364
#     4  11  23  41  62  89 123 158 201 250 302 364
#
# _framework density 21.064641999999999
#
# number of rings (size 3 to 8) (size 9 to 14) (size 15 to 20)
#    0.000    1.250    0.000    6.750    0.000   10.000 
#    0.000    2.500    0.000    0.000    0.000    0.000 
#    0.000    0.000    0.000    0.000    0.000    0.000 
#
# Total GULP energy -396801.502621 kJ/mol
# GULP energy per Si atom -12400.046957 kJ/mol
# Density = 2.101670 g / cm^3
# Si number density = 21.064642 Si / 1000 Ang^3
#
#
#
# Elastic Constant Matrix: (Units=GPa)
#
#
# Indices 1 2 3 4 5 6 
#
# 1 99.9216 16.7826 52.8476 0.0000 0.0000 0.0000
# 2 16.7826 94.0897 18.6932 0.0000 0.0000 0.0000
# 3 52.8476 18.6932 92.5584 0.0000 0.0000 0.0000
# 4 0.0000 0.0000 0.0000 43.4147 0.0000 0.0000
# 5 0.0000 0.0000 0.0000 0.0000 29.7042 0.0000
# 6 0.0000 0.0000 0.0000 0.0000 0.0000 30.7750
#
#
#
# Elastic Compliance Matrix: (Units=1/GPa)
#
#
# Indices 1 2 3 4 5 6 
#
# 1 0.014423 -0.000976 -0.008038 0.000000 0.000000 0.000000
# 2 -0.000976 0.011138 -0.001692 0.000000 0.000000 0.000000
# 3 -0.008038 -0.001692 0.015735 0.000000 0.000000 0.000000
# 4 0.000000 0.000000 0.000000 0.023034 0.000000 0.000000
# 5 0.000000 0.000000 0.000000 0.000000 0.033665 0.000000
# 6 0.000000 0.000000 0.000000 0.000000 0.000000 0.032494
#
#
# Mechanical properties :
#
#
# Convention : Reuss Voigt Hill
#
# Bulk Modulus (GPa) = 50.29063 51.46849 50.87956
# Shear Modulus (GPa) = 31.53987 33.99521 32.76754
#
# Velocity S-wave (km/s) = 3.87368 4.02164 3.94835
# Velocity P-wave (km/s) = 6.62823 6.78612 6.70764
#
# Compressibility (1/GPa) = 0.01988442
#
# Stress axis : x y z
#
# Youngs Moduli (GPa) = 69.33424 89.77927 63.55194
#
# Poissons Ratio (x) = 0.08759 0.51083
# Poissons Ratio (y) = 0.06765 0.10756
# Poissons Ratio (z) = 0.55730 0.15195
#
# Static dielectric constant tensor:
#      x y z
#    x 3.561700 0.000000 0.000000 
#    y 0.000000 3.963620 0.000000 
#    z 0.000000 0.000000 3.986610 
# 
# 
# High freq. dielectric constant tensor:
#      x y z
#    x 1.817760 0.000000 0.000000 
#    y 0.000000 1.845810 0.000000 
#    z 0.000000 0.000000 1.828110 
# 
# From -- ./inp_files/10517.got.cif
#   From: 2010.03.12/outbox.cif.g09.slc.cpg/sg49_6_cif.got.tgz:10517.got - 2010.04.14 03:58:27.
