data_PCOD8204687
_publ_section_title
;
Structure prediction by ZEFSAII (Michael W. Deem and Ramdas Pophale) SiO2 
 PCOD8204687
Probable space group: P C C M
;
_chemical_formula_sum "Si O2"
_cell_formula_units_Z 34
_cell_length_a 11.770208
_cell_length_b 9.394249
_cell_length_c 14.493269
_cell_angle_alpha 90.000000
_cell_angle_beta 90.000000
_cell_angle_gamma 90.000000
_cell_volume 1602.553577
_symmetry_space_group_name_H-M "P C C M"
_symmetry_group_IT_number 49
_symmetry_cell_setting 'orthorhombic'
loop_
_space_group_symop_operation_xyz
x,y,z
-x,-y,z
x,-y,1/2-z
-x,y,1/2-z
-x,-y,-z
x,y,-z
-x,y,1/2+z
x,-y,1/2+z
loop_
_atom_site_type_symbol
_atom_site_label
_atom_site_fract_x
_atom_site_fract_y
_atom_site_fract_z
Si Si1 0.776238 0.320014 0.649892
Si Si2 0.024005 0.783085 0.102847
Si Si3 0.752159 0.642503 0.361303
Si Si4 0.000000 0.000000 0.250000
Si Si5 0.386528 0.815212 0.000000
Si Si6 0.347867 0.859367 0.500000
O O1 0.736038 0.475695 0.617995
O O2 0.743932 0.308592 0.756199
O O3 0.709615 0.201977 0.591963
O O4 0.910837 0.294301 0.639113
O O5 0.124142 0.670083 0.095952
O O6 0.002799 0.847381 0.000000
O O7 0.068983 0.901196 0.177423
O O8 0.653367 0.730692 0.410068
O O9 0.521003 0.819784 0.000000
O O10 0.330073 0.971279 0.000000
#
# Coordination Sequence:
#
# PCOD8204687 Si02
#       6
#     8   8   8   2   4   4
#     4  11  24  43  69  99 135 175 216 269 331 395
#     4  12  24  38  66 103 137 177 217 260 330 392
#     4  11  24  43  69  99 135 175 216 269 331 395
#     4  12  26  40  58 102 150 184 208 272 312 408
#     4  11  27  46  67  96 130 172 225 279 332 389
#     4  11  27  46  67  96 130 172 225 279 332 389
#
# _framework density 21.216138999999998
#
# number of rings (size 3 to 8) (size 9 to 14) (size 15 to 20)
#    0.000    0.706    4.706    1.765    3.294    6.588 
#    0.000    4.706    0.000    0.000    0.000    0.000 
#    0.000    0.000    0.000    0.000    0.000    0.000 
#
# Total GULP energy -421459.037163 kJ/mol
# GULP energy per Si atom -12395.854034 kJ/mol
# Density = 2.116785 g / cm^3
# Si number density = 21.216139 Si / 1000 Ang^3
#
#
#
# Elastic Constant Matrix: (Units=GPa)
#
#
# Indices 1 2 3 4 5 6 
#
# 1 76.2504 31.7667 15.7242 0.0000 0.0000 0.0000
# 2 31.7667 114.8918 51.0910 0.0000 0.0000 0.0000
# 3 15.7242 51.0910 146.5973 0.0000 0.0000 0.0000
# 4 0.0000 0.0000 0.0000 38.7137 0.0000 0.0000
# 5 0.0000 0.0000 0.0000 0.0000 8.8176 0.0000
# 6 0.0000 0.0000 0.0000 0.0000 0.0000 21.4245
#
#
#
# Elastic Compliance Matrix: (Units=1/GPa)
#
#
# Indices 1 2 3 4 5 6 
#
# 1 0.014827 -0.004014 -0.000191 0.000000 0.000000 0.000000
# 2 -0.004014 0.011387 -0.003538 0.000000 0.000000 0.000000
# 3 -0.000191 -0.003538 0.008075 0.000000 0.000000 0.000000
# 4 0.000000 0.000000 0.000000 0.025831 0.000000 0.000000
# 5 0.000000 0.000000 0.000000 0.000000 0.113410 0.000000
# 6 0.000000 0.000000 0.000000 0.000000 0.000000 0.046675
#
#
# Mechanical properties :
#
#
# Convention : Reuss Voigt Hill
#
# Bulk Modulus (GPa) = 53.18751 59.43369 56.31060
# Shear Modulus (GPa) = 20.66469 29.73501 25.19985
#
# Velocity S-wave (km/s) = 3.12430 3.74776 3.45014
# Velocity P-wave (km/s) = 6.17566 6.84119 6.51692
#
# Compressibility (1/GPa) = 0.01880141
#
# Stress axis : x y z
#
# Youngs Moduli (GPa) = 67.44650 87.81891 123.83993
#
# Poissons Ratio (x) = 0.35254 0.02369
# Poissons Ratio (y) = 0.27076 0.43814
# Poissons Ratio (z) = 0.01290 0.31070
#
# Static dielectric constant tensor:
#      x y z
#    x 3.566300 0.000000 0.000000 
#    y 0.000000 4.052030 0.000000 
#    z 0.000000 0.000000 4.214850 
# 
# 
# High freq. dielectric constant tensor:
#      x y z
#    x 1.808410 0.000000 0.000000 
#    y 0.000000 1.842550 0.000000 
#    z 0.000000 0.000000 1.858840 
# 
# From -- ./inp_files/12481.got.cif
#   From: 2010.03.12/outbox.cif.g09.slc.cpg/sg49_7_cif.got.tgz:12481.got - 2010.04.14 03:58:27.
