data_PCOD8204597
_publ_section_title
;
Structure prediction by ZEFSAII (Michael W. Deem and Ramdas Pophale) SiO2 
 PCOD8204597
Probable space group: P C C M
;
_chemical_formula_sum "Si O2"
_cell_formula_units_Z 48
_cell_length_a 18.920650
_cell_length_b 9.661414
_cell_length_c 13.709509
_cell_angle_alpha 90.000000
_cell_angle_beta 90.000000
_cell_angle_gamma 90.000000
_cell_volume 2506.101437
_symmetry_space_group_name_H-M "P C C M"
_symmetry_group_IT_number 49
_symmetry_cell_setting 'orthorhombic'
loop_
_space_group_symop_operation_xyz
x,y,z
-x,-y,z
x,-y,1/2-z
-x,y,1/2-z
-x,-y,-z
x,y,-z
-x,y,1/2+z
x,-y,1/2+z
loop_
_atom_site_type_symbol
_atom_site_label
_atom_site_fract_x
_atom_site_fract_y
_atom_site_fract_z
Si Si1 0.665505 0.129834 0.318362
Si Si2 0.425343 0.655243 0.213394
Si Si3 0.566306 0.895477 0.000000
Si Si4 0.093946 0.076555 0.000000
Si Si5 0.056336 0.225683 0.500000
Si Si6 0.926699 0.343591 0.209484
Si Si7 0.825214 0.140550 0.690253
Si Si8 0.533677 0.648049 0.500000
O O1 0.637595 0.261659 0.260668
O O2 0.616798 0.085110 0.408037
O O3 0.745380 0.170287 0.345484
O O4 0.665606 0.000000 0.250000
O O5 0.418634 0.500000 0.250000
O O6 0.500000 0.718186 0.250000
O O7 0.418752 0.668854 0.096177
O O8 0.500000 0.000000 0.000000
O O9 0.535083 0.743223 0.000000
O O10 0.129121 0.138304 0.094572
O O11 0.016738 0.142232 0.000000
O O12 0.106936 0.909585 0.000000
O O13 0.068914 0.327573 0.407966
O O14 0.920447 0.500000 0.250000
O O15 0.856764 0.263227 0.243688
O O16 0.000000 0.277668 0.250000
O O17 0.831468 0.000000 0.750000
O O18 0.500000 0.500000 0.500000
#
# Coordination Sequence:
#
# PCOD8204597 Si02
#       8
#     8   8   4   4   4   8   8   4
#     4  11  25  40  59  90 126 164 207 261 318 381
#     4  11  21  38  62  88 119 158 203 258 312 376
#     4  12  23  37  62  87 121 161 208 262 320 380
#     4  11  21  37  71  96 126 165 221 268 307 387
#     4  11  22  38  69 103 123 168 220 265 319 380
#     4  11  24  41  65  98 136 167 212 272 330 393
#     4  11  23  42  63  91 129 173 215 264 325 384
#     4  12  20  35  61  91 114 150 206 257 305 372
#
# _framework density 19.153255999999999
#
# number of rings (size 3 to 8) (size 9 to 14) (size 15 to 20)
#    0.000    0.833    6.667    1.500    0.000    3.000 
#    0.000    1.667    0.000    0.000    0.000    0.000 
#    0.000    0.000    0.000    0.000    0.000    0.000 
#
# Total GULP energy -595039.168852 kJ/mol
# GULP energy per Si atom -12396.649351 kJ/mol
# Density = 1.910966 g / cm^3
# Si number density = 19.153256 Si / 1000 Ang^3
#
#
#
# Elastic Constant Matrix: (Units=GPa)
#
#
# Indices 1 2 3 4 5 6 
#
# 1 101.4795 43.7364 38.4195 0.0000 0.0000 0.0000
# 2 43.7364 90.8654 32.1075 0.0000 0.0000 0.0000
# 3 38.4195 32.1075 151.4229 0.0000 0.0000 0.0000
# 4 0.0000 0.0000 0.0000 23.8446 0.0000 0.0000
# 5 0.0000 0.0000 0.0000 0.0000 40.9687 0.0000
# 6 0.0000 0.0000 0.0000 0.0000 0.0000 30.7778
#
#
#
# Elastic Compliance Matrix: (Units=1/GPa)
#
#
# Indices 1 2 3 4 5 6 
#
# 1 0.013044 -0.005523 -0.002139 0.000000 0.000000 0.000000
# 2 -0.005523 0.014235 -0.001617 0.000000 0.000000 0.000000
# 3 -0.002139 -0.001617 0.007490 0.000000 0.000000 0.000000
# 4 0.000000 0.000000 0.000000 0.041938 0.000000 0.000000
# 5 0.000000 0.000000 0.000000 0.000000 0.024409 0.000000
# 6 0.000000 0.000000 0.000000 0.000000 0.000000 0.032491
#
#
# Mechanical properties :
#
#
# Convention : Reuss Voigt Hill
#
# Bulk Modulus (GPa) = 61.68411 63.58830 62.63621
# Shear Modulus (GPa) = 31.73241 34.41852 33.07547
#
# Velocity S-wave (km/s) = 4.07475 4.24371 4.16009
# Velocity P-wave (km/s) = 7.37656 7.56861 7.47320
#
# Compressibility (1/GPa) = 0.01621163
#
# Stress axis : x y z
#
# Youngs Moduli (GPa) = 76.66273 70.24920 133.52023
#
# Poissons Ratio (x) = 0.38798 0.28554
# Poissons Ratio (y) = 0.42340 0.21591
# Poissons Ratio (z) = 0.16395 0.11360
#
# Static dielectric constant tensor:
#      x y z
#    x 3.654630 0.000000 0.000000 
#    y 0.000000 3.442490 0.000000 
#    z 0.000000 0.000000 3.743130 
# 
# 
# High freq. dielectric constant tensor:
#      x y z
#    x 1.738200 0.000000 0.000000 
#    y 0.000000 1.746230 0.000000 
#    z 0.000000 0.000000 1.763240 
# 
# From -- ./inp_files/14070.got.cif
#   From: 2010.03.12/outbox.cif.g09.slc.cpg/sg49_8_cif.got.tgz:14070.got - 2010.04.14 03:58:27.
