data_PCOD8204170
_publ_section_title
;
Structure prediction by ZEFSAII (Michael W. Deem and Ramdas Pophale) SiO2 
 PCOD8204170
Probable space group: P C C M
;
_chemical_formula_sum "Si O2"
_cell_formula_units_Z 48
_cell_length_a 5.189814
_cell_length_b 21.409166
_cell_length_c 20.172202
_cell_angle_alpha 90.000000
_cell_angle_beta 90.000000
_cell_angle_gamma 90.000000
_cell_volume 2241.325082
_symmetry_space_group_name_H-M "P C C M"
_symmetry_group_IT_number 49
_symmetry_cell_setting 'orthorhombic'
loop_
_space_group_symop_operation_xyz
x,y,z
-x,-y,z
x,-y,1/2-z
-x,y,1/2-z
-x,-y,-z
x,y,-z
-x,y,1/2+z
x,-y,1/2+z
loop_
_atom_site_type_symbol
_atom_site_label
_atom_site_fract_x
_atom_site_fract_y
_atom_site_fract_z
Si Si1 0.892400 0.775541 0.073525
Si Si2 0.734294 0.810888 0.788894
Si Si3 0.616921 0.937002 0.846320
Si Si4 0.888066 0.909508 0.574281
Si Si5 0.036772 0.362846 0.423621
Si Si6 0.532690 0.429335 0.420785
O O1 0.079168 0.834724 0.076463
O O2 0.046109 0.711641 0.085074
O O3 0.706514 0.783494 0.136739
O O4 0.753712 0.773289 0.000000
O O5 0.500000 0.778529 0.750000
O O6 0.682918 0.885698 0.790582
O O7 0.000000 0.797120 0.750000
O O8 0.395566 0.916558 0.896906
O O9 0.883735 0.946685 0.887183
O O10 0.500000 0.000000 0.812864
O O11 0.891958 0.935425 0.500000
O O12 0.035311 0.382019 0.500000
O O13 0.294201 0.390276 0.390842
O O14 0.787961 0.396363 0.390947
O O15 0.500000 0.500000 0.395516
O O16 0.538396 0.426477 0.500000
#
# Coordination Sequence:
#
# PCOD8204170 Si02
#       6
#     8   8   8   8   8   8
#     4   9  20  39  61  86 115 150 194 239 288 346
#     4  11  24  43  62  84 116 152 188 238 298 349
#     4  11  23  39  58  83 112 148 193 236 285 351
#     4  10  21  36  57  85 118 152 186 235 293 344
#     4   9  17  28  47  73 103 144 188 227 270 327
#     4   9  16  26  41  68 109 150 183 220 272 327
#
# _framework density 21.415904000000001
#
# number of rings (size 3 to 8) (size 9 to 14) (size 15 to 20)
#    0.000    2.167    0.000    3.500    0.000    9.000 
#    0.000   13.333    0.000    0.000    0.000    0.000 
#    0.000   10.000    0.000    0.000    0.000    0.000 
#
# Total GULP energy -594654.661653 kJ/mol
# GULP energy per Si atom -12388.638784 kJ/mol
# Density = 2.136716 g / cm^3
# Si number density = 21.415904 Si / 1000 Ang^3
#
#
#
# Elastic Constant Matrix: (Units=GPa)
#
#
# Indices 1 2 3 4 5 6 
#
# 1 149.1693 32.1279 35.3594 0.0000 0.0000 0.0000
# 2 32.1279 100.8279 8.9873 0.0000 0.0000 0.0000
# 3 35.3594 8.9873 92.3340 0.0000 0.0000 0.0000
# 4 0.0000 0.0000 0.0000 9.4519 0.0000 0.0000
# 5 0.0000 0.0000 0.0000 0.0000 22.7247 0.0000
# 6 0.0000 0.0000 0.0000 0.0000 0.0000 22.3949
#
#
#
# Elastic Compliance Matrix: (Units=1/GPa)
#
#
# Indices 1 2 3 4 5 6 
#
# 1 0.007850 -0.002253 -0.002787 0.000000 0.000000 0.000000
# 2 -0.002253 0.010651 -0.000174 0.000000 0.000000 0.000000
# 3 -0.002787 -0.000174 0.011914 0.000000 0.000000 0.000000
# 4 0.000000 0.000000 0.000000 0.105798 0.000000 0.000000
# 5 0.000000 0.000000 0.000000 0.000000 0.044005 0.000000
# 6 0.000000 0.000000 0.000000 0.000000 0.000000 0.044653
#
#
# Mechanical properties :
#
#
# Convention : Reuss Voigt Hill
#
# Bulk Modulus (GPa) = 50.02982 55.03116 52.53049
# Shear Modulus (GPa) = 20.66445 28.63808 24.65127
#
# Velocity S-wave (km/s) = 3.10967 3.66079 3.39643
# Velocity P-wave (km/s) = 6.02538 6.60460 6.32162
#
# Compressibility (1/GPa) = 0.01998808
#
# Stress axis : x y z
#
# Youngs Moduli (GPa) = 127.39554 93.88584 83.93229
#
# Poissons Ratio (x) = 0.21151 0.23390
# Poissons Ratio (y) = 0.28700 0.01461
# Poissons Ratio (z) = 0.35502 0.01634
#
# Static dielectric constant tensor:
#      x y z
#    x 4.016010 0.000000 0.000000 
#    y 0.000000 3.953540 0.000000 
#    z 0.000000 0.000000 3.639570 
# 
# 
# High freq. dielectric constant tensor:
#      x y z
#    x 1.844440 0.000000 0.000000 
#    y 0.000000 1.838930 0.000000 
#    z 0.000000 0.000000 1.795210 
# 
# From -- ./inp_files/18979.got.cif
#   From: 2010.03.12/outbox.cif.g09.slc.cpg/sg49_10_cif.got.tgz:18979.got - 2010.04.14 03:58:27.
