data_PCOD8204505
_publ_section_title
;
Structure prediction by ZEFSAII (Michael W. Deem and Ramdas Pophale) SiO2 
 PCOD8204505
Probable space group: P C C M
;
_chemical_formula_sum "Si O2"
_cell_formula_units_Z 64
_cell_length_a 15.367808
_cell_length_b 23.660918
_cell_length_c 8.628894
_cell_angle_alpha 90.000000
_cell_angle_beta 90.000000
_cell_angle_gamma 90.000000
_cell_volume 3137.607760
_symmetry_space_group_name_H-M "P C C M"
_symmetry_group_IT_number 49
_symmetry_cell_setting 'orthorhombic'
loop_
_space_group_symop_operation_xyz
x,y,z
-x,-y,z
x,-y,1/2-z
-x,y,1/2-z
-x,-y,-z
x,y,-z
-x,y,1/2+z
x,-y,1/2+z
loop_
_atom_site_type_symbol
_atom_site_label
_atom_site_fract_x
_atom_site_fract_y
_atom_site_fract_z
Si Si1 0.745153 0.939301 0.817663
Si Si2 0.594030 0.372814 0.182302
Si Si3 0.149356 0.762011 0.318351
Si Si4 0.090891 0.122880 0.317943
Si Si5 0.336275 0.749835 0.181604
Si Si6 0.909294 0.639470 0.817294
Si Si7 0.588162 0.142063 0.683300
Si Si8 0.752755 0.438763 0.683962
O O1 0.834659 0.916360 0.750628
O O2 0.668009 0.897539 0.768195
O O3 0.722380 0.000000 0.750000
O O4 0.754234 0.943651 0.000000
O O5 0.500000 0.386659 0.250000
O O6 0.621792 0.309658 0.228608
O O7 0.660816 0.417161 0.254355
O O8 0.592043 0.381411 0.000000
O O9 0.136781 0.773582 0.500000
O O10 0.103786 0.811673 0.224198
O O11 0.251074 0.759744 0.283400
O O12 0.105296 0.703856 0.263082
O O13 0.090328 0.115716 0.500000
O O14 0.000000 0.100921 0.250000
O O15 0.403832 0.798075 0.229561
O O16 0.313606 0.752794 0.000000
O O17 0.829748 0.601879 0.753775
O O18 0.000000 0.616496 0.750000
O O19 0.912914 0.635242 0.000000
O O20 0.500000 0.113904 0.750000
O O21 0.583008 0.150863 0.500000
O O22 0.773105 0.500000 0.750000
O O23 0.750108 0.440335 0.500000
#
# Coordination Sequence:
#
# PCOD8204505 Si02
#       8
#     8   8   8   8   8   8   8   8
#     4  11  25  45  67  93 125 167 214 266 317 371
#     4  11  24  41  64  95 127 165 207 256 310 373
#     4  11  21  38  63  94 130 168 207 254 314 375
#     4  12  25  42  66  96 130 168 210 260 314 377
#     4  11  22  37  63  96 129 167 208 252 314 376
#     4  10  23  40  63  92 126 165 205 254 309 368
#     4  11  24  41  65  94 130 168 210 259 313 373
#     4  11  24  44  65  90 122 163 210 262 314 368
#
# _framework density 20.397707
#
# number of rings (size 3 to 8) (size 9 to 14) (size 15 to 20)
#    0.000    1.000    2.500    4.125    0.000    8.000 
#    0.000    5.000    0.000    0.000    0.000    0.000 
#    0.000    0.000    0.000    0.000    0.000    0.000 
#
# Total GULP energy -794057.577612 kJ/mol
# GULP energy per Si atom -12407.149650 kJ/mol
# Density = 2.035128 g / cm^3
# Si number density = 20.397707 Si / 1000 Ang^3
#
#
#
# Elastic Constant Matrix: (Units=GPa)
#
#
# Indices 1 2 3 4 5 6 
#
# 1 128.6768 18.4754 26.2941 0.0000 0.0000 0.0000
# 2 18.4754 86.4149 27.0664 0.0000 0.0000 0.0000
# 3 26.2941 27.0664 67.5593 0.0000 0.0000 0.0000
# 4 0.0000 0.0000 0.0000 30.7694 0.0000 0.0000
# 5 0.0000 0.0000 0.0000 0.0000 39.4849 0.0000
# 6 0.0000 0.0000 0.0000 0.0000 0.0000 -64.9399
#
#
#
# Elastic Compliance Matrix: (Units=1/GPa)
#
#
# Indices 1 2 3 4 5 6 
#
# 1 0.008503 -0.000893 -0.002951 0.000000 0.000000 0.000000
# 2 -0.000893 0.013326 -0.004991 0.000000 0.000000 0.000000
# 3 -0.002951 -0.004991 0.017950 0.000000 0.000000 0.000000
# 4 0.000000 0.000000 0.000000 0.032500 0.000000 0.000000
# 5 0.000000 0.000000 0.000000 0.000000 0.025326 0.000000
# 6 0.000000 0.000000 0.000000 0.000000 0.000000 -0.015399
#
#
# Mechanical properties :
#
#
# Convention : Reuss Voigt Hill
#
# Bulk Modulus (GPa) = 45.23411 47.36921 46.30166
# Shear Modulus (GPa) = 46.62107 15.11722 30.86915
#
# Velocity S-wave (km/s) = 4.78599 2.72531 3.89442
# Velocity P-wave (km/s) = 7.26396 5.75989 6.55520
#
# Compressibility (1/GPa) = 0.02210721
#
# Stress axis : x y z
#
# Youngs Moduli (GPa) = 117.60866 75.03879 55.70995
#
# Poissons Ratio (x) = 0.06705 0.16442
# Poissons Ratio (y) = 0.10508 0.27806
# Poissons Ratio (z) = 0.34710 0.37454
#
# Static dielectric constant tensor:
#      x y z
#    x 3.901640 0.000000 0.000000 
#    y 0.000000 3.779710 0.000000 
#    z 0.000000 0.000000 3.744210 
# 
# 
# High freq. dielectric constant tensor:
#      x y z
#    x 1.813910 0.000000 0.000000 
#    y 0.000000 1.796350 0.000000 
#    z 0.000000 0.000000 1.806460 
# 
# From -- ./inp_files/4405.got.cif
#   From: 2010.03.12/outbox.cif.g09.slc.cpg/sg49_3_cif.got.tgz:4405.got - 2010.04.14 03:58:27.
