data_PCOD8204415
_publ_section_title
;
Structure prediction by ZEFSAII (Michael W. Deem and Ramdas Pophale) SiO2 
 PCOD8204415
Probable space group: P C C M
;
_chemical_formula_sum "Si O2"
_cell_formula_units_Z 64
_cell_length_a 12.174282
_cell_length_b 14.648146
_cell_length_c 17.746671
_cell_angle_alpha 90.000000
_cell_angle_beta 90.000000
_cell_angle_gamma 90.000000
_cell_volume 3164.775555
_symmetry_space_group_name_H-M "P C C M"
_symmetry_group_IT_number 49
_symmetry_cell_setting 'orthorhombic'
loop_
_space_group_symop_operation_xyz
x,y,z
-x,-y,z
x,-y,1/2-z
-x,y,1/2-z
-x,-y,-z
x,y,-z
-x,y,1/2+z
x,-y,1/2+z
loop_
_atom_site_type_symbol
_atom_site_label
_atom_site_fract_x
_atom_site_fract_y
_atom_site_fract_z
Si Si1 0.612087 0.038476 0.584147
Si Si2 0.939744 0.208860 0.331300
Si Si3 0.270356 0.670452 0.666124
Si Si4 0.142714 0.827995 0.087874
Si Si5 0.831738 0.984679 0.837025
Si Si6 0.332774 0.286485 0.332932
Si Si7 0.455024 0.759028 0.417627
Si Si8 0.621513 0.488341 0.163944
O O1 0.636534 0.997481 0.500000
O O2 0.704291 0.010246 0.642796
O O3 0.602646 0.144804 0.579511
O O4 0.500000 0.000000 0.617702
O O5 0.854009 0.292494 0.338781
O O6 0.881552 0.114088 0.355660
O O7 0.000000 0.204600 0.250000
O O8 0.033015 0.229369 0.393629
O O9 0.320342 0.712157 0.743113
O O10 0.351106 0.696771 0.599003
O O11 0.278730 0.561288 0.654229
O O12 0.242988 0.779791 0.130678
O O13 0.115135 0.930691 0.117609
O O14 0.169244 0.829076 0.000000
O O15 0.851091 0.000000 0.750000
O O16 0.451425 0.246541 0.354306
O O17 0.326628 0.391461 0.361534
O O18 0.504700 0.733906 0.500000
O O19 0.500000 0.500000 0.122862
O O20 0.589792 0.500000 0.250000
#
# Coordination Sequence:
#
# PCOD8204415 Si02
#       8
#     8   8   8   8   8   8   8   8
#     4  10  22  39  56  84 130 172 210 259 321 394
#     4  12  24  44  66  93 130 175 224 278 323 383
#     4  11  21  41  68  95 126 166 220 270 329 385
#     4  12  27  43  66  96 130 177 222 274 342 395
#     4  12  23  40  66  95 126 167 223 277 322 388
#     4  11  21  41  67  92 133 169 212 270 332 401
#     4  11  22  36  59  92 129 168 209 261 332 401
#     4   9  18  35  66 102 126 159 214 271 327 398
#
# _framework density 20.222604
#
# number of rings (size 3 to 8) (size 9 to 14) (size 15 to 20)
#    0.000    1.000    5.000    2.250    0.000    3.250 
#    2.250    2.500    0.000    0.750    0.000    0.000 
#    0.000    0.000    0.000    0.000    0.000    0.000 
#
# Total GULP energy -792898.069337 kJ/mol
# GULP energy per Si atom -12389.032333 kJ/mol
# Density = 2.017658 g / cm^3
# Si number density = 20.222604 Si / 1000 Ang^3
#
#
#
# Elastic Constant Matrix: (Units=GPa)
#
#
# Indices 1 2 3 4 5 6 
#
# 1 109.2823 27.3278 -0.8608 0.0000 0.0000 0.0000
# 2 27.3278 79.8542 2.7751 0.0000 0.0000 0.0000
# 3 -0.8608 2.7751 45.9357 0.0000 0.0000 0.0000
# 4 0.0000 0.0000 0.0000 7.8825 0.0000 0.0000
# 5 0.0000 0.0000 0.0000 0.0000 20.7461 0.0000
# 6 0.0000 0.0000 0.0000 0.0000 0.0000 16.1362
#
#
#
# Elastic Compliance Matrix: (Units=1/GPa)
#
#
# Indices 1 2 3 4 5 6 
#
# 1 0.010014 -0.003441 0.000396 0.000000 0.000000 0.000000
# 2 -0.003441 0.013731 -0.000894 0.000000 0.000000 0.000000
# 3 0.000396 -0.000894 0.021831 0.000000 0.000000 0.000000
# 4 0.000000 0.000000 0.000000 0.126864 0.000000 0.000000
# 5 0.000000 0.000000 0.000000 0.000000 0.048202 0.000000
# 6 0.000000 0.000000 0.000000 0.000000 0.000000 0.061973
#
#
# Mechanical properties :
#
#
# Convention : Reuss Voigt Hill
#
# Bulk Modulus (GPa) = 26.52664 32.61736 29.57200
# Shear Modulus (GPa) = 16.49842 22.67497 19.58669
#
# Velocity S-wave (km/s) = 2.85939 3.35217 3.11554
# Velocity P-wave (km/s) = 4.90380 5.58094 5.25329
#
# Compressibility (1/GPa) = 0.03769795
#
# Stress axis : x y z
#
# Youngs Moduli (GPa) = 99.85867 72.82575 45.80648
#
# Poissons Ratio (x) = 0.25058 -0.01812
# Poissons Ratio (y) = 0.34359 0.04095
# Poissons Ratio (z) = -0.03950 0.06511
#
# Static dielectric constant tensor:
#      x y z
#    x 3.719930 0.000000 0.000000 
#    y 0.000000 3.794120 0.000000 
#    z 0.000000 0.000000 3.982210 
# 
# 
# High freq. dielectric constant tensor:
#      x y z
#    x 1.793720 0.000000 0.000000 
#    y 0.000000 1.788800 0.000000 
#    z 0.000000 0.000000 1.773370 
# 
# From -- ./inp_files/17344.got.cif
#   From: 2010.03.12/outbox.cif.g09.slc.cpg/sg49_9_cif.got.tgz:17344.got - 2010.04.14 03:58:27.
