data_PCOD8204120
_publ_section_title
;
Structure prediction by ZEFSAII (Michael W. Deem and Ramdas Pophale) SiO2 
 PCOD8204120
Probable space group: P C C M
;
_chemical_formula_sum "Si O2"
_cell_formula_units_Z 52
_cell_length_a 29.133333
_cell_length_b 11.303550
_cell_length_c 8.943143
_cell_angle_alpha 90.000000
_cell_angle_beta 90.000000
_cell_angle_gamma 90.000000
_cell_volume 2945.067193
_symmetry_space_group_name_H-M "P C C M"
_symmetry_group_IT_number 49
_symmetry_cell_setting 'orthorhombic'
loop_
_space_group_symop_operation_xyz
x,y,z
-x,-y,z
x,-y,1/2-z
-x,y,1/2-z
-x,-y,-z
x,y,-z
-x,y,1/2+z
x,-y,1/2+z
loop_
_atom_site_type_symbol
_atom_site_label
_atom_site_fract_x
_atom_site_fract_y
_atom_site_fract_z
Si Si1 0.393335 0.625787 0.320939
Si Si2 0.543750 0.831422 0.161588
Si Si3 0.679328 0.215449 0.169767
Si Si4 0.142792 0.127333 0.324554
Si Si5 0.956903 0.872442 0.325860
Si Si6 0.231777 0.129502 0.178402
Si Si7 0.618845 0.000000 0.250000
O O1 0.404186 0.500000 0.250000
O O2 0.388135 0.619762 0.500000
O O3 0.435424 0.710457 0.270724
O O4 0.347268 0.677970 0.249114
O O5 0.500000 0.880003 0.250000
O O6 0.584645 0.927115 0.142760
O O7 0.523783 0.803603 0.000000
O O8 0.725304 0.204898 0.266269
O O9 0.650990 0.092329 0.162739
O O10 0.691093 0.251181 0.000000
O O11 0.154296 0.114982 0.500000
O O12 0.092945 0.191183 0.301349
O O13 0.184922 0.193036 0.239652
O O14 0.139094 0.000000 0.250000
O O15 0.967010 0.887212 0.500000
O O16 0.000000 0.801572 0.250000
O O17 0.954768 0.000000 0.250000
O O18 0.235339 0.000000 0.250000
O O19 0.231758 0.121619 0.000000
#
# Coordination Sequence:
#
# PCOD8204120 Si02
#       7
#     8   8   8   8   8   8   4
#     4  10  22  40  58  77 100 125 161 199 237 282
#     4  10  22  37  54  78 104 131 160 193 231 278
#     4  11  21  34  54  75  99 129 160 196 242 287
#     4   9  16  25  35  50  74 106 144 186 233 280
#     4   9  15  21  31  45  64  94 136 185 231 275
#     4  11  20  29  43  64  91 121 154 192 236 285
#     4  10  21  34  54  76 104 132 163 192 232 282
#
# _framework density 17.656642999999999
#
# number of rings (size 3 to 8) (size 9 to 14) (size 15 to 20)
#    0.000    2.000    0.769    5.308    0.000    7.692 
#    0.000    1.538    0.000    0.000    0.000    0.000 
#    0.000    0.000    0.000    0.000    0.000    0.769 
#
# Total GULP energy -644183.995335 kJ/mol
# GULP energy per Si atom -12388.153756 kJ/mol
# Density = 1.761646 g / cm^3
# Si number density = 17.656643 Si / 1000 Ang^3
#
#
#
# Elastic Constant Matrix: (Units=GPa)
#
#
# Indices 1 2 3 4 5 6 
#
# 1 144.1316 17.2040 55.5718 0.0000 0.0000 0.0000
# 2 17.2040 50.9129 12.8389 0.0000 0.0000 0.0000
# 3 55.5718 12.8389 128.6886 0.0000 0.0000 0.0000
# 4 0.0000 0.0000 0.0000 12.8004 0.0000 0.0000
# 5 0.0000 0.0000 0.0000 0.0000 28.4859 0.0000
# 6 0.0000 0.0000 0.0000 0.0000 0.0000 9.5232
#
#
#
# Elastic Compliance Matrix: (Units=1/GPa)
#
#
# Indices 1 2 3 4 5 6 
#
# 1 0.008518 -0.002001 -0.003479 0.000000 0.000000 0.000000
# 2 -0.002001 0.020618 -0.001193 0.000000 0.000000 0.000000
# 3 -0.003479 -0.001193 0.009392 0.000000 0.000000 0.000000
# 4 0.000000 0.000000 0.000000 0.078122 0.000000 0.000000
# 5 0.000000 0.000000 0.000000 0.000000 0.035105 0.000000
# 6 0.000000 0.000000 0.000000 0.000000 0.000000 0.105006
#
#
# Mechanical properties :
#
#
# Convention : Reuss Voigt Hill
#
# Bulk Modulus (GPa) = 39.70938 54.99584 47.35261
# Shear Modulus (GPa) = 17.95317 26.03648 21.99482
#
# Velocity S-wave (km/s) = 3.19218 3.84422 3.53327
# Velocity P-wave (km/s) = 6.01043 7.13576 6.59713
#
# Compressibility (1/GPa) = 0.02518296
#
# Stress axis : x y z
#
# Youngs Moduli (GPa) = 117.39486 48.50034 106.47405
#
# Poissons Ratio (x) = 0.09706 0.37040
# Poissons Ratio (y) = 0.23492 0.12701
# Poissons Ratio (z) = 0.40839 0.05786
#
# Static dielectric constant tensor:
#      x y z
#    x 4.314470 0.000000 0.000000 
#    y 0.000000 2.763460 0.000000 
#    z 0.000000 0.000000 3.353880 
# 
# 
# High freq. dielectric constant tensor:
#      x y z
#    x 1.705930 0.000000 0.000000 
#    y 0.000000 1.605540 0.000000 
#    z 0.000000 0.000000 1.699420 
# 
# From -- ./inp_files/6959.got.cif
#   From: 2010.03.12/outbox.cif.g09.slc.cpg/sg49_4_cif.got.tgz:6959.got - 2010.04.14 03:58:27.
