data_PCOD8204567
_publ_section_title
;
Structure prediction by ZEFSAII (Michael W. Deem and Ramdas Pophale) SiO2 
 PCOD8204567
Probable space group: P C C M
;
_chemical_formula_sum "Si O2"
_cell_formula_units_Z 64
_cell_length_a 11.832856
_cell_length_b 15.120866
_cell_length_c 18.335897
_cell_angle_alpha 90.000000
_cell_angle_beta 90.000000
_cell_angle_gamma 90.000000
_cell_volume 3280.714249
_symmetry_space_group_name_H-M "P C C M"
_symmetry_group_IT_number 49
_symmetry_cell_setting 'orthorhombic'
loop_
_space_group_symop_operation_xyz
x,y,z
-x,-y,z
x,-y,1/2-z
-x,y,1/2-z
-x,-y,-z
x,y,-z
-x,y,1/2+z
x,-y,1/2+z
loop_
_atom_site_type_symbol
_atom_site_label
_atom_site_fract_x
_atom_site_fract_y
_atom_site_fract_z
Si Si1 0.996748 0.399941 0.664256
Si Si2 0.585383 0.756381 0.086345
Si Si3 0.823505 0.755531 0.164003
Si Si4 0.769125 0.182780 0.826278
Si Si5 0.998253 0.901664 0.336397
Si Si6 0.217385 0.658277 0.084255
Si Si7 0.461533 0.900092 0.827428
Si Si8 0.451282 0.411423 0.585156
O O1 0.889100 0.337237 0.646599
O O2 0.000000 0.500000 0.630834
O O3 0.000000 0.406623 0.750000
O O4 0.108448 0.355284 0.633569
O O5 0.711269 0.753930 0.117077
O O6 0.519978 0.844796 0.108918
O O7 0.515336 0.673168 0.119052
O O8 0.592744 0.754582 0.000000
O O9 0.792852 0.768261 0.249156
O O10 0.898920 0.839192 0.137245
O O11 0.881388 0.141453 0.860344
O O12 0.725815 0.251631 0.887096
O O13 0.674580 0.106382 0.824199
O O14 0.000000 0.909238 0.250000
O O15 0.000000 0.000000 0.371364
O O16 0.315808 0.586219 0.097229
O O17 0.181924 0.663885 0.000000
O O18 0.500000 0.861086 0.750000
O O19 0.500000 0.000000 0.838433
O O20 0.500000 0.500000 0.622479
O O21 0.479326 0.410442 0.500000
#
# Coordination Sequence:
#
# PCOD8204567 Si02
#       8
#     8   8   8   8   8   8   8   8
#     4  11  23  40  62  92 126 164 205 257 316 369
#     4  11  24  40  60  90 126 163 201 257 321 375
#     4  11  21  39  61  87 123 162 198 249 307 368
#     4  11  20  39  64  87 121 156 205 253 304 365
#     4   9  19  33  60  88 110 148 196 245 293 347
#     4  11  22  39  64  89 120 163 210 257 309 375
#     4  11  24  39  64  95 123 163 212 259 309 379
#     4   9  20  39  61  86 117 156 205 255 308 368
#
# _framework density 19.507947000000001
#
# number of rings (size 3 to 8) (size 9 to 14) (size 15 to 20)
#    0.000    1.500    5.000    0.375    3.500    2.000 
#    0.000    0.000    0.000    3.375    0.000    0.000 
#    0.000    0.000    0.000    0.000    0.000    0.000 
#
# Total GULP energy -793231.561632 kJ/mol
# GULP energy per Si atom -12394.243151 kJ/mol
# Density = 1.946355 g / cm^3
# Si number density = 19.507947 Si / 1000 Ang^3
#
#
#
# Elastic Constant Matrix: (Units=GPa)
#
#
# Indices 1 2 3 4 5 6 
#
# 1 143.2469 52.8947 40.1662 0.0000 0.0000 0.0000
# 2 52.8947 126.9044 30.8049 0.0000 0.0000 0.0000
# 3 40.1662 30.8049 57.3874 0.0000 0.0000 0.0000
# 4 0.0000 0.0000 0.0000 6.8502 0.0000 0.0000
# 5 0.0000 0.0000 0.0000 0.0000 25.9715 0.0000
# 6 0.0000 0.0000 0.0000 0.0000 0.0000 41.0090
#
#
#
# Elastic Compliance Matrix: (Units=1/GPa)
#
#
# Indices 1 2 3 4 5 6 
#
# 1 0.009413 -0.002672 -0.005154 0.000000 0.000000 0.000000
# 2 -0.002672 0.009819 -0.003400 0.000000 0.000000 0.000000
# 3 -0.005154 -0.003400 0.022858 0.000000 0.000000 0.000000
# 4 0.000000 0.000000 0.000000 0.145980 0.000000 0.000000
# 5 0.000000 0.000000 0.000000 0.000000 0.038504 0.000000
# 6 0.000000 0.000000 0.000000 0.000000 0.000000 0.024385
#
#
# Mechanical properties :
#
#
# Convention : Reuss Voigt Hill
#
# Bulk Modulus (GPa) = 50.92424 63.91891 57.42157
# Shear Modulus (GPa) = 17.85987 28.34434 23.10210
#
# Velocity S-wave (km/s) = 3.02903 3.81591 3.44501
# Velocity P-wave (km/s) = 6.19632 7.22853 6.73224
#
# Compressibility (1/GPa) = 0.01963701
#
# Stress axis : x y z
#
# Youngs Moduli (GPa) = 106.23831 101.84106 43.74858
#
# Poissons Ratio (x) = 0.27215 0.22547
# Poissons Ratio (y) = 0.28390 0.14877
# Poissons Ratio (z) = 0.54752 0.34631
#
# Static dielectric constant tensor:
#      x y z
#    x 3.681790 0.000000 0.000000 
#    y 0.000000 4.018440 0.000000 
#    z 0.000000 0.000000 3.243690 
# 
# 
# High freq. dielectric constant tensor:
#      x y z
#    x 1.776770 0.000000 0.000000 
#    y 0.000000 1.768480 0.000000 
#    z 0.000000 0.000000 1.726130 
# 
# From -- ./inp_files/17352.got.cif
#   From: 2010.03.12/outbox.cif.g09.slc.cpg/sg49_9_cif.got.tgz:17352.got - 2010.04.14 03:58:27.
