data_PCOD8204575
_publ_section_title
;
Structure prediction by ZEFSAII (Michael W. Deem and Ramdas Pophale) SiO2 
 PCOD8204575
Probable space group: P C C M
;
_chemical_formula_sum "Si O2"
_cell_formula_units_Z 32
_cell_length_a 21.029954
_cell_length_b 9.695293
_cell_length_c 8.596299
_cell_angle_alpha 90.000000
_cell_angle_beta 90.000000
_cell_angle_gamma 90.000000
_cell_volume 1752.712863
_symmetry_space_group_name_H-M "P C C M"
_symmetry_group_IT_number 49
_symmetry_cell_setting 'orthorhombic'
loop_
_space_group_symop_operation_xyz
x,y,z
-x,-y,z
x,-y,1/2-z
-x,y,1/2-z
-x,-y,-z
x,y,-z
-x,y,1/2+z
x,-y,1/2+z
loop_
_atom_site_type_symbol
_atom_site_label
_atom_site_fract_x
_atom_site_fract_y
_atom_site_fract_z
Si Si1 0.673100 0.346019 0.316229
Si Si2 0.568669 0.853315 0.684155
Si Si3 0.800669 0.348070 0.182929
Si Si4 0.938083 0.347956 0.181056
O O1 0.670961 0.500000 0.250000
O O2 0.663971 0.345295 0.500000
O O3 0.617173 0.262972 0.235978
O O4 0.741076 0.275308 0.269546
O O5 0.500000 0.812823 0.750000
O O6 0.564912 0.862190 0.500000
O O7 0.591706 0.000000 0.750000
O O8 0.806291 0.500000 0.250000
O O9 0.869430 0.274524 0.216538
O O10 0.786004 0.353723 0.000000
O O11 0.936834 0.500000 0.250000
O O12 0.000000 0.266656 0.250000
O O13 0.948249 0.360641 0.000000
#
# Coordination Sequence:
#
# PCOD8204575 Si02
#       4
#     8   8   8   8
#     4  11  21  34  52  76 103 135 170 208 252 299
#     4  11  22  39  59  80 104 132 165 203 246 296
#     4   9  16  26  39  59  87 122 159 200 245 292
#     4   9  15  21  32  50  77 113 155 195 237 285
#
# _framework density 18.257413
#
# number of rings (size 3 to 8) (size 9 to 14) (size 15 to 20)
#    0.000    2.000    0.000    9.000    0.000    3.500 
#    0.000    2.500    0.000    0.000    0.000    0.000 
#    0.000    1.000    0.000   10.500    0.000    9.500 
#
# Total GULP energy -396428.346313 kJ/mol
# GULP energy per Si atom -12388.385822 kJ/mol
# Density = 1.821586 g / cm^3
# Si number density = 18.257413 Si / 1000 Ang^3
#
#
#
# Elastic Constant Matrix: (Units=GPa)
#
#
# Indices 1 2 3 4 5 6 
#
# 1 163.4492 48.5790 65.3753 0.0000 0.0000 0.0000
# 2 48.5790 35.4147 24.8732 0.0000 0.0000 0.0000
# 3 65.3753 24.8732 151.3832 0.0000 0.0000 0.0000
# 4 0.0000 0.0000 0.0000 18.8986 0.0000 0.0000
# 5 0.0000 0.0000 0.0000 0.0000 38.8200 0.0000
# 6 0.0000 0.0000 0.0000 0.0000 0.0000 -2.2129
#
#
#
# Elastic Compliance Matrix: (Units=1/GPa)
#
#
# Indices 1 2 3 4 5 6 
#
# 1 0.011171 -0.013492 -0.002607 0.000000 0.000000 0.000000
# 2 -0.013492 0.048216 -0.002096 0.000000 0.000000 0.000000
# 3 -0.002607 -0.002096 0.008076 0.000000 0.000000 0.000000
# 4 0.000000 0.000000 0.000000 0.052914 0.000000 0.000000
# 5 0.000000 0.000000 0.000000 0.000000 0.025760 0.000000
# 6 0.000000 0.000000 0.000000 0.000000 0.000000 -0.451903
#
#
# Mechanical properties :
#
#
# Convention : Reuss Voigt Hill
#
# Bulk Modulus (GPa) = 32.18237 69.76691 50.97464
# Shear Modulus (GPa) = -19.30373 25.19578 2.94603
#
# Velocity S-wave (km/s) = -3.25516 3.71891 1.27166
# Velocity P-wave (km/s) = 1.88075 7.53235 5.48969
#
# Compressibility (1/GPa) = 0.03107292
#
# Stress axis : x y z
#
# Youngs Moduli (GPa) = 89.51722 20.73993 123.82250
#
# Poissons Ratio (x) = 0.27983 0.32285
# Poissons Ratio (y) = 1.20779 0.25948
# Poissons Ratio (z) = 0.23341 0.04346
#
# Static dielectric constant tensor:
#      x y z
#    x 4.679490 0.000000 0.000000 
#    y 0.000000 2.740170 0.000000 
#    z 0.000000 0.000000 3.618610 
# 
# 
# High freq. dielectric constant tensor:
#      x y z
#    x 1.746070 0.000000 0.000000 
#    y 0.000000 1.622530 0.000000 
#    z 0.000000 0.000000 1.732710 
# 
# From -- ./inp_files/1381.got.cif
#   From: 2010.03.12/outbox.cif.g09.slc.cpg/sg49_1_cif.got.tgz:1381.got - 2010.04.14 03:58:27.
