data_PCOD8204368
_publ_section_title
;
Structure prediction by ZEFSAII (Michael W. Deem and Ramdas Pophale) SiO2 
 PCOD8204368
Probable space group: P C C M
;
_chemical_formula_sum "Si O2"
_cell_formula_units_Z 38
_cell_length_a 14.216705
_cell_length_b 10.753445
_cell_length_c 13.482490
_cell_angle_alpha 90.000000
_cell_angle_beta 90.000000
_cell_angle_gamma 90.000000
_cell_volume 2061.183593
_symmetry_space_group_name_H-M "P C C M"
_symmetry_group_IT_number 49
_symmetry_cell_setting 'orthorhombic'
loop_
_space_group_symop_operation_xyz
x,y,z
-x,-y,z
x,-y,1/2-z
-x,y,1/2-z
-x,-y,-z
x,y,-z
-x,y,1/2+z
x,-y,1/2+z
loop_
_atom_site_type_symbol
_atom_site_label
_atom_site_fract_x
_atom_site_fract_y
_atom_site_fract_z
Si Si1 0.239973 0.615705 0.692499
Si Si2 0.401205 0.245175 0.295298
Si Si3 0.000000 0.000000 0.250000
Si Si4 0.847703 0.131636 0.379453
Si Si5 0.353471 0.566777 0.500000
Si Si6 0.702597 0.000000 0.750000
Si Si7 0.459484 0.312294 0.500000
O O1 0.187729 0.500000 0.750000
O O2 0.322528 0.655062 0.767245
O O3 0.171628 0.730153 0.664409
O O4 0.285585 0.566045 0.592899
O O5 0.500000 0.288020 0.250000
O O6 0.417059 0.235371 0.410962
O O7 0.368556 0.110867 0.264026
O O8 0.942326 0.912151 0.174829
O O9 0.856179 0.132930 0.500000
O O10 0.766911 0.033756 0.345900
O O11 0.420322 0.450080 0.500000
O O12 0.425513 0.685000 0.500000
#
# Coordination Sequence:
#
# PCOD8204368 Si02
#       7
#     8   8   2   8   4   4   4
#     4  11  21  36  57  83 119 152 193 241 284 335
#     4  11  21  35  49  76 115 160 203 247 279 328
#     4  10  22  44  68  98 114 140 176 230 288 368
#     4  10  21  40  67  89 114 149 184 229 296 360
#     4  11  20  34  51  81 115 159 208 241 283 328
#     4   9  23  37  53  82 116 150 199 245 287 333
#     4  11  22  30  54  79 109 165 213 244 286 323
#
# _framework density 18.43601
#
# number of rings (size 3 to 8) (size 9 to 14) (size 15 to 20)
#    0.000    1.474    5.263    0.632    1.474    0.421 
#    0.000    1.579    2.316    1.263    0.000    0.000 
#    0.000    0.000    0.000    0.000    0.000    0.000 
#
# Total GULP energy -470885.291742 kJ/mol
# GULP energy per Si atom -12391.718204 kJ/mol
# Density = 1.839405 g / cm^3
# Si number density = 18.436010 Si / 1000 Ang^3
#
#
#
# Elastic Constant Matrix: (Units=GPa)
#
#
# Indices 1 2 3 4 5 6 
#
# 1 75.8899 28.1751 40.1236 0.0000 0.0000 0.0000
# 2 28.1751 67.0192 23.1608 0.0000 0.0000 0.0000
# 3 40.1236 23.1608 141.8178 0.0000 0.0000 0.0000
# 4 0.0000 0.0000 0.0000 10.2391 0.0000 0.0000
# 5 0.0000 0.0000 0.0000 0.0000 21.8376 0.0000
# 6 0.0000 0.0000 0.0000 0.0000 0.0000 -43.8458
#
#
#
# Elastic Compliance Matrix: (Units=1/GPa)
#
#
# Indices 1 2 3 4 5 6 
#
# 1 0.017499 -0.005984 -0.003974 0.000000 0.000000 0.000000
# 2 -0.005984 0.017860 -0.001224 0.000000 0.000000 0.000000
# 3 -0.003974 -0.001224 0.008375 0.000000 0.000000 0.000000
# 4 0.000000 0.000000 0.000000 0.097665 0.000000 0.000000
# 5 0.000000 0.000000 0.000000 0.000000 0.045793 0.000000
# 6 0.000000 0.000000 0.000000 0.000000 0.000000 -0.022807
#
#
# Mechanical properties :
#
#
# Convention : Reuss Voigt Hill
#
# Bulk Modulus (GPa) = 46.79001 51.96064 49.37533
# Shear Modulus (GPa) = 25.79038 10.53069 18.16054
#
# Velocity S-wave (km/s) = 3.74426 2.39258 3.14197
# Velocity P-wave (km/s) = 6.64285 5.98983 6.32477
#
# Compressibility (1/GPa) = 0.02137208
#
# Stress axis : x y z
#
# Youngs Moduli (GPa) = 57.14477 55.99255 119.39662
#
# Poissons Ratio (x) = 0.33503 0.47446
# Poissons Ratio (y) = 0.34193 0.14612
# Poissons Ratio (z) = 0.22708 0.06853
#
# Static dielectric constant tensor:
#      x y z
#    x 3.345570 0.000000 0.000000 
#    y 0.000000 3.498300 0.000000 
#    z 0.000000 0.000000 3.915650 
# 
# 
# High freq. dielectric constant tensor:
#      x y z
#    x 1.693850 0.000000 0.000000 
#    y 0.000000 1.718330 0.000000 
#    z 0.000000 0.000000 1.729380 
# 
# From -- ./inp_files/8776.got.cif
#   From: 2010.03.12/outbox.cif.g09.slc.cpg/sg49_5_cif.got.tgz:8776.got - 2010.04.14 03:58:27.
