data_PCOD8204755
_publ_section_title
;
Structure prediction by ZEFSAII (Michael W. Deem and Ramdas Pophale) SiO2 
 PCOD8204755
Probable space group: P B A N
;
_chemical_formula_sum "Si O2"
_cell_formula_units_Z 52
_cell_length_a 14.727284
_cell_length_b 19.595355
_cell_length_c 8.610824
_cell_angle_alpha 90.000000
_cell_angle_beta 90.000000
_cell_angle_gamma 90.000000
_cell_volume 2484.966339
_symmetry_space_group_name_H-M "P B A N"
_symmetry_group_IT_number 50
_space_group.IT_coordinate_system_code '2'
_symmetry_cell_setting 'orthorhombic'
loop_
_space_group_symop_operation_xyz
x,y,z
1/2-x,1/2-y,z
x,1/2-y,-z
1/2-x,y,-z
-x,-y,-z
1/2+x,1/2+y,-z
-x,1/2+y,z
1/2+x,-y,z
loop_
_atom_site_type_symbol
_atom_site_label
_atom_site_fract_x
_atom_site_fract_y
_atom_site_fract_z
Si Si1 0.993508 0.861345 0.863101
Si Si2 0.750000 0.081812 0.500000
Si Si3 0.117355 0.980999 0.732048
Si Si4 0.839970 0.142583 0.783928
Si Si5 0.127626 0.750000 0.000000
Si Si6 0.750000 0.040725 0.000000
Si Si7 0.042509 0.120634 0.795279
Si Si8 0.353337 0.247126 0.815234
O O1 0.044535 0.920312 0.764777
O O2 0.065992 0.804898 0.912676
O O3 0.911759 0.821587 0.768521
O O4 0.952396 0.894823 0.019613
O O5 0.829879 0.035408 0.428258
O O6 0.780545 0.133629 0.632648
O O7 0.189589 0.998416 0.871217
O O8 0.066371 0.051866 0.702461
O O9 0.944297 0.143752 0.737260
O O10 0.810830 0.212672 0.870394
O O11 0.825131 0.082923 0.907691
O O12 0.105132 0.183794 0.744666
O O13 0.250000 0.250000 0.753615
O O14 0.357454 0.250000 0.000000
#
# Coordination Sequence:
#
# PCOD8204755 Si02
#       8
#     8   4   8   8   4   4   8   8
#     4  10  17  34  59  92 124 154 204 261 325 376
#     4  10  26  44  53  94 131 160 220 258 322 392
#     4  11  22  38  59  91 127 168 211 269 316 388
#     4  10  20  39  61  84 121 162 202 259 314 388
#     4  10  16  35  63  82 116 166 196 248 317 377
#     4  10  20  33  56  86 123 146 206 266 304 368
#     4  10  19  35  64  89 121 167 212 257 329 374
#     4   9  17  32  56  92 124 151 194 263 322 377
#
# _framework density 20.925834999999999
#
# number of rings (size 3 to 8) (size 9 to 14) (size 15 to 20)
#    0.000    2.000    6.923    0.462    0.000    3.385 
#    2.769    1.538    0.000    0.000    0.000    0.000 
#    0.000    0.000    0.000    0.000    0.000    0.000 
#
# Total GULP energy -644267.272742 kJ/mol
# GULP energy per Si atom -12389.755245 kJ/mol
# Density = 2.087821 g / cm^3
# Si number density = 20.925835 Si / 1000 Ang^3
#
#
#
# Elastic Constant Matrix: (Units=GPa)
#
#
# Indices 1 2 3 4 5 6 
#
# 1 88.8890 46.3296 10.9102 0.0000 0.0000 0.0000
# 2 46.3296 129.3081 28.4933 0.0000 0.0000 0.0000
# 3 10.9102 28.4933 66.2159 0.0000 0.0000 0.0000
# 4 0.0000 0.0000 0.0000 11.1956 0.0000 0.0000
# 5 0.0000 0.0000 0.0000 0.0000 16.0482 0.0000
# 6 0.0000 0.0000 0.0000 0.0000 0.0000 2.9999
#
#
#
# Elastic Compliance Matrix: (Units=1/GPa)
#
#
# Indices 1 2 3 4 5 6 
#
# 1 0.013835 -0.004921 -0.000162 0.000000 0.000000 0.000000
# 2 -0.004921 0.010294 -0.003619 0.000000 0.000000 0.000000
# 3 -0.000162 -0.003619 0.016686 0.000000 0.000000 0.000000
# 4 0.000000 0.000000 0.000000 0.089320 0.000000 0.000000
# 5 0.000000 0.000000 0.000000 0.000000 0.062312 0.000000
# 6 0.000000 0.000000 0.000000 0.000000 0.000000 0.333347
#
#
# Mechanical properties :
#
#
# Convention : Reuss Voigt Hill
#
# Bulk Modulus (GPa) = 42.71469 50.65325 46.68397
# Shear Modulus (GPa) = 9.07438 19.29406 14.18422
#
# Velocity S-wave (km/s) = 2.08467 3.03977 2.60635
# Velocity P-wave (km/s) = 5.12359 6.04805 5.60492
#
# Compressibility (1/GPa) = 0.02341115
#
# Stress axis : x y z
#
# Youngs Moduli (GPa) = 72.28143 97.14322 59.93053
#
# Poissons Ratio (x) = 0.47806 0.00970
# Poissons Ratio (y) = 0.35571 0.21688
# Poissons Ratio (z) = 0.01170 0.35154
#
# Static dielectric constant tensor:
#      x y z
#    x 4.134410 0.000000 0.000000 
#    y 0.000000 3.823150 0.000000 
#    z 0.000000 0.000000 3.502040 
# 
# 
# High freq. dielectric constant tensor:
#      x y z
#    x 1.834610 0.000000 0.000000 
#    y 0.000000 1.814340 0.000000 
#    z 0.000000 0.000000 1.769600 
# 
# From -- ./inp_files/13260.got.cif
#   From: 2010.03.12/outbox.cif.g09.slc.cpg/sg50_7_cif.got.tgz:13260.got - 2010.04.16 13:23:21.
