data_PCOD8204733
_publ_section_title
;
Structure prediction by ZEFSAII (Michael W. Deem and Ramdas Pophale) SiO2 
 PCOD8204733
Probable space group: P B A N
;
_chemical_formula_sum "Si O2"
_cell_formula_units_Z 56
_cell_length_a 26.552347
_cell_length_b 5.153081
_cell_length_c 24.294351
_cell_angle_alpha 90.000000
_cell_angle_beta 90.000000
_cell_angle_gamma 90.000000
_cell_volume 3324.108462
_symmetry_space_group_name_H-M "P B A N"
_symmetry_group_IT_number 50
_space_group.IT_coordinate_system_code '2'
_symmetry_cell_setting 'orthorhombic'
loop_
_space_group_symop_operation_xyz
x,y,z
1/2-x,1/2-y,z
x,1/2-y,-z
1/2-x,y,-z
-x,-y,-z
1/2+x,1/2+y,-z
-x,1/2+y,z
1/2+x,-y,z
loop_
_atom_site_type_symbol
_atom_site_label
_atom_site_fract_x
_atom_site_fract_y
_atom_site_fract_z
Si Si1 0.693353 0.248784 0.065423
Si Si2 0.530924 0.559241 0.750601
Si Si3 0.227678 0.501192 0.561338
Si Si4 0.465216 0.199571 0.865446
Si Si5 0.612433 0.499939 0.536654
Si Si6 0.133163 0.247579 0.065331
Si Si7 0.032764 0.398020 0.629660
O O1 0.750000 0.250000 0.089701
O O2 0.660494 0.491996 0.086740
O O3 0.667127 0.988574 0.086576
O O4 0.696009 0.250000 0.000000
O O5 0.517486 0.253967 0.753448
O O6 0.561618 0.652971 0.805061
O O7 0.557290 0.597623 0.691199
O O8 0.250000 0.250000 0.592626
O O9 0.250000 0.499866 0.500000
O O10 0.167997 0.514374 0.561218
O O11 0.250000 0.750000 0.593217
O O12 0.495514 0.465900 0.872801
O O13 0.422364 0.208769 0.911010
O O14 0.605455 0.750000 0.500000
O O15 0.575892 0.525320 0.587812
O O16 0.599200 0.250000 0.500000
O O17 0.127496 0.250000 0.000000
O O18 0.988278 0.608050 0.620827
#
# Coordination Sequence:
#
# PCOD8204733 Si02
#       7
#     8   8   8   8   8   8   8
#     4   9  17  30  46  64  92 125 160 196 230 276
#     4   8  16  32  50  63  83 118 160 194 217 252
#     4  10  16  30  46  63  87 115 146 185 209 245
#     4  10  19  31  48  69  93 125 160 191 227 278
#     4  12  21  30  48  70  93 121 151 175 224 282
#     4  10  19  29  44  70  99 124 154 193 240 286
#     4  10  21  35  47  66  95 123 150 186 224 266
#
# _framework density 16.846622
#
# number of rings (size 3 to 8) (size 9 to 14) (size 15 to 20)
#    0.000    2.143    2.857    2.143    0.000    4.000 
#    0.000    0.000    0.000    0.000    0.000    3.000 
#    0.000    0.000    0.000    0.000    0.000    0.000 
#
# Total GULP energy -693782.504460 kJ/mol
# GULP energy per Si atom -12388.973294 kJ/mol
# Density = 1.680828 g / cm^3
# Si number density = 16.846622 Si / 1000 Ang^3
#
#
#
# Elastic Constant Matrix: (Units=GPa)
#
#
# Indices 1 2 3 4 5 6 
#
# 1 85.5858 30.3076 43.9752 0.0000 0.0000 0.0000
# 2 30.3076 134.7014 29.6008 0.0000 0.0000 0.0000
# 3 43.9752 29.6008 59.0009 0.0000 0.0000 0.0000
# 4 0.0000 0.0000 0.0000 11.4466 0.0000 0.0000
# 5 0.0000 0.0000 0.0000 0.0000 -0.5508 0.0000
# 6 0.0000 0.0000 0.0000 0.0000 0.0000 28.3638
#
#
#
# Elastic Compliance Matrix: (Units=1/GPa)
#
#
# Indices 1 2 3 4 5 6 
#
# 1 0.019142 -0.001317 -0.013606 0.000000 0.000000 0.000000
# 2 -0.001317 0.008434 -0.003250 0.000000 0.000000 0.000000
# 3 -0.013606 -0.003250 0.028721 0.000000 0.000000 0.000000
# 4 0.000000 0.000000 0.000000 0.087362 0.000000 0.000000
# 5 0.000000 0.000000 0.000000 0.000000 -1.815489 0.000000
# 6 0.000000 0.000000 0.000000 0.000000 0.000000 0.035256
#
#
# Mechanical properties :
#
#
# Convention : Reuss Voigt Hill
#
# Bulk Modulus (GPa) = 50.12437 54.11727 52.12082
# Shear Modulus (GPa) = -3.13759 19.54554 8.20397
#
# Velocity S-wave (km/s) = -1.36620 3.40987 2.20916
# Velocity P-wave (km/s) = 5.22774 6.90625 6.12477
#
# Compressibility (1/GPa) = 0.01995038
#
# Stress axis : x y z
#
# Youngs Moduli (GPa) = 52.24242 118.56336 34.81829
#
# Poissons Ratio (x) = 0.15613 0.47374
# Poissons Ratio (y) = 0.06880 0.11316
# Poissons Ratio (z) = 0.71082 0.38533
#
# Static dielectric constant tensor:
#      x y z
#    x 3.184090 0.000000 0.000000 
#    y 0.000000 3.360710 0.000000 
#    z 0.000000 0.000000 3.035350 
# 
# 
# High freq. dielectric constant tensor:
#      x y z
#    x 1.624220 0.000000 0.000000 
#    y 0.000000 1.684700 0.000000 
#    z 0.000000 0.000000 1.612630 
# 
# From -- ./inp_files/31908.got.cif
#   From: 2010.03.12/outbox.cif.g09.slc.cpg/sg50_16_cif.got.tgz:31908.got - 2010.04.16 13:23:21.
