data_PCOD8204509
_publ_section_title
;
Structure prediction by ZEFSAII (Michael W. Deem and Ramdas Pophale) SiO2 
 PCOD8204509
Probable space group: P C C M
;
_chemical_formula_sum "Si O2"
_cell_formula_units_Z 34
_cell_length_a 9.458533
_cell_length_b 20.320144
_cell_length_c 8.819593
_cell_angle_alpha 90.000000
_cell_angle_beta 90.000000
_cell_angle_gamma 90.000000
_cell_volume 1695.114773
_symmetry_space_group_name_H-M "P C C M"
_symmetry_group_IT_number 49
_symmetry_cell_setting 'orthorhombic'
loop_
_space_group_symop_operation_xyz
x,y,z
-x,-y,z
x,-y,1/2-z
-x,y,1/2-z
-x,-y,-z
x,y,-z
-x,y,1/2+z
x,-y,1/2+z
loop_
_atom_site_type_symbol
_atom_site_label
_atom_site_fract_x
_atom_site_fract_y
_atom_site_fract_z
Si Si1 0.352589 0.202830 0.321053
Si Si2 0.153361 0.678046 0.819706
Si Si3 0.000000 0.000000 0.750000
Si Si4 0.727415 0.061629 0.834299
Si Si5 0.646980 0.571546 0.818092
O O1 0.500000 0.225216 0.250000
O O2 0.369246 0.199723 0.500000
O O3 0.235521 0.255685 0.275013
O O4 0.305424 0.131444 0.253749
O O5 0.226098 0.616928 0.737070
O O6 0.000000 0.685867 0.750000
O O7 0.148214 0.666294 0.000000
O O8 0.102815 0.951813 0.846461
O O9 0.653023 0.000000 0.750000
O O10 0.660904 0.064239 0.000000
O O11 0.676454 0.500000 0.750000
O O12 0.500000 0.599495 0.750000
O O13 0.638799 0.568851 0.000000
#
# Coordination Sequence:
#
# PCOD8204509 Si02
#       5
#     8   8   2   8   8
#     4  10  23  41  59  84 117 155 199 246 297 359
#     4  11  24  41  62  90 123 158 202 250 303 361
#     4   8  18  32  56  76 118 144 190 232 298 344
#     4   9  19  34  55  81 110 147 192 239 291 350
#     4  11  22  40  66  95 127 163 204 246 295 352
#
# _framework density 20.057639000000002
#
# number of rings (size 3 to 8) (size 9 to 14) (size 15 to 20)
#    0.706    1.176    0.000    4.588    1.647    5.647 
#    0.000    4.706    0.000    0.000    0.000    0.000 
#    0.000    0.000    0.000    0.000    0.000    0.000 
#
# Total GULP energy -421399.630784 kJ/mol
# GULP energy per Si atom -12394.106788 kJ/mol
# Density = 2.001199 g / cm^3
# Si number density = 20.057639 Si / 1000 Ang^3
#
#
#
# Elastic Constant Matrix: (Units=GPa)
#
#
# Indices 1 2 3 4 5 6 
#
# 1 146.4635 76.0309 51.5403 0.0000 0.0000 0.0000
# 2 76.0309 131.4780 58.4193 0.0000 0.0000 0.0000
# 3 51.5403 58.4193 108.9178 0.0000 0.0000 0.0000
# 4 0.0000 0.0000 0.0000 -24.1612 0.0000 0.0000
# 5 0.0000 0.0000 0.0000 0.0000 32.9272 0.0000
# 6 0.0000 0.0000 0.0000 0.0000 0.0000 33.0058
#
#
#
# Elastic Compliance Matrix: (Units=1/GPa)
#
#
# Indices 1 2 3 4 5 6 
#
# 1 0.010132 -0.004896 -0.002169 0.000000 0.000000 0.000000
# 2 -0.004896 0.012351 -0.004308 0.000000 0.000000 0.000000
# 3 -0.002169 -0.004308 0.012518 0.000000 0.000000 0.000000
# 4 0.000000 0.000000 0.000000 -0.041389 0.000000 0.000000
# 5 0.000000 0.000000 0.000000 0.000000 0.030370 0.000000
# 6 0.000000 0.000000 0.000000 0.000000 0.000000 0.030298
#
#
# Mechanical properties :
#
#
# Convention : Reuss Voigt Hill
#
# Bulk Modulus (GPa) = 81.58855 84.31559 82.95207
# Shear Modulus (GPa) = 61.64422 21.74562 41.69492
#
# Velocity S-wave (km/s) = 5.54980 3.29623 4.56428
# Velocity P-wave (km/s) = 9.04612 7.52427 8.32007
#
# Compressibility (1/GPa) = 0.01225662
#
# Stress axis : x y z
#
# Youngs Moduli (GPa) = 98.69545 80.96514 79.88398
#
# Poissons Ratio (x) = 0.39637 0.17325
# Poissons Ratio (y) = 0.48317 0.34414
# Poissons Ratio (z) = 0.21405 0.34880
#
# Static dielectric constant tensor:
#      x y z
#    x 3.549730 0.000000 0.000000 
#    y 0.000000 3.883110 0.000000 
#    z 0.000000 0.000000 3.563270 
# 
# 
# High freq. dielectric constant tensor:
#      x y z
#    x 1.780590 0.000000 0.000000 
#    y 0.000000 1.794980 0.000000 
#    z 0.000000 0.000000 1.780450 
# 
# From -- ./inp_files/1542.got.cif
#   From: 2010.03.12/outbox.cif.g09.slc.cpg/sg49_1_cif.got.tgz:1542.got - 2010.04.14 03:58:27.
