data_PCOD8204160
_publ_section_title
;
Structure prediction by ZEFSAII (Michael W. Deem and Ramdas Pophale) SiO2 
 PCOD8204160
Probable space group: P C C M
;
_chemical_formula_sum "Si O2"
_cell_formula_units_Z 48
_cell_length_a 30.600383
_cell_length_b 9.370382
_cell_length_c 8.580715
_cell_angle_alpha 90.000000
_cell_angle_beta 90.000000
_cell_angle_gamma 90.000000
_cell_volume 2460.410863
_symmetry_space_group_name_H-M "P C C M"
_symmetry_group_IT_number 49
_symmetry_cell_setting 'orthorhombic'
loop_
_space_group_symop_operation_xyz
x,y,z
-x,-y,z
x,-y,1/2-z
-x,y,1/2-z
-x,-y,-z
x,y,-z
-x,y,1/2+z
x,-y,1/2+z
loop_
_atom_site_type_symbol
_atom_site_label
_atom_site_fract_x
_atom_site_fract_y
_atom_site_fract_z
Si Si1 0.546204 0.848415 0.818102
Si Si2 0.125176 0.347577 0.315402
Si Si3 0.627908 0.342104 0.683627
Si Si4 0.781880 0.655811 0.815571
Si Si5 0.955391 0.843788 0.316374
Si Si6 0.294356 0.157332 0.315847
O O1 0.500000 0.797318 0.750000
O O2 0.581512 0.728690 0.776363
O O3 0.561470 0.000000 0.750000
O O4 0.540743 0.869400 0.000000
O O5 0.111767 0.500000 0.250000
O O6 0.131366 0.354101 0.500000
O O7 0.170216 0.295070 0.238941
O O8 0.086568 0.244157 0.261730
O O9 0.627478 0.500000 0.750000
O O10 0.637643 0.343341 0.500000
O O11 0.664833 0.253554 0.770136
O O12 0.769376 0.500000 0.750000
O O13 0.749193 0.775263 0.754887
O O14 0.779806 0.647231 0.000000
O O15 0.959248 0.849759 0.500000
O O16 0.000000 0.773643 0.250000
O O17 0.949169 0.000000 0.250000
O O18 0.289854 0.149845 0.500000
O O19 0.301521 0.000000 0.250000
#
# Coordination Sequence:
#
# PCOD8204160 Si02
#       6
#     8   8   8   8   8   8
#     4  10  21  37  60  87 118 154 195 240 290 344
#     4  10  21  37  57  84 114 148 189 234 282 337
#     4  11  24  41  61  88 119 156 197 241 291 344
#     4  11  22  39  62  87 117 153 190 234 285 341
#     4  10  21  36  56  80 110 146 187 232 281 336
#     4  12  25  42  63  88 118 152 192 239 287 343
#
# _framework density 19.508935999999999
#
# number of rings (size 3 to 8) (size 9 to 14) (size 15 to 20)
#    0.000    1.333    0.000    8.000    0.000    8.000 
#    0.000    5.000    0.000    0.000    0.000    0.000 
#    0.000    0.000    0.000    0.000    0.000    0.000 
#
# Total GULP energy -595390.817173 kJ/mol
# GULP energy per Si atom -12403.975358 kJ/mol
# Density = 1.946453 g / cm^3
# Si number density = 19.508936 Si / 1000 Ang^3
#
#
#
# Elastic Constant Matrix: (Units=GPa)
#
#
# Indices 1 2 3 4 5 6 
#
# 1 142.5361 87.5377 66.6328 0.0000 0.0000 0.0000
# 2 87.5377 124.3543 50.4465 0.0000 0.0000 0.0000
# 3 66.6328 50.4465 135.5329 0.0000 0.0000 0.0000
# 4 0.0000 0.0000 0.0000 22.5836 0.0000 0.0000
# 5 0.0000 0.0000 0.0000 0.0000 48.3087 0.0000
# 6 0.0000 0.0000 0.0000 0.0000 0.0000 46.9486
#
#
#
# Elastic Compliance Matrix: (Units=1/GPa)
#
#
# Indices 1 2 3 4 5 6 
#
# 1 0.013794 -0.008196 -0.003731 0.000000 0.000000 0.000000
# 2 -0.008196 0.014342 -0.001309 0.000000 0.000000 0.000000
# 3 -0.003731 -0.001309 0.009699 0.000000 0.000000 0.000000
# 4 0.000000 0.000000 0.000000 0.044280 0.000000 0.000000
# 5 0.000000 0.000000 0.000000 0.000000 0.020700 0.000000
# 6 0.000000 0.000000 0.000000 0.000000 0.000000 0.021300
#
#
# Mechanical properties :
#
#
# Convention : Reuss Voigt Hill
#
# Bulk Modulus (GPa) = 87.99827 90.18414 89.09120
# Shear Modulus (GPa) = 32.38879 36.75526 34.57202
#
# Velocity S-wave (km/s) = 4.07898 4.34524 4.21421
# Velocity P-wave (km/s) = 8.20906 8.45590 8.33339
#
# Compressibility (1/GPa) = 0.01136386
#
# Stress axis : x y z
#
# Youngs Moduli (GPa) = 72.49780 69.72455 103.09833
#
# Poissons Ratio (x) = 0.57149 0.38462
# Poissons Ratio (y) = 0.59422 0.13492
# Poissons Ratio (z) = 0.27046 0.09124
#
# Static dielectric constant tensor:
#      x y z
#    x 3.992790 0.000000 0.000000 
#    y 0.000000 3.626010 0.000000 
#    z 0.000000 0.000000 3.771680 
# 
# 
# High freq. dielectric constant tensor:
#      x y z
#    x 1.777510 0.000000 0.000000 
#    y 0.000000 1.759610 0.000000 
#    z 0.000000 0.000000 1.781650 
# 
# From -- ./inp_files/6860.got.cif
#   From: 2010.03.12/outbox.cif.g09.slc.cpg/sg49_4_cif.got.tgz:6860.got - 2010.04.14 03:58:27.
