data_PCOD8204642
_publ_section_title
;
Structure prediction by ZEFSAII (Michael W. Deem and Ramdas Pophale) SiO2 
 PCOD8204642
Probable space group: P C C M
;
_chemical_formula_sum "Si O2"
_cell_formula_units_Z 64
_cell_length_a 15.932831
_cell_length_b 9.056514
_cell_length_c 21.589921
_cell_angle_alpha 90.000000
_cell_angle_beta 90.000000
_cell_angle_gamma 90.000000
_cell_volume 3115.337233
_symmetry_space_group_name_H-M "P C C M"
_symmetry_group_IT_number 49
_symmetry_cell_setting 'orthorhombic'
loop_
_space_group_symop_operation_xyz
x,y,z
-x,-y,z
x,-y,1/2-z
-x,y,1/2-z
-x,-y,-z
x,y,-z
-x,y,1/2+z
x,-y,1/2+z
loop_
_atom_site_type_symbol
_atom_site_label
_atom_site_fract_x
_atom_site_fract_y
_atom_site_fract_z
Si Si1 0.715369 0.784022 0.342478
Si Si2 0.292225 0.484527 0.568883
Si Si3 0.577961 0.253135 0.570692
Si Si4 0.877728 0.827828 0.268605
Si Si5 0.146377 0.705216 0.569597
Si Si6 0.730717 0.049878 0.571835
Si Si7 0.020423 0.330835 0.168675
Si Si8 0.528826 0.833116 0.684122
O O1 0.702454 0.628336 0.375200
O O2 0.783670 0.783786 0.287776
O O3 0.628633 0.831397 0.312281
O O4 0.745508 0.897618 0.394161
O O5 0.302369 0.413293 0.500000
O O6 0.366501 0.601422 0.578441
O O7 0.200824 0.556989 0.573388
O O8 0.540324 0.247446 0.500000
O O9 0.636457 0.110398 0.582015
O O10 0.505297 0.254418 0.623121
O O11 0.903022 0.722434 0.212012
O O12 0.941837 0.781347 0.324001
O O13 0.886292 0.000000 0.250000
O O14 0.126085 0.748972 0.500000
O O15 0.200980 0.836977 0.600125
O O16 0.055641 0.681048 0.599663
O O17 0.747380 0.025037 0.500000
O O18 0.000000 0.500000 0.185386
O O19 0.500000 0.762394 0.750000
O O20 0.500000 0.000000 0.679060
#
# Coordination Sequence:
#
# PCOD8204642 Si02
#       8
#     8   8   8   8   8   8   8   8
#     4  12  23  38  62  88 118 165 202 252 316 372
#     4   9  20  38  62  94 130 158 202 260 313 373
#     4   9  19  40  64  88 121 167 210 253 308 372
#     4  11  25  40  60  86 120 160 204 253 306 355
#     4   9  19  38  63  90 122 158 192 245 312 369
#     4   9  18  34  59  89 119 155 204 248 294 365
#     4  11  22  41  64  88 119 154 207 254 288 371
#     4  11  25  41  60  91 128 156 208 269 318 375
#
# _framework density 20.543521999999999
#
# number of rings (size 3 to 8) (size 9 to 14) (size 15 to 20)
#    0.000    1.875    1.250    4.875    1.750    4.000 
#    0.000    5.000    0.000    3.000    0.000    0.000 
#    0.000    0.000    0.000    0.000    0.000    0.000 
#
# Total GULP energy -793371.240948 kJ/mol
# GULP energy per Si atom -12396.425640 kJ/mol
# Density = 2.049676 g / cm^3
# Si number density = 20.543522 Si / 1000 Ang^3
#
#
#
# Elastic Constant Matrix: (Units=GPa)
#
#
# Indices 1 2 3 4 5 6 
#
# 1 135.1164 32.8844 60.7417 0.0000 0.0000 0.0000
# 2 32.8844 89.3228 36.2772 0.0000 0.0000 0.0000
# 3 60.7417 36.2772 95.7250 0.0000 0.0000 0.0000
# 4 0.0000 0.0000 0.0000 19.4437 0.0000 0.0000
# 5 0.0000 0.0000 0.0000 0.0000 42.7485 0.0000
# 6 0.0000 0.0000 0.0000 0.0000 0.0000 15.4662
#
#
#
# Elastic Compliance Matrix: (Units=1/GPa)
#
#
# Indices 1 2 3 4 5 6 
#
# 1 0.010495 -0.001370 -0.006140 0.000000 0.000000 0.000000
# 2 -0.001370 0.013411 -0.004213 0.000000 0.000000 0.000000
# 3 -0.006140 -0.004213 0.015939 0.000000 0.000000 0.000000
# 4 0.000000 0.000000 0.000000 0.051431 0.000000 0.000000
# 5 0.000000 0.000000 0.000000 0.000000 0.023393 0.000000
# 6 0.000000 0.000000 0.000000 0.000000 0.000000 0.064657
#
#
# Mechanical properties :
#
#
# Convention : Reuss Voigt Hill
#
# Bulk Modulus (GPa) = 60.98073 64.44119 62.71096
# Shear Modulus (GPa) = 24.01098 28.21574 26.11336
#
# Velocity S-wave (km/s) = 3.42246 3.71004 3.56915
# Velocity P-wave (km/s) = 6.73541 7.05612 6.89763
#
# Compressibility (1/GPa) = 0.01639862
#
# Stress axis : x y z
#
# Youngs Moduli (GPa) = 95.28544 74.56698 62.73728
#
# Poissons Ratio (x) = 0.10215 0.38522
# Poissons Ratio (y) = 0.13053 0.26432
# Poissons Ratio (z) = 0.58508 0.31415
#
# Static dielectric constant tensor:
#      x y z
#    x 3.776390 0.000000 0.000000 
#    y 0.000000 3.663480 0.000000 
#    z 0.000000 0.000000 3.804060 
# 
# 
# High freq. dielectric constant tensor:
#      x y z
#    x 1.799730 0.000000 0.000000 
#    y 0.000000 1.798260 0.000000 
#    z 0.000000 0.000000 1.804250 
# 
# From -- ./inp_files/23218.got.cif
#   From: 2010.03.12/outbox.cif.g09.slc.cpg/sg49_12_cif.got.tgz:23218.got - 2010.04.14 03:58:27.
