data_PCOD8204797
_publ_section_title
;
Structure prediction by ZEFSAII (Michael W. Deem and Ramdas Pophale) SiO2 
 PCOD8204797
Probable space group: P B A N
;
_chemical_formula_sum "Si O2"
_cell_formula_units_Z 56
_cell_length_a 27.752948
_cell_length_b 27.112076
_cell_length_c 4.973513
_cell_angle_alpha 90.000000
_cell_angle_beta 90.000000
_cell_angle_gamma 90.000000
_cell_volume 3742.270298
_symmetry_space_group_name_H-M "P B A N"
_symmetry_group_IT_number 50
_space_group.IT_coordinate_system_code '2'
_symmetry_cell_setting 'orthorhombic'
loop_
_space_group_symop_operation_xyz
x,y,z
1/2-x,1/2-y,z
x,1/2-y,-z
1/2-x,y,-z
-x,-y,-z
1/2+x,1/2+y,-z
-x,1/2+y,z
1/2+x,-y,z
loop_
_atom_site_type_symbol
_atom_site_label
_atom_site_fract_x
_atom_site_fract_y
_atom_site_fract_z
Si Si1 0.439904 0.781637 0.243145
Si Si2 0.484319 0.426237 0.963331
Si Si3 0.163450 0.694988 0.071502
Si Si4 0.577457 0.012353 0.044128
Si Si5 0.387040 0.936343 0.475874
Si Si6 0.519229 0.124364 0.521574
Si Si7 0.195726 0.862709 0.443233
O O1 0.421652 0.750000 0.500000
O O2 0.394696 0.808510 0.097651
O O3 0.478562 0.820174 0.362539
O O4 0.464456 0.750000 0.000000
O O5 0.526245 0.463792 0.876531
O O6 0.491791 0.409242 0.265800
O O7 0.433069 0.455489 0.958595
O O8 0.487310 0.380401 0.752064
O O9 0.185000 0.682804 0.360654
O O10 0.180171 0.750000 0.000000
O O11 0.184025 0.655737 0.857780
O O12 0.605887 0.041348 0.816584
O O13 0.609856 0.018561 0.311067
O O14 0.426480 0.893837 0.534898
O O15 0.335291 0.910972 0.489164
O O16 0.250000 0.879561 0.500000
#
# Coordination Sequence:
#
# PCOD8204797 Si02
#       7
#     8   8   8   8   8   8   8
#     4  11  21  32  47  64  83 109 143 173 209 261
#     4   9  17  27  43  67  83 102 125 156 197 249
#     4  11  23  36  50  60  75 101 137 184 227 269
#     4   9  17  29  44  63  85 101 124 153 198 262
#     4  10  19  30  46  59  80 107 127 161 214 255
#     4  10  18  28  46  61  84 106 131 164 205 247
#     4  12  24  36  48  63  79 101 139 177 225 272
#
# _framework density 14.964180000000001
#
# number of rings (size 3 to 8) (size 9 to 14) (size 15 to 20)
#    0.000    1.714    1.429    5.143    4.000    5.143 
#    0.000    0.000    0.000    0.000    0.000    0.000 
#    0.000    0.000    0.000    0.000    0.000    0.000 
#
# Total GULP energy -694188.644318 kJ/mol
# GULP energy per Si atom -12396.225791 kJ/mol
# Density = 1.493012 g / cm^3
# Si number density = 14.964180 Si / 1000 Ang^3
#
#
#
# Elastic Constant Matrix: (Units=GPa)
#
#
# Indices 1 2 3 4 5 6 
#
# 1 45.1383 40.5100 16.4408 0.0000 0.0000 0.0000
# 2 40.5100 58.4266 22.4017 0.0000 0.0000 0.0000
# 3 16.4408 22.4017 78.7241 0.0000 0.0000 0.0000
# 4 0.0000 0.0000 0.0000 27.6738 0.0000 0.0000
# 5 0.0000 0.0000 0.0000 0.0000 11.4706 0.0000
# 6 0.0000 0.0000 0.0000 0.0000 0.0000 17.1955
#
#
#
# Elastic Compliance Matrix: (Units=1/GPa)
#
#
# Indices 1 2 3 4 5 6 
#
# 1 0.058689 -0.040400 -0.000760 0.000000 0.000000 0.000000
# 2 -0.040400 0.047022 -0.004943 0.000000 0.000000 0.000000
# 3 -0.000760 -0.004943 0.014268 0.000000 0.000000 0.000000
# 4 0.000000 0.000000 0.000000 0.036135 0.000000 0.000000
# 5 0.000000 0.000000 0.000000 0.000000 0.087179 0.000000
# 6 0.000000 0.000000 0.000000 0.000000 0.000000 0.058155
#
#
# Mechanical properties :
#
#
# Convention : Reuss Voigt Hill
#
# Bulk Modulus (GPa) = 36.00855 37.88822 36.94839
# Shear Modulus (GPa) = 12.40958 18.13041 15.26999
#
# Velocity S-wave (km/s) = 2.88286 3.48456 3.19789
# Velocity P-wave (km/s) = 5.93267 6.44700 6.19517
#
# Compressibility (1/GPa) = 0.02777118
#
# Stress axis : x y z
#
# Youngs Moduli (GPa) = 17.03897 21.26643 70.08650
#
# Poissons Ratio (x) = 0.85917 0.05329
# Poissons Ratio (y) = 0.68838 0.34647
# Poissons Ratio (z) = 0.01295 0.10513
#
# Static dielectric constant tensor:
#      x y z
#    x 2.542070 0.000000 0.000000 
#    y 0.000000 2.825070 0.000000 
#    z 0.000000 0.000000 3.156120 
# 
# 
# High freq. dielectric constant tensor:
#      x y z
#    x 1.508860 0.000000 0.000000 
#    y 0.000000 1.548000 0.000000 
#    z 0.000000 0.000000 1.603790 
# 
# From -- ./inp_files/6190.got.cif
#   From: 2010.03.12/outbox.cif.g09.slc.cpg/sg50_4_cif.got.tgz:6190.got - 2010.04.16 13:23:21.
