data_PCOD8204673
_publ_section_title
;
Structure prediction by ZEFSAII (Michael W. Deem and Ramdas Pophale) SiO2 
 PCOD8204673
Probable space group: P C C M
;
_chemical_formula_sum "Si O2"
_cell_formula_units_Z 48
_cell_length_a 13.456399
_cell_length_b 8.597756
_cell_length_c 18.019156
_cell_angle_alpha 90.000000
_cell_angle_beta 90.000000
_cell_angle_gamma 90.000000
_cell_volume 2084.723285
_symmetry_space_group_name_H-M "P C C M"
_symmetry_group_IT_number 49
_symmetry_cell_setting 'orthorhombic'
loop_
_space_group_symop_operation_xyz
x,y,z
-x,-y,z
x,-y,1/2-z
-x,y,1/2-z
-x,-y,-z
x,y,-z
-x,y,1/2+z
x,-y,1/2+z
loop_
_atom_site_type_symbol
_atom_site_label
_atom_site_fract_x
_atom_site_fract_y
_atom_site_fract_z
Si Si1 0.603118 0.911788 0.358287
Si Si2 0.149923 0.383893 0.586531
Si Si3 0.699232 0.660576 0.720264
Si Si4 0.356079 0.358492 0.000000
Si Si5 0.412387 0.709480 0.000000
Si Si6 0.247517 0.188130 0.864615
Si Si7 0.056105 0.278296 0.083320
O O1 0.611023 0.786645 0.291430
O O2 0.617305 0.813915 0.431671
O O3 0.500000 0.000000 0.352279
O O4 0.695169 0.028172 0.353675
O O5 0.177333 0.339914 0.500000
O O6 0.239815 0.354229 0.643370
O O7 0.119057 0.563093 0.588976
O O8 0.053837 0.288664 0.619012
O O9 0.651071 0.500000 0.750000
O O10 0.765968 0.720110 0.787784
O O11 0.351310 0.546849 0.000000
O O12 0.470011 0.311654 0.000000
O O13 0.303279 0.292819 0.926725
O O14 0.132456 0.148710 0.885257
O O15 0.032148 0.235175 0.000000
#
# Coordination Sequence:
#
# PCOD8204673 Si02
#       7
#     8   8   8   4   4   8   8
#     4  12  27  48  70 101 147 192 238 295 372 428
#     4   9  20  41  67 106 141 183 236 302 351 419
#     4  12  26  44  70 105 138 188 245 295 358 425
#     4  11  23  44  75 108 143 179 253 305 339 438
#     4  11  24  45  74 106 133 192 249 298 358 421
#     4  12  23  42  68 104 146 192 231 291 362 433
#     4   9  18  36  70 103 143 182 234 292 360 420
#
# _framework density 23.024639000000001
#
# number of rings (size 3 to 8) (size 9 to 14) (size 15 to 20)
#    0.000    1.167    4.167    3.250    1.167    2.000 
#    0.000    1.667    0.000    4.000    0.000    0.000 
#    0.000    0.000    0.000    0.000    0.000    0.000 
#
# Total GULP energy -594682.275918 kJ/mol
# GULP energy per Si atom -12389.214082 kJ/mol
# Density = 2.297223 g / cm^3
# Si number density = 23.024639 Si / 1000 Ang^3
#
#
#
# Elastic Constant Matrix: (Units=GPa)
#
#
# Indices 1 2 3 4 5 6 
#
# 1 58.9619 54.7087 30.3508 0.0000 0.0000 0.0000
# 2 54.7087 121.9306 45.7835 0.0000 0.0000 0.0000
# 3 30.3508 45.7835 122.9376 0.0000 0.0000 0.0000
# 4 0.0000 0.0000 0.0000 30.7162 0.0000 0.0000
# 5 0.0000 0.0000 0.0000 0.0000 4.2402 0.0000
# 6 0.0000 0.0000 0.0000 0.0000 0.0000 32.9218
#
#
#
# Elastic Compliance Matrix: (Units=1/GPa)
#
#
# Indices 1 2 3 4 5 6 
#
# 1 0.029846 -0.012352 -0.002768 0.000000 0.000000 0.000000
# 2 -0.012352 0.014647 -0.002405 0.000000 0.000000 0.000000
# 3 -0.002768 -0.002405 0.009713 0.000000 0.000000 0.000000
# 4 0.000000 0.000000 0.000000 0.032556 0.000000 0.000000
# 5 0.000000 0.000000 0.000000 0.000000 0.235840 0.000000
# 6 0.000000 0.000000 0.000000 0.000000 0.000000 0.030375
#
#
# Mechanical properties :
#
#
# Convention : Reuss Voigt Hill
#
# Bulk Modulus (GPa) = 52.20540 62.83510 57.52025
# Shear Modulus (GPa) = 12.67705 25.10810 18.89258
#
# Velocity S-wave (km/s) = 2.34900 3.30584 2.86761
# Velocity P-wave (km/s) = 5.48453 6.47465 6.00004
#
# Compressibility (1/GPa) = 0.01915511
#
# Stress axis : x y z
#
# Youngs Moduli (GPa) = 33.50502 68.27454 102.95109
#
# Poissons Ratio (x) = 0.84334 0.28500
# Poissons Ratio (y) = 0.41386 0.24761
# Poissons Ratio (z) = 0.09275 0.16421
#
# Static dielectric constant tensor:
#      x y z
#    x 4.425250 0.000000 0.000000 
#    y 0.000000 4.308920 0.000000 
#    z 0.000000 0.000000 1.603310 
# 
# 
# High freq. dielectric constant tensor:
#      x y z
#    x 1.918730 0.000000 0.000000 
#    y 0.000000 1.899590 0.000000 
#    z 0.000000 0.000000 1.912830 
# 
# From -- ./inp_files/17792.got.cif
#   From: 2010.03.12/outbox.cif.g09.slc.cpg/sg49_9_cif.got.tgz:17792.got - 2010.04.14 03:58:27.
