data_PCOD8204829
_publ_section_title
;
Structure prediction by ZEFSAII (Michael W. Deem and Ramdas Pophale) SiO2 
 PCOD8204829
Probable space group: P B A N
;
_chemical_formula_sum "Si O2"
_cell_formula_units_Z 64
_cell_length_a 18.436910
_cell_length_b 13.293492
_cell_length_c 15.653077
_cell_angle_alpha 90.000000
_cell_angle_beta 90.000000
_cell_angle_gamma 90.000000
_cell_volume 3836.426974
_symmetry_space_group_name_H-M "P B A N"
_symmetry_group_IT_number 50
_space_group.IT_coordinate_system_code '2'
_symmetry_cell_setting 'orthorhombic'
loop_
_space_group_symop_operation_xyz
x,y,z
1/2-x,1/2-y,z
x,1/2-y,-z
1/2-x,y,-z
-x,-y,-z
1/2+x,1/2+y,-z
-x,1/2+y,z
1/2+x,-y,z
loop_
_atom_site_type_symbol
_atom_site_label
_atom_site_fract_x
_atom_site_fract_y
_atom_site_fract_z
Si Si1 0.395475 0.631176 0.318699
Si Si2 0.404386 0.372559 0.098433
Si Si3 0.331249 0.869521 0.502843
Si Si4 0.252351 0.860216 0.784963
Si Si5 0.599498 0.860386 0.902216
Si Si6 0.507122 0.999286 0.780798
Si Si7 0.248735 0.045966 0.901859
Si Si8 0.612818 0.360689 0.325638
O O1 0.371036 0.592437 0.411841
O O2 0.331184 0.615568 0.251478
O O3 0.461518 0.562455 0.288373
O O4 0.419639 0.747839 0.323256
O O5 0.418272 0.255444 0.113618
O O6 0.459121 0.433734 0.156691
O O7 0.323155 0.401801 0.126781
O O8 0.417931 0.396475 0.998654
O O9 0.324556 0.750000 0.500000
O O10 0.250000 0.916157 0.500000
O O11 0.380133 0.903735 0.421975
O O12 0.250000 0.750000 0.829315
O O13 0.194962 0.859423 0.708313
O O14 0.231710 0.942588 0.854137
O O15 0.550658 0.921970 0.838125
O O16 0.684487 0.875811 0.882464
O O17 0.561881 0.069242 0.729744
O O18 0.250000 0.015569 0.000000
#
# Coordination Sequence:
#
# PCOD8204829 Si02
#       8
#     8   8   8   8   8   8   8   8
#     4  10  20  33  53  78 102 133 169 207 252 305
#     4  10  21  36  53  73  99 136 178 215 251 297
#     4   9  16  31  54  76  99 129 167 209 249 293
#     4  10  18  33  53  76 104 131 172 214 250 299
#     4  10  21  36  53  73  99 136 178 215 251 297
#     4  12  21  33  52  74 112 134 160 207 263 316
#     4  10  19  35  55  74  98 133 179 219 250 292
#     4  10  20  33  53  78 102 133 169 207 252 305
#
# _framework density 16.682189000000001
#
# number of rings (size 3 to 8) (size 9 to 14) (size 15 to 20)
#    0.000    1.875    3.750    1.500    0.000    2.250 
#    0.000    0.000    0.000    0.000    0.000    0.000 
#    0.000    4.000    0.000    0.000    0.000    0.000 
#
# Total GULP energy -793611.094855 kJ/mol
# GULP energy per Si atom -12400.173357 kJ/mol
# Density = 1.664422 g / cm^3
# Si number density = 16.682189 Si / 1000 Ang^3
#
#
#
# Elastic Constant Matrix: (Units=GPa)
#
#
# Indices 1 2 3 4 5 6 
#
# 1 72.9586 27.3710 39.4540 0.0000 0.0000 0.0000
# 2 27.3710 65.0365 41.2166 0.0000 0.0000 0.0000
# 3 39.4540 41.2166 86.5903 0.0000 0.0000 0.0000
# 4 0.0000 0.0000 0.0000 20.7382 0.0000 0.0000
# 5 0.0000 0.0000 0.0000 0.0000 29.2124 0.0000
# 6 0.0000 0.0000 0.0000 0.0000 0.0000 32.2949
#
#
#
# Elastic Compliance Matrix: (Units=1/GPa)
#
#
# Indices 1 2 3 4 5 6 
#
# 1 0.018742 -0.003545 -0.006852 0.000000 0.000000 0.000000
# 2 -0.003545 0.022688 -0.009184 0.000000 0.000000 0.000000
# 3 -0.006852 -0.009184 0.019042 0.000000 0.000000 0.000000
# 4 0.000000 0.000000 0.000000 0.048220 0.000000 0.000000
# 5 0.000000 0.000000 0.000000 0.000000 0.034232 0.000000
# 6 0.000000 0.000000 0.000000 0.000000 0.000000 0.030965
#
#
# Mechanical properties :
#
#
# Convention : Reuss Voigt Hill
#
# Bulk Modulus (GPa) = 46.92702 48.96317 47.94510
# Shear Modulus (GPa) = 22.71121 24.21869 23.46495
#
# Velocity S-wave (km/s) = 3.69372 3.81434 3.75452
# Velocity P-wave (km/s) = 6.81047 6.98665 6.89912
#
# Compressibility (1/GPa) = 0.02130968
#
# Stress axis : x y z
#
# Youngs Moduli (GPa) = 53.35669 44.07523 52.51452
#
# Poissons Ratio (x) = 0.15625 0.35983
# Poissons Ratio (y) = 0.18916 0.48231
# Poissons Ratio (z) = 0.36560 0.40480
#
# Static dielectric constant tensor:
#      x y z
#    x 3.198060 0.000000 0.000000 
#    y 0.000000 3.026000 0.000000 
#    z 0.000000 0.000000 3.190140 
# 
# 
# High freq. dielectric constant tensor:
#      x y z
#    x 1.646140 0.000000 0.000000 
#    y 0.000000 1.631250 0.000000 
#    z 0.000000 0.000000 1.643810 
# 
# From -- ./inp_files/29745.got.cif
#   From: 2010.03.12/outbox.cif.g09.slc.cpg/sg50_15_cif.got.tgz:29745.got - 2010.04.16 13:23:21.
