data_PCOD8204141
_publ_section_title
;
Structure prediction by ZEFSAII (Michael W. Deem and Ramdas Pophale) SiO2 
 PCOD8204141
Probable space group: P C C M
;
_chemical_formula_sum "Si O2"
_cell_formula_units_Z 48
_cell_length_a 14.651890
_cell_length_b 11.542067
_cell_length_c 13.917854
_cell_angle_alpha 90.000000
_cell_angle_beta 90.000000
_cell_angle_gamma 90.000000
_cell_volume 2353.691380
_symmetry_space_group_name_H-M "P C C M"
_symmetry_group_IT_number 49
_symmetry_cell_setting 'orthorhombic'
loop_
_space_group_symop_operation_xyz
x,y,z
-x,-y,z
x,-y,1/2-z
-x,y,1/2-z
-x,-y,-z
x,y,-z
-x,y,1/2+z
x,-y,1/2+z
loop_
_atom_site_type_symbol
_atom_site_label
_atom_site_fract_x
_atom_site_fract_y
_atom_site_fract_z
Si Si1 0.074582 0.758105 0.890284
Si Si2 0.530796 0.868563 0.889796
Si Si3 0.355882 0.184709 0.711815
Si Si4 0.208496 0.365746 0.259728
Si Si5 0.787731 0.965373 0.388984
Si Si6 0.130895 0.794113 0.613012
O O1 0.122263 0.655897 0.829819
O O2 0.129730 0.876210 0.878239
O O3 0.973324 0.784360 0.851698
O O4 0.071765 0.715541 0.000000
O O5 0.618532 0.841608 0.823284
O O6 0.445562 0.792493 0.852744
O O7 0.500000 0.000000 0.875708
O O8 0.555733 0.838882 0.000000
O O9 0.298350 0.302394 0.700061
O O10 0.300090 0.075235 0.670320
O O11 0.229709 0.500000 0.250000
O O12 0.186354 0.313802 0.155088
O O13 0.757845 0.978297 0.500000
O O14 0.823771 0.087635 0.346350
O O15 0.137489 0.791846 0.500000
#
# Coordination Sequence:
#
# PCOD8204141 Si02
#       6
#     8   8   8   8   8   8
#     4   9  19  37  58  83 116 156 198 246 299 351
#     4  10  22  38  62  94 124 149 176 223 293 370
#     4  10  21  38  62  87 121 154 190 234 291 354
#     4  11  25  40  57  81 115 161 209 251 287 331
#     4   9  18  33  59  91 122 151 187 238 301 362
#     4  10  21  35  57  86 117 153 197 247 298 348
#
# _framework density 20.393497
#
# number of rings (size 3 to 8) (size 9 to 14) (size 15 to 20)
#    0.000    2.167    0.000    2.500    4.667    7.333 
#    0.000    6.667    0.000    1.000    0.000    0.000 
#    0.000    1.333    0.000    0.000    0.000    0.000 
#
# Total GULP energy -595308.928234 kJ/mol
# GULP energy per Si atom -12402.269338 kJ/mol
# Density = 2.034708 g / cm^3
# Si number density = 20.393497 Si / 1000 Ang^3
#
#
#
# Elastic Constant Matrix: (Units=GPa)
#
#
# Indices 1 2 3 4 5 6 
#
# 1 120.8681 48.1122 41.5820 0.0000 0.0000 0.0000
# 2 48.1122 126.8869 39.9914 0.0000 0.0000 0.0000
# 3 41.5820 39.9914 84.8559 0.0000 0.0000 0.0000
# 4 0.0000 0.0000 0.0000 22.7441 0.0000 0.0000
# 5 0.0000 0.0000 0.0000 0.0000 32.4936 0.0000
# 6 0.0000 0.0000 0.0000 0.0000 0.0000 16.9895
#
#
#
# Elastic Compliance Matrix: (Units=1/GPa)
#
#
# Indices 1 2 3 4 5 6 
#
# 1 0.010757 -0.002839 -0.003933 0.000000 0.000000 0.000000
# 2 -0.002839 0.010005 -0.003324 0.000000 0.000000 0.000000
# 3 -0.003933 -0.003324 0.015279 0.000000 0.000000 0.000000
# 4 0.000000 0.000000 0.000000 0.043967 0.000000 0.000000
# 5 0.000000 0.000000 0.000000 0.000000 0.030775 0.000000
# 6 0.000000 0.000000 0.000000 0.000000 0.000000 0.058860
#
#
# Mechanical properties :
#
#
# Convention : Reuss Voigt Hill
#
# Bulk Modulus (GPa) = 63.09936 65.77580 64.43758
# Shear Modulus (GPa) = 25.62549 27.97380 26.79964
#
# Velocity S-wave (km/s) = 3.54863 3.70767 3.62902
# Velocity P-wave (km/s) = 6.91365 7.11705 7.01608
#
# Compressibility (1/GPa) = 0.01584802
#
# Stress axis : x y z
#
# Youngs Moduli (GPa) = 92.96556 99.94817 65.45092
#
# Poissons Ratio (x) = 0.28376 0.25743
# Poissons Ratio (y) = 0.26393 0.21756
# Poissons Ratio (z) = 0.36564 0.33224
#
# Static dielectric constant tensor:
#      x y z
#    x 3.943160 0.000000 0.000000 
#    y 0.000000 3.280870 0.000000 
#    z 0.000000 0.000000 3.883680 
# 
# 
# High freq. dielectric constant tensor:
#      x y z
#    x 1.812700 0.000000 0.000000 
#    y 0.000000 1.750910 0.000000 
#    z 0.000000 0.000000 1.813850 
# 
# From -- ./inp_files/12799.got.cif
#   From: 2010.03.12/outbox.cif.g09.slc.cpg/sg49_7_cif.got.tgz:12799.got - 2010.04.14 03:58:27.
