data_PCOD8204600
_publ_section_title
;
Structure prediction by ZEFSAII (Michael W. Deem and Ramdas Pophale) SiO2 
 PCOD8204600
Probable space group: P C C M
;
_chemical_formula_sum "Si O2"
_cell_formula_units_Z 48
_cell_length_a 8.654576
_cell_length_b 9.487619
_cell_length_c 28.142834
_cell_angle_alpha 90.000000
_cell_angle_beta 90.000000
_cell_angle_gamma 90.000000
_cell_volume 2310.845240
_symmetry_space_group_name_H-M "P C C M"
_symmetry_group_IT_number 49
_symmetry_cell_setting 'orthorhombic'
loop_
_space_group_symop_operation_xyz
x,y,z
-x,-y,z
x,-y,1/2-z
-x,y,1/2-z
-x,-y,-z
x,y,-z
-x,y,1/2+z
x,-y,1/2+z
loop_
_atom_site_type_symbol
_atom_site_label
_atom_site_fract_x
_atom_site_fract_y
_atom_site_fract_z
Si Si1 0.169341 0.523830 0.899884
Si Si2 0.549645 0.739862 0.500000
Si Si3 0.500000 0.768480 0.750000
Si Si4 0.364951 0.311073 0.152564
Si Si5 0.831899 0.958401 0.851596
Si Si6 0.259659 0.000000 0.750000
Si Si7 0.656671 0.799350 0.401743
Si Si8 0.272222 0.446642 0.000000
O O1 0.297751 0.460679 0.863927
O O2 0.200106 0.690719 0.902428
O O3 0.171715 0.449197 0.951763
O O4 0.000000 0.500000 0.877956
O O5 0.603344 0.833313 0.455358
O O6 0.367492 0.701033 0.500000
O O7 0.624567 0.585703 0.500000
O O8 0.575738 0.677489 0.792735
O O9 0.636562 0.869333 0.731627
O O10 0.227007 0.200493 0.140813
O O11 0.512373 0.274185 0.122163
O O12 0.846811 0.970048 0.794872
O O13 0.703376 0.058003 0.875334
O O14 0.000000 0.000000 0.873191
#
# Coordination Sequence:
#
# PCOD8204600 Si02
#       8
#     8   4   4   8   8   4   8   4
#     4  11  22  37  60  91 123 155 194 249 304 354
#     4   9  18  34  59  85 114 156 204 246 281 353
#     4   9  18  34  59  84 108 145 201 240 278 347
#     4  11  21  38  62  85 116 157 199 242 293 355
#     4  11  22  37  59  88 119 150 190 247 303 354
#     4   9  17  34  60  84 108 146 196 238 284 346
#     4  11  21  39  61  86 117 157 202 241 291 350
#     4   9  17  34  59  86 115 155 204 242 288 353
#
# _framework density 20.771622000000001
#
# number of rings (size 3 to 8) (size 9 to 14) (size 15 to 20)
#    0.000    1.667    3.333    2.500    0.000    0.000 
#    0.000    4.583    0.000    1.000    0.000    0.000 
#    0.000    0.000    0.000    0.000    0.000    0.000 
#
# Total GULP energy -594925.983992 kJ/mol
# GULP energy per Si atom -12394.291333 kJ/mol
# Density = 2.072434 g / cm^3
# Si number density = 20.771622 Si / 1000 Ang^3
#
#
#
# Elastic Constant Matrix: (Units=GPa)
#
#
# Indices 1 2 3 4 5 6 
#
# 1 77.2425 -4.5173 9.9610 0.0000 0.0000 0.0000
# 2 -4.5173 45.6942 20.6325 0.0000 0.0000 0.0000
# 3 9.9610 20.6325 106.3094 0.0000 0.0000 0.0000
# 4 0.0000 0.0000 0.0000 7.7746 0.0000 0.0000
# 5 0.0000 0.0000 0.0000 0.0000 23.8084 0.0000
# 6 0.0000 0.0000 0.0000 0.0000 0.0000 23.1935
#
#
#
# Elastic Compliance Matrix: (Units=1/GPa)
#
#
# Indices 1 2 3 4 5 6 
#
# 1 0.013278 0.002054 -0.001643 0.000000 0.000000 0.000000
# 2 0.002054 0.024305 -0.004910 0.000000 0.000000 0.000000
# 3 -0.001643 -0.004910 0.010513 0.000000 0.000000 0.000000
# 4 0.000000 0.000000 0.000000 0.128624 0.000000 0.000000
# 5 0.000000 0.000000 0.000000 0.000000 0.042002 0.000000
# 6 0.000000 0.000000 0.000000 0.000000 0.000000 0.043115
#
#
# Mechanical properties :
#
#
# Convention : Reuss Voigt Hill
#
# Bulk Modulus (GPa) = 25.57530 31.26652 28.42091
# Shear Modulus (GPa) = 17.61387 24.49995 21.05691
#
# Velocity S-wave (km/s) = 2.91516 3.43810 3.18737
# Velocity P-wave (km/s) = 4.86521 5.55391 5.22093
#
# Compressibility (1/GPa) = 0.03910022
#
# Stress axis : x y z
#
# Youngs Moduli (GPa) = 75.31110 41.14461 95.11781
#
# Poissons Ratio (x) = -0.08453 0.15627
# Poissons Ratio (y) = -0.15473 0.46698
# Poissons Ratio (z) = 0.12373 0.20200
#
# Static dielectric constant tensor:
#      x y z
#    x 3.608420 0.000000 0.000000 
#    y 0.000000 3.516250 0.000000 
#    z 0.000000 0.000000 4.077020 
# 
# 
# High freq. dielectric constant tensor:
#      x y z
#    x 1.811070 0.000000 0.000000 
#    y 0.000000 1.789810 0.000000 
#    z 0.000000 0.000000 1.813030 
# 
# From -- ./inp_files/26355.got.cif
#   From: 2010.03.12/outbox.cif.g09.slc.cpg/sg49_14_cif.got.tgz:26355.got - 2010.04.14 03:58:27.
