data_PCOD8204316
_publ_section_title
;
Structure prediction by ZEFSAII (Michael W. Deem and Ramdas Pophale) SiO2 
 PCOD8204316
Probable space group: P C C M
;
_chemical_formula_sum "Si O2"
_cell_formula_units_Z 56
_cell_length_a 14.403216
_cell_length_b 23.726004
_cell_length_c 8.528945
_cell_angle_alpha 90.000000
_cell_angle_beta 90.000000
_cell_angle_gamma 90.000000
_cell_volume 2914.602861
_symmetry_space_group_name_H-M "P C C M"
_symmetry_group_IT_number 49
_symmetry_cell_setting 'orthorhombic'
loop_
_space_group_symop_operation_xyz
x,y,z
-x,-y,z
x,-y,1/2-z
-x,y,1/2-z
-x,-y,-z
x,y,-z
-x,y,1/2+z
x,-y,1/2+z
loop_
_atom_site_type_symbol
_atom_site_label
_atom_site_fract_x
_atom_site_fract_y
_atom_site_fract_z
Si Si1 0.896422 0.847547 0.813759
Si Si2 0.749899 0.639516 0.815856
Si Si3 0.102306 0.558356 0.814290
Si Si4 0.398405 0.558437 0.184746
Si Si5 0.396404 0.152789 0.186250
Si Si6 0.249754 0.762980 0.184954
Si Si7 0.250261 0.938157 0.682953
O O1 0.843549 0.795483 0.734622
O O2 0.842158 0.904546 0.764021
O O3 0.000000 0.851584 0.750000
O O4 0.895867 0.838988 0.000000
O O5 0.841715 0.611808 0.745640
O O6 0.661010 0.611553 0.736602
O O7 0.750579 0.704823 0.776639
O O8 0.746153 0.629931 0.000000
O O9 0.146280 0.500000 0.750000
O O10 0.000000 0.565859 0.750000
O O11 0.102573 0.556457 0.000000
O O12 0.355710 0.500000 0.250000
O O13 0.500000 0.568481 0.250000
O O14 0.401197 0.554285 0.000000
O O15 0.500000 0.148976 0.250000
O O16 0.343310 0.204781 0.265361
O O17 0.342403 0.095711 0.236082
O O18 0.395794 0.161317 0.000000
O O19 0.249698 0.752697 0.000000
O O20 0.250331 0.944539 0.500000
O O21 0.250544 0.000000 0.750000
#
# Coordination Sequence:
#
# PCOD8204316 Si02
#       7
#     8   8   8   8   8   8   8
#     4  10  21  39  60  85 115 153 193 235 283 337
#     4  12  24  40  60  85 115 150 189 236 286 339
#     4  11  22  39  60  86 116 150 189 233 284 342
#     4  11  22  39  60  86 116 150 189 233 284 342
#     4  10  21  39  60  85 115 153 193 235 283 337
#     4  11  23  40  60  85 113 147 189 238 287 339
#     4   9  20  36  56  84 120 153 191 236 281 330
#
# _framework density 19.213595999999999
#
# number of rings (size 3 to 8) (size 9 to 14) (size 15 to 20)
#    0.000    1.429    0.000    8.143    0.000    5.143 
#    0.000    8.571    0.000    0.000    0.000    0.000 
#    0.000    0.000    0.000    0.000    0.000    0.000 
#
# Total GULP energy -694537.334859 kJ/mol
# GULP energy per Si atom -12402.452408 kJ/mol
# Density = 1.916987 g / cm^3
# Si number density = 19.213596 Si / 1000 Ang^3
#
#
#
# Elastic Constant Matrix: (Units=GPa)
#
#
# Indices 1 2 3 4 5 6 
#
# 1 135.4976 51.9106 22.0228 0.0000 0.0000 0.0000
# 2 51.9106 127.1914 8.8312 0.0000 0.0000 0.0000
# 3 22.0228 8.8312 88.7522 0.0000 0.0000 0.0000
# 4 0.0000 0.0000 0.0000 37.6358 0.0000 0.0000
# 5 0.0000 0.0000 0.0000 0.0000 34.4773 0.0000
# 6 0.0000 0.0000 0.0000 0.0000 0.0000 9.1589
#
#
#
# Elastic Compliance Matrix: (Units=1/GPa)
#
#
# Indices 1 2 3 4 5 6 
#
# 1 0.009053 -0.003563 -0.001892 0.000000 0.000000 0.000000
# 2 -0.003563 0.009319 -0.000043 0.000000 0.000000 0.000000
# 3 -0.001892 -0.000043 0.011741 0.000000 0.000000 0.000000
# 4 0.000000 0.000000 0.000000 0.026570 0.000000 0.000000
# 5 0.000000 0.000000 0.000000 0.000000 0.029005 0.000000
# 6 0.000000 0.000000 0.000000 0.000000 0.000000 0.109183
#
#
# Mechanical properties :
#
#
# Convention : Reuss Voigt Hill
#
# Bulk Modulus (GPa) = 52.30999 57.44116 54.87557
# Shear Modulus (GPa) = 23.55815 34.16617 28.86216
#
# Velocity S-wave (km/s) = 3.50540 4.22148 3.87999
# Velocity P-wave (km/s) = 6.60820 7.32954 6.97820
#
# Compressibility (1/GPa) = 0.01911681
#
# Stress axis : x y z
#
# Youngs Moduli (GPa) = 110.46235 107.30200 85.17127
#
# Poissons Ratio (x) = 0.38236 0.16113
# Poissons Ratio (y) = 0.39362 0.00367
# Poissons Ratio (z) = 0.20897 0.00463
#
# Static dielectric constant tensor:
#      x y z
#    x 3.792660 0.000000 0.000000 
#    y 0.000000 3.369690 0.000000 
#    z 0.000000 0.000000 3.675210 
# 
# 
# High freq. dielectric constant tensor:
#      x y z
#    x 1.756810 0.000000 0.000000 
#    y 0.000000 1.751020 0.000000 
#    z 0.000000 0.000000 1.767190 
# 
# From -- ./inp_files/4065.got.cif
#   From: 2010.03.12/outbox.cif.g09.slc.cpg/sg49_3_cif.got.tgz:4065.got - 2010.04.14 03:58:27.
