data_PCOD8204704
_publ_section_title
;
Structure prediction by ZEFSAII (Michael W. Deem and Ramdas Pophale) SiO2 
 PCOD8204704
Probable space group: P C C M
;
_chemical_formula_sum "Si O2"
_cell_formula_units_Z 44
_cell_length_a 19.651729
_cell_length_b 7.482426
_cell_length_c 14.911111
_cell_angle_alpha 90.000000
_cell_angle_beta 90.000000
_cell_angle_gamma 90.000000
_cell_volume 2192.568650
_symmetry_space_group_name_H-M "P C C M"
_symmetry_group_IT_number 49
_symmetry_cell_setting 'orthorhombic'
loop_
_space_group_symop_operation_xyz
x,y,z
-x,-y,z
x,-y,1/2-z
-x,y,1/2-z
-x,-y,-z
x,y,-z
-x,y,1/2+z
x,-y,1/2+z
loop_
_atom_site_type_symbol
_atom_site_label
_atom_site_fract_x
_atom_site_fract_y
_atom_site_fract_z
Si Si1 0.606174 0.794342 0.500000
Si Si2 0.607282 0.217383 0.500000
Si Si3 0.934459 0.766416 0.605954
Si Si4 0.084658 0.164242 0.894002
Si Si5 0.500380 0.789631 0.148360
Si Si6 0.719987 0.510051 0.500000
Si Si7 0.826312 0.521498 0.846212
O O1 0.565526 0.734821 0.410083
O O2 0.675888 0.688553 0.500000
O O3 0.621762 0.005647 0.500000
O O4 0.566137 0.271319 0.409419
O O5 0.677088 0.327052 0.500000
O O6 0.930488 0.741952 0.500000
O O7 0.890405 0.611673 0.649934
O O8 0.012507 0.755706 0.639851
O O9 0.905215 0.959278 0.636111
O O10 0.147229 0.276674 0.856262
O O11 0.084566 0.176540 0.000000
O O12 0.500000 0.705536 0.250000
O O13 0.500000 0.000000 0.157643
O O14 0.767524 0.522477 0.585402
O O15 0.791461 0.500000 0.750000
#
# Coordination Sequence:
#
# PCOD8204704 Si02
#       7
#     4   4   8   8   8   4   8
#     4   9  20  38  60  85 114 150 185 226 282 330
#     4   9  20  38  60  85 114 150 185 226 282 330
#     4   9  18  36  63  88 109 140 186 244 306 355
#     4   9  18  36  63  88 109 140 186 244 306 355
#     4   8  15  33  63  94 117 138 176 232 287 333
#     4  12  26  41  53  78 118 160 202 232 258 334
#     4  12  25  39  56  80 115 158 196 236 287 341
#
# _framework density 20.067786000000002
#
# number of rings (size 3 to 8) (size 9 to 14) (size 15 to 20)
#    0.000    2.364    1.818    2.727    0.000    8.000 
#    0.000    2.727    0.000    0.000    0.000    0.000 
#    0.000    0.000    0.000    0.000    0.000    0.000 
#
# Total GULP energy -545390.817067 kJ/mol
# GULP energy per Si atom -12395.245842 kJ/mol
# Density = 2.002211 g / cm^3
# Si number density = 20.067786 Si / 1000 Ang^3
#
#
#
# Elastic Constant Matrix: (Units=GPa)
#
#
# Indices 1 2 3 4 5 6 
#
# 1 86.9327 33.1751 37.0158 0.0000 0.0000 0.0000
# 2 33.1751 76.1958 12.6721 0.0000 0.0000 0.0000
# 3 37.0158 12.6721 126.8227 0.0000 0.0000 0.0000
# 4 0.0000 0.0000 0.0000 104.2706 0.0000 0.0000
# 5 0.0000 0.0000 0.0000 0.0000 71.2482 0.0000
# 6 0.0000 0.0000 0.0000 0.0000 0.0000 32.0396
#
#
#
# Elastic Compliance Matrix: (Units=1/GPa)
#
#
# Indices 1 2 3 4 5 6 
#
# 1 0.015496 -0.006096 -0.003914 0.000000 0.000000 0.000000
# 2 -0.006096 0.015744 0.000206 0.000000 0.000000 0.000000
# 3 -0.003914 0.000206 0.009007 0.000000 0.000000 0.000000
# 4 0.000000 0.000000 0.000000 0.009590 0.000000 0.000000
# 5 0.000000 0.000000 0.000000 0.000000 0.014035 0.000000
# 6 0.000000 0.000000 0.000000 0.000000 0.000000 0.031211
#
#
# Mechanical properties :
#
#
# Convention : Reuss Voigt Hill
#
# Bulk Modulus (GPa) = 48.45075 50.63079 49.54077
# Shear Modulus (GPa) = 41.12835 55.31757 48.22296
#
# Velocity S-wave (km/s) = 4.53202 5.25597 4.90736
# Velocity P-wave (km/s) = 7.18203 7.88151 7.53989
#
# Compressibility (1/GPa) = 0.02063952
#
# Stress axis : x y z
#
# Youngs Moduli (GPa) = 64.53316 63.51654 111.02809
#
# Poissons Ratio (x) = 0.38719 0.43453
# Poissons Ratio (y) = 0.39339 -0.02288
# Poissons Ratio (z) = 0.25256 -0.01309
#
# Static dielectric constant tensor:
#      x y z
#    x 3.540200 0.000000 0.000000 
#    y 0.000000 3.275980 0.000000 
#    z 0.000000 0.000000 4.001070 
# 
# 
# High freq. dielectric constant tensor:
#      x y z
#    x 1.757670 0.000000 0.000000 
#    y 0.000000 1.786520 0.000000 
#    z 0.000000 0.000000 1.788580 
# 
# From -- ./inp_files/13983.got.cif
#   From: 2010.03.12/outbox.cif.g09.slc.cpg/sg49_7_cif.got.tgz:13983.got - 2010.04.14 03:58:27.
