data_PCOD8204419
_publ_section_title
;
Structure prediction by ZEFSAII (Michael W. Deem and Ramdas Pophale) SiO2 
 PCOD8204419
Probable space group: P C C M
;
_chemical_formula_sum "Si O2"
_cell_formula_units_Z 64
_cell_length_a 24.488976
_cell_length_b 14.922719
_cell_length_c 9.060968
_cell_angle_alpha 90.000000
_cell_angle_beta 90.000000
_cell_angle_gamma 90.000000
_cell_volume 3311.259241
_symmetry_space_group_name_H-M "P C C M"
_symmetry_group_IT_number 49
_symmetry_cell_setting 'orthorhombic'
loop_
_space_group_symop_operation_xyz
x,y,z
-x,-y,z
x,-y,1/2-z
-x,y,1/2-z
-x,-y,-z
x,y,-z
-x,y,1/2+z
x,-y,1/2+z
loop_
_atom_site_type_symbol
_atom_site_label
_atom_site_fract_x
_atom_site_fract_y
_atom_site_fract_z
Si Si1 0.558510 0.091609 0.322342
Si Si2 0.640020 0.779696 0.670694
Si Si3 0.170492 0.163115 0.831955
Si Si4 0.791841 0.364497 0.665917
Si Si5 0.912512 0.585849 0.829379
Si Si6 0.946207 0.778920 0.174767
Si Si7 0.734060 0.915456 0.668738
Si Si8 0.316188 0.411106 0.326835
O O1 0.500000 0.109936 0.250000
O O2 0.554736 0.082605 0.500000
O O3 0.595987 0.175729 0.278806
O O4 0.582463 0.000000 0.250000
O O5 0.621422 0.789582 0.500000
O O6 0.698133 0.827276 0.695942
O O7 0.647316 0.675637 0.715908
O O8 0.196882 0.260133 0.815482
O O9 0.107199 0.163721 0.780057
O O10 0.204654 0.096893 0.729272
O O11 0.174678 0.129772 0.000000
O O12 0.771184 0.384986 0.500000
O O13 0.847707 0.416091 0.699676
O O14 0.746407 0.397743 0.779449
O O15 0.939150 0.500000 0.750000
O O16 0.938500 0.677301 0.766067
O O17 0.926094 0.578690 0.000000
O O18 0.000000 0.821138 0.250000
O O19 0.952680 0.779622 0.000000
O O20 0.738143 0.941348 0.500000
O O21 0.706169 0.000000 0.750000
O O22 0.341141 0.500000 0.250000
O O23 0.317081 0.426056 0.500000
#
# Coordination Sequence:
#
# PCOD8204419 Si02
#       8
#     8   8   8   8   8   8   8   8
#     4  11  22  38  63  92 124 161 200 240 287 339
#     4  10  22  39  57  84 122 157 196 241 281 331
#     4   9  18  34  54  75 104 138 174 220 272 331
#     4   9  17  31  50  71  99 137 180 224 272 326
#     4   9  18  30  43  64  93 126 166 215 268 324
#     4   9  19  34  50  69  93 126 170 217 270 328
#     4  11  22  36  56  85 117 149 183 221 276 337
#     4  11  22  35  52  78 113 152 195 241 283 331
#
# _framework density 19.327995000000001
#
# number of rings (size 3 to 8) (size 9 to 14) (size 15 to 20)
#    0.000    2.125    1.250    4.500    0.000    5.750 
#    0.000    3.750    0.000    0.750    0.000    5.250 
#    0.000    0.000    0.000    0.000    0.000    0.000 
#
# Total GULP energy -793487.312517 kJ/mol
# GULP energy per Si atom -12398.239258 kJ/mol
# Density = 1.928400 g / cm^3
# Si number density = 19.327995 Si / 1000 Ang^3
#
#
#
# Elastic Constant Matrix: (Units=GPa)
#
#
# Indices 1 2 3 4 5 6 
#
# 1 79.6095 38.1384 48.9410 0.0000 0.0000 0.0000
# 2 38.1384 94.4454 50.1521 0.0000 0.0000 0.0000
# 3 48.9410 50.1521 101.6697 0.0000 0.0000 0.0000
# 4 0.0000 0.0000 0.0000 31.4988 0.0000 0.0000
# 5 0.0000 0.0000 0.0000 0.0000 30.3568 0.0000
# 6 0.0000 0.0000 0.0000 0.0000 0.0000 14.3851
#
#
#
# Elastic Compliance Matrix: (Units=1/GPa)
#
#
# Indices 1 2 3 4 5 6 
#
# 1 0.018783 -0.003771 -0.007181 0.000000 0.000000 0.000000
# 2 -0.003771 0.015103 -0.005635 0.000000 0.000000 0.000000
# 3 -0.007181 -0.005635 0.016072 0.000000 0.000000 0.000000
# 4 0.000000 0.000000 0.000000 0.031747 0.000000 0.000000
# 5 0.000000 0.000000 0.000000 0.000000 0.032942 0.000000
# 6 0.000000 0.000000 0.000000 0.000000 0.000000 0.069516
#
#
# Mechanical properties :
#
#
# Convention : Reuss Voigt Hill
#
# Bulk Modulus (GPa) = 59.58228 61.13196 60.35712
# Shear Modulus (GPa) = 22.42834 24.48102 23.45468
#
# Velocity S-wave (km/s) = 3.41017 3.56281 3.48732
# Velocity P-wave (km/s) = 6.81172 6.97296 6.89281
#
# Compressibility (1/GPa) = 0.01678351
#
# Stress axis : x y z
#
# Youngs Moduli (GPa) = 53.24019 66.21095 62.21963
#
# Poissons Ratio (x) = 0.24971 0.44681
# Poissons Ratio (y) = 0.20079 0.35059
# Poissons Ratio (z) = 0.38232 0.37308
#
# Static dielectric constant tensor:
#      x y z
#    x 3.381720 0.000000 0.000000 
#    y 0.000000 3.546540 0.000000 
#    z 0.000000 0.000000 3.438070 
# 
# 
# High freq. dielectric constant tensor:
#      x y z
#    x 1.734210 0.000000 0.000000 
#    y 0.000000 1.744980 0.000000 
#    z 0.000000 0.000000 1.749630 
# 
# From -- ./inp_files/4421.got.cif
#   From: 2010.03.12/outbox.cif.g09.slc.cpg/sg49_3_cif.got.tgz:4421.got - 2010.04.14 03:58:27.
