data_PCOD8204314
_publ_section_title
;
Structure prediction by ZEFSAII (Michael W. Deem and Ramdas Pophale) SiO2 
 PCOD8204314
Probable space group: P C C M
;
_chemical_formula_sum "Si O2"
_cell_formula_units_Z 56
_cell_length_a 8.439809
_cell_length_b 22.070610
_cell_length_c 13.959263
_cell_angle_alpha 90.000000
_cell_angle_beta 90.000000
_cell_angle_gamma 90.000000
_cell_volume 2600.216109
_symmetry_space_group_name_H-M "P C C M"
_symmetry_group_IT_number 49
_symmetry_cell_setting 'orthorhombic'
loop_
_space_group_symop_operation_xyz
x,y,z
-x,-y,z
x,-y,1/2-z
-x,y,1/2-z
-x,-y,-z
x,y,-z
-x,y,1/2+z
x,-y,1/2+z
loop_
_atom_site_type_symbol
_atom_site_label
_atom_site_fract_x
_atom_site_fract_y
_atom_site_fract_z
Si Si1 0.099357 0.557260 0.892752
Si Si2 0.676432 0.363553 0.223150
Si Si3 0.386573 0.907111 0.610937
Si Si4 0.112123 0.674141 0.394490
Si Si5 0.176477 0.976914 0.894910
Si Si6 0.802676 0.257767 0.888409
Si Si7 0.286675 0.130601 0.301528
O O1 0.236245 0.575848 0.816683
O O2 0.000000 0.500000 0.853810
O O3 0.977381 0.611240 0.900201
O O4 0.169775 0.544031 0.000000
O O5 0.500000 0.383395 0.250000
O O6 0.751482 0.332255 0.316893
O O7 0.682553 0.311243 0.142860
O O8 0.356591 0.887850 0.500000
O O9 0.309427 0.972702 0.632858
O O10 0.570419 0.902334 0.639046
O O11 0.308506 0.860298 0.687214
O O12 0.183383 0.689398 0.500000
O O13 0.984468 0.725104 0.362878
O O14 0.156983 0.920898 0.821080
O O15 0.224069 0.952722 0.000000
O O16 0.000000 0.000000 0.897247
O O17 0.757849 0.195858 0.838572
O O18 0.779403 0.249356 0.000000
#
# Coordination Sequence:
#
# PCOD8204314 Si02
#       7
#     8   8   8   8   8   8   8
#     4   9  18  37  66  94 125 172 220 258 303 368
#     4  11  23  38  62  95 134 168 208 264 326 373
#     4  10  22  39  59  85 119 156 201 257 329 406
#     4   9  20  40  62  88 125 170 214 256 307 372
#     4  10  21  39  59  86 119 154 203 265 331 395
#     4  10  21  40  63  87 119 165 220 267 315 389
#     4  11  22  38  64  87 116 161 208 263 330 391
#
# _framework density 21.536671999999999
#
# number of rings (size 3 to 8) (size 9 to 14) (size 15 to 20)
#    0.000    2.000    0.000    5.143    2.000    5.714 
#    5.143    2.143    0.000    3.429    0.000    0.000 
#    0.000    0.000    0.000    0.000    0.000    0.000 
#
# Total GULP energy -693806.366183 kJ/mol
# GULP energy per Si atom -12389.399396 kJ/mol
# Density = 2.148765 g / cm^3
# Si number density = 21.536672 Si / 1000 Ang^3
#
#
#
# Elastic Constant Matrix: (Units=GPa)
#
#
# Indices 1 2 3 4 5 6 
#
# 1 67.1146 48.0491 38.9072 0.0000 0.0000 0.0000
# 2 48.0491 127.1014 53.7298 0.0000 0.0000 0.0000
# 3 38.9072 53.7298 149.5773 0.0000 0.0000 0.0000
# 4 0.0000 0.0000 0.0000 31.0639 0.0000 0.0000
# 5 0.0000 0.0000 0.0000 0.0000 29.2940 0.0000
# 6 0.0000 0.0000 0.0000 0.0000 0.0000 25.0184
#
#
#
# Elastic Compliance Matrix: (Units=1/GPa)
#
#
# Indices 1 2 3 4 5 6 
#
# 1 0.021633 -0.006838 -0.003171 0.000000 0.000000 0.000000
# 2 -0.006838 0.011438 -0.002330 0.000000 0.000000 0.000000
# 3 -0.003171 -0.002330 0.008347 0.000000 0.000000 0.000000
# 4 0.000000 0.000000 0.000000 0.032192 0.000000 0.000000
# 5 0.000000 0.000000 0.000000 0.000000 0.034137 0.000000
# 6 0.000000 0.000000 0.000000 0.000000 0.000000 0.039971
#
#
# Mechanical properties :
#
#
# Convention : Reuss Voigt Hill
#
# Bulk Modulus (GPa) = 59.73359 69.46285 64.59822
# Shear Modulus (GPa) = 28.09383 30.61574 29.35478
#
# Velocity S-wave (km/s) = 3.61566 3.77445 3.69591
# Velocity P-wave (km/s) = 6.72507 7.16370 6.94785
#
# Compressibility (1/GPa) = 0.01674100
#
# Stress axis : x y z
#
# Youngs Moduli (GPa) = 46.22461 87.43091 119.80000
#
# Poissons Ratio (x) = 0.59784 0.37988
# Poissons Ratio (y) = 0.31607 0.27912
# Poissons Ratio (z) = 0.14658 0.20371
#
# Static dielectric constant tensor:
#      x y z
#    x 3.859640 0.000000 0.000000 
#    y 0.000000 3.814430 0.000000 
#    z 0.000000 0.000000 4.521950 
# 
# 
# High freq. dielectric constant tensor:
#      x y z
#    x 1.823440 0.000000 0.000000 
#    y 0.000000 1.831900 0.000000 
#    z 0.000000 0.000000 1.871260 
# 
# From -- ./inp_files/12006.got.cif
#   From: 2010.03.12/outbox.cif.g09.slc.cpg/sg49_7_cif.got.tgz:12006.got - 2010.04.14 03:58:27.
