data_PCOD8204082
_publ_section_title
;
Structure prediction by ZEFSAII (Michael W. Deem and Ramdas Pophale) SiO2 
 PCOD8204082
Probable space group: P C C M
;
_chemical_formula_sum "Si O2"
_cell_formula_units_Z 56
_cell_length_a 16.133509
_cell_length_b 9.512052
_cell_length_c 18.611133
_cell_angle_alpha 90.000000
_cell_angle_beta 90.000000
_cell_angle_gamma 90.000000
_cell_volume 2856.116145
_symmetry_space_group_name_H-M "P C C M"
_symmetry_group_IT_number 49
_symmetry_cell_setting 'orthorhombic'
loop_
_space_group_symop_operation_xyz
x,y,z
-x,-y,z
x,-y,1/2-z
-x,y,1/2-z
-x,-y,-z
x,y,-z
-x,y,1/2+z
x,-y,1/2+z
loop_
_atom_site_type_symbol
_atom_site_label
_atom_site_fract_x
_atom_site_fract_y
_atom_site_fract_z
Si Si1 0.267606 0.955659 0.080955
Si Si2 0.422588 0.086521 0.678475
Si Si3 0.578711 0.416661 0.177320
Si Si4 0.015828 0.839823 0.334221
Si Si5 0.265444 0.515415 0.918014
Si Si6 0.132469 0.749209 0.918183
Si Si7 0.820852 0.236949 0.417559
O O1 0.249040 0.118748 0.083959
O O2 0.348748 0.917371 0.123385
O O3 0.187942 0.876174 0.113502
O O4 0.281981 0.899745 0.000000
O O5 0.443133 0.251872 0.692792
O O6 0.500000 0.000000 0.644750
O O7 0.397720 0.000000 0.750000
O O8 0.500000 0.500000 0.142362
O O9 0.600401 0.500000 0.250000
O O10 0.657967 0.424715 0.126355
O O11 0.951098 0.736848 0.372803
O O12 0.000000 0.821245 0.250000
O O13 0.106515 0.792994 0.360559
O O14 0.000000 0.000000 0.358562
O O15 0.184097 0.608691 0.909682
O O16 0.232950 0.366938 0.889433
O O17 0.295645 0.506842 0.000000
O O18 0.106670 0.779770 0.000000
O O19 0.854796 0.256367 0.500000
#
# Coordination Sequence:
#
# PCOD8204082 Si02
#       7
#     8   8   8   8   8   8   8
#     4  10  21  38  63  90 118 156 202 250 298 350
#     4  11  24  40  62  90 123 159 201 248 296 357
#     4  11  24  41  62  87 123 164 200 241 300 364
#     4  11  23  37  58  89 121 154 199 248 297 353
#     4  10  23  42  63  89 120 157 201 248 301 358
#     4  10  20  39  62  84 116 156 196 241 299 355
#     4  10  22  39  61  89 120 156 199 246 300 360
#
# _framework density 19.607046
#
# number of rings (size 3 to 8) (size 9 to 14) (size 15 to 20)
#    0.000    1.571    2.857    2.143    4.000    4.000 
#    0.000    2.857    0.000    0.000    0.000    0.000 
#    0.000    0.000    0.000    0.000    0.000    0.000 
#
# Total GULP energy -694170.782170 kJ/mol
# GULP energy per Si atom -12395.906824 kJ/mol
# Density = 1.956242 g / cm^3
# Si number density = 19.607046 Si / 1000 Ang^3
#
#
#
# Elastic Constant Matrix: (Units=GPa)
#
#
# Indices 1 2 3 4 5 6 
#
# 1 92.2049 26.0742 42.8208 0.0000 0.0000 0.0000
# 2 26.0742 130.9570 24.4422 0.0000 0.0000 0.0000
# 3 42.8208 24.4422 60.8859 0.0000 0.0000 0.0000
# 4 0.0000 0.0000 0.0000 18.5023 0.0000 0.0000
# 5 0.0000 0.0000 0.0000 0.0000 48.4218 0.0000
# 6 0.0000 0.0000 0.0000 0.0000 0.0000 23.4901
#
#
#
# Elastic Compliance Matrix: (Units=1/GPa)
#
#
# Indices 1 2 3 4 5 6 
#
# 1 0.016277 -0.001194 -0.010968 0.000000 0.000000 0.000000
# 2 -0.001194 0.008342 -0.002509 0.000000 0.000000 0.000000
# 3 -0.010968 -0.002509 0.025145 0.000000 0.000000 0.000000
# 4 0.000000 0.000000 0.000000 0.054047 0.000000 0.000000
# 5 0.000000 0.000000 0.000000 0.000000 0.020652 0.000000
# 6 0.000000 0.000000 0.000000 0.000000 0.000000 0.042571
#
#
# Mechanical properties :
#
#
# Convention : Reuss Voigt Hill
#
# Bulk Modulus (GPa) = 48.96721 52.30245 50.63483
# Shear Modulus (GPa) = 24.60823 30.79687 27.70255
#
# Velocity S-wave (km/s) = 3.54654 3.96751 3.76292
# Velocity P-wave (km/s) = 6.46522 6.90807 6.69031
#
# Compressibility (1/GPa) = 0.02042183
#
# Stress axis : x y z
#
# Youngs Moduli (GPa) = 61.43771 119.87369 39.76874
#
# Poissons Ratio (x) = 0.14309 0.43619
# Poissons Ratio (y) = 0.07333 0.09980
# Poissons Ratio (z) = 0.67386 0.30081
#
# Static dielectric constant tensor:
#      x y z
#    x 3.578670 0.000000 0.000000 
#    y 0.000000 3.837310 0.000000 
#    z 0.000000 0.000000 3.455410 
# 
# 
# High freq. dielectric constant tensor:
#      x y z
#    x 1.766950 0.000000 0.000000 
#    y 0.000000 1.780330 0.000000 
#    z 0.000000 0.000000 1.750620 
# 
# From -- ./inp_files/19880.got.cif
#   From: 2010.03.12/outbox.cif.g09.slc.cpg/sg49_10_cif.got.tgz:19880.got - 2010.04.14 03:58:27.
