data_PCOD8204762
_publ_section_title
;
Structure prediction by ZEFSAII (Michael W. Deem and Ramdas Pophale) SiO2 
 PCOD8204762
Probable space group: P B A N
;
_chemical_formula_sum "Si O2"
_cell_formula_units_Z 56
_cell_length_a 33.876252
_cell_length_b 5.079665
_cell_length_c 21.574724
_cell_angle_alpha 90.000000
_cell_angle_beta 90.000000
_cell_angle_gamma 90.000000
_cell_volume 3712.578757
_symmetry_space_group_name_H-M "P B A N"
_symmetry_group_IT_number 50
_space_group.IT_coordinate_system_code '2'
_symmetry_cell_setting 'orthorhombic'
loop_
_space_group_symop_operation_xyz
x,y,z
1/2-x,1/2-y,z
x,1/2-y,-z
1/2-x,y,-z
-x,-y,-z
1/2+x,1/2+y,-z
-x,1/2+y,z
1/2+x,-y,z
loop_
_atom_site_type_symbol
_atom_site_label
_atom_site_fract_x
_atom_site_fract_y
_atom_site_fract_z
Si Si1 0.641157 0.192763 0.928864
Si Si2 0.203570 0.737503 0.568565
Si Si3 0.169621 0.287047 0.221313
Si Si4 0.025864 0.220371 0.929740
Si Si5 0.106168 0.193992 0.128765
Si Si6 0.704135 0.287119 0.838443
Si Si7 0.703158 0.738780 0.353347
O O1 0.613663 0.391936 0.889907
O O2 0.686121 0.233882 0.906483
O O3 0.628278 0.892936 0.917833
O O4 0.636980 0.250000 0.000000
O O5 0.250000 0.750000 0.560398
O O6 0.184012 0.750000 0.500000
O O7 0.190834 0.467208 0.599928
O O8 0.190068 0.972874 0.612828
O O9 0.123878 0.250155 0.198172
O O10 0.184413 0.584307 0.210031
O O11 0.175516 0.227343 0.293476
O O12 0.196195 0.085116 0.182137
O O13 0.059413 0.258492 0.877470
O O14 0.991084 0.429458 0.919696
O O15 0.043093 0.250000 0.000000
O O16 0.750000 0.250000 0.842291
O O17 0.750000 0.750000 0.335976
#
# Coordination Sequence:
#
# PCOD8204762 Si02
#       7
#     8   8   8   8   8   8   8
#     4  10  19  30  45  60  77 107 136 166 214 256
#     4   9  17  27  39  58  82 107 137 175 213 240
#     4  10  20  31  44  61  80 110 143 171 213 250
#     4  10  19  30  47  68  85 104 132 166 206 254
#     4  10  20  33  46  62  86 107 132 170 208 256
#     4  10  19  30  42  57  79 103 137 183 214 242
#     4  10  17  26  42  59  79 108 143 177 202 237
#
# _framework density 15.083854000000001
#
# number of rings (size 3 to 8) (size 9 to 14) (size 15 to 20)
#    0.000    2.143    0.000    4.714    0.000    4.286 
#    0.000    0.000    0.000    5.143    0.000    0.000 
#    0.000    0.000    0.000    0.000    0.000   14.286 
#
# Total GULP energy -694230.235092 kJ/mol
# GULP energy per Si atom -12396.968484 kJ/mol
# Density = 1.504952 g / cm^3
# Si number density = 15.083854 Si / 1000 Ang^3
#
#
#
# Elastic Constant Matrix: (Units=GPa)
#
#
# Indices 1 2 3 4 5 6 
#
# 1 61.9052 3.3804 28.8320 0.0000 0.0000 0.0000
# 2 3.3804 59.0769 2.8383 0.0000 0.0000 0.0000
# 3 28.8320 2.8383 70.5123 0.0000 0.0000 0.0000
# 4 0.0000 0.0000 0.0000 27.1425 0.0000 0.0000
# 5 0.0000 0.0000 0.0000 0.0000 -100.7407 0.0000
# 6 0.0000 0.0000 0.0000 0.0000 0.0000 11.0324
#
#
#
# Elastic Compliance Matrix: (Units=1/GPa)
#
#
# Indices 1 2 3 4 5 6 
#
# 1 0.019987 -0.000752 -0.008142 0.000000 0.000000 0.000000
# 2 -0.000752 0.016988 -0.000376 0.000000 0.000000 0.000000
# 3 -0.008142 -0.000376 0.017526 0.000000 0.000000 0.000000
# 4 0.000000 0.000000 0.000000 0.036843 0.000000 0.000000
# 5 0.000000 0.000000 0.000000 0.000000 -0.009926 0.000000
# 6 0.000000 0.000000 0.000000 0.000000 0.000000 0.090642
#
#
# Mechanical properties :
#
#
# Convention : Reuss Voigt Hill
#
# Bulk Modulus (GPa) = 27.80877 29.06619 28.43748
# Shear Modulus (GPa) = 24.68063 -2.08357 11.29853
#
# Velocity S-wave (km/s) = 4.04942 -1.17657 2.73984
# Velocity P-wave (km/s) = 6.35137 4.17921 5.37614
#
# Compressibility (1/GPa) = 0.03595988
#
# Stress axis : x y z
#
# Youngs Moduli (GPa) = 50.03245 58.86433 57.05687
#
# Poissons Ratio (x) = 0.04429 0.46457
# Poissons Ratio (y) = 0.03765 0.02146
# Poissons Ratio (z) = 0.40738 0.02214
#
# Static dielectric constant tensor:
#      x y z
#    x 2.663000 0.000000 0.000000 
#    y 0.000000 3.009590 0.000000 
#    z 0.000000 0.000000 2.897750 
# 
# 
# High freq. dielectric constant tensor:
#      x y z
#    x 1.532610 0.000000 0.000000 
#    y 0.000000 1.607060 0.000000 
#    z 0.000000 0.000000 1.557160 
# 
# From -- ./inp_files/31285.got.cif
#   From: 2010.03.12/outbox.cif.g09.slc.cpg/sg50_16_cif.got.tgz:31285.got - 2010.04.16 13:23:21.
