data_PCOD8204243
_publ_section_title
;
Structure prediction by ZEFSAII (Michael W. Deem and Ramdas Pophale) SiO2 
 PCOD8204243
Probable space group: P C C M
;
_chemical_formula_sum "Si O2"
_cell_formula_units_Z 48
_cell_length_a 13.802608
_cell_length_b 18.812459
_cell_length_c 9.084090
_cell_angle_alpha 90.000000
_cell_angle_beta 90.000000
_cell_angle_gamma 90.000000
_cell_volume 2358.783867
_symmetry_space_group_name_H-M "P C C M"
_symmetry_group_IT_number 49
_symmetry_cell_setting 'orthorhombic'
loop_
_space_group_symop_operation_xyz
x,y,z
-x,-y,z
x,-y,1/2-z
-x,y,1/2-z
-x,-y,-z
x,y,-z
-x,y,1/2+z
x,-y,1/2+z
loop_
_atom_site_type_symbol
_atom_site_label
_atom_site_fract_x
_atom_site_fract_y
_atom_site_fract_z
Si Si1 0.403300 0.801857 0.335172
Si Si2 0.626334 0.561379 0.000000
Si Si3 0.596170 0.397331 0.000000
Si Si4 0.702033 0.928455 0.669655
Si Si5 0.099005 0.717011 0.321668
Si Si6 0.907071 0.132753 0.828675
Si Si7 0.699910 0.338687 0.728053
O O1 0.500000 0.780611 0.250000
O O2 0.426587 0.829161 0.500000
O O3 0.349270 0.862494 0.245255
O O4 0.336215 0.732597 0.351618
O O5 0.635503 0.477117 0.000000
O O6 0.519207 0.595816 0.000000
O O7 0.682378 0.588917 0.859178
O O8 0.636512 0.348768 0.871554
O O9 0.669676 0.931780 0.500000
O O10 0.817703 0.920857 0.683366
O O11 0.668365 0.000000 0.750000
O O12 0.096967 0.714672 0.500000
O O13 0.116460 0.796629 0.263799
O O14 0.184492 0.668434 0.253894
O O15 0.000000 0.687036 0.250000
O O16 0.000000 0.096059 0.750000
O O17 0.928885 0.151695 0.000000
#
# Coordination Sequence:
#
# PCOD8204243 Si02
#       7
#     8   4   4   8   8   8   8
#     4  12  25  42  66  94 128 166 216 268 318 383
#     4  11  22  48  61 105 134 178 216 259 329 385
#     4  11  26  38  73  95 142 174 216 263 319 401
#     4  11  25  43  64  91 128 170 214 265 325 382
#     4  11  22  38  63  94 129 166 217 272 325 382
#     4  10  21  37  61  91 125 162 209 262 321 383
#     4  12  24  40  68  99 133 174 216 272 324 382
#
# _framework density 20.349468000000002
#
# number of rings (size 3 to 8) (size 9 to 14) (size 15 to 20)
#    0.000    0.833    3.333    5.000    4.667    4.000 
#    0.000    3.333    0.000    3.000    0.000    0.000 
#    0.000    0.000    0.000    0.000    0.000    0.000 
#
# Total GULP energy -595085.774377 kJ/mol
# GULP energy per Si atom -12397.620300 kJ/mol
# Density = 2.030315 g / cm^3
# Si number density = 20.349468 Si / 1000 Ang^3
#
#
#
# Elastic Constant Matrix: (Units=GPa)
#
#
# Indices 1 2 3 4 5 6 
#
# 1 96.2648 29.1067 23.3441 0.0000 0.0000 0.0000
# 2 29.1067 80.9967 25.0867 0.0000 0.0000 0.0000
# 3 23.3441 25.0867 130.7377 0.0000 0.0000 0.0000
# 4 0.0000 0.0000 0.0000 20.2337 0.0000 0.0000
# 5 0.0000 0.0000 0.0000 0.0000 24.5606 0.0000
# 6 0.0000 0.0000 0.0000 0.0000 0.0000 25.8460
#
#
#
# Elastic Compliance Matrix: (Units=1/GPa)
#
#
# Indices 1 2 3 4 5 6 
#
# 1 0.011886 -0.003842 -0.001385 0.000000 0.000000 0.000000
# 2 -0.003842 0.014368 -0.002071 0.000000 0.000000 0.000000
# 3 -0.001385 -0.002071 0.008294 0.000000 0.000000 0.000000
# 4 0.000000 0.000000 0.000000 0.049422 0.000000 0.000000
# 5 0.000000 0.000000 0.000000 0.000000 0.040716 0.000000
# 6 0.000000 0.000000 0.000000 0.000000 0.000000 0.038691
#
#
# Mechanical properties :
#
#
# Convention : Reuss Voigt Hill
#
# Bulk Modulus (GPa) = 50.12254 51.45270 50.78762
# Shear Modulus (GPa) = 27.08220 29.49218 28.28719
#
# Velocity S-wave (km/s) = 3.65205 3.81108 3.73241
# Velocity P-wave (km/s) = 6.51672 6.68619 6.60200
#
# Compressibility (1/GPa) = 0.01995111
#
# Stress axis : x y z
#
# Youngs Moduli (GPa) = 84.13546 69.59741 120.57479
#
# Poissons Ratio (x) = 0.26741 0.16699
# Poissons Ratio (y) = 0.32326 0.24971
# Poissons Ratio (z) = 0.11653 0.14414
#
# Static dielectric constant tensor:
#      x y z
#    x 3.949110 0.000000 0.000000 
#    y 0.000000 3.451670 0.000000 
#    z 0.000000 0.000000 3.795280 
# 
# 
# High freq. dielectric constant tensor:
#      x y z
#    x 1.801870 0.000000 0.000000 
#    y 0.000000 1.778000 0.000000 
#    z 0.000000 0.000000 1.813950 
# 
# From -- ./inp_files/3762.got.cif
#   From: 2010.03.12/outbox.cif.g09.slc.cpg/sg49_2_cif.got.tgz:3762.got - 2010.04.14 03:58:27.
