data_PCOD8204397
_publ_section_title
;
Structure prediction by ZEFSAII (Michael W. Deem and Ramdas Pophale) SiO2 
 PCOD8204397
Probable space group: P C C M
;
_chemical_formula_sum "Si O2"
_cell_formula_units_Z 34
_cell_length_a 5.093926
_cell_length_b 17.665863
_cell_length_c 19.997359
_cell_angle_alpha 90.000000
_cell_angle_beta 90.000000
_cell_angle_gamma 90.000000
_cell_volume 1799.534317
_symmetry_space_group_name_H-M "P C C M"
_symmetry_group_IT_number 49
_symmetry_cell_setting 'orthorhombic'
loop_
_space_group_symop_operation_xyz
x,y,z
-x,-y,z
x,-y,1/2-z
-x,y,1/2-z
-x,-y,-z
x,y,-z
-x,y,1/2+z
x,-y,1/2+z
loop_
_atom_site_type_symbol
_atom_site_label
_atom_site_fract_x
_atom_site_fract_y
_atom_site_fract_z
Si Si1 0.379475 0.159563 0.421960
Si Si2 0.000000 0.000000 0.750000
Si Si3 0.884468 0.924374 0.877325
Si Si4 0.515230 0.674401 0.079544
Si Si5 0.986191 0.585110 0.579740
O O1 0.311595 0.164067 0.500000
O O2 0.609570 0.098890 0.409719
O O3 0.479855 0.240163 0.393838
O O4 0.109398 0.139601 0.384000
O O5 0.171077 0.054726 0.798955
O O6 0.000000 0.000000 0.914058
O O7 0.779195 0.636964 0.108339
O O8 0.280033 0.622337 0.105829
O O9 0.522900 0.675987 0.000000
O O10 0.999315 0.583009 0.500000
O O11 0.000000 0.500000 0.608398
#
# Coordination Sequence:
#
# PCOD8204397 Si02
#       5
#     8   2   8   8   8
#     4  11  21  33  51  77 103 133 162 202 256 297
#     4   8  24  42  54  74  92 126 174 204 264 282
#     4  10  22  37  55  70  97 130 167 207 252 296
#     4   9  17  27  39  61  95 125 158 196 234 281
#     4   9  15  24  39  58  85 129 171 194 217 266
#
# _framework density 18.893775000000002
#
# number of rings (size 3 to 8) (size 9 to 14) (size 15 to 20)
#    0.706    1.647    0.000    3.529    0.000   11.294 
#    0.000    0.000    0.000    0.000    0.000    0.000 
#    0.000    0.000    0.000   74.118    0.000   32.941 
#
# Total GULP energy -421367.150195 kJ/mol
# GULP energy per Si atom -12393.151476 kJ/mol
# Density = 1.885077 g / cm^3
# Si number density = 18.893775 Si / 1000 Ang^3
#
#
#
# Elastic Constant Matrix: (Units=GPa)
#
#
# Indices 1 2 3 4 5 6 
#
# 1 83.9956 4.4210 8.9806 0.0000 0.0000 0.0000
# 2 4.4210 88.4025 17.6825 0.0000 0.0000 0.0000
# 3 8.9806 17.6825 37.5562 0.0000 0.0000 0.0000
# 4 0.0000 0.0000 0.0000 -0.2069 0.0000 0.0000
# 5 0.0000 0.0000 0.0000 0.0000 -0.0335 0.0000
# 6 0.0000 0.0000 0.0000 0.0000 0.0000 39.5055
#
#
#
# Elastic Compliance Matrix: (Units=1/GPa)
#
#
# Indices 1 2 3 4 5 6 
#
# 1 0.012218 -0.000029 -0.002908 0.000000 0.000000 0.000000
# 2 -0.000029 0.012488 -0.005873 0.000000 0.000000 0.000000
# 3 -0.002908 -0.005873 0.030087 0.000000 0.000000 0.000000
# 4 0.000000 0.000000 0.000000 -4.832589 0.000000 0.000000
# 5 0.000000 0.000000 0.000000 0.000000-29.867216 0.000000
# 6 0.000000 0.000000 0.000000 0.000000 0.000000 0.025313
#
#
# Mechanical properties :
#
#
# Convention : Reuss Voigt Hill
#
# Bulk Modulus (GPa) = 26.90101 30.23583 28.56842
# Shear Modulus (GPa) = -0.14455 19.77771 9.81658
#
# Velocity S-wave (km/s) = -0.27690 3.23891 2.28187
# Velocity P-wave (km/s) = 3.76387 5.47953 4.70063
#
# Compressibility (1/GPa) = 0.03717332
#
# Stress axis : x y z
#
# Youngs Moduli (GPa) = 81.84764 80.07666 33.23684
#
# Poissons Ratio (x) = 0.00235 0.09664
# Poissons Ratio (y) = 0.00241 0.19519
# Poissons Ratio (z) = 0.23799 0.47027
#
# Static dielectric constant tensor:
#      x y z
#    x 3.508570 0.000000 0.000000 
#    y 0.000000 3.731970 0.000000 
#    z 0.000000 0.000000 2.788300 
# 
# 
# High freq. dielectric constant tensor:
#      x y z
#    x 1.744870 0.000000 0.000000 
#    y 0.000000 1.750190 0.000000 
#    z 0.000000 0.000000 1.651210 
# 
# From -- ./inp_files/18867.got.cif
#   From: 2010.03.12/outbox.cif.g09.slc.cpg/sg49_10_cif.got.tgz:18867.got - 2010.04.14 03:58:27.
