data_PCOD8204201
_publ_section_title
;
Structure prediction by ZEFSAII (Michael W. Deem and Ramdas Pophale) SiO2 
 PCOD8204201
Probable space group: P C C M
;
_chemical_formula_sum "Si O2"
_cell_formula_units_Z 64
_cell_length_a 21.028798
_cell_length_b 9.310447
_cell_length_c 14.874955
_cell_angle_alpha 90.000000
_cell_angle_beta 90.000000
_cell_angle_gamma 90.000000
_cell_volume 2912.330390
_symmetry_space_group_name_H-M "P C C M"
_symmetry_group_IT_number 49
_symmetry_cell_setting 'orthorhombic'
loop_
_space_group_symop_operation_xyz
x,y,z
-x,-y,z
x,-y,1/2-z
-x,y,1/2-z
-x,-y,-z
x,y,-z
-x,y,1/2+z
x,-y,1/2+z
loop_
_atom_site_type_symbol
_atom_site_label
_atom_site_fract_x
_atom_site_fract_y
_atom_site_fract_z
Si Si1 0.058459 0.822238 0.102250
Si Si2 0.909737 0.857648 0.896443
Si Si3 0.251381 0.725759 0.098382
Si Si4 0.141102 0.330081 0.735508
Si Si5 0.411303 0.772130 0.598381
Si Si6 0.548851 0.726099 0.394085
Si Si7 0.354332 0.504301 0.147648
Si Si8 0.350306 0.943776 0.846022
O O1 0.082212 0.700858 0.170084
O O2 0.983632 0.826310 0.117905
O O3 0.095716 0.971753 0.124091
O O4 0.072951 0.777847 0.000000
O O5 0.866967 0.760145 0.828941
O O6 0.889330 0.824585 0.000000
O O7 0.204136 0.718290 0.182445
O O8 0.299634 0.591169 0.096423
O O9 0.289609 0.875626 0.104761
O O10 0.216950 0.725299 0.000000
O O11 0.143610 0.500000 0.750000
O O12 0.434554 0.733139 0.500000
O O13 0.478890 0.751563 0.649819
O O14 0.355108 0.663501 0.623815
O O15 0.381759 0.929303 0.597859
O O16 0.555322 0.766601 0.500000
O O17 0.575086 0.565056 0.376510
O O18 0.595807 0.823242 0.333524
O O19 0.335829 0.500000 0.250000
O O20 0.327831 0.000000 0.750000
#
# Coordination Sequence:
#
# PCOD8204201 Si02
#       8
#     8   8   8   8   8   8   8   8
#     4   9  19  40  68  99 135 177 213 251 310 373
#     4   9  20  40  68 100 137 174 211 256 310 372
#     4  11  25  47  64  77 114 169 212 256 317 374
#     4  12  25  39  62  96 131 169 219 268 316 374
#     4  11  21  35  60  90 113 143 196 251 298 367
#     4  10  21  37  56  83 122 158 183 226 309 396
#     4  11  22  38  59  83 114 152 197 248 306 374
#     4  11  23  38  60  86 115 148 191 251 315 373
#
# _framework density 21.975528000000001
#
# number of rings (size 3 to 8) (size 9 to 14) (size 15 to 20)
#    0.000    1.500    0.000    7.500    0.000    9.000 
#    0.000    1.250    0.000    3.000    0.000    0.000 
#    0.000    0.000    0.000    0.000    0.000    0.000 
#
# Total GULP energy -793162.863777 kJ/mol
# GULP energy per Si atom -12393.169747 kJ/mol
# Density = 2.192551 g / cm^3
# Si number density = 21.975528 Si / 1000 Ang^3
#
#
#
# Elastic Constant Matrix: (Units=GPa)
#
#
# Indices 1 2 3 4 5 6 
#
# 1 86.5560 35.8729 40.9311 0.0000 0.0000 0.0000
# 2 35.8729 91.8707 37.5496 0.0000 0.0000 0.0000
# 3 40.9311 37.5496 120.4100 0.0000 0.0000 0.0000
# 4 0.0000 0.0000 0.0000 33.8606 0.0000 0.0000
# 5 0.0000 0.0000 0.0000 0.0000 36.3479 0.0000
# 6 0.0000 0.0000 0.0000 0.0000 0.0000 21.2071
#
#
#
# Elastic Compliance Matrix: (Units=1/GPa)
#
#
# Indices 1 2 3 4 5 6 
#
# 1 0.015156 -0.004369 -0.003789 0.000000 0.000000 0.000000
# 2 -0.004369 0.013734 -0.002798 0.000000 0.000000 0.000000
# 3 -0.003789 -0.002798 0.010466 0.000000 0.000000 0.000000
# 4 0.000000 0.000000 0.000000 0.029533 0.000000 0.000000
# 5 0.000000 0.000000 0.000000 0.000000 0.027512 0.000000
# 6 0.000000 0.000000 0.000000 0.000000 0.000000 0.047154
#
#
# Mechanical properties :
#
#
# Convention : Reuss Voigt Hill
#
# Bulk Modulus (GPa) = 57.32924 58.61598 57.97261
# Shear Modulus (GPa) = 29.19160 30.58199 29.88680
#
# Velocity S-wave (km/s) = 3.64863 3.73451 3.69182
# Velocity P-wave (km/s) = 6.62529 6.73251 6.67911
#
# Compressibility (1/GPa) = 0.01744311
#
# Stress axis : x y z
#
# Youngs Moduli (GPa) = 65.98056 72.80975 95.55089
#
# Poissons Ratio (x) = 0.31812 0.36209
# Poissons Ratio (y) = 0.28828 0.26734
# Poissons Ratio (z) = 0.25003 0.20371
#
# Static dielectric constant tensor:
#      x y z
#    x 3.794240 0.000000 0.000000 
#    y 0.000000 3.899630 0.000000 
#    z 0.000000 0.000000 3.974330 
# 
# 
# High freq. dielectric constant tensor:
#      x y z
#    x 1.846630 0.000000 0.000000 
#    y 0.000000 1.862730 0.000000 
#    z 0.000000 0.000000 1.876250 
# 
# From -- ./inp_files/14510.got.cif
#   From: 2010.03.12/outbox.cif.g09.slc.cpg/sg49_8_cif.got.tgz:14510.got - 2010.04.14 03:58:27.
