data_PCOD8204151
_publ_section_title
;
Structure prediction by ZEFSAII (Michael W. Deem and Ramdas Pophale) SiO2 
 PCOD8204151
Probable space group: P C C M
;
_chemical_formula_sum "Si O2"
_cell_formula_units_Z 48
_cell_length_a 9.346007
_cell_length_b 30.562645
_cell_length_c 8.561575
_cell_angle_alpha 90.000000
_cell_angle_beta 90.000000
_cell_angle_gamma 90.000000
_cell_volume 2445.517103
_symmetry_space_group_name_H-M "P C C M"
_symmetry_group_IT_number 49
_symmetry_cell_setting 'orthorhombic'
loop_
_space_group_symop_operation_xyz
x,y,z
-x,-y,z
x,-y,1/2-z
-x,y,1/2-z
-x,-y,-z
x,y,-z
-x,y,1/2+z
x,-y,1/2+z
loop_
_atom_site_type_symbol
_atom_site_label
_atom_site_fract_x
_atom_site_fract_y
_atom_site_fract_z
Si Si1 0.657382 0.955024 0.684990
Si Si2 0.156990 0.622139 0.184312
Si Si3 0.651216 0.547933 0.185022
Si Si4 0.844132 0.874417 0.315536
Si Si5 0.845947 0.216700 0.317987
Si Si6 0.341887 0.699782 0.316485
O O1 0.500000 0.949161 0.750000
O O2 0.653975 0.957266 0.500000
O O3 0.746232 0.913681 0.747199
O O4 0.726576 0.000000 0.750000
O O5 0.219526 0.578437 0.261275
O O6 0.257290 0.662516 0.226023
O O7 0.000000 0.631325 0.250000
O O8 0.149682 0.615959 0.000000
O O9 0.682900 0.500000 0.250000
O O10 0.500000 0.566111 0.250000
O O11 0.642272 0.546381 0.000000
O O12 0.848741 0.873611 0.500000
O O13 0.784271 0.827901 0.256103
O O14 0.000000 0.882979 0.250000
O O15 0.866724 0.209087 0.500000
O O16 0.733095 0.254309 0.279873
O O17 0.000000 0.229912 0.250000
O O18 0.500000 0.702285 0.250000
O O19 0.343366 0.688902 0.500000
#
# Coordination Sequence:
#
# PCOD8204151 Si02
#       6
#     8   8   8   8   8   8
#     4  10  21  36  55  79 107 143 183 227 276 330
#     4  12  25  42  63  89 120 157 198 243 293 347
#     4  11  22  40  64  92 124 160 200 244 293 346
#     4  10  21  36  56  82 111 144 184 227 277 332
#     4  10  21  37  59  84 113 148 187 230 282 337
#     4  11  24  41  61  88 118 153 194 239 288 341
#
# _framework density 19.627752000000001
#
# number of rings (size 3 to 8) (size 9 to 14) (size 15 to 20)
#    0.000    1.333    0.000    8.000    0.000    8.000 
#    0.000    6.667    0.000    0.000    0.000    0.000 
#    0.000    0.000    0.000    0.000    0.000    0.000 
#
# Total GULP energy -595405.260458 kJ/mol
# GULP energy per Si atom -12404.276260 kJ/mol
# Density = 1.958308 g / cm^3
# Si number density = 19.627752 Si / 1000 Ang^3
#
#
#
# Elastic Constant Matrix: (Units=GPa)
#
#
# Indices 1 2 3 4 5 6 
#
# 1 111.1472 71.1303 41.3665 0.0000 0.0000 0.0000
# 2 71.1303 127.5947 54.7896 0.0000 0.0000 0.0000
# 3 41.3665 54.7896 131.2800 0.0000 0.0000 0.0000
# 4 0.0000 0.0000 0.0000 58.8464 0.0000 0.0000
# 5 0.0000 0.0000 0.0000 0.0000 24.1070 0.0000
# 6 0.0000 0.0000 0.0000 0.0000 0.0000 61.6954
#
#
#
# Elastic Compliance Matrix: (Units=1/GPa)
#
#
# Indices 1 2 3 4 5 6 
#
# 1 0.014203 -0.007305 -0.001427 0.000000 0.000000 0.000000
# 2 -0.007305 0.013306 -0.003251 0.000000 0.000000 0.000000
# 3 -0.001427 -0.003251 0.009424 0.000000 0.000000 0.000000
# 4 0.000000 0.000000 0.000000 0.016993 0.000000 0.000000
# 5 0.000000 0.000000 0.000000 0.000000 0.041482 0.000000
# 6 0.000000 0.000000 0.000000 0.000000 0.000000 0.016209
#
#
# Mechanical properties :
#
#
# Convention : Reuss Voigt Hill
#
# Bulk Modulus (GPa) = 77.12184 78.28829 77.70506
# Shear Modulus (GPa) = 35.73854 42.44547 39.09200
#
# Velocity S-wave (km/s) = 4.27173 4.65534 4.46765
# Velocity P-wave (km/s) = 7.98172 8.29876 8.14178
#
# Compressibility (1/GPa) = 0.01296650
#
# Stress axis : x y z
#
# Youngs Moduli (GPa) = 70.40710 75.15466 106.11476
#
# Poissons Ratio (x) = 0.54902 0.15138
# Poissons Ratio (y) = 0.51434 0.34501
# Poissons Ratio (z) = 0.10044 0.24435
#
# Static dielectric constant tensor:
#      x y z
#    x 3.642150 0.000000 0.000000 
#    y 0.000000 4.004240 0.000000 
#    z 0.000000 0.000000 3.745130 
# 
# 
# High freq. dielectric constant tensor:
#      x y z
#    x 1.763500 0.000000 0.000000 
#    y 0.000000 1.782270 0.000000 
#    z 0.000000 0.000000 1.785330 
# 
# From -- ./inp_files/2060.got.cif
#   From: 2010.03.12/outbox.cif.g09.slc.cpg/sg49_2_cif.got.tgz:2060.got - 2010.04.14 03:58:27.
