data_PCOD8204548
_publ_section_title
;
Structure prediction by ZEFSAII (Michael W. Deem and Ramdas Pophale) SiO2 
 PCOD8204548
Probable space group: P C C M
;
_chemical_formula_sum "Si O2"
_cell_formula_units_Z 38
_cell_length_a 11.373650
_cell_length_b 16.058656
_cell_length_c 9.010510
_cell_angle_alpha 90.000000
_cell_angle_beta 90.000000
_cell_angle_gamma 90.000000
_cell_volume 1645.729400
_symmetry_space_group_name_H-M "P C C M"
_symmetry_group_IT_number 49
_symmetry_cell_setting 'orthorhombic'
loop_
_space_group_symop_operation_xyz
x,y,z
-x,-y,z
x,-y,1/2-z
-x,y,1/2-z
-x,-y,-z
x,y,-z
-x,y,1/2+z
x,-y,1/2+z
loop_
_atom_site_type_symbol
_atom_site_label
_atom_site_fract_x
_atom_site_fract_y
_atom_site_fract_z
Si Si1 0.116804 0.355404 0.322207
Si Si2 0.660509 0.576803 0.834322
Si Si3 0.885185 0.175565 0.324029
Si Si4 0.667370 0.861836 0.657898
Si Si5 0.500000 0.281378 0.750000
Si Si6 0.500000 0.000000 0.250000
O O1 0.107305 0.351906 0.500000
O O2 0.227808 0.407768 0.270807
O O3 0.130577 0.263797 0.254350
O O4 0.000000 0.396250 0.250000
O O5 0.595774 0.500000 0.750000
O O6 0.576294 0.657137 0.853434
O O7 0.700010 0.551423 0.000000
O O8 0.900839 0.183602 0.500000
O O9 0.764193 0.126449 0.287902
O O10 0.000000 0.131305 0.250000
O O11 0.734354 0.858766 0.500000
O O12 0.591204 0.777179 0.663871
O O13 0.581329 0.940676 0.651240
#
# Coordination Sequence:
#
# PCOD8204548 Si02
#       6
#     8   8   8   8   4   2
#     4  11  22  40  66  95 129 169 218 274 334 396
#     4  12  26  43  63  93 132 174 225 279 335 395
#     4  11  22  39  67 101 134 172 219 272 327 392
#     4  11  23  43  71 101 137 177 221 270 326 393
#     4  11  25  41  69  94 130 172 229 269 335 391
#     4  10  26  44  68 106 144 180 222 268 326 382
#
# _framework density 23.090064999999999
#
# number of rings (size 3 to 8) (size 9 to 14) (size 15 to 20)
#    0.000    0.842    2.105    6.947    0.000    8.000 
#    0.000    2.632    0.000    2.526    0.000    0.000 
#    0.000    0.000    0.000    0.000    0.000    0.000 
#
# Total GULP energy -470922.610033 kJ/mol
# GULP energy per Si atom -12392.700264 kJ/mol
# Density = 2.303751 g / cm^3
# Si number density = 23.090065 Si / 1000 Ang^3
#
#
#
# Elastic Constant Matrix: (Units=GPa)
#
#
# Indices 1 2 3 4 5 6 
#
# 1 150.3511 44.2139 63.6373 0.0000 0.0000 0.0000
# 2 44.2139 107.2137 37.6720 0.0000 0.0000 0.0000
# 3 63.6373 37.6720 224.6923 0.0000 0.0000 0.0000
# 4 0.0000 0.0000 0.0000 3.5433 0.0000 0.0000
# 5 0.0000 0.0000 0.0000 0.0000 20.2213 0.0000
# 6 0.0000 0.0000 0.0000 0.0000 0.0000 20.7791
#
#
#
# Elastic Compliance Matrix: (Units=1/GPa)
#
#
# Indices 1 2 3 4 5 6 
#
# 1 0.008252 -0.002744 -0.001877 0.000000 0.000000 0.000000
# 2 -0.002744 0.010823 -0.001038 0.000000 0.000000 0.000000
# 3 -0.001877 -0.001038 0.005156 0.000000 0.000000 0.000000
# 4 0.000000 0.000000 0.000000 0.282226 0.000000 0.000000
# 5 0.000000 0.000000 0.000000 0.000000 0.049453 0.000000
# 6 0.000000 0.000000 0.000000 0.000000 0.000000 0.048125
#
#
# Mechanical properties :
#
#
# Convention : Reuss Voigt Hill
#
# Bulk Modulus (GPa) = 77.42987 85.92261 81.67624
# Shear Modulus (GPa) = 11.91447 31.35767 21.63607
#
# Velocity S-wave (km/s) = 2.27403 3.68918 3.06441
# Velocity P-wave (km/s) = 6.36409 7.44577 6.92608
#
# Compressibility (1/GPa) = 0.01291491
#
# Stress axis : x y z
#
# Youngs Moduli (GPa) = 121.17560 92.39427 193.94244
#
# Poissons Ratio (x) = 0.25349 0.36408
# Poissons Ratio (y) = 0.33246 0.20123
# Poissons Ratio (z) = 0.22748 0.09587
#
# Static dielectric constant tensor:
#      x y z
#    x 4.708620 0.000000 0.000000 
#    y 0.000000 4.017120 0.000000 
#    z 0.000000 0.000000 3.890920 
# 
# 
# High freq. dielectric constant tensor:
#      x y z
#    x 1.929410 0.000000 0.000000 
#    y 0.000000 1.895230 0.000000 
#    z 0.000000 0.000000 1.915090 
# 
# From -- ./inp_files/2703.got.cif
#   From: 2010.03.12/outbox.cif.g09.slc.cpg/sg49_2_cif.got.tgz:2703.got - 2010.04.14 03:58:27.
