data_PCOD8204469
_publ_section_title
;
Structure prediction by ZEFSAII (Michael W. Deem and Ramdas Pophale) SiO2 
 PCOD8204469
Probable space group: P C C M
;
_chemical_formula_sum "Si O2"
_cell_formula_units_Z 58
_cell_length_a 16.976251
_cell_length_b 18.015910
_cell_length_c 8.738702
_cell_angle_alpha 90.000000
_cell_angle_beta 90.000000
_cell_angle_gamma 90.000000
_cell_volume 2672.667429
_symmetry_space_group_name_H-M "P C C M"
_symmetry_group_IT_number 49
_symmetry_cell_setting 'orthorhombic'
loop_
_space_group_symop_operation_xyz
x,y,z
-x,-y,z
x,-y,1/2-z
-x,y,1/2-z
-x,-y,-z
x,y,-z
-x,y,1/2+z
x,-y,1/2+z
loop_
_atom_site_type_symbol
_atom_site_label
_atom_site_fract_x
_atom_site_fract_y
_atom_site_fract_z
Si Si1 0.586165 0.424757 0.181526
Si Si2 0.079944 0.178262 0.319442
Si Si3 0.208092 0.923988 0.680870
Si Si4 0.173206 0.298926 0.181644
Si Si5 0.080563 0.419067 0.682894
Si Si6 0.337632 0.731071 0.819580
Si Si7 0.500000 0.000000 0.750000
Si Si8 0.378789 0.124010 0.830268
O O1 0.627098 0.500000 0.250000
O O2 0.500000 0.419162 0.250000
O O3 0.629009 0.348852 0.232882
O O4 0.582909 0.431801 0.000000
O O5 0.073094 0.180087 0.500000
O O6 0.156629 0.135759 0.265507
O O7 0.095156 0.259130 0.249343
O O8 0.000000 0.143778 0.250000
O O9 0.194869 0.920354 0.500000
O O10 0.298727 0.913235 0.729367
O O11 0.177324 0.000000 0.750000
O O12 0.160343 0.380273 0.252572
O O13 0.253291 0.259918 0.238753
O O14 0.172774 0.298479 0.000000
O O15 0.087232 0.500000 0.750000
O O16 0.079464 0.418506 0.500000
O O17 0.000000 0.382848 0.750000
O O18 0.394167 0.801233 0.771056
O O19 0.327029 0.734133 0.000000
O O20 0.444881 0.058932 0.838874
O O21 0.368349 0.155266 0.000000
#
# Coordination Sequence:
#
# PCOD8204469 Si02
#       8
#     8   8   8   8   8   8   2   8
#     4  10  22  41  66  96 130 172 218 271 330 396
#     4  12  25  43  67  96 129 169 219 274 331 398
#     4  11  23  43  68  97 132 174 219 270 334 393
#     4  12  24  41  64  93 128 171 219 271 330 395
#     4  11  22  39  61  90 128 172 221 276 334 393
#     4  11  25  43  66  97 133 173 221 275 335 401
#     4  12  26  48  72 110 142 180 232 274 334 404
#     4  11  25  44  69 100 138 180 226 276 335 403
#
# _framework density 21.701167000000002
#
# number of rings (size 3 to 8) (size 9 to 14) (size 15 to 20)
#    0.000    0.828    2.069    6.414    0.966    4.690 
#    0.000    2.759    0.000    0.000    0.000    0.000 
#    0.000    0.000    0.000    0.000    0.000    0.000 
#
# Total GULP energy -718824.668538 kJ/mol
# GULP energy per Si atom -12393.528768 kJ/mol
# Density = 2.165177 g / cm^3
# Si number density = 21.701167 Si / 1000 Ang^3
#
#
#
# Elastic Constant Matrix: (Units=GPa)
#
#
# Indices 1 2 3 4 5 6 
#
# 1 88.7442 54.3775 39.6070 0.0000 0.0000 0.0000
# 2 54.3775 130.0187 62.6957 0.0000 0.0000 0.0000
# 3 39.6070 62.6957 157.5844 0.0000 0.0000 0.0000
# 4 0.0000 0.0000 0.0000 34.8604 0.0000 0.0000
# 5 0.0000 0.0000 0.0000 0.0000 70.6256 0.0000
# 6 0.0000 0.0000 0.0000 0.0000 0.0000 31.6860
#
#
#
# Elastic Compliance Matrix: (Units=1/GPa)
#
#
# Indices 1 2 3 4 5 6 
#
# 1 0.015481 -0.005690 -0.001627 0.000000 0.000000 0.000000
# 2 -0.005690 0.011608 -0.003188 0.000000 0.000000 0.000000
# 3 -0.001627 -0.003188 0.008023 0.000000 0.000000 0.000000
# 4 0.000000 0.000000 0.000000 0.028686 0.000000 0.000000
# 5 0.000000 0.000000 0.000000 0.000000 0.014159 0.000000
# 6 0.000000 0.000000 0.000000 0.000000 0.000000 0.031560
#
#
# Mechanical properties :
#
#
# Convention : Reuss Voigt Hill
#
# Bulk Modulus (GPa) = 70.91352 76.63418 73.77385
# Shear Modulus (GPa) = 36.97435 42.07889 39.52662
#
# Velocity S-wave (km/s) = 4.13218 4.40820 4.27242
# Velocity P-wave (km/s) = 7.45083 7.82941 7.64246
#
# Compressibility (1/GPa) = 0.01410168
#
# Stress axis : x y z
#
# Youngs Moduli (GPa) = 64.59502 86.14503 124.63738
#
# Poissons Ratio (x) = 0.49016 0.20281
# Poissons Ratio (y) = 0.36754 0.39738
# Poissons Ratio (z) = 0.10511 0.27466
#
# Static dielectric constant tensor:
#      x y z
#    x 3.991880 0.000000 0.000000 
#    y 0.000000 4.316190 0.000000 
#    z 0.000000 0.000000 3.900720 
# 
# 
# High freq. dielectric constant tensor:
#      x y z
#    x 1.847040 0.000000 0.000000 
#    y 0.000000 1.871660 0.000000 
#    z 0.000000 0.000000 1.860060 
# 
# From -- ./inp_files/5068.got.cif
#   From: 2010.03.12/outbox.cif.g09.slc.cpg/sg49_3_cif.got.tgz:5068.got - 2010.04.14 03:58:27.
