data_PCOD8204918
_publ_section_title
;
Structure prediction by ZEFSAII (Michael W. Deem and Ramdas Pophale) SiO2 
 PCOD8204918
Probable space group: P B A N
;
_chemical_formula_sum "Si O2"
_cell_formula_units_Z 58
_cell_length_a 9.892696
_cell_length_b 24.912060
_cell_length_c 12.371170
_cell_angle_alpha 90.000000
_cell_angle_beta 90.000000
_cell_angle_gamma 90.000000
_cell_volume 3048.843131
_symmetry_space_group_name_H-M "P B A N"
_symmetry_group_IT_number 50
_space_group.IT_coordinate_system_code '2'
_symmetry_cell_setting 'orthorhombic'
loop_
_space_group_symop_operation_xyz
x,y,z
1/2-x,1/2-y,z
x,1/2-y,-z
1/2-x,y,-z
-x,-y,-z
1/2+x,1/2+y,-z
-x,1/2+y,z
1/2+x,-y,z
loop_
_atom_site_type_symbol
_atom_site_label
_atom_site_fract_x
_atom_site_fract_y
_atom_site_fract_z
Si Si1 0.988500 0.375220 0.397159
Si Si2 0.546222 0.804811 0.161655
Si Si3 0.868380 0.214290 0.752320
Si Si4 0.750000 0.750000 0.000000
Si Si5 0.537790 0.874216 0.358801
Si Si6 0.734732 0.068416 0.683120
Si Si7 0.229866 0.051175 0.625920
Si Si8 0.209794 0.869556 0.882890
O O1 0.948143 0.321234 0.334912
O O2 0.860848 0.416319 0.394952
O O3 0.044069 0.357849 0.514957
O O4 0.110861 0.407709 0.341190
O O5 0.474079 0.748680 0.180989
O O6 0.590365 0.825838 0.281733
O O7 0.448452 0.852120 0.116891
O O8 0.664891 0.790916 0.076666
O O9 0.750000 0.250000 0.694041
O O10 0.797062 0.180949 0.845909
O O11 0.382679 0.889383 0.343596
O O12 0.629722 0.925618 0.328970
O O13 0.756354 0.079926 0.809704
O O14 0.694777 0.006657 0.674260
O O15 0.250000 0.043031 0.500000
O O16 0.250000 0.888900 0.000000
#
# Coordination Sequence:
#
# PCOD8204918 Si02
#       8
#     8   8   8   2   8   8   8   8
#     4  10  20  34  57  85 113 153 182 220 278 339
#     4  10  22  36  55  79 104 144 183 233 275 329
#     4   9  19  35  58  85 110 143 188 235 281 331
#     4  12  24  36  58  74 100 152 196 222 280 346
#     4  10  21  36  54  83 119 142 181 229 277 331
#     4  10  19  33  58  85 110 147 189 230 270 327
#     4  10  20  34  55  81 116 153 181 219 275 339
#     4   9  18  36  58  81 108 136 184 242 284 317
#
# _framework density 19.023609
#
# number of rings (size 3 to 8) (size 9 to 14) (size 15 to 20)
#    0.000    2.207    0.000    3.724    1.931    4.690 
#    0.000    3.448    1.517    4.966    0.000    0.000 
#    0.000    0.000    0.000    0.000    0.000    0.000 
#
# Total GULP energy -718707.416294 kJ/mol
# GULP energy per Si atom -12391.507177 kJ/mol
# Density = 1.898031 g / cm^3
# Si number density = 19.023609 Si / 1000 Ang^3
#
#
#
# Elastic Constant Matrix: (Units=GPa)
#
#
# Indices 1 2 3 4 5 6 
#
# 1 86.7190 38.1590 40.3583 0.0000 0.0000 0.0000
# 2 38.1590 81.0887 44.2565 0.0000 0.0000 0.0000
# 3 40.3583 44.2565 99.7025 0.0000 0.0000 0.0000
# 4 0.0000 0.0000 0.0000 22.5276 0.0000 0.0000
# 5 0.0000 0.0000 0.0000 0.0000 25.1586 0.0000
# 6 0.0000 0.0000 0.0000 0.0000 0.0000 31.6771
#
#
#
# Elastic Compliance Matrix: (Units=1/GPa)
#
#
# Indices 1 2 3 4 5 6 
#
# 1 0.015696 -0.005171 -0.004058 0.000000 0.000000 0.000000
# 2 -0.005171 0.017979 -0.005887 0.000000 0.000000 0.000000
# 3 -0.004058 -0.005887 0.014286 0.000000 0.000000 0.000000
# 4 0.000000 0.000000 0.000000 0.044390 0.000000 0.000000
# 5 0.000000 0.000000 0.000000 0.000000 0.039748 0.000000
# 6 0.000000 0.000000 0.000000 0.000000 0.000000 0.031569
#
#
# Mechanical properties :
#
#
# Convention : Reuss Voigt Hill
#
# Bulk Modulus (GPa) = 56.41071 57.00640 56.70855
# Shear Modulus (GPa) = 25.02397 25.52176 25.27287
#
# Velocity S-wave (km/s) = 3.63080 3.66674 3.64881
# Velocity P-wave (km/s) = 6.87709 6.92516 6.90116
#
# Compressibility (1/GPa) = 0.01772713
#
# Stress axis : x y z
#
# Youngs Moduli (GPa) = 63.71236 55.62087 70.00024
#
# Poissons Ratio (x) = 0.28764 0.28405
# Poissons Ratio (y) = 0.32948 0.41211
# Poissons Ratio (z) = 0.25854 0.32745
#
# Static dielectric constant tensor:
#      x y z
#    x 3.654290 0.000000 0.000000 
#    y 0.000000 3.438910 0.000000 
#    z 0.000000 0.000000 3.466950 
# 
# 
# High freq. dielectric constant tensor:
#      x y z
#    x 1.744730 0.000000 0.000000 
#    y 0.000000 1.730190 0.000000 
#    z 0.000000 0.000000 1.725520 
# 
# From -- ./inp_files/19397.got.cif
#   From: 2010.03.12/outbox.cif.g09.slc.cpg/sg50_10_cif.got.tgz:19397.got - 2010.04.16 13:23:21.
