data_PCOD8204069
_publ_section_title
;
Structure prediction by ZEFSAII (Michael W. Deem and Ramdas Pophale) SiO2 
 PCOD8204069
Probable space group: P C C M
;
_chemical_formula_sum "Si O2"
_cell_formula_units_Z 38
_cell_length_a 11.340627
_cell_length_b 15.757568
_cell_length_c 9.703432
_cell_angle_alpha 90.000000
_cell_angle_beta 90.000000
_cell_angle_gamma 90.000000
_cell_volume 1734.010102
_symmetry_space_group_name_H-M "P C C M"
_symmetry_group_IT_number 49
_symmetry_cell_setting 'orthorhombic'
loop_
_space_group_symop_operation_xyz
x,y,z
-x,-y,z
x,-y,1/2-z
-x,y,1/2-z
-x,-y,-z
x,y,-z
-x,y,1/2+z
x,-y,1/2+z
loop_
_atom_site_type_symbol
_atom_site_label
_atom_site_fract_x
_atom_site_fract_y
_atom_site_fract_z
Si Si1 0.104259 0.360813 0.156239
Si Si2 0.646702 0.572968 0.847417
Si Si3 0.889009 0.159950 0.339292
Si Si4 0.670313 0.862447 0.652382
Si Si5 0.500000 0.280167 0.750000
Si Si6 0.500000 0.000000 0.250000
O O1 0.224503 0.402368 0.209173
O O2 0.115526 0.260424 0.170829
O O3 0.000000 0.397306 0.250000
O O4 0.076240 0.386280 0.000000
O O5 0.593406 0.500000 0.750000
O O6 0.567231 0.657530 0.855317
O O7 0.653505 0.534487 0.000000
O O8 0.896262 0.130086 0.500000
O O9 0.769618 0.124652 0.269436
O O10 0.000000 0.125115 0.250000
O O11 0.728883 0.858189 0.500000
O O12 0.595793 0.776556 0.671700
O O13 0.581584 0.941590 0.654241
#
# Coordination Sequence:
#
# PCOD8204069 Si02
#       6
#     8   8   8   8   4   2
#     4   9  19  37  59  85 119 157 202 255 310 369
#     4  11  24  41  58  85 123 163 210 264 317 370
#     4  10  20  38  65  96 129 164 207 260 314 375
#     4  11  23  41  69  98 127 167 213 257 312 377
#     4  11  23  41  63  88 122 166 213 261 315 377
#     4  10  26  44  64  98 140 172 206 256 306 370
#
# _framework density 21.91452
#
# number of rings (size 3 to 8) (size 9 to 14) (size 15 to 20)
#    0.000    1.684    2.105    1.895    0.000    8.842 
#    0.000    2.632    0.000    2.526    0.000    0.000 
#    0.000    0.000    0.000    0.000    0.000    0.000 
#
# Total GULP energy -471151.970206 kJ/mol
# GULP energy per Si atom -12398.736058 kJ/mol
# Density = 2.186464 g / cm^3
# Si number density = 21.914520 Si / 1000 Ang^3
#
#
#
# Elastic Constant Matrix: (Units=GPa)
#
#
# Indices 1 2 3 4 5 6 
#
# 1 152.1328 40.2733 69.0396 0.0000 0.0000 0.0000
# 2 40.2733 84.0323 34.8176 0.0000 0.0000 0.0000
# 3 69.0396 34.8176 149.8406 0.0000 0.0000 0.0000
# 4 0.0000 0.0000 0.0000 9.5635 0.0000 0.0000
# 5 0.0000 0.0000 0.0000 0.0000 28.7764 0.0000
# 6 0.0000 0.0000 0.0000 0.0000 0.0000 23.0220
#
#
#
# Elastic Compliance Matrix: (Units=1/GPa)
#
#
# Indices 1 2 3 4 5 6 
#
# 1 0.008882 -0.002834 -0.003434 0.000000 0.000000 0.000000
# 2 -0.002834 0.014072 -0.001964 0.000000 0.000000 0.000000
# 3 -0.003434 -0.001964 0.008712 0.000000 0.000000 0.000000
# 4 0.000000 0.000000 0.000000 0.104564 0.000000 0.000000
# 5 0.000000 0.000000 0.000000 0.000000 0.034751 0.000000
# 6 0.000000 0.000000 0.000000 0.000000 0.000000 0.043437
#
#
# Mechanical properties :
#
#
# Convention : Reuss Voigt Hill
#
# Bulk Modulus (GPa) = 65.77858 74.91851 70.34855
# Shear Modulus (GPa) = 21.19106 28.39740 24.79423
#
# Velocity S-wave (km/s) = 3.11302 3.60366 3.36729
# Velocity P-wave (km/s) = 6.55761 7.18165 6.87671
#
# Compressibility (1/GPa) = 0.01520252
#
# Stress axis : x y z
#
# Youngs Moduli (GPa) = 112.59111 71.06217 114.78051
#
# Poissons Ratio (x) = 0.20138 0.39413
# Poissons Ratio (y) = 0.31907 0.22545
# Poissons Ratio (z) = 0.38661 0.13958
#
# Static dielectric constant tensor:
#      x y z
#    x 4.108140 0.000000 0.000000 
#    y 0.000000 3.718290 0.000000 
#    z 0.000000 0.000000 3.846590 
# 
# 
# High freq. dielectric constant tensor:
#      x y z
#    x 1.874440 0.000000 0.000000 
#    y 0.000000 1.847350 0.000000 
#    z 0.000000 0.000000 1.857020 
# 
# From -- ./inp_files/2704.got.cif
#   From: 2010.03.12/outbox.cif.g09.slc.cpg/sg49_2_cif.got.tgz:2704.got - 2010.04.14 03:58:27.
