data_PCOD8204937
_publ_section_title
;
Structure prediction by ZEFSAII (Michael W. Deem and Ramdas Pophale) SiO2 
 PCOD8204937
Probable space group: P B A N
;
_chemical_formula_sum "Si O2"
_cell_formula_units_Z 64
_cell_length_a 27.146230
_cell_length_b 8.751438
_cell_length_c 12.482533
_cell_angle_alpha 90.000000
_cell_angle_beta 90.000000
_cell_angle_gamma 90.000000
_cell_volume 2965.457250
_symmetry_space_group_name_H-M "P B A N"
_symmetry_group_IT_number 50
_space_group.IT_coordinate_system_code '2'
_symmetry_cell_setting 'orthorhombic'
loop_
_space_group_symop_operation_xyz
x,y,z
1/2-x,1/2-y,z
x,1/2-y,-z
1/2-x,y,-z
-x,-y,-z
1/2+x,1/2+y,-z
-x,1/2+y,z
1/2+x,-y,z
loop_
_atom_site_type_symbol
_atom_site_label
_atom_site_fract_x
_atom_site_fract_y
_atom_site_fract_z
Si Si1 0.842278 0.848330 0.600581
Si Si2 0.954232 0.803256 0.614037
Si Si3 0.557612 0.234274 0.875636
Si Si4 0.224393 0.895028 0.324793
Si Si5 0.167279 0.679629 0.888349
Si Si6 0.792466 0.639417 0.764263
Si Si7 0.011450 0.461454 0.247945
Si Si8 0.806615 0.921986 0.014861
O O1 0.822392 0.750000 0.500000
O O2 0.900355 0.873622 0.594763
O O3 0.830681 0.748787 0.705253
O O4 0.818017 0.018575 0.606563
O O5 0.976339 0.750000 0.500000
O O6 0.952059 0.660595 0.696515
O O7 0.988577 0.936403 0.658251
O O8 0.616028 0.244533 0.855131
O O9 0.531635 0.372151 0.813459
O O10 0.541158 0.067718 0.834559
O O11 0.544285 0.250000 0.000000
O O12 0.250000 0.750000 0.384897
O O13 0.203996 0.825454 0.212471
O O14 0.267233 0.020414 0.315004
O O15 0.190371 0.750000 0.000000
O O16 0.158386 0.506014 0.929034
O O17 0.750000 0.750000 0.816591
O O18 0.818841 0.542886 0.859366
O O19 0.820835 0.750000 0.000000
O O20 0.750000 0.967564 0.000000
#
# Coordination Sequence:
#
# PCOD8204937 Si02
#       8
#     8   8   8   8   8   8   8   8
#     4  10  23  42  61  83 118 161 208 259 304 359
#     4  10  21  40  67  96 121 152 197 257 323 376
#     4  10  22  40  58  89 124 168 206 247 301 374
#     4  11  22  36  58  85 115 159 204 250 299 352
#     4  11  23  35  56  89 129 157 197 249 311 363
#     4  10  19  34  56  80 112 156 204 249 301 353
#     4  10  21  39  67  90 124 157 200 252 310 378
#     4  11  18  32  54  82 115 154 203 247 294 353
#
# _framework density 21.581834000000001
#
# number of rings (size 3 to 8) (size 9 to 14) (size 15 to 20)
#    0.000    1.625    2.500    3.000    0.000    5.250 
#    0.000    4.375    0.000    6.000    0.000    0.000 
#    0.000    0.000    0.000    0.000    0.000    0.000 
#
# Total GULP energy -793173.788198 kJ/mol
# GULP energy per Si atom -12393.340441 kJ/mol
# Density = 2.153271 g / cm^3
# Si number density = 21.581834 Si / 1000 Ang^3
#
#
#
# Elastic Constant Matrix: (Units=GPa)
#
#
# Indices 1 2 3 4 5 6 
#
# 1 55.8715 37.1232 16.0922 0.0000 0.0000 0.0000
# 2 37.1232 116.7960 19.5980 0.0000 0.0000 0.0000
# 3 16.0922 19.5980 89.8370 0.0000 0.0000 0.0000
# 4 0.0000 0.0000 0.0000 37.6101 0.0000 0.0000
# 5 0.0000 0.0000 0.0000 0.0000 23.7444 0.0000
# 6 0.0000 0.0000 0.0000 0.0000 0.0000 27.5361
#
#
#
# Elastic Compliance Matrix: (Units=1/GPa)
#
#
# Indices 1 2 3 4 5 6 
#
# 1 0.023284 -0.006955 -0.002653 0.000000 0.000000 0.000000
# 2 -0.006955 0.010965 -0.001146 0.000000 0.000000 0.000000
# 3 -0.002653 -0.001146 0.011857 0.000000 0.000000 0.000000
# 4 0.000000 0.000000 0.000000 0.026589 0.000000 0.000000
# 5 0.000000 0.000000 0.000000 0.000000 0.042115 0.000000
# 6 0.000000 0.000000 0.000000 0.000000 0.000000 0.036316
#
#
# Mechanical properties :
#
#
# Convention : Reuss Voigt Hill
#
# Bulk Modulus (GPa) = 40.65780 45.34789 43.00285
# Shear Modulus (GPa) = 27.64970 30.42421 29.03696
#
# Velocity S-wave (km/s) = 3.58321 3.75869 3.67200
# Velocity P-wave (km/s) = 5.99991 6.31622 6.16010
#
# Compressibility (1/GPa) = 0.02459553
#
# Stress axis : x y z
#
# Youngs Moduli (GPa) = 42.94801 91.19904 84.34123
#
# Poissons Ratio (x) = 0.63433 0.22379
# Poissons Ratio (y) = 0.29872 0.09666
# Poissons Ratio (z) = 0.11396 0.10452
#
# Static dielectric constant tensor:
#      x y z
#    x 3.571220 0.000000 0.000000 
#    y 0.000000 4.097970 0.000000 
#    z 0.000000 0.000000 4.898840 
# 
# 
# High freq. dielectric constant tensor:
#      x y z
#    x 1.819170 0.000000 0.000000 
#    y 0.000000 1.863340 0.000000 
#    z 0.000000 0.000000 1.849560 
# 
# From -- ./inp_files/23413.got.cif
#   From: 2010.03.12/outbox.cif.g09.slc.cpg/sg50_12_cif.got.tgz:23413.got - 2010.04.16 13:23:21.
