data_PCOD8204910
_publ_section_title
;
Structure prediction by ZEFSAII (Michael W. Deem and Ramdas Pophale) SiO2 
 PCOD8204910
Probable space group: P B A N
;
_chemical_formula_sum "Si O2"
_cell_formula_units_Z 64
_cell_length_a 7.967216
_cell_length_b 18.306569
_cell_length_c 22.270331
_cell_angle_alpha 90.000000
_cell_angle_beta 90.000000
_cell_angle_gamma 90.000000
_cell_volume 3248.180990
_symmetry_space_group_name_H-M "P B A N"
_symmetry_group_IT_number 50
_space_group.IT_coordinate_system_code '2'
_symmetry_cell_setting 'orthorhombic'
loop_
_space_group_symop_operation_xyz
x,y,z
1/2-x,1/2-y,z
x,1/2-y,-z
1/2-x,y,-z
-x,-y,-z
1/2+x,1/2+y,-z
-x,1/2+y,z
1/2+x,-y,z
loop_
_atom_site_type_symbol
_atom_site_label
_atom_site_fract_x
_atom_site_fract_y
_atom_site_fract_z
Si Si1 0.250000 0.337262 0.568003
Si Si2 0.556910 0.831822 0.769385
Si Si3 0.449676 0.832173 1.000000
Si Si4 0.564816 0.336761 0.357318
Si Si5 0.564816 0.336761 0.642682
Si Si6 0.447659 0.582752 0.116290
Si Si7 0.556910 0.831822 0.230615
Si Si8 0.447659 0.582752 0.883710
O O1 0.250000 0.250000 0.569975
O O2 0.250000 0.366141 0.500000
O O3 0.417966 0.368820 0.600170
O O4 0.082034 0.368820 0.600170
O O5 0.458194 0.862604 0.711533
O O6 0.532267 0.886033 0.824347
O O7 0.494400 0.750000 0.786881
O O8 0.750000 0.829328 0.750564
O O9 0.517634 0.872937 0.940920
O O10 0.520806 0.750000 0.000000
O O11 0.250000 0.832608 0.000000
O O12 0.517634 0.872937 0.059080
O O13 0.551895 0.250000 0.358756
O O14 0.750000 0.362678 0.379572
O O15 0.541806 0.362605 0.288467
O O16 0.250000 0.591080 0.122494
O O17 0.500000 0.500000 0.107146
O O18 0.532267 0.886033 0.175653
#
# Coordination Sequence:
#
# PCOD8204910 Si02
#       8
#     8   8   8   8   8   8   8   8
#     4   9  16  26  40  64 102 141 177 221 269 323
#     4  10  19  33  53  76 103 137 179 228 277 329
#     4   9  19  36  57  79 104 137 182 227 270 329
#     4   9  16  27  44  67  97 137 180 221 271 326
#     4   9  16  27  44  67  97 137 180 221 271 326
#     4  11  22  36  54  77 107 142 177 224 278 332
#     4  10  19  33  53  76 103 137 179 228 277 329
#     4  11  22  36  54  77 107 142 177 224 278 332
#
# _framework density 19.703336
#
# number of rings (size 3 to 8) (size 9 to 14) (size 15 to 20)
#    0.000    2.250    1.250    2.625    0.000    3.000 
#    0.000    4.375    0.000    4.500    0.000    0.000 
#    0.000    1.000    0.500    0.000    0.000    0.000 
#
# Total GULP energy -793538.703331 kJ/mol
# GULP energy per Si atom -12399.042240 kJ/mol
# Density = 1.965849 g / cm^3
# Si number density = 19.703336 Si / 1000 Ang^3
#
#
#
# Elastic Constant Matrix: (Units=GPa)
#
#
# Indices 1 2 3 4 5 6 
#
# 1 113.4771 14.2241 59.1433 0.0000 0.0000 0.0000
# 2 14.2241 82.5110 44.8266 0.0000 0.0000 0.0000
# 3 59.1433 44.8266 153.1382 0.0000 0.0000 0.0000
# 4 0.0000 0.0000 0.0000 4.0624 0.0000 0.0000
# 5 0.0000 0.0000 0.0000 0.0000 24.6521 0.0000
# 6 0.0000 0.0000 0.0000 0.0000 0.0000 16.4611
#
#
#
# Elastic Compliance Matrix: (Units=1/GPa)
#
#
# Indices 1 2 3 4 5 6 
#
# 1 0.011050 0.000492 -0.004412 0.000000 0.000000 0.000000
# 2 0.000492 0.014433 -0.004415 0.000000 0.000000 0.000000
# 3 -0.004412 -0.004415 0.009526 0.000000 0.000000 0.000000
# 4 0.000000 0.000000 0.000000 0.246161 0.000000 0.000000
# 5 0.000000 0.000000 0.000000 0.000000 0.040564 0.000000
# 6 0.000000 0.000000 0.000000 0.000000 0.000000 0.060749
#
#
# Mechanical properties :
#
#
# Convention : Reuss Voigt Hill
#
# Bulk Modulus (GPa) = 54.52499 65.05715 59.79107
# Shear Modulus (GPa) = 12.33754 24.43059 18.38407
#
# Velocity S-wave (km/s) = 2.50504 3.52507 3.05789
# Velocity P-wave (km/s) = 6.00833 7.04686 6.54822
#
# Compressibility (1/GPa) = 0.01834021
#
# Stress axis : x y z
#
# Youngs Moduli (GPa) = 90.49799 69.28412 104.97418
#
# Poissons Ratio (x) = -0.03407 0.46310
# Poissons Ratio (y) = -0.04451 0.46345
# Poissons Ratio (z) = 0.39924 0.30588
#
# Static dielectric constant tensor:
#      x y z
#    x 3.726060 0.000000 0.000000 
#    y 0.000000 3.137100 0.000000 
#    z 0.000000 0.000000 3.653290 
# 
# 
# High freq. dielectric constant tensor:
#      x y z
#    x 1.775280 0.000000 0.000000 
#    y 0.000000 1.716460 0.000000 
#    z 0.000000 0.000000 1.772680 
# 
# From -- ./inp_files/30729.got.cif
#   From: 2010.03.12/outbox.cif.g09.slc.cpg/sg50_16_cif.got.tgz:30729.got - 2010.04.16 13:23:21.
