data_PCOD8204245
_publ_section_title
;
Structure prediction by ZEFSAII (Michael W. Deem and Ramdas Pophale) SiO2 
 PCOD8204245
Probable space group: P C C M
;
_chemical_formula_sum "Si O2"
_cell_formula_units_Z 38
_cell_length_a 10.891696
_cell_length_b 5.910126
_cell_length_c 27.585192
_cell_angle_alpha 90.000000
_cell_angle_beta 90.000000
_cell_angle_gamma 90.000000
_cell_volume 1775.694552
_symmetry_space_group_name_H-M "P C C M"
_symmetry_group_IT_number 49
_symmetry_cell_setting 'orthorhombic'
loop_
_space_group_symop_operation_xyz
x,y,z
-x,-y,z
x,-y,1/2-z
-x,y,1/2-z
-x,-y,-z
x,y,-z
-x,y,1/2+z
x,-y,1/2+z
loop_
_atom_site_type_symbol
_atom_site_label
_atom_site_fract_x
_atom_site_fract_y
_atom_site_fract_z
Si Si1 0.857163 0.037462 0.358587
Si Si2 0.500000 0.000000 0.082315
Si Si3 0.305297 0.669611 0.293555
Si Si4 0.728670 0.728423 0.054084
Si Si5 0.322905 0.345376 0.622490
Si Si6 0.500000 0.000000 0.750000
O O1 0.811570 0.186137 0.312580
O O2 0.826758 0.160340 0.409466
O O3 0.796022 0.790429 0.358936
O O4 0.000000 0.000000 0.352667
O O5 0.396332 0.124232 0.050609
O O6 0.562476 0.180290 0.117619
O O7 0.267348 0.500000 0.250000
O O8 0.359882 0.527367 0.337655
O O9 0.413780 0.841127 0.281747
O O10 0.701955 0.472281 0.071478
O O11 0.784900 0.717537 0.000000
#
# Coordination Sequence:
#
# PCOD8204245 Si02
#       6
#     8   4   8   8   8   2
#     4  10  24  46  65  87 124 166 211 261 308 360
#     4  10  21  37  61  91 128 166 203 255 315 377
#     4  11  25  42  64  93 124 160 202 252 310 373
#     4  10  22  38  61  94 127 164 208 256 312 372
#     4  10  23  40  61  90 124 165 206 254 312 369
#     4  12  26  42  64  98 130 156 196 250 312 384
#
# _framework density 21.400079000000002
#
# number of rings (size 3 to 8) (size 9 to 14) (size 15 to 20)
#    0.000    1.684    0.000    2.526    0.000   29.053 
#    0.000    8.947    0.000    0.000    0.000    0.000 
#    0.000    0.000    0.000    0.000    0.000    0.000 
#
# Total GULP energy -471212.970823 kJ/mol
# GULP energy per Si atom -12400.341337 kJ/mol
# Density = 2.135137 g / cm^3
# Si number density = 21.400079 Si / 1000 Ang^3
#
#
#
# Elastic Constant Matrix: (Units=GPa)
#
#
# Indices 1 2 3 4 5 6 
#
# 1 142.2152 67.7830 69.2644 0.0000 0.0000 0.0000
# 2 67.7830 153.5667 68.4138 0.0000 0.0000 0.0000
# 3 69.2644 68.4138 141.3774 0.0000 0.0000 0.0000
# 4 0.0000 0.0000 0.0000 25.4820 0.0000 0.0000
# 5 0.0000 0.0000 0.0000 0.0000 10.9899 0.0000
# 6 0.0000 0.0000 0.0000 0.0000 0.0000 -9.6627
#
#
#
# Elastic Compliance Matrix: (Units=1/GPa)
#
#
# Indices 1 2 3 4 5 6 
#
# 1 0.010149 -0.002887 -0.003575 0.000000 0.000000 0.000000
# 2 -0.002887 0.009123 -0.003000 0.000000 0.000000 0.000000
# 3 -0.003575 -0.003000 0.010277 0.000000 0.000000 0.000000
# 4 0.000000 0.000000 0.000000 0.039243 0.000000 0.000000
# 5 0.000000 0.000000 0.000000 0.000000 0.090993 0.000000
# 6 0.000000 0.000000 0.000000 0.000000 0.000000 -0.103491
#
#
# Mechanical properties :
#
#
# Convention : Reuss Voigt Hill
#
# Bulk Modulus (GPa) = 94.12956 94.23129 94.18042
# Shear Modulus (GPa) = 63.48472 20.80839 42.14656
#
# Velocity S-wave (km/s) = 5.45253 3.12164 4.44267
# Velocity P-wave (km/s) = 9.14993 7.55788 8.39174
#
# Compressibility (1/GPa) = 0.01062366
#
# Stress axis : x y z
#
# Youngs Moduli (GPa) = 98.53398 109.61749 97.30798
#
# Poissons Ratio (x) = 0.31645 0.34789
# Poissons Ratio (y) = 0.28445 0.29194
# Poissons Ratio (z) = 0.35228 0.32887
#
# Static dielectric constant tensor:
#      x y z
#    x 3.536570 0.000000 0.000000 
#    y 0.000000 4.716970 0.000000 
#    z 0.000000 0.000000 3.838580 
# 
# 
# High freq. dielectric constant tensor:
#      x y z
#    x 1.813480 0.000000 0.000000 
#    y 0.000000 1.866220 0.000000 
#    z 0.000000 0.000000 1.839930 
# 
# From -- ./inp_files/24695.got.cif
#   From: 2010.03.12/outbox.cif.g09.slc.cpg/sg49_13_cif.got.tgz:24695.got - 2010.04.14 03:58:27.
