data_PCOD8204502
_publ_section_title
;
Structure prediction by ZEFSAII (Michael W. Deem and Ramdas Pophale) SiO2 
 PCOD8204502
Probable space group: P C C M
;
_chemical_formula_sum "Si O2"
_cell_formula_units_Z 48
_cell_length_a 9.906433
_cell_length_b 7.560082
_cell_length_c 31.352642
_cell_angle_alpha 90.000000
_cell_angle_beta 90.000000
_cell_angle_gamma 90.000000
_cell_volume 2348.107395
_symmetry_space_group_name_H-M "P C C M"
_symmetry_group_IT_number 49
_symmetry_cell_setting 'orthorhombic'
loop_
_space_group_symop_operation_xyz
x,y,z
-x,-y,z
x,-y,1/2-z
-x,y,1/2-z
-x,-y,-z
x,y,-z
-x,y,1/2+z
x,-y,1/2+z
loop_
_atom_site_type_symbol
_atom_site_label
_atom_site_fract_x
_atom_site_fract_y
_atom_site_fract_z
Si Si1 0.977625 0.300044 0.910804
Si Si2 0.908516 0.170371 0.000000
Si Si3 0.159516 0.983465 0.799631
Si Si4 0.496145 0.790074 0.091541
Si Si5 0.410559 0.826017 0.000000
Si Si6 0.255026 0.321580 0.353027
Si Si7 0.234396 0.273698 0.863569
O O1 0.955786 0.285103 0.960543
O O2 0.842858 0.231809 0.888111
O O3 0.000000 0.500000 0.897954
O O4 0.108978 0.202629 0.892181
O O5 0.748878 0.128245 0.000000
O O6 0.000000 0.000000 0.000000
O O7 0.244447 0.135995 0.824479
O O8 0.188019 0.000000 0.750000
O O9 0.222447 0.791126 0.810736
O O10 0.000000 0.000000 0.809791
O O11 0.449323 0.722622 0.044058
O O12 0.404333 0.708005 0.128834
O O13 0.644231 0.722015 0.102647
O O14 0.500000 0.000000 0.093464
O O15 0.500000 0.000000 0.000000
O O16 0.223579 0.528101 0.344088
#
# Coordination Sequence:
#
# PCOD8204502 Si02
#       7
#     8   4   8   8   4   8   8
#     4  10  23  40  61  88 128 168 216 265 312 369
#     4  12  25  35  63  92 124 171 218 270 314 364
#     4  11  24  42  70 101 130 163 204 264 328 387
#     4  11  22  40  67  91 133 175 215 265 317 379
#     4  10  24  39  56  93 131 167 222 266 312 376
#     4  11  22  43  66  95 130 168 216 260 316 386
#     4  11  24  41  67  97 127 173 214 261 322 380
#
# _framework density 20.441996
#
# number of rings (size 3 to 8) (size 9 to 14) (size 15 to 20)
#    0.000    1.167    5.000    0.750    7.000    0.667 
#    0.000    5.833    0.000    2.000    0.000    0.000 
#    0.000    0.000    0.000    0.000    0.000    0.000 
#
# Total GULP energy -594931.879037 kJ/mol
# GULP energy per Si atom -12394.414147 kJ/mol
# Density = 2.039547 g / cm^3
# Si number density = 20.441996 Si / 1000 Ang^3
#
#
#
# Elastic Constant Matrix: (Units=GPa)
#
#
# Indices 1 2 3 4 5 6 
#
# 1 107.5852 18.7131 40.3486 0.0000 0.0000 0.0000
# 2 18.7131 89.1610 34.0369 0.0000 0.0000 0.0000
# 3 40.3486 34.0369 128.3001 0.0000 0.0000 0.0000
# 4 0.0000 0.0000 0.0000 20.4147 0.0000 0.0000
# 5 0.0000 0.0000 0.0000 0.0000 25.6931 0.0000
# 6 0.0000 0.0000 0.0000 0.0000 0.0000 26.9269
#
#
#
# Elastic Compliance Matrix: (Units=1/GPa)
#
#
# Indices 1 2 3 4 5 6 
#
# 1 0.010627 -0.001062 -0.003060 0.000000 0.000000 0.000000
# 2 -0.001062 0.012586 -0.003005 0.000000 0.000000 0.000000
# 3 -0.003060 -0.003005 0.009554 0.000000 0.000000 0.000000
# 4 0.000000 0.000000 0.000000 0.048984 0.000000 0.000000
# 5 0.000000 0.000000 0.000000 0.000000 0.038921 0.000000
# 6 0.000000 0.000000 0.000000 0.000000 0.000000 0.037138
#
#
# Mechanical properties :
#
#
# Convention : Reuss Voigt Hill
#
# Bulk Modulus (GPa) = 54.01860 56.80485 55.41173
# Shear Modulus (GPa) = 28.05276 30.07011 29.06143
#
# Velocity S-wave (km/s) = 3.70849 3.83952 3.77457
# Velocity P-wave (km/s) = 6.69476 6.89235 6.79428
#
# Compressibility (1/GPa) = 0.01851214
#
# Stress axis : x y z
#
# Youngs Moduli (GPa) = 94.09569 79.45537 104.67004
#
# Poissons Ratio (x) = 0.08440 0.32033
# Poissons Ratio (y) = 0.09995 0.31452
# Poissons Ratio (z) = 0.28797 0.23875
#
# Static dielectric constant tensor:
#      x y z
#    x 3.908270 0.000000 0.000000 
#    y 0.000000 3.519670 0.000000 
#    z 0.000000 0.000000 3.635730 
# 
# 
# High freq. dielectric constant tensor:
#      x y z
#    x 1.808980 0.000000 0.000000 
#    y 0.000000 1.795460 0.000000 
#    z 0.000000 0.000000 1.789660 
# 
# From -- ./inp_files/26336.got.cif
#   From: 2010.03.12/outbox.cif.g09.slc.cpg/sg49_14_cif.got.tgz:26336.got - 2010.04.14 03:58:27.
