data_PCOD8204860
_publ_section_title
;
Structure prediction by ZEFSAII (Michael W. Deem and Ramdas Pophale) SiO2 
 PCOD8204860
Probable space group: P B A N
;
_chemical_formula_sum "Si O2"
_cell_formula_units_Z 52
_cell_length_a 26.063755
_cell_length_b 5.185287
_cell_length_c 19.973187
_cell_angle_alpha 90.000000
_cell_angle_beta 90.000000
_cell_angle_gamma 90.000000
_cell_volume 2699.337275
_symmetry_space_group_name_H-M "P B A N"
_symmetry_group_IT_number 50
_space_group.IT_coordinate_system_code '2'
_symmetry_cell_setting 'orthorhombic'
loop_
_space_group_symop_operation_xyz
x,y,z
1/2-x,1/2-y,z
x,1/2-y,-z
1/2-x,y,-z
-x,-y,-z
1/2+x,1/2+y,-z
-x,1/2+y,z
1/2+x,-y,z
loop_
_atom_site_type_symbol
_atom_site_label
_atom_site_fract_x
_atom_site_fract_y
_atom_site_fract_z
Si Si1 0.479256 0.426637 0.573815
Si Si2 0.368286 0.263415 0.766076
Si Si3 0.534175 0.750000 0.000000
Si Si4 0.534608 0.771254 0.144608
Si Si5 0.192719 0.731227 0.766074
Si Si6 0.368203 0.265529 0.607414
Si Si7 0.192747 0.733939 0.607592
O O1 0.500000 0.500000 0.500000
O O2 0.484910 0.705882 0.610475
O O3 0.422501 0.309756 0.571641
O O4 0.424262 0.259944 0.797435
O O5 0.339060 0.520353 0.788838
O O6 0.376220 0.253639 0.686735
O O7 0.335342 0.023139 0.793617
O O8 0.563990 0.752420 0.071535
O O9 0.500000 0.500000 0.000000
O O10 0.492563 0.547184 0.152561
O O11 0.250000 0.750000 0.796426
O O12 0.196344 0.707450 0.686778
O O13 0.333524 0.503411 0.585255
O O14 0.340426 0.007615 0.579825
O O15 0.250000 0.750000 0.577039
#
# Coordination Sequence:
#
# PCOD8204860 Si02
#       7
#     8   8   4   8   8   8   8
#     4  10  21  36  52  71  94 130 170 197 226 273
#     4  10  19  29  46  73  98 126 159 195 246 288
#     4   8  16  30  46  62  85 122 165 200 238 286
#     4  10  19  31  46  67  96 127 159 200 243 291
#     4   9  17  30  46  67  98 130 160 193 235 294
#     4  10  19  31  49  74 102 127 160 200 236 289
#     4   9  17  30  49  74 102 128 153 193 249 296
#
# _framework density 19.263987
#
# number of rings (size 3 to 8) (size 9 to 14) (size 15 to 20)
#    0.000    2.462    0.000    2.769    0.000    4.923 
#    0.000    0.000    0.000    0.000    0.000   35.538 
#    0.000    0.000    0.000    0.000    0.000    0.000 
#
# Total GULP energy -644282.595942 kJ/mol
# GULP energy per Si atom -12390.049922 kJ/mol
# Density = 1.922014 g / cm^3
# Si number density = 19.263987 Si / 1000 Ang^3
#
#
#
# Elastic Constant Matrix: (Units=GPa)
#
#
# Indices 1 2 3 4 5 6 
#
# 1 124.4147 45.4384 32.6183 0.0000 0.0000 0.0000
# 2 45.4384 153.1981 27.6848 0.0000 0.0000 0.0000
# 3 32.6183 27.6848 37.3221 0.0000 0.0000 0.0000
# 4 0.0000 0.0000 0.0000 7.2778 0.0000 0.0000
# 5 0.0000 0.0000 0.0000 0.0000 -2.8183 0.0000
# 6 0.0000 0.0000 0.0000 0.0000 0.0000 35.0408
#
#
#
# Elastic Compliance Matrix: (Units=1/GPa)
#
#
# Indices 1 2 3 4 5 6 
#
# 1 0.010810 -0.001731 -0.008164 0.000000 0.000000 0.000000
# 2 -0.001731 0.007815 -0.004284 0.000000 0.000000 0.000000
# 3 -0.008164 -0.004284 0.037107 0.000000 0.000000 0.000000
# 4 0.000000 0.000000 0.000000 0.137405 0.000000 0.000000
# 5 0.000000 0.000000 0.000000 0.000000 -0.354829 0.000000
# 6 0.000000 0.000000 0.000000 0.000000 0.000000 0.028538
#
#
# Mechanical properties :
#
#
# Convention : Reuss Voigt Hill
#
# Bulk Modulus (GPa) = 36.53112 58.49087 47.51099
# Shear Modulus (GPa) = -52.26215 21.84629 -15.20793
#
# Velocity S-wave (km/s) = -5.21425 3.37122 -2.81276
# Velocity P-wave (km/s) = 4.15290 6.75146 3.76402
#
# Compressibility (1/GPa) = 0.02737392
#
# Stress axis : x y z
#
# Youngs Moduli (GPa) = 92.50586 127.95690 26.94941
#
# Poissons Ratio (x) = 0.22149 0.22001
# Poissons Ratio (y) = 0.16013 0.11546
# Poissons Ratio (z) = 0.75519 0.54820
#
# Static dielectric constant tensor:
#      x y z
#    x 3.514670 0.000000 0.000000 
#    y 0.000000 0.527230 0.000000 
#    z 0.000000 0.000000 2.679590 
# 
# 
# High freq. dielectric constant tensor:
#      x y z
#    x 1.739250 0.000000 0.000000 
#    y 0.000000 1.785030 0.000000 
#    z 0.000000 0.000000 1.703390 
# 
# From -- ./inp_files/31188.got.cif
#   From: 2010.03.12/outbox.cif.g09.slc.cpg/sg50_16_cif.got.tgz:31188.got - 2010.04.16 13:23:21.
