data_PCOD8204232
_publ_section_title
;
Structure prediction by ZEFSAII (Michael W. Deem and Ramdas Pophale) SiO2 
 PCOD8204232
Probable space group: P C C M
;
_chemical_formula_sum "Si O2"
_cell_formula_units_Z 40
_cell_length_a 9.584844
_cell_length_b 25.251075
_cell_length_c 8.523115
_cell_angle_alpha 90.000000
_cell_angle_beta 90.000000
_cell_angle_gamma 90.000000
_cell_volume 2062.829193
_symmetry_space_group_name_H-M "P C C M"
_symmetry_group_IT_number 49
_symmetry_cell_setting 'orthorhombic'
loop_
_space_group_symop_operation_xyz
x,y,z
-x,-y,z
x,-y,1/2-z
-x,y,1/2-z
-x,-y,-z
x,y,-z
-x,y,1/2+z
x,-y,1/2+z
loop_
_atom_site_type_symbol
_atom_site_label
_atom_site_fract_x
_atom_site_fract_y
_atom_site_fract_z
Si Si1 0.149672 0.356098 0.185646
Si Si2 0.654136 0.445359 0.185372
Si Si3 0.654842 0.152582 0.314506
Si Si4 0.850684 0.943530 0.816113
Si Si5 0.148580 0.758828 0.185365
O O1 0.261189 0.395254 0.257317
O O2 0.188131 0.297027 0.238259
O O3 0.000000 0.373306 0.250000
O O4 0.150708 0.359706 0.000000
O O5 0.721243 0.500000 0.250000
O O6 0.500000 0.438677 0.250000
O O7 0.651590 0.447556 0.000000
O O8 0.500000 0.147545 0.250000
O O9 0.654916 0.162168 0.500000
O O10 0.734981 0.099037 0.267503
O O11 0.729557 0.201132 0.229544
O O12 0.000000 0.925459 0.750000
O O13 0.802290 0.000000 0.750000
O O14 0.866684 0.948620 0.000000
O O15 0.000000 0.779745 0.250000
O O16 0.137028 0.752068 0.000000
#
# Coordination Sequence:
#
# PCOD8204232 Si02
#       5
#     8   8   8   8   8
#     4  11  22  39  61  88 118 151 191 239 289 341
#     4  11  22  39  60  86 117 154 195 237 286 343
#     4  11  24  40  58  85 117 153 192 237 288 342
#     4  10  21  37  60  86 114 148 191 235 283 338
#     4  11  22  39  62  87 115 151 191 236 285 342
#
# _framework density 19.390844999999999
#
# number of rings (size 3 to 8) (size 9 to 14) (size 15 to 20)
#    0.000    1.200    0.000    9.600    0.000    6.400 
#    0.000    8.000    0.000    0.000    0.000    0.000 
#    0.000    0.000    0.000    0.000    0.000    0.000 
#
# Total GULP energy -496195.221163 kJ/mol
# GULP energy per Si atom -12404.880529 kJ/mol
# Density = 1.934671 g / cm^3
# Si number density = 19.390845 Si / 1000 Ang^3
#
#
#
# Elastic Constant Matrix: (Units=GPa)
#
#
# Indices 1 2 3 4 5 6 
#
# 1 121.8922 77.4154 47.2487 0.0000 0.0000 0.0000
# 2 77.4154 106.3951 47.5473 0.0000 0.0000 0.0000
# 3 47.2487 47.5473 156.2554 0.0000 0.0000 0.0000
# 4 0.0000 0.0000 0.0000 36.1402 0.0000 0.0000
# 5 0.0000 0.0000 0.0000 0.0000 35.4185 0.0000
# 6 0.0000 0.0000 0.0000 0.0000 0.0000 53.7003
#
#
#
# Elastic Compliance Matrix: (Units=1/GPa)
#
#
# Indices 1 2 3 4 5 6 
#
# 1 0.015533 -0.010652 -0.001456 0.000000 0.000000 0.000000
# 2 -0.010652 0.018183 -0.002312 0.000000 0.000000 0.000000
# 3 -0.001456 -0.002312 0.007543 0.000000 0.000000 0.000000
# 4 0.000000 0.000000 0.000000 0.027670 0.000000 0.000000
# 5 0.000000 0.000000 0.000000 0.000000 0.028234 0.000000
# 6 0.000000 0.000000 0.000000 0.000000 0.000000 0.018622
#
#
# Mechanical properties :
#
#
# Convention : Reuss Voigt Hill
#
# Bulk Modulus (GPa) = 80.51222 80.99616 80.75419
# Shear Modulus (GPa) = 33.61017 39.20721 36.40869
#
# Velocity S-wave (km/s) = 4.16781 4.50148 4.33786
# Velocity P-wave (km/s) = 8.04809 8.29932 8.17467
#
# Compressibility (1/GPa) = 0.01242048
#
# Stress axis : x y z
#
# Youngs Moduli (GPa) = 64.37738 54.99746 132.56512
#
# Poissons Ratio (x) = 0.58583 0.19298
# Poissons Ratio (y) = 0.68574 0.30648
# Poissons Ratio (z) = 0.09372 0.12715
#
# Static dielectric constant tensor:
#      x y z
#    x 3.634590 0.000000 0.000000 
#    y 0.000000 3.848440 0.000000 
#    z 0.000000 0.000000 3.778760 
# 
# 
# High freq. dielectric constant tensor:
#      x y z
#    x 1.753560 0.000000 0.000000 
#    y 0.000000 1.768790 0.000000 
#    z 0.000000 0.000000 1.780600 
# 
# From -- ./inp_files/1709.got.cif
#   From: 2010.03.12/outbox.cif.g09.slc.cpg/sg49_1_cif.got.tgz:1709.got - 2010.04.14 03:58:27.
