data_PCOD8204165
_publ_section_title
;
Structure prediction by ZEFSAII (Michael W. Deem and Ramdas Pophale) SiO2 
 PCOD8204165
Probable space group: P C C M
;
_chemical_formula_sum "Si O2"
_cell_formula_units_Z 56
_cell_length_a 10.276794
_cell_length_b 17.987329
_cell_length_c 14.027597
_cell_angle_alpha 90.000000
_cell_angle_beta 90.000000
_cell_angle_gamma 90.000000
_cell_volume 2593.030409
_symmetry_space_group_name_H-M "P C C M"
_symmetry_group_IT_number 49
_symmetry_cell_setting 'orthorhombic'
loop_
_space_group_symop_operation_xyz
x,y,z
-x,-y,z
x,-y,1/2-z
-x,y,1/2-z
-x,-y,-z
x,y,-z
-x,y,1/2+z
x,-y,1/2+z
loop_
_atom_site_type_symbol
_atom_site_label
_atom_site_fract_x
_atom_site_fract_y
_atom_site_fract_z
Si Si1 0.057547 0.210712 0.390845
Si Si2 0.564276 0.219184 0.393316
Si Si3 0.386594 0.950311 0.607319
Si Si4 0.974517 0.377266 0.391677
Si Si5 0.308362 0.734372 0.207673
Si Si6 0.206345 0.580992 0.762747
Si Si7 0.903948 0.065276 0.386604
O O1 0.099533 0.195017 0.500000
O O2 0.185085 0.217698 0.325809
O O3 0.983645 0.288468 0.381674
O O4 0.964640 0.144278 0.352377
O O5 0.600226 0.247637 0.500000
O O6 0.555918 0.131280 0.391455
O O7 0.671392 0.246514 0.318518
O O8 0.424017 0.247118 0.362965
O O9 0.368959 0.981014 0.500000
O O10 0.241743 0.950169 0.656026
O O11 0.500000 0.000000 0.658894
O O12 0.976554 0.404108 0.500000
O O13 0.838354 0.396518 0.343268
O O14 0.086502 0.422727 0.336703
O O15 0.300337 0.644909 0.197610
O O16 0.273774 0.500000 0.750000
O O17 0.891612 0.067891 0.500000
O O18 0.000000 0.000000 0.351541
#
# Coordination Sequence:
#
# PCOD8204165 Si02
#       7
#     8   8   8   8   8   8   8
#     4   9  18  33  58  89 126 164 199 247 303 363
#     4  10  22  41  64  85 114 156 208 257 300 362
#     4   9  19  35  59  88 118 162 211 254 303 362
#     4   9  18  33  56  87 121 160 202 240 293 366
#     4  10  22  39  60  89 114 156 204 251 304 373
#     4  10  21  36  56  86 122 156 193 245 305 366
#     4   9  18  31  53  89 128 165 204 247 306 368
#
# _framework density 21.596352
#
# number of rings (size 3 to 8) (size 9 to 14) (size 15 to 20)
#    0.000    2.571    0.000    1.286    4.000    2.286 
#    0.000    2.857    0.000    1.714    0.000    0.000 
#    0.000    0.000    0.000    0.000    0.000    0.143 
#
# Total GULP energy -694013.303258 kJ/mol
# GULP energy per Si atom -12393.094701 kJ/mol
# Density = 2.154720 g / cm^3
# Si number density = 21.596352 Si / 1000 Ang^3
#
#
#
# Elastic Constant Matrix: (Units=GPa)
#
#
# Indices 1 2 3 4 5 6 
#
# 1 145.1281 70.9073 41.5184 0.0000 0.0000 0.0000
# 2 70.9073 123.9610 25.5874 0.0000 0.0000 0.0000
# 3 41.5184 25.5874 110.5616 0.0000 0.0000 0.0000
# 4 0.0000 0.0000 0.0000 24.1376 0.0000 0.0000
# 5 0.0000 0.0000 0.0000 0.0000 23.0473 0.0000
# 6 0.0000 0.0000 0.0000 0.0000 0.0000 27.1909
#
#
#
# Elastic Compliance Matrix: (Units=1/GPa)
#
#
# Indices 1 2 3 4 5 6 
#
# 1 0.010235 -0.005315 -0.002613 0.000000 0.000000 0.000000
# 2 -0.005315 0.011232 -0.000603 0.000000 0.000000 0.000000
# 3 -0.002613 -0.000603 0.010166 0.000000 0.000000 0.000000
# 4 0.000000 0.000000 0.000000 0.041429 0.000000 0.000000
# 5 0.000000 0.000000 0.000000 0.000000 0.043389 0.000000
# 6 0.000000 0.000000 0.000000 0.000000 0.000000 0.036777
#
#
# Mechanical properties :
#
#
# Convention : Reuss Voigt Hill
#
# Bulk Modulus (GPa) = 68.64007 72.85302 70.74654
# Shear Modulus (GPa) = 28.54731 30.98436 29.76583
#
# Velocity S-wave (km/s) = 3.63968 3.79186 3.71655
# Velocity P-wave (km/s) = 7.03670 7.27860 7.15868
#
# Compressibility (1/GPa) = 0.01456875
#
# Stress axis : x y z
#
# Youngs Moduli (GPa) = 97.70420 89.03198 98.36924
#
# Poissons Ratio (x) = 0.47321 0.25708
# Poissons Ratio (y) = 0.51931 0.05936
# Poissons Ratio (z) = 0.25534 0.05373
#
# Static dielectric constant tensor:
#      x y z
#    x 3.871580 0.000000 0.000000 
#    y 0.000000 3.938830 0.000000 
#    z 0.000000 0.000000 3.975660 
# 
# 
# High freq. dielectric constant tensor:
#      x y z
#    x 1.830840 0.000000 0.000000 
#    y 0.000000 1.847290 0.000000 
#    z 0.000000 0.000000 1.845560 
# 
# From -- ./inp_files/12850.got.cif
#   From: 2010.03.12/outbox.cif.g09.slc.cpg/sg49_7_cif.got.tgz:12850.got - 2010.04.14 03:58:27.
