data_PCOD8204644
_publ_section_title
;
Structure prediction by ZEFSAII (Michael W. Deem and Ramdas Pophale) SiO2 
 PCOD8204644
Probable space group: P C C M
;
_chemical_formula_sum "Si O2"
_cell_formula_units_Z 40
_cell_length_a 12.154497
_cell_length_b 8.765409
_cell_length_c 17.071340
_cell_angle_alpha 90.000000
_cell_angle_beta 90.000000
_cell_angle_gamma 90.000000
_cell_volume 1818.765838
_symmetry_space_group_name_H-M "P C C M"
_symmetry_group_IT_number 49
_symmetry_cell_setting 'orthorhombic'
loop_
_space_group_symop_operation_xyz
x,y,z
-x,-y,z
x,-y,1/2-z
-x,y,1/2-z
-x,-y,-z
x,y,-z
-x,y,1/2+z
x,-y,1/2+z
loop_
_atom_site_type_symbol
_atom_site_label
_atom_site_fract_x
_atom_site_fract_y
_atom_site_fract_z
Si Si1 0.558307 0.186485 0.665859
Si Si2 0.168948 0.674909 0.842028
Si Si3 0.220570 0.336931 0.162032
Si Si4 0.646207 0.887056 0.589993
Si Si5 0.968896 0.167984 0.408675
O O1 0.500000 0.180591 0.750000
O O2 0.647596 0.320170 0.660280
O O3 0.462854 0.218137 0.601377
O O4 0.624567 0.030256 0.647399
O O5 0.197158 0.505145 0.871247
O O6 0.179208 0.687015 0.749631
O O7 0.244835 0.798582 0.885107
O O8 0.043344 0.708195 0.864313
O O9 0.158205 0.210421 0.109125
O O10 0.658175 0.938895 0.500000
O O11 0.992629 0.177917 0.500000
O O12 0.000000 0.000000 0.377125
#
# Coordination Sequence:
#
# PCOD8204644 Si02
#       5
#     8   8   8   8   8
#     4  11  22  41  66  96 128 175 226 273 327 385
#     4  11  24  43  64  98 132 174 216 269 325 397
#     4  11  25  42  66  94 132 174 221 267 328 393
#     4  11  23  40  65  97 133 171 221 278 329 386
#     4  11  25  44  68  97 131 169 217 274 328 391
#
# _framework density 21.992934999999999
#
# number of rings (size 3 to 8) (size 9 to 14) (size 15 to 20)
#    0.000    1.000    2.000    5.400    0.000   11.200 
#    0.000    1.000    0.000    0.000    0.000    0.000 
#    0.000    0.000    0.000    0.000    0.000    0.000 
#
# Total GULP energy -496061.502291 kJ/mol
# GULP energy per Si atom -12401.537557 kJ/mol
# Density = 2.194288 g / cm^3
# Si number density = 21.992935 Si / 1000 Ang^3
#
#
#
# Elastic Constant Matrix: (Units=GPa)
#
#
# Indices 1 2 3 4 5 6 
#
# 1 103.4286 23.7131 13.2667 0.0000 0.0000 0.0000
# 2 23.7131 84.0508 21.9242 0.0000 0.0000 0.0000
# 3 13.2667 21.9242 58.3129 0.0000 0.0000 0.0000
# 4 0.0000 0.0000 0.0000 14.3355 0.0000 0.0000
# 5 0.0000 0.0000 0.0000 0.0000 31.6176 0.0000
# 6 0.0000 0.0000 0.0000 0.0000 0.0000 42.9306
#
#
#
# Elastic Compliance Matrix: (Units=1/GPa)
#
#
# Indices 1 2 3 4 5 6 
#
# 1 0.010440 -0.002579 -0.001406 0.000000 0.000000 0.000000
# 2 -0.002579 0.013828 -0.004612 0.000000 0.000000 0.000000
# 3 -0.001406 -0.004612 0.019203 0.000000 0.000000 0.000000
# 4 0.000000 0.000000 0.000000 0.069757 0.000000 0.000000
# 5 0.000000 0.000000 0.000000 0.000000 0.031628 0.000000
# 6 0.000000 0.000000 0.000000 0.000000 0.000000 0.023293
#
#
# Mechanical properties :
#
#
# Convention : Reuss Voigt Hill
#
# Bulk Modulus (GPa) = 38.05541 40.40003 39.22772
# Shear Modulus (GPa) = 25.75964 30.23597 27.99780
#
# Velocity S-wave (km/s) = 3.42609 3.71186 3.57183
# Velocity P-wave (km/s) = 5.74385 6.06465 5.90643
#
# Compressibility (1/GPa) = 0.02627747
#
# Stress axis : x y z
#
# Youngs Moduli (GPa) = 95.78507 72.31588 52.07571
#
# Poissons Ratio (x) = 0.18649 0.07320
# Poissons Ratio (y) = 0.24701 0.24019
# Poissons Ratio (z) = 0.13464 0.33355
#
# Static dielectric constant tensor:
#      x y z
#    x 4.355920 0.000000 0.000000 
#    y 0.000000 3.952660 0.000000 
#    z 0.000000 0.000000 3.884510 
# 
# 
# High freq. dielectric constant tensor:
#      x y z
#    x 1.884750 0.000000 0.000000 
#    y 0.000000 1.853400 0.000000 
#    z 0.000000 0.000000 1.861690 
# 
# From -- ./inp_files/16853.got.cif
#   From: 2010.03.12/outbox.cif.g09.slc.cpg/sg49_9_cif.got.tgz:16853.got - 2010.04.14 03:58:27.
