data_PCOD8204367
_publ_section_title
;
Structure prediction by ZEFSAII (Michael W. Deem and Ramdas Pophale) SiO2 
 PCOD8204367
Probable space group: P C C M
;
_chemical_formula_sum "Si O2"
_cell_formula_units_Z 48
_cell_length_a 17.733879
_cell_length_b 14.088427
_cell_length_c 9.103535
_cell_angle_alpha 90.000000
_cell_angle_beta 90.000000
_cell_angle_gamma 90.000000
_cell_volume 2274.449577
_symmetry_space_group_name_H-M "P C C M"
_symmetry_group_IT_number 49
_symmetry_cell_setting 'orthorhombic'
loop_
_space_group_symop_operation_xyz
x,y,z
-x,-y,z
x,-y,1/2-z
-x,y,1/2-z
-x,-y,-z
x,y,-z
-x,y,1/2+z
x,-y,1/2+z
loop_
_atom_site_type_symbol
_atom_site_label
_atom_site_fract_x
_atom_site_fract_y
_atom_site_fract_z
Si Si1 0.426507 0.600527 0.825652
Si Si2 0.066073 0.628681 0.500000
Si Si3 0.077731 0.091300 0.331502
Si Si4 0.109703 0.584103 0.000000
Si Si5 0.848909 0.282139 0.752701
Si Si6 0.320327 0.730435 0.335485
Si Si7 0.574983 0.902640 0.171416
O O1 0.414749 0.500000 0.750000
O O2 0.500000 0.649057 0.750000
O O3 0.353151 0.661517 0.788689
O O4 0.437145 0.591092 0.000000
O O5 0.113836 0.530147 0.500000
O O6 0.086023 0.692477 0.638444
O O7 0.977423 0.613363 0.500000
O O8 0.062156 0.064354 0.500000
O O9 0.131787 0.182573 0.328942
O O10 0.000000 0.115296 0.250000
O O11 0.115533 0.000000 0.250000
O O12 0.153179 0.628379 0.137842
O O13 0.769167 0.269037 0.675091
O O14 0.342785 0.696346 0.500000
O O15 0.353858 0.834332 0.305916
O O16 0.500000 0.860471 0.250000
O O17 0.597738 0.000000 0.250000
O O18 0.557351 0.919489 0.000000
#
# Coordination Sequence:
#
# PCOD8204367 Si02
#       7
#     8   4   8   4   8   8   8
#     4  11  23  41  67  94 127 169 216 265 314 380
#     4  11  24  44  71  91 130 173 219 287 341 408
#     4  11  24  41  67  96 127 167 217 269 329 399
#     4  11  24  44  67 101 122 169 233 275 345 412
#     4  12  25  43  65  97 136 173 219 280 341 400
#     4  11  25  43  61  93 134 176 217 265 327 386
#     4  10  21  40  66  97 129 169 217 265 317 380
#
# _framework density 21.104006999999999
#
# number of rings (size 3 to 8) (size 9 to 14) (size 15 to 20)
#    0.000    1.000    1.667    6.500    3.500    6.000 
#    0.000    1.667    0.000    0.000    0.000    0.000 
#    0.000    0.000    0.000    0.000    0.000    0.000 
#
# Total GULP energy -595210.007538 kJ/mol
# GULP energy per Si atom -12400.208490 kJ/mol
# Density = 2.105597 g / cm^3
# Si number density = 21.104007 Si / 1000 Ang^3
#
#
#
# Elastic Constant Matrix: (Units=GPa)
#
#
# Indices 1 2 3 4 5 6 
#
# 1 81.4654 34.2913 27.9275 0.0000 0.0000 0.0000
# 2 34.2913 99.9976 43.5979 0.0000 0.0000 0.0000
# 3 27.9275 43.5979 168.9334 0.0000 0.0000 0.0000
# 4 0.0000 0.0000 0.0000 35.6387 0.0000 0.0000
# 5 0.0000 0.0000 0.0000 0.0000 31.8427 0.0000
# 6 0.0000 0.0000 0.0000 0.0000 0.0000 17.0919
#
#
#
# Elastic Compliance Matrix: (Units=1/GPa)
#
#
# Indices 1 2 3 4 5 6 
#
# 1 0.014581 -0.004450 -0.001262 0.000000 0.000000 0.000000
# 2 -0.004450 0.012626 -0.002523 0.000000 0.000000 0.000000
# 3 -0.001262 -0.002523 0.006779 0.000000 0.000000 0.000000
# 4 0.000000 0.000000 0.000000 0.028059 0.000000 0.000000
# 5 0.000000 0.000000 0.000000 0.000000 0.031404 0.000000
# 6 0.000000 0.000000 0.000000 0.000000 0.000000 0.058507
#
#
# Mechanical properties :
#
#
# Convention : Reuss Voigt Hill
#
# Bulk Modulus (GPa) = 57.08850 62.44777 59.76813
# Shear Modulus (GPa) = 28.69183 33.21998 30.95591
#
# Velocity S-wave (km/s) = 3.69120 3.97181 3.83407
# Velocity P-wave (km/s) = 6.72877 7.11958 6.92693
#
# Compressibility (1/GPa) = 0.01751666
#
# Stress axis : x y z
#
# Youngs Moduli (GPa) = 68.58294 79.20077 147.50933
#
# Poissons Ratio (x) = 0.35243 0.18617
# Poissons Ratio (y) = 0.30518 0.37215
# Poissons Ratio (z) = 0.08656 0.19981
#
# Static dielectric constant tensor:
#      x y z
#    x 3.660710 0.000000 0.000000 
#    y 0.000000 3.927840 0.000000 
#    z 0.000000 0.000000 4.036870 
# 
# 
# High freq. dielectric constant tensor:
#      x y z
#    x 1.812260 0.000000 0.000000 
#    y 0.000000 1.836010 0.000000 
#    z 0.000000 0.000000 1.844440 
# 
# From -- ./inp_files/4912.got.cif
#   From: 2010.03.12/outbox.cif.g09.slc.cpg/sg49_3_cif.got.tgz:4912.got - 2010.04.14 03:58:27.
