data_PCOD8204808
_publ_section_title
;
Structure prediction by ZEFSAII (Michael W. Deem and Ramdas Pophale) SiO2 
 PCOD8204808
Probable space group: P B A N
;
_chemical_formula_sum "Si O2"
_cell_formula_units_Z 54
_cell_length_a 5.025367
_cell_length_b 22.109949
_cell_length_c 26.439348
_cell_angle_alpha 90.000000
_cell_angle_beta 90.000000
_cell_angle_gamma 90.000000
_cell_volume 2937.692033
_symmetry_space_group_name_H-M "P B A N"
_symmetry_group_IT_number 50
_space_group.IT_coordinate_system_code '2'
_symmetry_cell_setting 'orthorhombic'
loop_
_space_group_symop_operation_xyz
x,y,z
1/2-x,1/2-y,z
x,1/2-y,-z
1/2-x,y,-z
-x,-y,-z
1/2+x,1/2+y,-z
-x,1/2+y,z
1/2+x,-y,z
loop_
_atom_site_type_symbol
_atom_site_label
_atom_site_fract_x
_atom_site_fract_y
_atom_site_fract_z
Si Si1 0.710608 0.179158 0.848119
Si Si2 0.750000 0.750000 0.000000
Si Si3 0.250000 0.457130 0.500000
Si Si4 0.735047 0.541254 0.286043
Si Si5 0.796015 0.885317 0.188690
Si Si6 0.429265 0.645315 0.046614
Si Si7 0.276877 0.461107 0.907501
Si Si8 0.163702 0.039801 0.394456
O O1 0.750000 0.250000 0.846931
O O2 0.415297 0.163939 0.830205
O O3 0.743935 0.152482 0.904432
O O4 0.918700 0.147167 0.810507
O O5 0.567952 0.709485 0.036239
O O6 0.500000 0.500000 0.500000
O O7 0.268545 0.420599 0.445971
O O8 0.442028 0.513653 0.279777
O O9 0.778734 0.592774 0.244544
O O10 0.774110 0.573526 0.341313
O O11 0.802001 0.942847 0.151286
O O12 0.658619 0.595646 0.056274
O O13 0.250000 0.624043 0.000000
O O14 0.479994 0.516056 0.919005
O O15 0.355862 0.980499 0.395192
#
# Coordination Sequence:
#
# PCOD8204808 Si02
#       8
#     8   2   4   8   8   8   8   8
#     4  11  24  40  61  81 104 129 167 212 261 312
#     4  12  26  44  68  86 108 132 182 218 262 306
#     4   8  12  20  32  52  86 124 169 206 245 286
#     4  10  18  30  49  72 102 136 177 211 244 295
#     4  11  22  37  58  79 105 140 171 209 256 299
#     4  11  27  42  66  86 109 138 171 216 262 309
#     4  11  24  41  61  84 114 141 170 201 252 314
#     4   8  14  22  36  59  88 129 169 209 244 284
#
# _framework density 18.381775999999999
#
# number of rings (size 3 to 8) (size 9 to 14) (size 15 to 20)
#    0.000    1.778    0.000    5.111   10.370    0.593 
#    0.000    0.000    0.000    0.000    0.000    0.000 
#    0.000    0.000    0.000    4.000    0.000    1.481 
#
# Total GULP energy -669358.601615 kJ/mol
# GULP energy per Si atom -12395.529660 kJ/mol
# Density = 1.833994 g / cm^3
# Si number density = 18.381776 Si / 1000 Ang^3
#
#
#
# Elastic Constant Matrix: (Units=GPa)
#
#
# Indices 1 2 3 4 5 6 
#
# 1 72.4274 5.9509 12.5293 0.0000 0.0000 0.0000
# 2 5.9509 60.1508 30.8730 0.0000 0.0000 0.0000
# 3 12.5293 30.8730 149.0970 0.0000 0.0000 0.0000
# 4 0.0000 0.0000 0.0000 8.5573 0.0000 0.0000
# 5 0.0000 0.0000 0.0000 0.0000 20.8235 0.0000
# 6 0.0000 0.0000 0.0000 0.0000 0.0000 28.8586
#
#
#
# Elastic Compliance Matrix: (Units=1/GPa)
#
#
# Indices 1 2 3 4 5 6 
#
# 1 0.014052 -0.000877 -0.000999 0.000000 0.000000 0.000000
# 2 -0.000877 0.018657 -0.003789 0.000000 0.000000 0.000000
# 3 -0.000999 -0.003789 0.007576 0.000000 0.000000 0.000000
# 4 0.000000 0.000000 0.000000 0.116859 0.000000 0.000000
# 5 0.000000 0.000000 0.000000 0.000000 0.048023 0.000000
# 6 0.000000 0.000000 0.000000 0.000000 0.000000 0.034652
#
#
# Mechanical properties :
#
#
# Convention : Reuss Voigt Hill
#
# Bulk Modulus (GPa) = 34.53965 42.26464 38.40214
# Shear Modulus (GPa) = 19.17174 27.13602 23.15388
#
# Velocity S-wave (km/s) = 3.23302 3.84636 3.55295
# Velocity P-wave (km/s) = 5.72429 6.53977 6.14557
#
# Compressibility (1/GPa) = 0.02895223
#
# Stress axis : x y z
#
# Youngs Moduli (GPa) = 71.16495 53.60020 132.00145
#
# Poissons Ratio (x) = 0.04703 0.13189
# Poissons Ratio (y) = 0.06244 0.50021
# Poissons Ratio (z) = 0.07111 0.20311
#
# Static dielectric constant tensor:
#      x y z
#    x 3.603850 0.000000 0.000000 
#    y 0.000000 3.034240 0.000000 
#    z 0.000000 0.000000 3.951580 
# 
# 
# High freq. dielectric constant tensor:
#      x y z
#    x 1.741310 0.000000 0.000000 
#    y 0.000000 1.653250 0.000000 
#    z 0.000000 0.000000 1.718380 
# 
# From -- ./inp_files/32116.got.cif
#   From: 2010.03.12/outbox.cif.g09.slc.cpg/sg50_17_cif.got.tgz:32116.got - 2010.04.16 13:23:21.
