data_PCOD8204212
_publ_section_title
;
Structure prediction by ZEFSAII (Michael W. Deem and Ramdas Pophale) SiO2 
 PCOD8204212
Probable space group: P C C M
;
_chemical_formula_sum "Si O2"
_cell_formula_units_Z 64
_cell_length_a 22.366100
_cell_length_b 8.169953
_cell_length_c 16.856585
_cell_angle_alpha 90.000000
_cell_angle_beta 90.000000
_cell_angle_gamma 90.000000
_cell_volume 3080.203538
_symmetry_space_group_name_H-M "P C C M"
_symmetry_group_IT_number 49
_symmetry_cell_setting 'orthorhombic'
loop_
_space_group_symop_operation_xyz
x,y,z
-x,-y,z
x,-y,1/2-z
-x,y,1/2-z
-x,-y,-z
x,y,-z
-x,y,1/2+z
x,-y,1/2+z
loop_
_atom_site_type_symbol
_atom_site_label
_atom_site_fract_x
_atom_site_fract_y
_atom_site_fract_z
Si Si1 0.035464 0.257792 0.588308
Si Si2 0.761773 0.900895 0.909711
Si Si3 0.911111 0.384492 0.409986
Si Si4 0.860211 0.897411 0.326068
Si Si5 0.567347 0.681419 0.343390
Si Si6 0.567579 0.683582 0.155864
Si Si7 0.368767 0.997136 0.910026
Si Si8 0.196557 0.661200 0.711901
O O1 0.034472 0.186970 0.500000
O O2 0.067884 0.430797 0.589489
O O3 0.074328 0.136357 0.640378
O O4 0.966967 0.271777 0.618233
O O5 0.702773 0.010418 0.900978
O O6 0.755920 0.758075 0.842706
O O7 0.820602 0.007949 0.891452
O O8 0.766481 0.831798 0.000000
O O9 0.890199 0.337224 0.500000
O O10 0.859749 0.364978 0.345799
O O11 0.822793 0.744282 0.294392
O O12 0.874759 0.000000 0.250000
O O13 0.568292 0.685912 0.249644
O O14 0.589220 0.499342 0.372688
O O15 0.500061 0.712126 0.374741
O O16 0.608505 0.829792 0.371688
O O17 0.608342 0.831949 0.126072
O O18 0.389968 0.996657 0.000000
O O19 0.226356 0.500000 0.750000
#
# Coordination Sequence:
#
# PCOD8204212 Si02
#       8
#     8   8   8   8   8   8   8   8
#     4   9  17  33  56  84 114 150 190 226 283 371
#     4  10  24  45  60  78 119 165 205 248 299 371
#     4   9  18  33  57  86 116 148 185 233 296 363
#     4  10  21  37  58  84 117 152 193 243 299 354
#     4   9  19  37  62  91 127 168 205 250 308 372
#     4   9  19  37  61  94 127 161 210 253 304 371
#     4  11  23  39  60  88 122 164 209 258 315 362
#     4  11  21  38  60  88 114 146 196 255 305 346
#
# _framework density 20.777847000000001
#
# number of rings (size 3 to 8) (size 9 to 14) (size 15 to 20)
#    0.000    2.250    1.250    3.000    0.000    6.000 
#    4.500    5.625    0.000    6.750    0.000    0.000 
#    0.000    0.000    0.000    0.000    0.000    0.000 
#
# Total GULP energy -792939.149196 kJ/mol
# GULP energy per Si atom -12389.674206 kJ/mol
# Density = 2.073056 g / cm^3
# Si number density = 20.777847 Si / 1000 Ang^3
#
#
#
# Elastic Constant Matrix: (Units=GPa)
#
#
# Indices 1 2 3 4 5 6 
#
# 1 79.2582 37.7644 28.8695 0.0000 0.0000 0.0000
# 2 37.7644 116.0826 30.1720 0.0000 0.0000 0.0000
# 3 28.8695 30.1720 66.2023 0.0000 0.0000 0.0000
# 4 0.0000 0.0000 0.0000 11.6131 0.0000 0.0000
# 5 0.0000 0.0000 0.0000 0.0000 31.7606 0.0000
# 6 0.0000 0.0000 0.0000 0.0000 0.0000 28.0216
#
#
#
# Elastic Compliance Matrix: (Units=1/GPa)
#
#
# Indices 1 2 3 4 5 6 
#
# 1 0.016460 -0.003958 -0.005374 0.000000 0.000000 0.000000
# 2 -0.003958 0.010724 -0.003161 0.000000 0.000000 0.000000
# 3 -0.005374 -0.003161 0.018890 0.000000 0.000000 0.000000
# 4 0.000000 0.000000 0.000000 0.086110 0.000000 0.000000
# 5 0.000000 0.000000 0.000000 0.000000 0.031486 0.000000
# 6 0.000000 0.000000 0.000000 0.000000 0.000000 0.035687
#
#
# Mechanical properties :
#
#
# Convention : Reuss Voigt Hill
#
# Bulk Modulus (GPa) = 47.42344 50.57275 48.99810
# Shear Modulus (GPa) = 21.61018 25.26154 23.43586
#
# Velocity S-wave (km/s) = 3.22849 3.49060 3.36210
# Velocity P-wave (km/s) = 6.06392 6.37482 6.22131
#
# Compressibility (1/GPa) = 0.02108662
#
# Stress axis : x y z
#
# Youngs Moduli (GPa) = 60.75174 93.24932 52.93918
#
# Poissons Ratio (x) = 0.36909 0.28450
# Poissons Ratio (y) = 0.24046 0.16736
# Poissons Ratio (z) = 0.32649 0.29480
#
# Static dielectric constant tensor:
#      x y z
#    x 3.635270 0.000000 0.000000 
#    y 0.000000 3.044870 0.000000 
#    z 0.000000 0.000000 3.645390 
# 
# 
# High freq. dielectric constant tensor:
#      x y z
#    x 1.800380 0.000000 0.000000 
#    y 0.000000 1.820030 0.000000 
#    z 0.000000 0.000000 1.813790 
# 
# From -- ./inp_files/14518.got.cif
#   From: 2010.03.12/outbox.cif.g09.slc.cpg/sg49_8_cif.got.tgz:14518.got - 2010.04.14 03:58:27.
