data_PCOD8204770
_publ_section_title
;
Structure prediction by ZEFSAII (Michael W. Deem and Ramdas Pophale) SiO2 
 PCOD8204770
Probable space group: P B A N
;
_chemical_formula_sum "Si O2"
_cell_formula_units_Z 56
_cell_length_a 19.852993
_cell_length_b 19.984414
_cell_length_c 8.771647
_cell_angle_alpha 90.000000
_cell_angle_beta 90.000000
_cell_angle_gamma 90.000000
_cell_volume 3480.154730
_symmetry_space_group_name_H-M "P B A N"
_symmetry_group_IT_number 50
_space_group.IT_coordinate_system_code '2'
_symmetry_cell_setting 'orthorhombic'
loop_
_space_group_symop_operation_xyz
x,y,z
1/2-x,1/2-y,z
x,1/2-y,-z
1/2-x,y,-z
-x,-y,-z
1/2+x,1/2+y,-z
-x,1/2+y,z
1/2+x,-y,z
loop_
_atom_site_type_symbol
_atom_site_label
_atom_site_fract_x
_atom_site_fract_y
_atom_site_fract_z
Si Si1 0.999655 0.546614 0.645904
Si Si2 0.894461 0.468473 0.830947
Si Si3 0.479934 0.686253 0.422847
Si Si4 0.132189 0.929693 0.167244
Si Si5 0.106271 0.719556 0.840672
Si Si6 0.233462 0.955127 0.662790
Si Si7 0.365623 0.657055 0.661499
O O1 0.953665 0.518710 0.781607
O O2 0.000000 0.500000 0.500000
O O3 0.974008 0.619711 0.586262
O O4 0.075295 0.556508 0.706855
O O5 0.825200 0.495223 0.752545
O O6 0.909643 0.393001 0.770642
O O7 0.887721 0.468445 0.013072
O O8 0.517845 0.750000 0.500000
O O9 0.462841 0.707417 0.250521
O O10 0.409130 0.671272 0.510234
O O11 0.144525 0.850826 0.136699
O O12 0.202039 0.957645 0.229409
O O13 0.151468 0.773816 0.748993
O O14 0.084374 0.750000 0.000000
O O15 0.250000 0.989503 0.500000
O O16 0.205258 0.879783 0.624530
#
# Coordination Sequence:
#
# PCOD8204770 Si02
#       7
#     8   8   8   8   8   8   8
#     4  11  19  33  52  70  94 130 164 202 247 296
#     4  10  20  32  47  68  94 128 165 207 247 286
#     4   9  18  31  48  70  94 127 163 206 246 289
#     4  11  21  32  48  70  98 132 167 209 243 288
#     4  10  17  29  45  64  95 131 168 200 242 279
#     4  10  19  33  48  66  95 131 171 205 239 280
#     4   9  18  31  45  64  93 128 167 199 237 280
#
# _framework density 16.091238000000001
#
# number of rings (size 3 to 8) (size 9 to 14) (size 15 to 20)
#    0.857    1.143    2.857    3.429    0.000    0.571 
#    0.000    1.429    0.000    0.000    0.000    0.000 
#    0.000    5.143    0.000    7.143    0.000    0.000 
#
# Total GULP energy -693825.822402 kJ/mol
# GULP energy per Si atom -12389.746829 kJ/mol
# Density = 1.605461 g / cm^3
# Si number density = 16.091238 Si / 1000 Ang^3
#
#
#
# Elastic Constant Matrix: (Units=GPa)
#
#
# Indices 1 2 3 4 5 6 
#
# 1 56.0293 26.4654 16.1207 0.0000 0.0000 0.0000
# 2 26.4654 57.9017 21.3159 0.0000 0.0000 0.0000
# 3 16.1207 21.3159 96.6975 0.0000 0.0000 0.0000
# 4 0.0000 0.0000 0.0000 28.3904 0.0000 0.0000
# 5 0.0000 0.0000 0.0000 0.0000 25.4425 0.0000
# 6 0.0000 0.0000 0.0000 0.0000 0.0000 17.3862
#
#
#
# Elastic Compliance Matrix: (Units=1/GPa)
#
#
# Indices 1 2 3 4 5 6 
#
# 1 0.023002 -0.009906 -0.001651 0.000000 0.000000 0.000000
# 2 -0.009906 0.023062 -0.003432 0.000000 0.000000 0.000000
# 3 -0.001651 -0.003432 0.011373 0.000000 0.000000 0.000000
# 4 0.000000 0.000000 0.000000 0.035223 0.000000 0.000000
# 5 0.000000 0.000000 0.000000 0.000000 0.039304 0.000000
# 6 0.000000 0.000000 0.000000 0.000000 0.000000 0.057517
#
#
# Mechanical properties :
#
#
# Convention : Reuss Voigt Hill
#
# Bulk Modulus (GPa) = 36.41816 37.60362 37.01089
# Shear Modulus (GPa) = 21.87106 24.02559 22.94833
#
# Velocity S-wave (km/s) = 3.69072 3.86824 3.78052
# Velocity P-wave (km/s) = 6.39088 6.58565 6.48899
#
# Compressibility (1/GPa) = 0.02745883
#
# Stress axis : x y z
#
# Youngs Moduli (GPa) = 43.47491 43.36168 87.92444
#
# Poissons Ratio (x) = 0.42953 0.14517
# Poissons Ratio (y) = 0.43065 0.30179
# Poissons Ratio (z) = 0.07178 0.14883
#
# Static dielectric constant tensor:
#      x y z
#    x 2.680120 0.000000 0.000000 
#    y 0.000000 3.106650 0.000000 
#    z 0.000000 0.000000 3.166240 
# 
# 
# High freq. dielectric constant tensor:
#      x y z
#    x 1.571150 0.000000 0.000000 
#    y 0.000000 1.597060 0.000000 
#    z 0.000000 0.000000 1.641450 
# 
# From -- ./inp_files/15553.got.cif
#   From: 2010.03.12/outbox.cif.g09.slc.cpg/sg50_8_cif.got.tgz:15553.got - 2010.04.16 13:23:21.
