data_PCOD8204678
_publ_section_title
;
Structure prediction by ZEFSAII (Michael W. Deem and Ramdas Pophale) SiO2 
 PCOD8204678
Probable space group: P C C M
;
_chemical_formula_sum "Si O2"
_cell_formula_units_Z 40
_cell_length_a 22.313101
_cell_length_b 8.847165
_cell_length_c 9.855956
_cell_angle_alpha 90.000000
_cell_angle_beta 90.000000
_cell_angle_gamma 90.000000
_cell_volume 1945.641469
_symmetry_space_group_name_H-M "P C C M"
_symmetry_group_IT_number 49
_symmetry_cell_setting 'orthorhombic'
loop_
_space_group_symop_operation_xyz
x,y,z
-x,-y,z
x,-y,1/2-z
-x,y,1/2-z
-x,-y,-z
x,y,-z
-x,y,1/2+z
x,-y,1/2+z
loop_
_atom_site_type_symbol
_atom_site_label
_atom_site_fract_x
_atom_site_fract_y
_atom_site_fract_z
Si Si1 0.222735 0.836192 0.000000
Si Si2 0.431931 0.321190 0.748919
Si Si3 0.943136 0.150303 0.664715
Si Si4 0.377352 0.157852 0.000000
Si Si5 0.633271 0.181082 0.000000
Si Si6 0.761691 0.176548 0.500000
Si Si7 0.826720 0.678461 0.236583
O O1 0.190564 0.758924 0.125388
O O2 0.294481 0.814668 0.000000
O O3 0.204767 0.013751 0.000000
O O4 0.431615 0.500000 0.750000
O O5 0.500000 0.260526 0.750000
O O6 0.391893 0.270239 0.625770
O O7 0.399735 0.250849 0.875041
O O8 0.955298 0.123257 0.500000
O O9 0.890821 0.271682 0.678609
O O10 0.000000 0.215432 0.750000
O O11 0.925022 0.000000 0.750000
O O12 0.307176 0.143518 0.000000
O O13 0.397802 0.983808 0.000000
O O14 0.776127 0.273959 0.368810
O O15 0.826888 0.500000 0.250000
#
# Coordination Sequence:
#
# PCOD8204678 Si02
#       7
#     4   8   8   4   4   4   8
#     4  11  25  42  69  90 130 174 213 269 318 395
#     4  11  24  41  62  91 128 169 211 260 325 395
#     4  11  24  44  71 102 135 177 225 267 319 388
#     4  11  24  40  67  91 125 164 213 276 316 381
#     4  11  24  42  63  97 123 164 221 266 328 375
#     4  11  23  46  63  94 126 170 221 259 326 389
#     4  12  26  42  65 100 134 168 214 270 327 381
#
# _framework density 20.558774
#
# number of rings (size 3 to 8) (size 9 to 14) (size 15 to 20)
#    0.000    0.800    1.000    6.600    2.800   12.400 
#    0.000    1.000    0.000    0.000    0.000    0.000 
#    0.000    0.000    0.000    0.000    0.000    0.000 
#
# Total GULP energy -495800.983587 kJ/mol
# GULP energy per Si atom -12395.024590 kJ/mol
# Density = 2.051198 g / cm^3
# Si number density = 20.558774 Si / 1000 Ang^3
#
#
#
# Elastic Constant Matrix: (Units=GPa)
#
#
# Indices 1 2 3 4 5 6 
#
# 1 73.6554 35.7116 34.3860 0.0000 0.0000 0.0000
# 2 35.7116 116.8250 49.0402 0.0000 0.0000 0.0000
# 3 34.3860 49.0402 186.3303 0.0000 0.0000 0.0000
# 4 0.0000 0.0000 0.0000 44.2312 0.0000 0.0000
# 5 0.0000 0.0000 0.0000 0.0000 34.7270 0.0000
# 6 0.0000 0.0000 0.0000 0.0000 0.0000 17.2101
#
#
#
# Elastic Compliance Matrix: (Units=1/GPa)
#
#
# Indices 1 2 3 4 5 6 
#
# 1 0.016537 -0.004243 -0.001935 0.000000 0.000000 0.000000
# 2 -0.004243 0.010712 -0.002036 0.000000 0.000000 0.000000
# 3 -0.001935 -0.002036 0.006260 0.000000 0.000000 0.000000
# 4 0.000000 0.000000 0.000000 0.022608 0.000000 0.000000
# 5 0.000000 0.000000 0.000000 0.000000 0.028796 0.000000
# 6 0.000000 0.000000 0.000000 0.000000 0.000000 0.058105
#
#
# Mechanical properties :
#
#
# Convention : Reuss Voigt Hill
#
# Bulk Modulus (GPa) = 58.54713 68.34292 63.44502
# Shear Modulus (GPa) = 30.27729 36.41187 33.34458
#
# Velocity S-wave (km/s) = 3.84176 4.21302 4.03167
# Velocity P-wave (km/s) = 6.94396 7.54857 7.25257
#
# Compressibility (1/GPa) = 0.01708026
#
# Stress axis : x y z
#
# Youngs Moduli (GPa) = 60.46933 93.35739 159.74865
#
# Poissons Ratio (x) = 0.39610 0.30914
# Poissons Ratio (y) = 0.25656 0.32528
# Poissons Ratio (z) = 0.11702 0.19009
#
# Static dielectric constant tensor:
#      x y z
#    x 3.678080 0.000000 0.000000 
#    y 0.000000 3.868360 0.000000 
#    z 0.000000 0.000000 2.968950 
# 
# 
# High freq. dielectric constant tensor:
#      x y z
#    x 1.819010 0.000000 0.000000 
#    y 0.000000 1.809940 0.000000 
#    z 0.000000 0.000000 1.828040 
# 
# From -- ./inp_files/6259.got.cif
#   From: 2010.03.12/outbox.cif.g09.slc.cpg/sg49_4_cif.got.tgz:6259.got - 2010.04.14 03:58:27.
