data_PCOD8204096
_publ_section_title
;
Structure prediction by ZEFSAII (Michael W. Deem and Ramdas Pophale) SiO2 
 PCOD8204096
Probable space group: P C C M
;
_chemical_formula_sum "Si O2"
_cell_formula_units_Z 48
_cell_length_a 9.339619
_cell_length_b 9.876200
_cell_length_c 27.931738
_cell_angle_alpha 90.000000
_cell_angle_beta 90.000000
_cell_angle_gamma 90.000000
_cell_volume 2576.421982
_symmetry_space_group_name_H-M "P C C M"
_symmetry_group_IT_number 49
_symmetry_cell_setting 'orthorhombic'
loop_
_space_group_symop_operation_xyz
x,y,z
-x,-y,z
x,-y,1/2-z
-x,y,1/2-z
-x,-y,-z
x,y,-z
-x,y,1/2+z
x,-y,1/2+z
loop_
_atom_site_type_symbol
_atom_site_label
_atom_site_fract_x
_atom_site_fract_y
_atom_site_fract_z
Si Si1 0.864032 0.595089 0.051807
Si Si2 0.829423 0.521672 0.152983
Si Si3 0.654143 0.731828 0.311594
Si Si4 0.868804 0.091979 0.554632
Si Si5 0.665315 0.998290 0.635480
Si Si6 0.672116 0.243750 0.701044
O O1 0.774622 0.543737 0.097880
O O2 0.909828 0.750525 0.061571
O O3 0.000000 0.500000 0.047353
O O4 0.780915 0.586503 0.000000
O O5 0.743202 0.399811 0.175786
O O6 0.793772 0.653306 0.183888
O O7 0.000000 0.500000 0.154655
O O8 0.484165 0.703141 0.316028
O O9 0.685285 0.775690 0.257525
O O10 0.709239 0.848242 0.347525
O O11 0.826676 0.060606 0.500000
O O12 0.737133 0.046598 0.586794
O O13 0.000000 0.000000 0.571441
O O14 0.704605 0.098026 0.678761
O O15 0.500000 0.000000 0.623447
#
# Coordination Sequence:
#
# PCOD8204096 Si02
#       6
#     8   8   8   8   8   8
#     4   9  19  36  57  80 110 146 183 223 273 330
#     4  11  22  35  56  86 111 144 183 233 279 324
#     4  10  22  36  59  80 111 148 190 224 272 336
#     4  10  21  37  60  85 111 147 188 226 276 338
#     4  10  21  37  58  84 111 145 186 233 277 322
#     4  10  20  40  57  79 109 152 188 226 272 331
#
# _framework density 18.630489000000001
#
# number of rings (size 3 to 8) (size 9 to 14) (size 15 to 20)
#    0.000    2.000    1.667    1.500    4.667    5.000 
#    0.000    0.000    0.000    6.000    0.000    0.000 
#    0.000    0.000    0.000    0.000    0.000    0.000 
#
# Total GULP energy -594998.837011 kJ/mol
# GULP energy per Si atom -12395.809104 kJ/mol
# Density = 1.858808 g / cm^3
# Si number density = 18.630489 Si / 1000 Ang^3
#
#
#
# Elastic Constant Matrix: (Units=GPa)
#
#
# Indices 1 2 3 4 5 6 
#
# 1 52.9214 39.6783 32.6693 0.0000 0.0000 0.0000
# 2 39.6783 91.1861 34.1603 0.0000 0.0000 0.0000
# 3 32.6693 34.1603 95.3989 0.0000 0.0000 0.0000
# 4 0.0000 0.0000 0.0000 64.6012 0.0000 0.0000
# 5 0.0000 0.0000 0.0000 0.0000 21.7885 0.0000
# 6 0.0000 0.0000 0.0000 0.0000 0.0000 18.5785
#
#
#
# Elastic Compliance Matrix: (Units=1/GPa)
#
#
# Indices 1 2 3 4 5 6 
#
# 1 0.031429 -0.011138 -0.006775 0.000000 0.000000 0.000000
# 2 -0.011138 0.016613 -0.002134 0.000000 0.000000 0.000000
# 3 -0.006775 -0.002134 0.013567 0.000000 0.000000 0.000000
# 4 0.000000 0.000000 0.000000 0.015480 0.000000 0.000000
# 5 0.000000 0.000000 0.000000 0.000000 0.045896 0.000000
# 6 0.000000 0.000000 0.000000 0.000000 0.000000 0.053826
#
#
# Mechanical properties :
#
#
# Convention : Reuss Voigt Hill
#
# Bulk Modulus (GPa) = 46.48093 50.28025 48.38059
# Shear Modulus (GPa) = 22.31401 29.86018 26.08710
#
# Velocity S-wave (km/s) = 3.46456 4.00779 3.74603
# Velocity P-wave (km/s) = 6.40369 6.96156 6.68844
#
# Compressibility (1/GPa) = 0.02151420
#
# Stress axis : x y z
#
# Youngs Moduli (GPa) = 31.81800 60.19486 73.71063
#
# Poissons Ratio (x) = 0.67044 0.49936
# Poissons Ratio (y) = 0.35439 0.15734
# Poissons Ratio (z) = 0.21555 0.12849
#
# Static dielectric constant tensor:
#      x y z
#    x 3.255500 0.000000 0.000000 
#    y 0.000000 3.627970 0.000000 
#    z 0.000000 0.000000 3.825220 
# 
# 
# High freq. dielectric constant tensor:
#      x y z
#    x 1.691050 0.000000 0.000000 
#    y 0.000000 1.739780 0.000000 
#    z 0.000000 0.000000 1.741220 
# 
# From -- ./inp_files/26247.got.cif
#   From: 2010.03.12/outbox.cif.g09.slc.cpg/sg49_14_cif.got.tgz:26247.got - 2010.04.14 03:58:27.
