data_PCOD8204725
_publ_section_title
;
Structure prediction by ZEFSAII (Michael W. Deem and Ramdas Pophale) SiO2 
 PCOD8204725
Probable space group: P B A N
;
_chemical_formula_sum "Si O2"
_cell_formula_units_Z 64
_cell_length_a 5.250776
_cell_length_b 18.023113
_cell_length_c 36.334739
_cell_angle_alpha 90.000000
_cell_angle_beta 90.000000
_cell_angle_gamma 90.000000
_cell_volume 3438.549986
_symmetry_space_group_name_H-M "P B A N"
_symmetry_group_IT_number 50
_space_group.IT_coordinate_system_code '2'
_symmetry_cell_setting 'orthorhombic'
loop_
_space_group_symop_operation_xyz
x,y,z
1/2-x,1/2-y,z
x,1/2-y,-z
1/2-x,y,-z
-x,-y,-z
1/2+x,1/2+y,-z
-x,1/2+y,z
1/2+x,-y,z
loop_
_atom_site_type_symbol
_atom_site_label
_atom_site_fract_x
_atom_site_fract_y
_atom_site_fract_z
Si Si1 0.745196 0.953738 0.042469
Si Si2 0.091998 0.412523 0.324005
Si Si3 0.497890 0.083894 0.484253
Si Si4 0.751098 0.836315 0.896076
Si Si5 0.596363 0.076940 0.707163
Si Si6 0.870725 0.455560 0.792889
Si Si7 0.248765 0.663740 0.149040
Si Si8 0.487574 0.046908 0.402165
O O1 0.778941 0.879603 0.065915
O O2 0.477144 0.991651 0.052222
O O3 0.750000 0.929636 0.000000
O O4 0.343951 0.377275 0.305023
O O5 0.088206 0.500549 0.315682
O O6 0.844266 0.375930 0.304813
O O7 0.071867 0.398476 0.367863
O O8 0.750000 0.124410 0.500000
O O9 0.472998 0.090259 0.440430
O O10 0.250000 0.125710 0.500000
O O11 0.500000 0.000000 0.500000
O O12 0.750000 0.750000 0.906061
O O13 0.519263 0.858255 0.868911
O O14 0.020983 0.857769 0.878419
O O15 0.617776 0.060635 0.749927
O O16 0.648168 0.513458 0.803995
O O17 0.803347 0.379586 0.813346
O O18 0.250000 0.750000 0.159390
O O19 0.274760 0.983169 0.400056
#
# Coordination Sequence:
#
# PCOD8204725 Si02
#       8
#     8   8   8   8   8   8   8   8
#     4  10  21  36  57  85 115 141 169 211 258 294
#     4  10  16  25  36  51  78 100 125 170 228 281
#     4  10  16  22  26  35  53  75 113 164 200 242
#     4  10  21  39  58  76 104 141 176 207 242 291
#     4  10  16  27  38  56  82 101 127 178 225 268
#     4  12  21  32  52  76  95 123 165 201 243 298
#     4  10  23  39  53  75 107 138 167 208 254 293
#     4  12  16  20  31  42  55  89 120 149 214 271
#
# _framework density 18.612497999999999
#
# number of rings (size 3 to 8) (size 9 to 14) (size 15 to 20)
#    0.000    1.500    7.500    1.500    0.000    3.250 
#    0.000    0.000    0.000    4.500    0.000    0.000 
#    0.000    0.000    0.000    0.000    0.000    0.000 
#
# Total GULP energy -793157.391804 kJ/mol
# GULP energy per Si atom -12393.084247 kJ/mol
# Density = 1.857014 g / cm^3
# Si number density = 18.612498 Si / 1000 Ang^3
#
#
#
# Elastic Constant Matrix: (Units=GPa)
#
#
# Indices 1 2 3 4 5 6 
#
# 1 164.5554 18.4441 36.1869 0.0000 0.0000 0.0000
# 2 18.4441 29.9064 44.1106 0.0000 0.0000 0.0000
# 3 36.1869 44.1106 105.5535 0.0000 0.0000 0.0000
# 4 0.0000 0.0000 0.0000 -0.2983 0.0000 0.0000
# 5 0.0000 0.0000 0.0000 0.0000 28.4025 0.0000
# 6 0.0000 0.0000 0.0000 0.0000 0.0000 10.6191
#
#
#
# Elastic Compliance Matrix: (Units=1/GPa)
#
#
# Indices 1 2 3 4 5 6 
#
# 1 0.006614 -0.001915 -0.001467 0.000000 0.000000 0.000000
# 2 -0.001915 0.087718 -0.036001 0.000000 0.000000 0.000000
# 3 -0.001467 -0.036001 0.025021 0.000000 0.000000 0.000000
# 4 0.000000 0.000000 0.000000 -3.352293 0.000000 0.000000
# 5 0.000000 0.000000 0.000000 0.000000 0.035208 0.000000
# 6 0.000000 0.000000 0.000000 0.000000 0.000000 0.094170
#
#
# Mechanical properties :
#
#
# Convention : Reuss Voigt Hill
#
# Bulk Modulus (GPa) = 24.63792 55.27761 39.95777
# Shear Modulus (GPa) = -1.66043 21.16292 9.75124
#
# Velocity S-wave (km/s) = -0.94554 3.37564 2.29139
# Velocity P-wave (km/s) = 3.47476 6.70499 5.33999
#
# Compressibility (1/GPa) = 0.04058783
#
# Stress axis : x y z
#
# Youngs Moduli (GPa) = 151.18776 11.40019 39.96572
#
# Poissons Ratio (x) = 0.02183 0.05864
# Poissons Ratio (y) = 0.28953 1.43879
# Poissons Ratio (z) = 0.22184 0.41041
#
# Static dielectric constant tensor:
#      x y z
#    x 6.889330 0.000000 0.000000 
#    y 0.000000 2.731350 0.000000 
#    z 0.000000 0.000000 3.544350 
# 
# 
# High freq. dielectric constant tensor:
#      x y z
#    x 1.764500 0.000000 0.000000 
#    y 0.000000 1.633280 0.000000 
#    z 0.000000 0.000000 1.734990 
# 
# From -- ./inp_files/32429.got.cif
#   From: 2010.03.12/outbox.cif.g09.slc.cpg/sg50_17_cif.got.tgz:32429.got - 2010.04.16 13:23:21.
