data_PCOD8204551
_publ_section_title
;
Structure prediction by ZEFSAII (Michael W. Deem and Ramdas Pophale) SiO2 
 PCOD8204551
Probable space group: P C C M
;
_chemical_formula_sum "Si O2"
_cell_formula_units_Z 42
_cell_length_a 11.619704
_cell_length_b 10.703660
_cell_length_c 17.648566
_cell_angle_alpha 90.000000
_cell_angle_beta 90.000000
_cell_angle_gamma 90.000000
_cell_volume 2195.011469
_symmetry_space_group_name_H-M "P C C M"
_symmetry_group_IT_number 49
_symmetry_cell_setting 'orthorhombic'
loop_
_space_group_symop_operation_xyz
x,y,z
-x,-y,z
x,-y,1/2-z
-x,y,1/2-z
-x,-y,-z
x,y,-z
-x,y,1/2+z
x,-y,1/2+z
loop_
_atom_site_type_symbol
_atom_site_label
_atom_site_fract_x
_atom_site_fract_y
_atom_site_fract_z
Si Si1 0.964722 0.630169 0.161623
Si Si2 0.554306 0.839051 0.828843
Si Si3 0.351357 0.066224 0.586112
Si Si4 0.852464 0.811016 0.656285
Si Si5 0.272031 0.358025 0.777835
Si Si6 0.000000 0.000000 0.750000
O O1 0.827273 0.646159 0.157290
O O2 0.000000 0.500000 0.124073
O O3 0.000000 0.635030 0.250000
O O4 0.041497 0.733694 0.118578
O O5 0.500000 0.883899 0.750000
O O6 0.449762 0.833172 0.889572
O O7 0.616001 0.704395 0.817070
O O8 0.643008 0.944643 0.859099
O O9 0.372217 0.024810 0.500000
O O10 0.225949 0.128577 0.591516
O O11 0.768374 0.724881 0.706977
O O12 0.912076 0.918951 0.702780
O O13 0.297758 0.500000 0.750000
#
# Coordination Sequence:
#
# PCOD8204551 Si02
#       6
#     8   8   8   8   8   2
#     4   9  15  31  52  83 117 150 177 226 306 357
#     4  11  22  37  61  90 112 147 207 255 298 346
#     4  11  24  42  59  80 123 169 196 240 302 362
#     4  11  20  32  56  90 120 151 190 244 298 359
#     4  11  19  34  58  93 124 145 190 256 305 344
#     4  12  20  28  60  98 124 144 190 266 302 340
#
# _framework density 19.134297
#
# number of rings (size 3 to 8) (size 9 to 14) (size 15 to 20)
#    0.000    1.333    8.571    3.429    0.000    0.381 
#    0.000    0.476    0.000    4.000    0.000    0.000 
#    0.000    0.000    0.000    0.000    0.000    0.000 
#
# Total GULP energy -520313.450272 kJ/mol
# GULP energy per Si atom -12388.415483 kJ/mol
# Density = 1.909075 g / cm^3
# Si number density = 19.134297 Si / 1000 Ang^3
#
#
#
# Elastic Constant Matrix: (Units=GPa)
#
#
# Indices 1 2 3 4 5 6 
#
# 1 111.6307 71.9093 31.7223 0.0000 0.0000 0.0000
# 2 71.9093 140.6868 35.7227 0.0000 0.0000 0.0000
# 3 31.7223 35.7227 70.5570 0.0000 0.0000 0.0000
# 4 0.0000 0.0000 0.0000 6.6412 0.0000 0.0000
# 5 0.0000 0.0000 0.0000 0.0000 13.6024 0.0000
# 6 0.0000 0.0000 0.0000 0.0000 0.0000 40.9909
#
#
#
# Elastic Compliance Matrix: (Units=1/GPa)
#
#
# Indices 1 2 3 4 5 6 
#
# 1 0.013903 -0.006333 -0.003044 0.000000 0.000000 0.000000
# 2 -0.006333 0.011042 -0.002743 0.000000 0.000000 0.000000
# 3 -0.003044 -0.002743 0.016930 0.000000 0.000000 0.000000
# 4 0.000000 0.000000 0.000000 0.150575 0.000000 0.000000
# 5 0.000000 0.000000 0.000000 0.000000 0.073516 0.000000
# 6 0.000000 0.000000 0.000000 0.000000 0.000000 0.024396
#
#
# Mechanical properties :
#
#
# Convention : Reuss Voigt Hill
#
# Bulk Modulus (GPa) = 56.70831 66.84257 61.77544
# Shear Modulus (GPa) = 15.60156 24.48158 20.04157
#
# Velocity S-wave (km/s) = 2.85857 3.58084 3.23989
# Velocity P-wave (km/s) = 6.37154 7.21843 6.80817
#
# Compressibility (1/GPa) = 0.01763410
#
# Stress axis : x y z
#
# Youngs Moduli (GPa) = 71.92771 90.56715 59.06555
#
# Poissons Ratio (x) = 0.57358 0.17981
# Poissons Ratio (y) = 0.45553 0.16201
# Poissons Ratio (z) = 0.21897 0.24842
#
# Static dielectric constant tensor:
#      x y z
#    x 3.924400 0.000000 0.000000 
#    y 0.000000 3.750760 0.000000 
#    z 0.000000 0.000000 3.070480 
# 
# 
# High freq. dielectric constant tensor:
#      x y z
#    x 1.761340 0.000000 0.000000 
#    y 0.000000 1.747720 0.000000 
#    z 0.000000 0.000000 1.678730 
# 
# From -- ./inp_files/16976.got.cif
#   From: 2010.03.12/outbox.cif.g09.slc.cpg/sg49_9_cif.got.tgz:16976.got - 2010.04.14 03:58:27.
