data_PCOD8204950
_publ_section_title
;
Structure prediction by ZEFSAII (Michael W. Deem and Ramdas Pophale) SiO2 
 PCOD8204950
Probable space group: P B A N
;
_chemical_formula_sum "Si O2"
_cell_formula_units_Z 64
_cell_length_a 19.202016
_cell_length_b 18.811194
_cell_length_c 9.362914
_cell_angle_alpha 90.000000
_cell_angle_beta 90.000000
_cell_angle_gamma 90.000000
_cell_volume 3382.004833
_symmetry_space_group_name_H-M "P B A N"
_symmetry_group_IT_number 50
_space_group.IT_coordinate_system_code '2'
_symmetry_cell_setting 'orthorhombic'
loop_
_space_group_symop_operation_xyz
x,y,z
1/2-x,1/2-y,z
x,1/2-y,-z
1/2-x,y,-z
-x,-y,-z
1/2+x,1/2+y,-z
-x,1/2+y,z
1/2+x,-y,z
loop_
_atom_site_type_symbol
_atom_site_label
_atom_site_fract_x
_atom_site_fract_y
_atom_site_fract_z
Si Si1 0.535839 0.075924 0.478626
Si Si2 0.071208 0.207508 0.866277
Si Si3 0.181068 0.410947 0.233624
Si Si4 0.101694 0.483934 0.015001
Si Si5 0.975251 0.088220 0.854959
Si Si6 0.173182 0.991459 0.500379
Si Si7 0.940366 0.693111 0.381186
Si Si8 0.339016 0.409663 0.247178
O O1 0.535213 0.097499 0.313409
O O2 0.615451 0.068396 0.534864
O O3 0.499572 0.137198 0.571596
O O4 0.500000 0.000000 0.500000
O O5 0.129395 0.155629 0.795216
O O6 0.004635 0.161668 0.918905
O O7 0.036695 0.262716 0.756861
O O8 0.104255 0.250000 0.000000
O O9 0.166389 0.476720 0.123966
O O10 0.169197 0.440683 0.393132
O O11 0.260294 0.387143 0.208197
O O12 0.033437 0.471752 0.112785
O O13 0.114076 0.423340 0.893403
O O14 0.094587 0.561357 0.938249
O O15 0.250000 0.956425 0.500000
O O16 0.158321 0.018873 0.340676
O O17 0.921430 0.750000 0.500000
O O18 0.869225 0.654010 0.340710
#
# Coordination Sequence:
#
# PCOD8204950 Si02
#       8
#     8   8   8   8   8   8   8   8
#     4  12  20  37  65  86 116 155 204 254 305 350
#     4  11  23  38  54  81 124 159 203 247 291 362
#     4  10  22  38  56  83 123 158 201 243 286 364
#     4  10  19  34  59  82 110 151 205 248 300 335
#     4  10  20  35  55  83 111 147 199 262 293 338
#     4  10  21  37  60  89 120 146 193 257 312 353
#     4  12  23  36  59  85 118 162 208 236 300 364
#     4  11  21  37  56  84 119 163 198 241 290 354
#
# _framework density 18.923687000000001
#
# number of rings (size 3 to 8) (size 9 to 14) (size 15 to 20)
#    0.000    1.250    3.750    4.125    0.000    3.500 
#    0.000    2.500    0.000    0.375    0.000    0.000 
#    0.000    0.000    0.000    0.000    0.000    0.000 
#
# Total GULP energy -793096.631735 kJ/mol
# GULP energy per Si atom -12392.134871 kJ/mol
# Density = 1.888062 g / cm^3
# Si number density = 18.923687 Si / 1000 Ang^3
#
#
#
# Elastic Constant Matrix: (Units=GPa)
#
#
# Indices 1 2 3 4 5 6 
#
# 1 118.7089 64.6581 41.1241 0.0000 0.0000 0.0000
# 2 64.6581 83.2688 26.1998 0.0000 0.0000 0.0000
# 3 41.1241 26.1998 83.2584 0.0000 0.0000 0.0000
# 4 0.0000 0.0000 0.0000 34.3447 0.0000 0.0000
# 5 0.0000 0.0000 0.0000 0.0000 28.9282 0.0000
# 6 0.0000 0.0000 0.0000 0.0000 0.0000 4.4043
#
#
#
# Elastic Compliance Matrix: (Units=1/GPa)
#
#
# Indices 1 2 3 4 5 6 
#
# 1 0.015937 -0.010986 -0.004415 0.000000 0.000000 0.000000
# 2 -0.010986 0.020902 -0.001151 0.000000 0.000000 0.000000
# 3 -0.004415 -0.001151 0.014554 0.000000 0.000000 0.000000
# 4 0.000000 0.000000 0.000000 0.029117 0.000000 0.000000
# 5 0.000000 0.000000 0.000000 0.000000 0.034568 0.000000
# 6 0.000000 0.000000 0.000000 0.000000 0.000000 0.227051
#
#
# Mechanical properties :
#
#
# Convention : Reuss Voigt Hill
#
# Bulk Modulus (GPa) = 54.67769 61.02223 57.84996
# Shear Modulus (GPa) = 13.11201 23.75238 18.43220
#
# Velocity S-wave (km/s) = 2.63513 3.54668 3.12433
# Velocity P-wave (km/s) = 6.18183 7.00631 6.60695
#
# Compressibility (1/GPa) = 0.01828900
#
# Stress axis : x y z
#
# Youngs Moduli (GPa) = 62.74566 47.84166 68.71128
#
# Poissons Ratio (x) = 0.52560 0.30335
# Poissons Ratio (y) = 0.68934 0.07909
# Poissons Ratio (z) = 0.27701 0.05507
#
# Static dielectric constant tensor:
#      x y z
#    x 3.589870 0.000000 0.000000 
#    y 0.000000 3.428720 0.000000 
#    z 0.000000 0.000000 3.760350 
# 
# 
# High freq. dielectric constant tensor:
#      x y z
#    x 1.717820 0.000000 0.000000 
#    y 0.000000 1.703560 0.000000 
#    z 0.000000 0.000000 1.759300 
# 
# From -- ./inp_files/15484.got.cif
#   From: 2010.03.12/outbox.cif.g09.slc.cpg/sg50_8_cif.got.tgz:15484.got - 2010.04.16 13:23:21.
