data_PCOD8204775
_publ_section_title
;
Structure prediction by ZEFSAII (Michael W. Deem and Ramdas Pophale) SiO2 
 PCOD8204775
Probable space group: P B A N
;
_chemical_formula_sum "Si O2"
_cell_formula_units_Z 64
_cell_length_a 17.169600
_cell_length_b 20.371790
_cell_length_c 10.045824
_cell_angle_alpha 90.000000
_cell_angle_beta 90.000000
_cell_angle_gamma 90.000000
_cell_volume 3513.782968
_symmetry_space_group_name_H-M "P B A N"
_symmetry_group_IT_number 50
_space_group.IT_coordinate_system_code '2'
_symmetry_cell_setting 'orthorhombic'
loop_
_space_group_symop_operation_xyz
x,y,z
1/2-x,1/2-y,z
x,1/2-y,-z
1/2-x,y,-z
-x,-y,-z
1/2+x,1/2+y,-z
-x,1/2+y,z
1/2+x,-y,z
loop_
_atom_site_type_symbol
_atom_site_label
_atom_site_fract_x
_atom_site_fract_y
_atom_site_fract_z
Si Si1 0.793930 0.415962 0.373238
Si Si2 0.568712 0.988926 0.748217
Si Si3 0.832480 0.213829 0.121295
Si Si4 0.017266 0.105804 0.392233
Si Si5 0.693742 0.064180 0.884515
Si Si6 0.052883 0.739410 0.348603
Si Si7 0.460121 0.881176 0.682307
Si Si8 0.335829 0.448358 0.496294
O O1 0.750000 0.380632 0.500000
O O2 0.731710 0.432770 0.261026
O O3 0.865488 0.376403 0.305368
O O4 0.831678 0.481728 0.427420
O O5 0.504784 0.931358 0.783283
O O6 0.627704 0.957151 0.642076
O O7 0.521433 0.052773 0.703084
O O8 0.619956 0.014032 0.874371
O O9 0.750000 0.250000 0.135929
O O10 0.829441 0.138075 0.077130
O O11 0.872575 0.220476 0.262906
O O12 0.878475 0.250000 0.000000
O O13 0.109908 0.096852 0.404188
O O14 0.007226 0.179398 0.337588
O O15 0.977301 0.093475 0.534234
O O16 0.750000 0.035990 0.000000
O O17 0.081470 0.750000 0.500000
O O18 0.010991 0.806095 0.295648
O O19 0.250000 0.415581 0.500000
#
# Coordination Sequence:
#
# PCOD8204775 Si02
#       8
#     8   8   8   8   8   8   8   8
#     4  11  19  32  56  83 106 137 186 225 273 331
#     4  11  18  33  56  76 109 146 178 221 285 327
#     4  11  22  39  50  70 111 159 177 209 280 344
#     4  10  17  32  53  83 111 140 180 224 280 331
#     4  12  23  36  54  77 112 147 185 226 275 337
#     4  10  22  34  55  80 107 139 187 235 265 318
#     4  10  19  32  52  82 110 138 176 235 272 321
#     4  10  17  30  56  86 108 138 180 229 284 330
#
# _framework density 18.213988000000001
#
# number of rings (size 3 to 8) (size 9 to 14) (size 15 to 20)
#    0.000    1.375    7.500    1.500    1.750    0.250 
#    0.000    0.625    2.750    9.375    0.000    0.000 
#    0.000    1.000    0.000    0.000    0.000    0.000 
#
# Total GULP energy -793047.334460 kJ/mol
# GULP energy per Si atom -12391.364601 kJ/mol
# Density = 1.817253 g / cm^3
# Si number density = 18.213988 Si / 1000 Ang^3
#
#
#
# Elastic Constant Matrix: (Units=GPa)
#
#
# Indices 1 2 3 4 5 6 
#
# 1 114.1459 48.1284 28.0384 0.0000 0.0000 0.0000
# 2 48.1284 102.6429 15.5920 0.0000 0.0000 0.0000
# 3 28.0384 15.5920 51.8824 0.0000 0.0000 0.0000
# 4 0.0000 0.0000 0.0000 11.3379 0.0000 0.0000
# 5 0.0000 0.0000 0.0000 0.0000 23.7235 0.0000
# 6 0.0000 0.0000 0.0000 0.0000 0.0000 12.3910
#
#
#
# Elastic Compliance Matrix: (Units=1/GPa)
#
#
# Indices 1 2 3 4 5 6 
#
# 1 0.012062 -0.004889 -0.005050 0.000000 0.000000 0.000000
# 2 -0.004889 0.012190 -0.001021 0.000000 0.000000 0.000000
# 3 -0.005050 -0.001021 0.022310 0.000000 0.000000 0.000000
# 4 0.000000 0.000000 0.000000 0.088199 0.000000 0.000000
# 5 0.000000 0.000000 0.000000 0.000000 0.042152 0.000000
# 6 0.000000 0.000000 0.000000 0.000000 0.000000 0.080704
#
#
# Mechanical properties :
#
#
# Convention : Reuss Voigt Hill
#
# Bulk Modulus (GPa) = 40.57947 50.24321 45.41134
# Shear Modulus (GPa) = 17.37608 21.28466 19.33037
#
# Velocity S-wave (km/s) = 3.09203 3.42217 3.26128
# Velocity P-wave (km/s) = 5.92243 6.57722 6.25840
#
# Compressibility (1/GPa) = 0.02464301
#
# Stress axis : x y z
#
# Youngs Moduli (GPa) = 82.90198 82.03428 44.82257
#
# Poissons Ratio (x) = 0.40106 0.22633
# Poissons Ratio (y) = 0.40530 0.04578
# Poissons Ratio (z) = 0.41862 0.08379
#
# Static dielectric constant tensor:
#      x y z
#    x 3.602420 0.000000 0.000000 
#    y 0.000000 3.579720 0.000000 
#    z 0.000000 0.000000 3.393950 
# 
# 
# High freq. dielectric constant tensor:
#      x y z
#    x 1.695820 0.000000 0.000000 
#    y 0.000000 1.699300 0.000000 
#    z 0.000000 0.000000 1.677860 
# 
# From -- ./inp_files/14614.got.cif
#   From: 2010.03.12/outbox.cif.g09.slc.cpg/sg50_8_cif.got.tgz:14614.got - 2010.04.16 13:23:21.
