data_PCOD8204458
_publ_section_title
;
Structure prediction by ZEFSAII (Michael W. Deem and Ramdas Pophale) SiO2 
 PCOD8204458
Probable space group: P C C M
;
_chemical_formula_sum "Si O2"
_cell_formula_units_Z 56
_cell_length_a 9.469665
_cell_length_b 15.718146
_cell_length_c 18.732277
_cell_angle_alpha 90.000000
_cell_angle_beta 90.000000
_cell_angle_gamma 90.000000
_cell_volume 2788.216579
_symmetry_space_group_name_H-M "P C C M"
_symmetry_group_IT_number 49
_symmetry_cell_setting 'orthorhombic'
loop_
_space_group_symop_operation_xyz
x,y,z
-x,-y,z
x,-y,1/2-z
-x,y,1/2-z
-x,-y,-z
x,y,-z
-x,y,1/2+z
x,-y,1/2+z
loop_
_atom_site_type_symbol
_atom_site_label
_atom_site_fract_x
_atom_site_fract_y
_atom_site_fract_z
Si Si1 0.613393 0.435268 0.583190
Si Si2 0.778077 0.854014 0.919957
Si Si3 0.856957 0.451311 0.316623
Si Si4 0.161822 0.012301 0.332903
Si Si5 0.870967 0.747960 0.796655
Si Si6 0.640305 0.165011 0.795154
Si Si7 0.504114 0.747214 0.920729
O O1 0.500000 0.500000 0.615563
O O2 0.628089 0.446964 0.500000
O O3 0.763354 0.460732 0.614084
O O4 0.574977 0.340050 0.605468
O O5 0.880453 0.789628 0.875879
O O6 0.622081 0.818364 0.926970
O O7 0.754087 0.941462 0.876980
O O8 0.841690 0.867385 0.000000
O O9 0.784043 0.500000 0.250000
O O10 0.883336 0.353028 0.298565
O O11 0.000000 0.500000 0.334562
O O12 0.258430 0.097103 0.336452
O O13 0.154680 0.000000 0.250000
O O14 0.000000 0.000000 0.362790
O O15 0.724727 0.779532 0.762609
O O16 0.000000 0.785616 0.750000
O O17 0.500000 0.131467 0.750000
O O18 0.606393 0.227644 0.860440
O O19 0.433810 0.735568 0.000000
#
# Coordination Sequence:
#
# PCOD8204458 Si02
#       7
#     8   8   8   8   8   8   8
#     4  10  22  41  64  90 132 176 215 273 339 399
#     4  11  23  42  67  95 130 175 220 266 333 400
#     4  11  23  40  61  99 132 165 221 279 324 393
#     4  11  23  42  64  95 134 173 217 274 335 392
#     4  12  23  43  67  93 137 176 215 272 336 397
#     4  12  23  40  70  99 125 174 229 271 331 408
#     4  10  22  41  63  95 130 167 220 276 335 395
#
# _framework density 20.084522
#
# number of rings (size 3 to 8) (size 9 to 14) (size 15 to 20)
#    0.000    1.000    5.714    0.857    2.000    3.429 
#    0.000    3.571    0.000    0.000    0.000    0.000 
#    0.000    0.000    0.000    0.000    0.000    0.000 
#
# Total GULP energy -693818.498238 kJ/mol
# GULP energy per Si atom -12389.616040 kJ/mol
# Density = 2.003881 g / cm^3
# Si number density = 20.084522 Si / 1000 Ang^3
#
#
#
# Elastic Constant Matrix: (Units=GPa)
#
#
# Indices 1 2 3 4 5 6 
#
# 1 108.1115 51.7089 45.6767 0.0000 0.0000 0.0000
# 2 51.7089 133.0722 59.3969 0.0000 0.0000 0.0000
# 3 45.6767 59.3969 102.3662 0.0000 0.0000 0.0000
# 4 0.0000 0.0000 0.0000 35.4777 0.0000 0.0000
# 5 0.0000 0.0000 0.0000 0.0000 30.0950 0.0000
# 6 0.0000 0.0000 0.0000 0.0000 0.0000 28.2082
#
#
#
# Elastic Compliance Matrix: (Units=1/GPa)
#
#
# Indices 1 2 3 4 5 6 
#
# 1 0.012302 -0.003145 -0.003665 0.000000 0.000000 0.000000
# 2 -0.003145 0.010945 -0.004948 0.000000 0.000000 0.000000
# 3 -0.003665 -0.004948 0.014275 0.000000 0.000000 0.000000
# 4 0.000000 0.000000 0.000000 0.028187 0.000000 0.000000
# 5 0.000000 0.000000 0.000000 0.000000 0.033228 0.000000
# 6 0.000000 0.000000 0.000000 0.000000 0.000000 0.035451
#
#
# Mechanical properties :
#
#
# Convention : Reuss Voigt Hill
#
# Bulk Modulus (GPa) = 71.38665 73.01277 72.19971
# Shear Modulus (GPa) = 30.75591 31.20734 30.98163
#
# Velocity S-wave (km/s) = 3.91746 3.94610 3.93181
# Velocity P-wave (km/s) = 7.48881 7.56267 7.52583
#
# Compressibility (1/GPa) = 0.01400822
#
# Stress axis : x y z
#
# Youngs Moduli (GPa) = 81.28728 91.36605 70.05334
#
# Poissons Ratio (x) = 0.28731 0.25672
# Poissons Ratio (y) = 0.25561 0.34659
# Poissons Ratio (z) = 0.29789 0.45204
#
# Static dielectric constant tensor:
#      x y z
#    x 3.240780 0.000000 0.000000 
#    y 0.000000 3.469840 0.000000 
#    z 0.000000 0.000000 3.955720 
# 
# 
# High freq. dielectric constant tensor:
#      x y z
#    x 1.773890 0.000000 0.000000 
#    y 0.000000 1.792290 0.000000 
#    z 0.000000 0.000000 1.789700 
# 
# From -- ./inp_files/19853.got.cif
#   From: 2010.03.12/outbox.cif.g09.slc.cpg/sg49_10_cif.got.tgz:19853.got - 2010.04.14 03:58:27.
