data_PCOD8204863
_publ_section_title
;
Structure prediction by ZEFSAII (Michael W. Deem and Ramdas Pophale) SiO2 
 PCOD8204863
Probable space group: P B A N
;
_chemical_formula_sum "Si O2"
_cell_formula_units_Z 64
_cell_length_a 13.120383
_cell_length_b 22.727316
_cell_length_c 11.066933
_cell_angle_alpha 90.000000
_cell_angle_beta 90.000000
_cell_angle_gamma 90.000000
_cell_volume 3300.060820
_symmetry_space_group_name_H-M "P B A N"
_symmetry_group_IT_number 50
_space_group.IT_coordinate_system_code '2'
_symmetry_cell_setting 'orthorhombic'
loop_
_space_group_symop_operation_xyz
x,y,z
1/2-x,1/2-y,z
x,1/2-y,-z
1/2-x,y,-z
-x,-y,-z
1/2+x,1/2+y,-z
-x,1/2+y,z
1/2+x,-y,z
loop_
_atom_site_type_symbol
_atom_site_label
_atom_site_fract_x
_atom_site_fract_y
_atom_site_fract_z
Si Si1 0.247102 0.117161 0.870958
Si Si2 0.576902 0.386116 0.617045
Si Si3 0.228007 0.512352 0.634689
Si Si4 0.709090 0.815544 0.376853
Si Si5 0.862781 0.258212 0.356818
Si Si6 0.083163 0.458730 0.234670
Si Si7 0.573176 0.551521 0.790360
Si Si8 0.986099 0.151042 0.357541
O O1 0.258709 0.154512 0.749211
O O2 0.140289 0.082551 0.861154
O O3 0.343630 0.072570 0.888195
O O4 0.250000 0.152530 0.000000
O O5 0.681538 0.421719 0.646395
O O6 0.589830 0.321737 0.678196
O O7 0.475897 0.418328 0.667257
O O8 0.567614 0.380274 0.472076
O O9 0.250000 0.494369 0.500000
O O10 0.333838 0.503097 0.706467
O O11 0.140485 0.467075 0.674579
O O12 0.750000 0.750000 0.369824
O O13 0.750000 0.846784 0.500000
O O14 0.589444 0.817028 0.396799
O O15 0.750000 0.250000 0.305780
O O16 0.867038 0.250000 0.500000
O O17 0.922877 0.204104 0.297530
O O18 0.998404 0.498039 0.164069
O O19 0.500176 0.604111 0.748444
#
# Coordination Sequence:
#
# PCOD8204863 Si02
#       8
#     8   8   8   8   8   8   8   8
#     4  10  22  39  58  83 115 147 190 238 281 340
#     4  10  20  30  50  76 110 152 192 229 285 346
#     4  10  19  29  49  76 110 150 186 236 287 336
#     4  10  22  35  60  86 115 150 185 232 291 344
#     4   9  20  30  44  71 104 147 189 228 274 336
#     4  10  20  34  54  75 110 142 192 240 279 335
#     4   9  20  35  49  79 101 145 190 228 287 331
#     4  10  19  32  50  73 113 146 188 229 278 346
#
# _framework density 19.393581999999999
#
# number of rings (size 3 to 8) (size 9 to 14) (size 15 to 20)
#    0.000    2.250    0.000    2.250   12.250    6.250 
#    0.000    0.000    0.000    0.000    0.000    0.000 
#    0.000    4.000    0.000    0.500    0.000    0.000 
#
# Total GULP energy -792898.566263 kJ/mol
# GULP energy per Si atom -12389.040098 kJ/mol
# Density = 1.934944 g / cm^3
# Si number density = 19.393582 Si / 1000 Ang^3
#
#
#
# Elastic Constant Matrix: (Units=GPa)
#
#
# Indices 1 2 3 4 5 6 
#
# 1 112.4802 43.8943 18.7323 0.0000 0.0000 0.0000
# 2 43.8943 95.7197 18.5642 0.0000 0.0000 0.0000
# 3 18.7323 18.5642 87.6047 0.0000 0.0000 0.0000
# 4 0.0000 0.0000 0.0000 7.8071 0.0000 0.0000
# 5 0.0000 0.0000 0.0000 0.0000 3.4209 0.0000
# 6 0.0000 0.0000 0.0000 0.0000 0.0000 40.6289
#
#
#
# Elastic Compliance Matrix: (Units=1/GPa)
#
#
# Indices 1 2 3 4 5 6 
#
# 1 0.010976 -0.004774 -0.001335 0.000000 0.000000 0.000000
# 2 -0.004774 0.012972 -0.001728 0.000000 0.000000 0.000000
# 3 -0.001335 -0.001728 0.012067 0.000000 0.000000 0.000000
# 4 0.000000 0.000000 0.000000 0.128089 0.000000 0.000000
# 5 0.000000 0.000000 0.000000 0.000000 0.292324 0.000000
# 6 0.000000 0.000000 0.000000 0.000000 0.000000 0.024613
#
#
# Mechanical properties :
#
#
# Convention : Reuss Voigt Hill
#
# Bulk Modulus (GPa) = 49.16603 50.90957 50.03780
# Shear Modulus (GPa) = 9.93058 24.67896 17.30477
#
# Velocity S-wave (km/s) = 2.26532 3.57113 2.99037
# Velocity P-wave (km/s) = 5.67882 6.58116 6.14657
#
# Compressibility (1/GPa) = 0.02033925
#
# Stress axis : x y z
#
# Youngs Moduli (GPa) = 91.10832 77.09126 82.87348
#
# Poissons Ratio (x) = 0.36806 0.11066
# Poissons Ratio (y) = 0.43498 0.14320
# Poissons Ratio (z) = 0.12165 0.13321
#
# Static dielectric constant tensor:
#      x y z
#    x 3.867570 0.000000 0.000000 
#    y 0.000000 3.689860 0.000000 
#    z 0.000000 0.000000 3.059850 
# 
# 
# High freq. dielectric constant tensor:
#      x y z
#    x 1.775450 0.000000 0.000000 
#    y 0.000000 1.759500 0.000000 
#    z 0.000000 0.000000 1.698020 
# 
# From -- ./inp_files/20535.got.cif
#   From: 2010.03.12/outbox.cif.g09.slc.cpg/sg50_11_cif.got.tgz:20535.got - 2010.04.16 13:23:21.
