data_PCOD8204369
_publ_section_title
;
Structure prediction by ZEFSAII (Michael W. Deem and Ramdas Pophale) SiO2 
 PCOD8204369
Probable space group: P C C M
;
_chemical_formula_sum "Si O2"
_cell_formula_units_Z 48
_cell_length_a 19.336086
_cell_length_b 8.593388
_cell_length_c 14.434919
_cell_angle_alpha 90.000000
_cell_angle_beta 90.000000
_cell_angle_gamma 90.000000
_cell_volume 2398.542075
_symmetry_space_group_name_H-M "P C C M"
_symmetry_group_IT_number 49
_symmetry_cell_setting 'orthorhombic'
loop_
_space_group_symop_operation_xyz
x,y,z
-x,-y,z
x,-y,1/2-z
-x,y,1/2-z
-x,-y,-z
x,y,-z
-x,y,1/2+z
x,-y,1/2+z
loop_
_atom_site_type_symbol
_atom_site_label
_atom_site_fract_x
_atom_site_fract_y
_atom_site_fract_z
Si Si1 0.850564 0.179409 0.109660
Si Si2 0.250110 0.678813 0.250015
Si Si3 0.149402 0.179481 0.109660
Si Si4 0.499977 0.684438 0.106085
Si Si5 0.398262 0.182026 0.750026
Si Si6 0.999984 0.184065 0.100883
O O1 0.794007 0.286132 0.158282
O O2 0.927117 0.229685 0.149335
O O3 0.835723 0.999958 0.134824
O O4 0.846592 0.205963 0.000000
O O5 0.272840 0.500000 0.250000
O O6 0.205945 0.713756 0.341722
O O7 0.317326 0.785581 0.250071
O O8 0.072846 0.229720 0.149339
O O9 0.153364 0.206034 0.000000
O O10 0.500000 0.500000 0.110668
O O11 0.568317 0.746327 0.157342
O O12 0.431639 0.746247 0.157385
O O13 0.499952 0.743644 0.000000
O O14 0.412645 0.000000 0.750000
O O15 0.999979 0.263188 0.000000
O O16 0.000000 0.000000 0.088101
#
# Coordination Sequence:
#
# PCOD8204369 Si02
#       6
#     8   8   8   8   8   8
#     4   9  18  35  58  81 106 141 189 240 286 335
#     4  12  25  38  53  78 117 156 187 226 281 340
#     4   9  18  35  58  81 106 141 189 240 286 335
#     4  10  21  40  67  95 122 150 177 213 270 333
#     4  11  23  40  62  87 117 150 190 235 267 310
#     4   7  12  27  53  80 103 133 180 238 289 331
#
# _framework density 20.012156999999998
#
# number of rings (size 3 to 8) (size 9 to 14) (size 15 to 20)
#    0.000    2.333    0.000    6.500    0.000    4.000 
#    0.000    4.167    0.000    3.000    0.000    0.000 
#    0.000    0.000    0.000    0.000    0.000    0.000 
#
# Total GULP energy -594850.637679 kJ/mol
# GULP energy per Si atom -12392.721618 kJ/mol
# Density = 1.996661 g / cm^3
# Si number density = 20.012157 Si / 1000 Ang^3
#
#
#
# Elastic Constant Matrix: (Units=GPa)
#
#
# Indices 1 2 3 4 5 6 
#
# 1 143.2799 21.9732 49.7545 0.0000 0.0000 0.0000
# 2 21.9732 74.2775 32.1850 0.0000 0.0000 0.0000
# 3 49.7545 32.1850 122.7140 0.0000 0.0000 0.0000
# 4 0.0000 0.0000 0.0000 25.4818 0.0000 0.0000
# 5 0.0000 0.0000 0.0000 0.0000 21.1437 0.0000
# 6 0.0000 0.0000 0.0000 0.0000 0.0000 10.7037
#
#
#
# Elastic Compliance Matrix: (Units=1/GPa)
#
#
# Indices 1 2 3 4 5 6 
#
# 1 0.008204 -0.001112 -0.003035 0.000000 0.000000 0.000000
# 2 -0.001112 0.015340 -0.003572 0.000000 0.000000 0.000000
# 3 -0.003035 -0.003572 0.010316 0.000000 0.000000 0.000000
# 4 0.000000 0.000000 0.000000 0.039244 0.000000 0.000000
# 5 0.000000 0.000000 0.000000 0.000000 0.047295 0.000000
# 6 0.000000 0.000000 0.000000 0.000000 0.000000 0.093426
#
#
# Mechanical properties :
#
#
# Convention : Reuss Voigt Hill
#
# Bulk Modulus (GPa) = 54.28285 60.89967 57.59126
# Shear Modulus (GPa) = 21.24011 27.22307 24.23159
#
# Velocity S-wave (km/s) = 3.26139 3.69226 3.48349
# Velocity P-wave (km/s) = 6.43164 6.97671 6.70971
#
# Compressibility (1/GPa) = 0.01842202
#
# Stress axis : x y z
#
# Youngs Moduli (GPa) = 121.89727 65.18920 96.93345
#
# Poissons Ratio (x) = 0.07249 0.29415
# Poissons Ratio (y) = 0.13555 0.34629
# Poissons Ratio (z) = 0.36990 0.23289
#
# Static dielectric constant tensor:
#      x y z
#    x 3.795300 0.000000 0.000000 
#    y 0.000000 3.368860 0.000000 
#    z 0.000000 0.000000 3.584790 
# 
# 
# High freq. dielectric constant tensor:
#      x y z
#    x 1.790130 0.000000 0.000000 
#    y 0.000000 1.756730 0.000000 
#    z 0.000000 0.000000 1.778580 
# 
# From -- ./inp_files/14016.got.cif
#   From: 2010.03.12/outbox.cif.g09.slc.cpg/sg49_8_cif.got.tgz:14016.got - 2010.04.14 03:58:27.
