data_PCOD8204916
_publ_section_title
;
Structure prediction by ZEFSAII (Michael W. Deem and Ramdas Pophale) SiO2 
 PCOD8204916
Probable space group: P B A N
;
_chemical_formula_sum "Si O2"
_cell_formula_units_Z 64
_cell_length_a 10.440744
_cell_length_b 30.925244
_cell_length_c 9.768495
_cell_angle_alpha 90.000000
_cell_angle_beta 90.000000
_cell_angle_gamma 90.000000
_cell_volume 3154.076631
_symmetry_space_group_name_H-M "P B A N"
_symmetry_group_IT_number 50
_space_group.IT_coordinate_system_code '2'
_symmetry_cell_setting 'orthorhombic'
loop_
_space_group_symop_operation_xyz
x,y,z
1/2-x,1/2-y,z
x,1/2-y,-z
1/2-x,y,-z
-x,-y,-z
1/2+x,1/2+y,-z
-x,1/2+y,z
1/2+x,-y,z
loop_
_atom_site_type_symbol
_atom_site_label
_atom_site_fract_x
_atom_site_fract_y
_atom_site_fract_z
Si Si1 0.633194 0.415327 0.337851
Si Si2 0.981293 0.835357 0.662586
Si Si3 0.244904 0.131889 0.158355
Si Si4 0.926617 0.427217 0.371712
Si Si5 0.880519 0.450933 0.939869
Si Si6 0.455974 0.164091 0.351421
Si Si7 0.401614 0.046265 0.148396
Si Si8 0.607260 0.251869 0.662198
O O1 0.612544 0.363586 0.354406
O O2 0.778740 0.431537 0.330684
O O3 0.559745 0.437057 0.466749
O O4 0.567997 0.429998 0.198739
O O5 0.893876 0.860472 0.773464
O O6 0.915257 0.831103 0.511832
O O7 0.022351 0.788296 0.717453
O O8 0.333758 0.161971 0.252721
O O9 0.286681 0.081035 0.163413
O O10 0.250000 0.147454 0.000000
O O11 0.963232 0.378951 0.329057
O O12 0.021869 0.459932 0.292406
O O13 0.849642 0.501216 0.908742
O O14 0.750000 0.430541 0.000000
O O15 0.992071 0.437595 0.042308
O O16 0.539087 0.203909 0.295099
O O17 0.750000 0.250000 0.726388
O O18 0.617406 0.250000 0.500000
#
# Coordination Sequence:
#
# PCOD8204916 Si02
#       8
#     8   8   8   8   8   8   8   8
#     4  10  19  33  56  82 111 144 182 228 280 344
#     4  10  20  35  58  86 115 150 190 228 283 338
#     4  11  22  38  56  78 114 153 191 232 283 344
#     4   9  18  35  55  81 114 141 179 229 289 335
#     4  11  21  36  58  82 107 144 192 240 285 341
#     4   9  19  35  59  84 113 149 188 232 276 336
#     4  10  22  38  57  80 108 143 191 242 287 335
#     4   9  17  33  60  92 117 144 190 242 279 325
#
# _framework density 20.2912
#
# number of rings (size 3 to 8) (size 9 to 14) (size 15 to 20)
#    0.000    2.125    1.250    2.250    0.000    5.000 
#    0.000    3.125    5.500    0.750    0.000    0.000 
#    0.000    0.000    0.000    0.000    0.000    0.000 
#
# Total GULP energy -793124.993526 kJ/mol
# GULP energy per Si atom -12392.578024 kJ/mol
# Density = 2.024502 g / cm^3
# Si number density = 20.291200 Si / 1000 Ang^3
#
#
#
# Elastic Constant Matrix: (Units=GPa)
#
#
# Indices 1 2 3 4 5 6 
#
# 1 70.2109 16.9122 27.9003 0.0000 0.0000 0.0000
# 2 16.9122 44.1809 11.5912 0.0000 0.0000 0.0000
# 3 27.9003 11.5912 117.0384 0.0000 0.0000 0.0000
# 4 0.0000 0.0000 0.0000 21.8939 0.0000 0.0000
# 5 0.0000 0.0000 0.0000 0.0000 15.6696 0.0000
# 6 0.0000 0.0000 0.0000 0.0000 0.0000 23.4677
#
#
#
# Elastic Compliance Matrix: (Units=1/GPa)
#
#
# Indices 1 2 3 4 5 6 
#
# 1 0.016976 -0.005582 -0.003494 0.000000 0.000000 0.000000
# 2 -0.005582 0.025073 -0.001153 0.000000 0.000000 0.000000
# 3 -0.003494 -0.001153 0.009491 0.000000 0.000000 0.000000
# 4 0.000000 0.000000 0.000000 0.045675 0.000000 0.000000
# 5 0.000000 0.000000 0.000000 0.000000 0.063818 0.000000
# 6 0.000000 0.000000 0.000000 0.000000 0.000000 0.042612
#
#
# Mechanical properties :
#
#
# Convention : Reuss Voigt Hill
#
# Bulk Modulus (GPa) = 32.17100 38.24862 35.20981
# Shear Modulus (GPa) = 21.32542 23.87469 22.60005
#
# Velocity S-wave (km/s) = 3.24538 3.43389 3.34096
# Velocity P-wave (km/s) = 5.47105 5.88327 5.68090
#
# Compressibility (1/GPa) = 0.03108390
#
# Stress axis : x y z
#
# Youngs Moduli (GPa) = 58.90771 39.88320 105.35987
#
# Poissons Ratio (x) = 0.22261 0.36813
# Poissons Ratio (y) = 0.32879 0.12144
# Poissons Ratio (z) = 0.20582 0.04597
#
# Static dielectric constant tensor:
#      x y z
#    x 3.635500 0.000000 0.000000 
#    y 0.000000 3.503870 0.000000 
#    z 0.000000 0.000000 3.806900 
# 
# 
# High freq. dielectric constant tensor:
#      x y z
#    x 1.789780 0.000000 0.000000 
#    y 0.000000 1.774360 0.000000 
#    z 0.000000 0.000000 1.789030 
# 
# From -- ./inp_files/11844.got.cif
#   From: 2010.03.12/outbox.cif.g09.slc.cpg/sg50_6_cif.got.tgz:11844.got - 2010.04.16 13:23:21.
