data_PCOD8204046
_publ_section_title
;
Structure prediction by ZEFSAII (Michael W. Deem and Ramdas Pophale) SiO2 
 PCOD8204046
Probable space group: P C C M
;
_chemical_formula_sum "Si O2"
_cell_formula_units_Z 56
_cell_length_a 22.681046
_cell_length_b 14.851353
_cell_length_c 8.473079
_cell_angle_alpha 90.000000
_cell_angle_beta 90.000000
_cell_angle_gamma 90.000000
_cell_volume 2854.107691
_symmetry_space_group_name_H-M "P C C M"
_symmetry_group_IT_number 49
_symmetry_cell_setting 'orthorhombic'
loop_
_space_group_symop_operation_xyz
x,y,z
-x,-y,z
x,-y,1/2-z
-x,y,1/2-z
-x,-y,-z
x,y,-z
-x,y,1/2+z
x,-y,1/2+z
loop_
_atom_site_type_symbol
_atom_site_label
_atom_site_fract_x
_atom_site_fract_y
_atom_site_fract_z
Si Si1 0.788607 0.593839 0.685658
Si Si2 0.560619 0.731707 0.814052
Si Si3 0.389212 0.093889 0.685940
Si Si4 0.654591 0.595359 0.312544
Si Si5 0.162412 0.219456 0.315459
Si Si6 0.936354 0.904408 0.816029
Si Si7 0.739209 0.903335 0.185861
O O1 0.815009 0.500000 0.750000
O O2 0.786560 0.587813 0.500000
O O3 0.721779 0.608931 0.746910
O O4 0.830311 0.676454 0.739309
O O5 0.500000 0.687149 0.750000
O O6 0.565119 0.828075 0.727685
O O7 0.616176 0.671897 0.768181
O O8 0.558168 0.744682 0.000000
O O9 0.377099 0.087663 0.500000
O O10 0.328629 0.115271 0.776455
O O11 0.415565 0.000000 0.750000
O O12 0.630674 0.500000 0.250000
O O13 0.648288 0.601787 0.500000
O O14 0.149166 0.212302 0.500000
O O15 0.108526 0.175431 0.222485
O O16 0.223493 0.171212 0.276404
O O17 0.000000 0.877993 0.750000
O O18 0.913318 0.000000 0.750000
O O19 0.942145 0.916090 0.000000
O O20 0.759548 0.000000 0.250000
O O21 0.751163 0.897846 0.000000
#
# Coordination Sequence:
#
# PCOD8204046 Si02
#       7
#     8   8   8   8   8   8   8
#     4   9  20  36  58  84 114 146 181 224 275 329
#     4  12  25  41  59  82 108 141 183 230 278 333
#     4  11  22  39  59  81 109 144 182 226 277 334
#     4  10  20  38  61  87 115 147 182 225 279 338
#     4  11  21  35  55  83 116 152 189 232 280 331
#     4  11  22  38  58  83 115 155 196 238 280 329
#     4  11  21  34  53  81 113 147 183 226 276 332
#
# _framework density 19.620844999999999
#
# number of rings (size 3 to 8) (size 9 to 14) (size 15 to 20)
#    0.000    1.286    0.000    8.571    0.000    3.429 
#    0.000    2.857    0.000    0.429    0.000    3.000 
#    0.000    0.000    0.000    0.000    0.000    0.000 
#
# Total GULP energy -694632.721878 kJ/mol
# GULP energy per Si atom -12404.155748 kJ/mol
# Density = 1.957619 g / cm^3
# Si number density = 19.620845 Si / 1000 Ang^3
#
#
#
# Elastic Constant Matrix: (Units=GPa)
#
#
# Indices 1 2 3 4 5 6 
#
# 1 69.6197 51.6603 24.4835 0.0000 0.0000 0.0000
# 2 51.6603 134.8399 38.8450 0.0000 0.0000 0.0000
# 3 24.4835 38.8450 93.0727 0.0000 0.0000 0.0000
# 4 0.0000 0.0000 0.0000 34.3205 0.0000 0.0000
# 5 0.0000 0.0000 0.0000 0.0000 28.6499 0.0000
# 6 0.0000 0.0000 0.0000 0.0000 0.0000 20.6033
#
#
#
# Elastic Compliance Matrix: (Units=1/GPa)
#
#
# Indices 1 2 3 4 5 6 
#
# 1 0.020533 -0.007173 -0.002408 0.000000 0.000000 0.000000
# 2 -0.007173 0.010936 -0.002677 0.000000 0.000000 0.000000
# 3 -0.002408 -0.002677 0.012495 0.000000 0.000000 0.000000
# 4 0.000000 0.000000 0.000000 0.029137 0.000000 0.000000
# 5 0.000000 0.000000 0.000000 0.000000 0.034904 0.000000
# 6 0.000000 0.000000 0.000000 0.000000 0.000000 0.048536
#
#
# Mechanical properties :
#
#
# Convention : Reuss Voigt Hill
#
# Bulk Modulus (GPa) = 51.41932 58.61222 55.01577
# Shear Modulus (GPa) = 26.66107 28.88432 27.77270
#
# Velocity S-wave (km/s) = 3.69021 3.84099 3.76635
# Velocity P-wave (km/s) = 6.66485 7.04331 6.85669
#
# Compressibility (1/GPa) = 0.01944794
#
# Stress axis : x y z
#
# Youngs Moduli (GPa) = 48.70166 91.44398 80.03220
#
# Poissons Ratio (x) = 0.65594 0.19269
# Poissons Ratio (y) = 0.34934 0.21426
# Poissons Ratio (z) = 0.11725 0.24481
#
# Static dielectric constant tensor:
#      x y z
#    x 3.460030 0.000000 0.000000 
#    y 0.000000 0.357640 0.000000 
#    z 0.000000 0.000000 3.635340 
# 
# 
# High freq. dielectric constant tensor:
#      x y z
#    x 1.747300 0.000000 0.000000 
#    y 0.000000 1.768090 0.000000 
#    z 0.000000 0.000000 1.779700 
# 
# From -- ./inp_files/5813.got.cif
#   From: 2010.03.12/outbox.cif.g09.slc.cpg/sg49_3_cif.got.tgz:5813.got - 2010.04.14 03:58:27.
