data_PCOD8204382
_publ_section_title
;
Structure prediction by ZEFSAII (Michael W. Deem and Ramdas Pophale) SiO2 
 PCOD8204382
Probable space group: P C C M
;
_chemical_formula_sum "Si O2"
_cell_formula_units_Z 58
_cell_length_a 10.929456
_cell_length_b 9.458231
_cell_length_c 27.958262
_cell_angle_alpha 90.000000
_cell_angle_beta 90.000000
_cell_angle_gamma 90.000000
_cell_volume 2890.138352
_symmetry_space_group_name_H-M "P C C M"
_symmetry_group_IT_number 49
_symmetry_cell_setting 'orthorhombic'
loop_
_space_group_symop_operation_xyz
x,y,z
-x,-y,z
x,-y,1/2-z
-x,y,1/2-z
-x,-y,-z
x,y,-z
-x,y,1/2+z
x,-y,1/2+z
loop_
_atom_site_type_symbol
_atom_site_label
_atom_site_fract_x
_atom_site_fract_y
_atom_site_fract_z
Si Si1 0.610987 0.913014 0.554324
Si Si2 0.855830 0.484988 0.195647
Si Si3 0.154124 0.835055 0.824838
Si Si4 0.000000 0.000000 0.750000
Si Si5 0.364609 0.974355 0.694217
Si Si6 0.455921 0.346181 0.944730
Si Si7 0.126797 0.991046 0.409153
Si Si8 0.742160 0.264245 0.365583
O O1 0.607159 0.960916 0.500000
O O2 0.577913 0.748871 0.561786
O O3 0.500000 0.000000 0.580618
O O4 0.748598 0.950642 0.568635
O O5 0.804789 0.500000 0.250000
O O6 0.823173 0.330904 0.176015
O O7 0.797949 0.596851 0.158998
O O8 0.000000 0.500000 0.195778
O O9 0.086545 0.891842 0.777844
O O10 0.286333 0.907468 0.832742
O O11 0.079888 0.892498 0.870074
O O12 0.325167 0.817797 0.677824
O O13 0.500000 0.000000 0.676654
O O14 0.347512 0.000000 0.750000
O O15 0.500000 0.500000 0.930305
O O16 0.347517 0.301718 0.909260
O O17 0.408591 0.337816 0.000000
O O18 0.151316 0.834766 0.387371
O O19 0.000000 0.000000 0.441516
#
# Coordination Sequence:
#
# PCOD8204382 Si02
#       8
#     8   8   8   2   8   8   8   8
#     4  10  21  41  68  95 123 161 211 260 312 380
#     4  11  24  39  60  88 126 169 214 263 317 382
#     4  11  23  36  62  84 119 160 213 257 305 369
#     4  12  20  40  64  84 114 172 218 266 296 372
#     4  10  22  38  58  86 123 165 209 254 313 376
#     4  10  23  43  68  95 124 166 217 271 328 395
#     4  11  23  37  61  95 128 162 205 261 319 377
#     4  11  24  39  63  93 129 168 217 267 324 384
#
# _framework density 20.068244
#
# number of rings (size 3 to 8) (size 9 to 14) (size 15 to 20)
#    0.000    1.379    2.759    2.483    9.655    0.276 
#    0.000    0.000    0.000    2.897    0.000    0.000 
#    0.000    0.000    0.000    0.000    0.000    0.000 
#
# Total GULP energy -718535.124488 kJ/mol
# GULP energy per Si atom -12388.536629 kJ/mol
# Density = 2.002257 g / cm^3
# Si number density = 20.068244 Si / 1000 Ang^3
#
#
#
# Elastic Constant Matrix: (Units=GPa)
#
#
# Indices 1 2 3 4 5 6 
#
# 1 161.0599 58.4788 37.5597 0.0000 0.0000 0.0000
# 2 58.4788 170.0664 44.1726 0.0000 0.0000 0.0000
# 3 37.5597 44.1726 83.9810 0.0000 0.0000 0.0000
# 4 0.0000 0.0000 0.0000 31.1881 0.0000 0.0000
# 5 0.0000 0.0000 0.0000 0.0000 15.2073 0.0000
# 6 0.0000 0.0000 0.0000 0.0000 0.0000 22.7219
#
#
#
# Elastic Compliance Matrix: (Units=1/GPa)
#
#
# Indices 1 2 3 4 5 6 
#
# 1 0.007460 -0.001967 -0.002302 0.000000 0.000000 0.000000
# 2 -0.001967 0.007329 -0.002975 0.000000 0.000000 0.000000
# 3 -0.002302 -0.002975 0.014502 0.000000 0.000000 0.000000
# 4 0.000000 0.000000 0.000000 0.032064 0.000000 0.000000
# 5 0.000000 0.000000 0.000000 0.000000 0.065758 0.000000
# 6 0.000000 0.000000 0.000000 0.000000 0.000000 0.044010
#
#
# Mechanical properties :
#
#
# Convention : Reuss Voigt Hill
#
# Bulk Modulus (GPa) = 67.55540 77.28105 72.41822
# Shear Modulus (GPa) = 26.24048 32.14987 29.19518
#
# Velocity S-wave (km/s) = 3.61995 4.00688 3.81832
# Velocity P-wave (km/s) = 7.15597 7.74593 7.45679
#
# Compressibility (1/GPa) = 0.01480267
#
# Stress axis : x y z
#
# Youngs Moduli (GPa) = 134.04955 136.43828 68.95721
#
# Poissons Ratio (x) = 0.26842 0.15871
# Poissons Ratio (y) = 0.26372 0.20516
# Poissons Ratio (z) = 0.30853 0.40593
#
# Static dielectric constant tensor:
#      x y z
#    x 3.777330 0.000000 0.000000 
#    y 0.000000 3.332940 0.000000 
#    z 0.000000 0.000000 3.800980 
# 
# 
# High freq. dielectric constant tensor:
#      x y z
#    x 1.792590 0.000000 0.000000 
#    y 0.000000 1.786050 0.000000 
#    z 0.000000 0.000000 1.781050 
# 
# From -- ./inp_files/24845.got.cif
#   From: 2010.03.12/outbox.cif.g09.slc.cpg/sg49_13_cif.got.tgz:24845.got - 2010.04.14 03:58:27.
