data_PCOD8204087
_publ_section_title
;
Structure prediction by ZEFSAII (Michael W. Deem and Ramdas Pophale) SiO2 
 PCOD8204087
Probable space group: P C C M
;
_chemical_formula_sum "Si O2"
_cell_formula_units_Z 64
_cell_length_a 14.381713
_cell_length_b 25.222148
_cell_length_c 8.935851
_cell_angle_alpha 90.000000
_cell_angle_beta 90.000000
_cell_angle_gamma 90.000000
_cell_volume 3241.369984
_symmetry_space_group_name_H-M "P C C M"
_symmetry_group_IT_number 49
_symmetry_cell_setting 'orthorhombic'
loop_
_space_group_symop_operation_xyz
x,y,z
-x,-y,z
x,-y,1/2-z
-x,y,1/2-z
-x,-y,-z
x,y,-z
-x,y,1/2+z
x,-y,1/2+z
loop_
_atom_site_type_symbol
_atom_site_label
_atom_site_fract_x
_atom_site_fract_y
_atom_site_fract_z
Si Si1 0.912933 0.056830 0.173395
Si Si2 0.289373 0.759707 0.825989
Si Si3 0.401850 0.850363 0.677491
Si Si4 0.907070 0.599523 0.323305
Si Si5 0.402018 0.345357 0.325304
Si Si6 0.707017 0.057233 0.824579
Si Si7 0.713058 0.445624 0.822492
Si Si8 0.091303 0.719915 0.174455
O O1 0.810830 0.082682 0.197154
O O2 0.000000 0.088830 0.250000
O O3 0.908431 0.000000 0.250000
O O4 0.935601 0.050572 0.000000
O O5 0.329880 0.804555 0.719530
O O6 0.335830 0.703733 0.787644
O O7 0.180426 0.755550 0.786816
O O8 0.304981 0.774939 0.000000
O O9 0.500000 0.835336 0.750000
O O10 0.411726 0.854608 0.500000
O O11 0.367480 0.905944 0.743603
O O12 0.917113 0.596848 0.500000
O O13 0.818239 0.566068 0.268770
O O14 0.892725 0.659933 0.267714
O O15 0.000000 0.574970 0.250000
O O16 0.500000 0.335601 0.250000
O O17 0.418872 0.350328 0.500000
O O18 0.353849 0.398765 0.264022
O O19 0.699721 0.000000 0.750000
O O20 0.683237 0.052535 0.000000
O O21 0.677595 0.500000 0.750000
O O22 0.708217 0.449824 0.000000
O O23 0.000000 0.745383 0.250000
O O24 0.073255 0.718925 0.000000
#
# Coordination Sequence:
#
# PCOD8204087 Si02
#       8
#     8   8   8   8   8   8   8   8
#     4   9  16  27  49  80 115 152 192 235 279 328
#     4  10  20  39  64  87 116 151 187 235 291 343
#     4  12  26  43  63  89 119 152 193 243 294 347
#     4   9  17  32  53  78 109 146 185 227 277 335
#     4  10  21  38  59  81 107 142 186 235 289 347
#     4  10  21  39  62  90 123 161 202 244 291 344
#     4  10  21  37  54  76 110 148 187 232 285 341
#     4   9  17  32  57  86 116 151 187 229 282 340
#
# _framework density 19.744738000000002
#
# number of rings (size 3 to 8) (size 9 to 14) (size 15 to 20)
#    0.000    2.125    1.250    2.625    0.000    5.250 
#    0.000    4.375    0.000    0.000    0.000    0.000 
#    0.000    0.000    0.000    0.000    0.000    0.000 
#
# Total GULP energy -793513.592532 kJ/mol
# GULP energy per Si atom -12398.649883 kJ/mol
# Density = 1.969980 g / cm^3
# Si number density = 19.744738 Si / 1000 Ang^3
#
#
#
# Elastic Constant Matrix: (Units=GPa)
#
#
# Indices 1 2 3 4 5 6 
#
# 1 120.2651 37.3184 49.0541 0.0000 0.0000 0.0000
# 2 37.3184 80.1052 39.9627 0.0000 0.0000 0.0000
# 3 49.0541 39.9627 88.4053 0.0000 0.0000 0.0000
# 4 0.0000 0.0000 0.0000 21.6657 0.0000 0.0000
# 5 0.0000 0.0000 0.0000 0.0000 34.3143 0.0000
# 6 0.0000 0.0000 0.0000 0.0000 0.0000 27.0046
#
#
#
# Elastic Compliance Matrix: (Units=1/GPa)
#
#
# Indices 1 2 3 4 5 6 
#
# 1 0.011192 -0.002732 -0.004975 0.000000 0.000000 0.000000
# 2 -0.002732 0.016785 -0.006072 0.000000 0.000000 0.000000
# 3 -0.004975 -0.006072 0.016817 0.000000 0.000000 0.000000
# 4 0.000000 0.000000 0.000000 0.046156 0.000000 0.000000
# 5 0.000000 0.000000 0.000000 0.000000 0.029142 0.000000
# 6 0.000000 0.000000 0.000000 0.000000 0.000000 0.037031
#
#
# Mechanical properties :
#
#
# Convention : Reuss Voigt Hill
#
# Bulk Modulus (GPa) = 58.01695 60.16066 59.08881
# Shear Modulus (GPa) = 26.25684 27.42628 26.84156
#
# Velocity S-wave (km/s) = 3.65062 3.73103 3.69104
# Velocity P-wave (km/s) = 6.87144 7.00686 6.93948
#
# Compressibility (1/GPa) = 0.01723634
#
# Stress axis : x y z
#
# Youngs Moduli (GPa) = 89.34942 59.57569 59.46408
#
# Poissons Ratio (x) = 0.16276 0.29585
# Poissons Ratio (y) = 0.24410 0.36105
# Poissons Ratio (z) = 0.44454 0.36173
#
# Static dielectric constant tensor:
#      x y z
#    x 4.056480 0.000000 0.000000 
#    y 0.000000 3.409930 0.000000 
#    z 0.000000 0.000000 3.489400 
# 
# 
# High freq. dielectric constant tensor:
#      x y z
#    x 1.785680 0.000000 0.000000 
#    y 0.000000 1.749500 0.000000 
#    z 0.000000 0.000000 1.763130 
# 
# From -- ./inp_files/4337.got.cif
#   From: 2010.03.12/outbox.cif.g09.slc.cpg/sg49_3_cif.got.tgz:4337.got - 2010.04.14 03:58:27.
