data_PCOD8204079
_publ_section_title
;
Structure prediction by ZEFSAII (Michael W. Deem and Ramdas Pophale) SiO2 
 PCOD8204079
Probable space group: P C C M
;
_chemical_formula_sum "Si O2"
_cell_formula_units_Z 34
_cell_length_a 7.512875
_cell_length_b 12.198451
_cell_length_c 18.111920
_cell_angle_alpha 90.000000
_cell_angle_beta 90.000000
_cell_angle_gamma 90.000000
_cell_volume 1659.874833
_symmetry_space_group_name_H-M "P C C M"
_symmetry_group_IT_number 49
_symmetry_cell_setting 'orthorhombic'
loop_
_space_group_symop_operation_xyz
x,y,z
-x,-y,z
x,-y,1/2-z
-x,y,1/2-z
-x,-y,-z
x,y,-z
-x,y,1/2+z
x,-y,1/2+z
loop_
_atom_site_type_symbol
_atom_site_label
_atom_site_fract_x
_atom_site_fract_y
_atom_site_fract_z
Si Si1 0.851709 0.729974 0.914529
Si Si2 0.520435 0.878408 0.915264
Si Si3 0.000000 0.000000 0.750000
Si Si4 0.197945 0.610981 0.275775
Si Si5 0.195254 0.193918 0.329290
O O1 0.720066 0.833448 0.904532
O O2 0.781888 0.628027 0.864422
O O3 0.044948 0.761761 0.884582
O O4 0.861462 0.692805 0.000000
O O5 0.377731 0.805784 0.873421
O O6 0.500000 0.000000 0.882595
O O7 0.464167 0.877361 0.000000
O O8 0.129557 0.076729 0.701280
O O9 0.305035 0.500000 0.250000
O O10 0.250750 0.725115 0.237153
O O11 0.000000 0.589723 0.250000
#
# Coordination Sequence:
#
# PCOD8204079 Si02
#       5
#     8   8   2   8   8
#     4  10  20  39  61  86 116 154 198 242 293 349
#     4  10  22  37  56  86 121 155 194 238 292 355
#     4  12  20  36  58  88 120 150 202 238 294 348
#     4   9  19  39  60  84 118 152 194 245 290 348
#     4  11  21  38  58  86 119 155 193 244 293 347
#
# _framework density 20.483473
#
# number of rings (size 3 to 8) (size 9 to 14) (size 15 to 20)
#    0.000    1.882    3.529    2.118    0.000    0.941 
#    0.000   17.647    0.000    2.824    0.000    0.000 
#    0.000    0.000    0.000    0.000    0.000    0.000 
#
# Total GULP energy -421246.916191 kJ/mol
# GULP energy per Si atom -12389.615182 kJ/mol
# Density = 2.043685 g / cm^3
# Si number density = 20.483473 Si / 1000 Ang^3
#
#
#
# Elastic Constant Matrix: (Units=GPa)
#
#
# Indices 1 2 3 4 5 6 
#
# 1 63.0982 1.3841 33.4518 0.0000 0.0000 0.0000
# 2 1.3841 120.6354 64.5565 0.0000 0.0000 0.0000
# 3 33.4518 64.5565 150.5273 0.0000 0.0000 0.0000
# 4 0.0000 0.0000 0.0000 343.0642 0.0000 0.0000
# 5 0.0000 0.0000 0.0000 0.0000 16.2022 0.0000
# 6 0.0000 0.0000 0.0000 0.0000 0.0000 0.6241
#
#
#
# Elastic Compliance Matrix: (Units=1/GPa)
#
#
# Indices 1 2 3 4 5 6 
#
# 1 0.018568 0.002589 -0.005237 0.000000 0.000000 0.000000
# 2 0.002589 0.011120 -0.005344 0.000000 0.000000 0.000000
# 3 -0.005237 -0.005344 0.010099 0.000000 0.000000 0.000000
# 4 0.000000 0.000000 0.000000 0.002915 0.000000 0.000000
# 5 0.000000 0.000000 0.000000 0.000000 0.061720 0.000000
# 6 0.000000 0.000000 0.000000 0.000000 0.000000 1.602199
#
#
# Mechanical properties :
#
#
# Convention : Reuss Voigt Hill
#
# Bulk Modulus (GPa) = 42.01136 59.22731 50.61933
# Shear Modulus (GPa) = 2.88927 87.63601 45.26264
#
# Velocity S-wave (km/s) = 1.18895 6.54803 4.70586
# Velocity P-wave (km/s) = 4.73700 9.28150 7.36836
#
# Compressibility (1/GPa) = 0.02380309
#
# Stress axis : x y z
#
# Youngs Moduli (GPa) = 53.85647 89.93063 99.01844
#
# Poissons Ratio (x) = -0.23287 0.51855
# Poissons Ratio (y) = -0.13946 0.52919
# Poissons Ratio (z) = 0.28204 0.48062
#
# Static dielectric constant tensor:
#      x y z
#    x 3.478060 0.000000 0.000000 
#    y 0.000000 5.258850 0.000000 
#    z 0.000000 0.000000 3.874190 
# 
# 
# High freq. dielectric constant tensor:
#      x y z
#    x 1.788550 0.000000 0.000000 
#    y 0.000000 1.796260 0.000000 
#    z 0.000000 0.000000 1.807290 
# 
# From -- ./inp_files/15891.got.cif
#   From: 2010.03.12/outbox.cif.g09.slc.cpg/sg49_8_cif.got.tgz:15891.got - 2010.04.14 03:58:27.
