data_PCOD8204284
_publ_section_title
;
Structure prediction by ZEFSAII (Michael W. Deem and Ramdas Pophale) SiO2 
 PCOD8204284
Probable space group: P C C M
;
_chemical_formula_sum "Si O2"
_cell_formula_units_Z 56
_cell_length_a 14.360478
_cell_length_b 9.330160
_cell_length_c 20.418971
_cell_angle_alpha 90.000000
_cell_angle_beta 90.000000
_cell_angle_gamma 90.000000
_cell_volume 2735.847211
_symmetry_space_group_name_H-M "P C C M"
_symmetry_group_IT_number 49
_symmetry_cell_setting 'orthorhombic'
loop_
_space_group_symop_operation_xyz
x,y,z
-x,-y,z
x,-y,1/2-z
-x,y,1/2-z
-x,-y,-z
x,y,-z
-x,y,1/2+z
x,-y,1/2+z
loop_
_atom_site_type_symbol
_atom_site_label
_atom_site_fract_x
_atom_site_fract_y
_atom_site_fract_z
Si Si1 0.816324 0.292303 0.137794
Si Si2 0.977567 0.340671 0.652031
Si Si3 0.163326 0.842738 0.729989
Si Si4 0.687829 0.825475 0.117452
Si Si5 0.188898 0.581901 0.572385
Si Si6 0.498202 0.829939 0.823899
Si Si7 0.657677 0.138079 0.926395
O O1 0.787672 0.243245 0.210676
O O2 0.790487 0.459120 0.126090
O O3 0.761104 0.198809 0.084870
O O4 0.927099 0.264144 0.129269
O O5 0.926282 0.249002 0.708097
O O6 0.910850 0.347406 0.588674
O O7 0.000000 0.500000 0.679491
O O8 0.241879 0.863999 0.675734
O O9 0.127774 0.000000 0.750000
O O10 0.731299 0.701860 0.072697
O O11 0.590690 0.764676 0.144168
O O12 0.664707 0.966641 0.076040
O O13 0.184174 0.514418 0.500000
O O14 0.500000 0.765908 0.750000
O O15 0.410262 0.791820 0.870979
O O16 0.500000 0.000000 0.819330
O O17 0.623692 0.179034 0.000000
#
# Coordination Sequence:
#
# PCOD8204284 Si02
#       7
#     8   8   8   8   8   8   8
#     4  11  22  37  59  85 120 158 201 250 308 363
#     4   9  22  38  59  88 117 161 208 248 305 370
#     4  11  21  38  63  90 125 154 201 261 316 364
#     4  10  21  38  61  86 117 158 198 252 310 364
#     4  10  22  40  59  83 117 162 208 249 304 372
#     4   9  19  35  61  88 119 154 200 255 313 374
#     4  11  22  37  59  91 121 158 208 256 309 375
#
# _framework density 20.468978
#
# number of rings (size 3 to 8) (size 9 to 14) (size 15 to 20)
#    0.000    1.857    1.429    2.143    2.000   14.286 
#    0.000    0.714    0.000    5.143    0.000    0.000 
#    0.000    0.000    0.000    0.000    0.000    0.000 
#
# Total GULP energy -694207.634354 kJ/mol
# GULP energy per Si atom -12396.564899 kJ/mol
# Density = 2.042239 g / cm^3
# Si number density = 20.468978 Si / 1000 Ang^3
#
#
#
# Elastic Constant Matrix: (Units=GPa)
#
#
# Indices 1 2 3 4 5 6 
#
# 1 114.7874 35.3063 46.4188 0.0000 0.0000 0.0000
# 2 35.3063 71.3884 37.9043 0.0000 0.0000 0.0000
# 3 46.4188 37.9043 139.1735 0.0000 0.0000 0.0000
# 4 0.0000 0.0000 0.0000 24.7513 0.0000 0.0000
# 5 0.0000 0.0000 0.0000 0.0000 21.5175 0.0000
# 6 0.0000 0.0000 0.0000 0.0000 0.0000 23.3131
#
#
#
# Elastic Compliance Matrix: (Units=1/GPa)
#
#
# Indices 1 2 3 4 5 6 
#
# 1 0.011002 -0.004083 -0.002557 0.000000 0.000000 0.000000
# 2 -0.004083 0.017891 -0.003511 0.000000 0.000000 0.000000
# 3 -0.002557 -0.003511 0.008994 0.000000 0.000000 0.000000
# 4 0.000000 0.000000 0.000000 0.040402 0.000000 0.000000
# 5 0.000000 0.000000 0.000000 0.000000 0.046474 0.000000
# 6 0.000000 0.000000 0.000000 0.000000 0.000000 0.042894
#
#
# Mechanical properties :
#
#
# Convention : Reuss Voigt Hill
#
# Bulk Modulus (GPa) = 56.86771 62.73424 59.80098
# Shear Modulus (GPa) = 25.79678 27.63103 26.71391
#
# Velocity S-wave (km/s) = 3.55390 3.67808 3.61653
# Velocity P-wave (km/s) = 6.68453 6.98231 6.83505
#
# Compressibility (1/GPa) = 0.01758467
#
# Stress axis : x y z
#
# Youngs Moduli (GPa) = 90.89359 55.89256 111.17979
#
# Poissons Ratio (x) = 0.22823 0.28433
# Poissons Ratio (y) = 0.37115 0.39034
# Poissons Ratio (z) = 0.23245 0.19623
#
# Static dielectric constant tensor:
#      x y z
#    x 3.850480 0.000000 0.000000 
#    y 0.000000 3.513000 0.000000 
#    z 0.000000 0.000000 3.719740 
# 
# 
# High freq. dielectric constant tensor:
#      x y z
#    x 1.804600 0.000000 0.000000 
#    y 0.000000 1.775690 0.000000 
#    z 0.000000 0.000000 1.800210 
# 
# From -- ./inp_files/20866.got.cif
#   From: 2010.03.12/outbox.cif.g09.slc.cpg/sg49_11_cif.got.tgz:20866.got - 2010.04.14 03:58:27.
