data_PCOD8204026
_publ_section_title
;
Structure prediction by ZEFSAII (Michael W. Deem and Ramdas Pophale) SiO2 
 PCOD8204026
Probable space group: P C C M
;
_chemical_formula_sum "Si O2"
_cell_formula_units_Z 64
_cell_length_a 15.426423
_cell_length_b 23.718208
_cell_length_c 8.663077
_cell_angle_alpha 90.000000
_cell_angle_beta 90.000000
_cell_angle_gamma 90.000000
_cell_volume 3169.708202
_symmetry_space_group_name_H-M "P C C M"
_symmetry_group_IT_number 49
_symmetry_cell_setting 'orthorhombic'
loop_
_space_group_symop_operation_xyz
x,y,z
-x,-y,z
x,-y,1/2-z
-x,y,1/2-z
-x,-y,-z
x,y,-z
-x,y,1/2+z
x,-y,1/2+z
loop_
_atom_site_type_symbol
_atom_site_label
_atom_site_fract_x
_atom_site_fract_y
_atom_site_fract_z
Si Si1 0.909849 0.136678 0.182008
Si Si2 0.652515 0.248908 0.681299
Si Si3 0.591165 0.872951 0.817709
Si Si4 0.910931 0.367930 0.816682
Si Si5 0.146462 0.251000 0.181539
Si Si6 0.589378 0.361856 0.181850
Si Si7 0.254636 0.438525 0.681929
Si Si8 0.758772 0.061244 0.317109
O O1 0.901078 0.202178 0.224313
O O2 0.831841 0.102985 0.257959
O O3 0.000000 0.113131 0.250000
O O4 0.908655 0.127933 0.000000
O O5 0.638985 0.257272 0.500000
O O6 0.613974 0.189782 0.740717
O O7 0.752917 0.251569 0.726623
O O8 0.601191 0.297265 0.769696
O O9 0.500000 0.893603 0.750000
O O10 0.665511 0.915777 0.760312
O O11 0.585649 0.873456 0.000000
O O12 0.896499 0.308896 0.732661
O O13 0.835974 0.411129 0.766820
O O14 0.000000 0.393779 0.750000
O O15 0.914162 0.359304 0.000000
O O16 0.132775 0.240757 0.000000
O O17 0.500000 0.385923 0.250000
O O18 0.667872 0.399687 0.247840
O O19 0.585413 0.365564 0.000000
O O20 0.263602 0.500000 0.750000
O O21 0.261075 0.442680 0.500000
O O22 0.763555 0.059418 0.500000
O O23 0.775325 0.000000 0.250000
#
# Coordination Sequence:
#
# PCOD8204026 Si02
#       8
#     8   8   8   8   8   8   8   8
#     4  12  25  42  66  95 127 166 206 253 310 368
#     4  10  20  37  62  92 124 163 200 246 306 365
#     4  10  22  40  62  91 127 162 204 252 303 364
#     4  11  23  41  62  92 125 160 204 250 304 366
#     4  11  21  38  64  94 128 164 202 249 306 367
#     4  11  23  40  61  91 124 159 201 251 303 365
#     4  10  24  43  63  86 119 158 206 256 306 363
#     4  11  24  45  66  91 125 163 212 263 310 366
#
# _framework density 20.191133000000001
#
# number of rings (size 3 to 8) (size 9 to 14) (size 15 to 20)
#    0.000    1.250    2.500    3.375    0.000    6.000 
#    0.000    5.000    0.000    0.000    0.000    0.000 
#    0.000    0.000    0.000    0.000    0.000    0.000 
#
# Total GULP energy -793977.120068 kJ/mol
# GULP energy per Si atom -12405.892501 kJ/mol
# Density = 2.014518 g / cm^3
# Si number density = 20.191133 Si / 1000 Ang^3
#
#
#
# Elastic Constant Matrix: (Units=GPa)
#
#
# Indices 1 2 3 4 5 6 
#
# 1 131.7530 14.2435 39.0648 0.0000 0.0000 0.0000
# 2 14.2435 80.1181 22.0593 0.0000 0.0000 0.0000
# 3 39.0648 22.0593 61.2290 0.0000 0.0000 0.0000
# 4 0.0000 0.0000 0.0000 29.7656 0.0000 0.0000
# 5 0.0000 0.0000 0.0000 0.0000 34.2133 0.0000
# 6 0.0000 0.0000 0.0000 0.0000 0.0000 21.6653
#
#
#
# Elastic Compliance Matrix: (Units=1/GPa)
#
#
# Indices 1 2 3 4 5 6 
#
# 1 0.009361 -0.000022 -0.005964 0.000000 0.000000 0.000000
# 2 -0.000022 0.013856 -0.004978 0.000000 0.000000 0.000000
# 3 -0.005964 -0.004978 0.021931 0.000000 0.000000 0.000000
# 4 0.000000 0.000000 0.000000 0.033596 0.000000 0.000000
# 5 0.000000 0.000000 0.000000 0.000000 0.029228 0.000000
# 6 0.000000 0.000000 0.000000 0.000000 0.000000 0.046157
#
#
# Mechanical properties :
#
#
# Convention : Reuss Voigt Hill
#
# Bulk Modulus (GPa) = 43.06795 47.09281 45.08038
# Shear Modulus (GPa) = 27.20391 30.31101 28.75746
#
# Velocity S-wave (km/s) = 3.67457 3.87874 3.77803
# Velocity P-wave (km/s) = 6.27532 6.59042 6.43480
#
# Compressibility (1/GPa) = 0.02321912
#
# Stress axis : x y z
#
# Youngs Moduli (GPa) = 106.82880 72.17043 45.59775
#
# Poissons Ratio (x) = 0.00159 0.27196
# Poissons Ratio (y) = 0.00235 0.22699
# Poissons Ratio (z) = 0.63717 0.35926
#
# Static dielectric constant tensor:
#      x y z
#    x 5.660410 0.000000 0.000000 
#    y 0.000000 3.860860 0.000000 
#    z 0.000000 0.000000 3.597340 
# 
# 
# High freq. dielectric constant tensor:
#      x y z
#    x 1.810000 0.000000 0.000000 
#    y 0.000000 1.784460 0.000000 
#    z 0.000000 0.000000 1.788520 
# 
# From -- ./inp_files/4426.got.cif
#   From: 2010.03.12/outbox.cif.g09.slc.cpg/sg49_3_cif.got.tgz:4426.got - 2010.04.14 03:58:27.
