data_PCOD8204783
_publ_section_title
;
Structure prediction by ZEFSAII (Michael W. Deem and Ramdas Pophale) SiO2 
 PCOD8204783
Probable space group: P B A N
;
_chemical_formula_sum "Si O2"
_cell_formula_units_Z 46
_cell_length_a 19.888448
_cell_length_b 15.521924
_cell_length_c 7.727607
_cell_angle_alpha 90.000000
_cell_angle_beta 90.000000
_cell_angle_gamma 90.000000
_cell_volume 2385.566207
_symmetry_space_group_name_H-M "P B A N"
_symmetry_group_IT_number 50
_space_group.IT_coordinate_system_code '2'
_symmetry_cell_setting 'orthorhombic'
loop_
_space_group_symop_operation_xyz
x,y,z
1/2-x,1/2-y,z
x,1/2-y,-z
1/2-x,y,-z
-x,-y,-z
1/2+x,1/2+y,-z
-x,1/2+y,z
1/2+x,-y,z
loop_
_atom_site_type_symbol
_atom_site_label
_atom_site_fract_x
_atom_site_fract_y
_atom_site_fract_z
Si Si1 0.106213 0.629743 0.919896
Si Si2 0.052532 0.411985 0.358795
Si Si3 0.750000 0.250000 0.500000
Si Si4 0.975693 0.250000 0.500000
Si Si5 0.138361 0.801790 0.737599
Si Si6 0.448253 0.152524 0.014703
Si Si7 0.926601 0.526137 0.288620
O O1 0.142120 0.707144 0.821166
O O2 0.120739 0.544258 0.806127
O O3 0.027113 0.646841 0.940228
O O4 0.137821 0.624516 0.113676
O O5 0.090928 0.394844 0.175690
O O6 0.099733 0.442330 0.520661
O O7 0.019370 0.319236 0.398395
O O8 0.000137 0.487921 0.320017
O O9 0.796493 0.187102 0.383639
O O10 0.929973 0.191979 0.372648
O O11 0.423761 0.250000 0.000000
O O12 0.431401 0.108822 0.833402
#
# Coordination Sequence:
#
# PCOD8204783 Si02
#       7
#     8   8   2   4   8   8   8
#     4  10  17  32  46  64  84 134 160 197 239 296
#     4  10  18  27  41  65  93 125 164 214 219 267
#     4  10  24  34  44  80  80 118 158 220 268 288
#     4  11  16  29  46  64  92 132 168 191 236 285
#     4  10  19  32  50  63  92 117 167 203 245 305
#     4  11  18  30  44  68  96 132 171 197 231 271
#     4  10  20  28  41  68  95 121 170 204 231 268
#
# _framework density 19.282634000000002
#
# number of rings (size 3 to 8) (size 9 to 14) (size 15 to 20)
#    0.000    1.739    5.217    4.174    0.000    2.783 
#    0.000    0.000    0.000    0.000    0.000    0.000 
#    0.000    0.000    0.000    4.696    0.000    0.174 
#
# Total GULP energy -569891.289535 kJ/mol
# GULP energy per Si atom -12388.941077 kJ/mol
# Density = 1.923875 g / cm^3
# Si number density = 19.282634 Si / 1000 Ang^3
#
#
#
# Elastic Constant Matrix: (Units=GPa)
#
#
# Indices 1 2 3 4 5 6 
#
# 1 21.2762 4.6319 13.1427 0.0000 0.0000 0.0000
# 2 4.6319 89.5031 45.3294 0.0000 0.0000 0.0000
# 3 13.1427 45.3294 168.5206 0.0000 0.0000 0.0000
# 4 0.0000 0.0000 0.0000 41.9896 0.0000 0.0000
# 5 0.0000 0.0000 0.0000 0.0000 14.1292 0.0000
# 6 0.0000 0.0000 0.0000 0.0000 0.0000 5.4037
#
#
#
# Elastic Compliance Matrix: (Units=1/GPa)
#
#
# Indices 1 2 3 4 5 6 
#
# 1 0.049418 -0.000701 -0.003665 0.000000 0.000000 0.000000
# 2 -0.000701 0.012945 -0.003427 0.000000 0.000000 0.000000
# 3 -0.003665 -0.003427 0.007142 0.000000 0.000000 0.000000
# 4 0.000000 0.000000 0.000000 0.023815 0.000000 0.000000
# 5 0.000000 0.000000 0.000000 0.000000 0.070775 0.000000
# 6 0.000000 0.000000 0.000000 0.000000 0.000000 0.185057
#
#
# Mechanical properties :
#
#
# Convention : Reuss Voigt Hill
#
# Bulk Modulus (GPa) = 18.54707 45.05642 31.80175
# Shear Modulus (GPa) = 13.06465 26.71757 19.89111
#
# Velocity S-wave (km/s) = 2.60577 3.72637 3.21527
# Velocity P-wave (km/s) = 4.32352 6.47545 5.50565
#
# Compressibility (1/GPa) = 0.05391686
#
# Stress axis : x y z
#
# Youngs Moduli (GPa) = 20.23563 77.25083 140.02179
#
# Poissons Ratio (x) = 0.05415 0.51324
# Poissons Ratio (y) = 0.01419 0.47990
# Poissons Ratio (z) = 0.07417 0.26476
#
# Static dielectric constant tensor:
#      x y z
#    x 2.708370 0.000000 0.000000 
#    y 0.000000 3.587840 0.000000 
#    z 0.000000 0.000000 4.583880 
# 
# 
# High freq. dielectric constant tensor:
#      x y z
#    x 1.630980 0.000000 0.000000 
#    y 0.000000 1.744100 0.000000 
#    z 0.000000 0.000000 1.799900 
# 
# From -- ./inp_files/16069.got.cif
#   From: 2010.03.12/outbox.cif.g09.slc.cpg/sg50_9_cif.got.tgz:16069.got - 2010.04.16 13:23:21.
