data_PCOD8204994
_publ_section_title
;
Structure prediction by ZEFSAII (Michael W. Deem and Ramdas Pophale) SiO2 
 PCOD8204994
Probable space group: P B A N
;
_chemical_formula_sum "Si O2"
_cell_formula_units_Z 30
_cell_length_a 12.767078
_cell_length_b 4.939843
_cell_length_c 18.903325
_cell_angle_alpha 90.000000
_cell_angle_beta 90.000000
_cell_angle_gamma 90.000000
_cell_volume 1192.182820
_symmetry_space_group_name_H-M "P B A N"
_symmetry_group_IT_number 50
_space_group.IT_coordinate_system_code '2'
_symmetry_cell_setting 'orthorhombic'
loop_
_space_group_symop_operation_xyz
x,y,z
1/2-x,1/2-y,z
x,1/2-y,-z
1/2-x,y,-z
-x,-y,-z
1/2+x,1/2+y,-z
-x,1/2+y,z
1/2+x,-y,z
loop_
_atom_site_type_symbol
_atom_site_label
_atom_site_fract_x
_atom_site_fract_y
_atom_site_fract_z
Si Si1 0.925638 0.750000 0.500000
Si Si2 0.072255 0.233651 0.348186
Si Si3 0.567608 0.455004 0.921341
Si Si4 0.182942 0.016708 0.213836
Si Si5 0.250000 0.250000 0.000000
O O1 0.865019 0.774859 0.575473
O O2 0.000000 0.500000 0.500000
O O3 0.152555 0.154534 0.287682
O O4 0.028490 0.537312 0.340781
O O5 0.530732 0.150018 0.942763
O O6 0.583727 0.452311 0.836354
O O7 0.677473 0.544411 0.955174
O O8 0.250000 0.250000 0.173939
O O9 0.250000 0.750000 0.228377
#
# Coordination Sequence:
#
# PCOD8204994 Si02
#       5
#     4   8   8   8   2
#     4   8  16  30  55  86 119 160 214 272 326 397
#     4  10  19  36  61  90 123 169 224 277 338 414
#     4  12  27  48  74 104 139 189 234 286 360 427
#     4  12  24  42  65  96 137 179 227 295 347 409
#     4  12  28  50  76 108 148 176 240 298 352 432
#
# _framework density 25.163929
#
# number of rings (size 3 to 8) (size 9 to 14) (size 15 to 20)
#    0.000    1.067    1.333    5.600    0.000    1.067 
#    0.000    0.667    0.000    1.600    0.000    0.000 
#    0.000    0.000    0.000    0.000    0.000    0.000 
#
# Total GULP energy -371714.076184 kJ/mol
# GULP energy per Si atom -12390.469206 kJ/mol
# Density = 2.510665 g / cm^3
# Si number density = 25.163929 Si / 1000 Ang^3
#
#
#
# Elastic Constant Matrix: (Units=GPa)
#
#
# Indices 1 2 3 4 5 6 
#
# 1 87.7638 25.3412 23.2623 0.0000 0.0000 0.0000
# 2 25.3412 131.0292 2.6920 0.0000 0.0000 0.0000
# 3 23.2623 2.6920 98.8011 0.0000 0.0000 0.0000
# 4 0.0000 0.0000 0.0000 23.0515 0.0000 0.0000
# 5 0.0000 0.0000 0.0000 0.0000 -1.9360 0.0000
# 6 0.0000 0.0000 0.0000 0.0000 0.0000 41.2426
#
#
#
# Elastic Compliance Matrix: (Units=1/GPa)
#
#
# Indices 1 2 3 4 5 6 
#
# 1 0.012882 -0.002431 -0.002967 0.000000 0.000000 0.000000
# 2 -0.002431 0.008095 0.000352 0.000000 0.000000 0.000000
# 3 -0.002967 0.000352 0.010810 0.000000 0.000000 0.000000
# 4 0.000000 0.000000 0.000000 0.043381 0.000000 0.000000
# 5 0.000000 0.000000 0.000000 0.000000 -0.516516 0.000000
# 6 0.000000 0.000000 0.000000 0.000000 0.000000 0.024247
#
#
# Mechanical properties :
#
#
# Convention : Reuss Voigt Hill
#
# Bulk Modulus (GPa) = 46.09139 46.68724 46.38931
# Shear Modulus (GPa) = -12.50696 30.22487 8.85896
#
# Velocity S-wave (km/s) = -2.23181 3.46948 1.87833
# Velocity P-wave (km/s) = 3.42270 5.88585 4.81446
#
# Compressibility (1/GPa) = 0.02169603
#
# Stress axis : x y z
#
# Youngs Moduli (GPa) = 77.62527 123.53725 92.50437
#
# Poissons Ratio (x) = 0.30026 0.27445
# Poissons Ratio (y) = 0.18867 -0.03253
# Poissons Ratio (z) = 0.23031 -0.04345
#
# Static dielectric constant tensor:
#      x y z
#    x 4.068160 0.000000 0.000000 
#    y 0.000000 4.726290 0.000000 
#    z 0.000000 0.000000 5.430610 
# 
# 
# High freq. dielectric constant tensor:
#      x y z
#    x 1.965100 0.000000 0.000000 
#    y 0.000000 2.023640 0.000000 
#    z 0.000000 0.000000 2.040440 
# 
# From -- ./inp_files/30784.got.cif
#   From: 2010.03.12/outbox.cif.g09.slc.cpg/sg50_16_cif.got.tgz:30784.got - 2010.04.16 13:23:21.
