data_PCOD8204982
_publ_section_title
;
Structure prediction by ZEFSAII (Michael W. Deem and Ramdas Pophale) SiO2 
 PCOD8204982
Probable space group: P B A N
;
_chemical_formula_sum "Si O2"
_cell_formula_units_Z 44
_cell_length_a 13.206249
_cell_length_b 9.860401
_cell_length_c 18.094286
_cell_angle_alpha 90.000000
_cell_angle_beta 90.000000
_cell_angle_gamma 90.000000
_cell_volume 2356.218215
_symmetry_space_group_name_H-M "P B A N"
_symmetry_group_IT_number 50
_space_group.IT_coordinate_system_code '2'
_symmetry_cell_setting 'orthorhombic'
loop_
_space_group_symop_operation_xyz
x,y,z
1/2-x,1/2-y,z
x,1/2-y,-z
1/2-x,y,-z
-x,-y,-z
1/2+x,1/2+y,-z
-x,1/2+y,z
1/2+x,-y,z
loop_
_atom_site_type_symbol
_atom_site_label
_atom_site_fract_x
_atom_site_fract_y
_atom_site_fract_z
Si Si1 0.089072 0.840866 0.384327
Si Si2 0.251161 0.096962 0.876459
Si Si3 0.750000 0.074761 0.500000
Si Si4 0.408382 0.098227 0.006829
Si Si5 0.739630 0.094156 0.259611
Si Si6 0.896993 0.468886 0.622090
O O1 0.168993 0.838944 0.451972
O O2 0.142945 0.905840 0.313178
O O3 0.058221 0.683393 0.380659
O O4 0.986856 0.925997 0.391589
O O5 0.250000 0.250000 0.844974
O O6 0.331466 0.074801 0.940613
O O7 0.280832 0.994533 0.812075
O O8 0.142131 0.068803 0.913367
O O9 0.682652 0.989333 0.557588
O O10 0.450345 0.250000 0.000000
O O11 0.500000 0.000000 0.000000
O O12 0.750000 0.250000 0.234583
O O13 0.837732 0.026736 0.299659
#
# Coordination Sequence:
#
# PCOD8204982 Si02
#       6
#     8   8   4   8   8   8
#     4  10  20  35  54  76 102 134 171 211 254 302
#     4   9  19  36  55  75 104 136 168 209 253 296
#     4  10  19  36  57  74 101 138 171 208 257 306
#     4   9  19  35  54  78 104 133 169 209 252 298
#     4   9  20  36  52  73 104 138 170 205 252 306
#     4  10  20  35  54  76 102 134 171 211 254 302
#
# _framework density 18.673991000000001
#
# number of rings (size 3 to 8) (size 9 to 14) (size 15 to 20)
#    0.000    2.545    0.000    4.364    0.000    4.364 
#    0.000   12.727    0.000    0.000    0.000    0.000 
#    0.000    0.000    0.000    0.000    0.000    0.000 
#
# Total GULP energy -545108.003883 kJ/mol
# GULP energy per Si atom -12388.818270 kJ/mol
# Density = 1.863149 g / cm^3
# Si number density = 18.673991 Si / 1000 Ang^3
#
#
#
# Elastic Constant Matrix: (Units=GPa)
#
#
# Indices 1 2 3 4 5 6 
#
# 1 102.2025 64.7381 23.4965 0.0000 0.0000 0.0000
# 2 64.7381 92.8921 55.4513 0.0000 0.0000 0.0000
# 3 23.4965 55.4513 101.7266 0.0000 0.0000 0.0000
# 4 0.0000 0.0000 0.0000 20.9320 0.0000 0.0000
# 5 0.0000 0.0000 0.0000 0.0000 3.3935 0.0000
# 6 0.0000 0.0000 0.0000 0.0000 0.0000 34.4463
#
#
#
# Elastic Compliance Matrix: (Units=1/GPa)
#
#
# Indices 1 2 3 4 5 6 
#
# 1 0.018608 -0.015420 0.004107 0.000000 0.000000 0.000000
# 2 -0.015420 0.028736 -0.012102 0.000000 0.000000 0.000000
# 3 0.004107 -0.012102 0.015479 0.000000 0.000000 0.000000
# 4 0.000000 0.000000 0.000000 0.047774 0.000000 0.000000
# 5 0.000000 0.000000 0.000000 0.000000 0.294679 0.000000
# 6 0.000000 0.000000 0.000000 0.000000 0.000000 0.029031
#
#
# Mechanical properties :
#
#
# Convention : Reuss Voigt Hill
#
# Bulk Modulus (GPa) = 62.52909 64.91034 63.71971
# Shear Modulus (GPa) = 10.27821 21.96339 16.12080
#
# Velocity S-wave (km/s) = 2.34861 3.43322 2.94134
# Velocity P-wave (km/s) = 6.39624 7.10994 6.76251
#
# Compressibility (1/GPa) = 0.01599256
#
# Stress axis : x y z
#
# Youngs Moduli (GPa) = 53.74146 34.79948 64.60539
#
# Poissons Ratio (x) = 0.53660 -0.26537
# Poissons Ratio (y) = 0.82869 0.78188
# Poissons Ratio (z) = -0.22074 0.42116
#
# Static dielectric constant tensor:
#      x y z
#    x 3.316400 0.000000 0.000000 
#    y 0.000000 3.171100 0.000000 
#    z 0.000000 0.000000 3.526500 
# 
# 
# High freq. dielectric constant tensor:
#      x y z
#    x 1.724470 0.000000 0.000000 
#    y 0.000000 1.714980 0.000000 
#    z 0.000000 0.000000 1.729900 
# 
# From -- ./inp_files/29400.got.cif
#   From: 2010.03.12/outbox.cif.g09.slc.cpg/sg50_15_cif.got.tgz:29400.got - 2010.04.16 13:23:21.
