data_PCOD8204312
_publ_section_title
;
Structure prediction by ZEFSAII (Michael W. Deem and Ramdas Pophale) SiO2 
 PCOD8204312
Probable space group: P C C M
;
_chemical_formula_sum "Si O2"
_cell_formula_units_Z 64
_cell_length_a 15.134365
_cell_length_b 23.748045
_cell_length_c 8.593845
_cell_angle_alpha 90.000000
_cell_angle_beta 90.000000
_cell_angle_gamma 90.000000
_cell_volume 3088.727419
_symmetry_space_group_name_H-M "P C C M"
_symmetry_group_IT_number 49
_symmetry_cell_setting 'orthorhombic'
loop_
_space_group_symop_operation_xyz
x,y,z
-x,-y,z
x,-y,1/2-z
-x,y,1/2-z
-x,-y,-z
x,y,-z
-x,y,1/2+z
x,-y,1/2+z
loop_
_atom_site_type_symbol
_atom_site_label
_atom_site_fract_x
_atom_site_fract_y
_atom_site_fract_z
Si Si1 0.597143 0.057189 0.682787
Si Si2 0.847538 0.834314 0.673262
Si Si3 0.910400 0.270029 0.681336
Si Si4 0.096306 0.057916 0.816239
Si Si5 0.648994 0.172908 0.173192
Si Si6 0.592768 0.293660 0.814944
Si Si7 0.773709 0.650917 0.317941
Si Si8 0.094286 0.561375 0.315930
O O1 0.500000 0.059944 0.750000
O O2 0.596497 0.050768 0.500000
O O3 0.641815 0.116687 0.724434
O O4 0.644216 0.000000 0.750000
O O5 0.889853 0.837744 0.500000
O O6 0.909166 0.796641 0.785251
O O7 0.838213 0.894881 0.753354
O O8 0.750411 0.808860 0.662346
O O9 0.902140 0.284740 0.500000
O O10 0.829544 0.293764 0.780326
O O11 0.000000 0.296610 0.750000
O O12 0.000000 0.070971 0.750000
O O13 0.134253 0.000000 0.750000
O O14 0.093880 0.055443 0.000000
O O15 0.602841 0.228789 0.246316
O O16 0.611399 0.159998 0.000000
O O17 0.500000 0.317937 0.750000
O O18 0.672979 0.335363 0.760949
O O19 0.592014 0.292295 0.000000
O O20 0.775175 0.637184 0.500000
O O21 0.821313 0.599706 0.227939
O O22 0.114467 0.500000 0.250000
O O23 0.085555 0.558996 0.500000
O O24 0.000000 0.584236 0.250000
#
# Coordination Sequence:
#
# PCOD8204312 Si02
#       8
#     8   8   8   8   8   8   8   8
#     4  11  22  37  57  80 106 139 180 234 296 369
#     4  11  22  39  58  79 111 146 186 239 296 357
#     4  12  24  38  58  86 120 160 202 247 301 363
#     4  11  22  38  57  78 102 137 185 235 292 354
#     4  10  21  39  59  82 112 149 190 243 304 367
#     4  10  22  40  63  90 122 163 207 258 317 373
#     4  11  22  41  63  91 129 170 213 261 311 362
#     4  11  22  39  64  99 138 182 223 264 310 364
#
# _framework density 20.720507999999999
#
# number of rings (size 3 to 8) (size 9 to 14) (size 15 to 20)
#    0.000    1.125    1.250    7.500    0.000    4.000 
#    0.000    0.000    0.000    0.375    0.000    2.625 
#    0.000    0.000    0.000    0.000    0.000    0.000 
#
# Total GULP energy -793343.155345 kJ/mol
# GULP energy per Si atom -12395.986802 kJ/mol
# Density = 2.067335 g / cm^3
# Si number density = 20.720508 Si / 1000 Ang^3
#
#
#
# Elastic Constant Matrix: (Units=GPa)
#
#
# Indices 1 2 3 4 5 6 
#
# 1 120.6504 48.5502 34.4495 0.0000 0.0000 0.0000
# 2 48.5502 116.4017 38.1837 0.0000 0.0000 0.0000
# 3 34.4495 38.1837 130.9275 0.0000 0.0000 0.0000
# 4 0.0000 0.0000 0.0000 30.9391 0.0000 0.0000
# 5 0.0000 0.0000 0.0000 0.0000 28.1048 0.0000
# 6 0.0000 0.0000 0.0000 0.0000 0.0000 28.3258
#
#
#
# Elastic Compliance Matrix: (Units=1/GPa)
#
#
# Indices 1 2 3 4 5 6 
#
# 1 0.010256 -0.003751 -0.001605 0.000000 0.000000 0.000000
# 2 -0.003751 0.010872 -0.002184 0.000000 0.000000 0.000000
# 3 -0.001605 -0.002184 0.008697 0.000000 0.000000 0.000000
# 4 0.000000 0.000000 0.000000 0.032322 0.000000 0.000000
# 5 0.000000 0.000000 0.000000 0.000000 0.035581 0.000000
# 6 0.000000 0.000000 0.000000 0.000000 0.000000 0.035303
#
#
# Mechanical properties :
#
#
# Convention : Reuss Voigt Hill
#
# Bulk Modulus (GPa) = 67.81601 67.81625 67.81613
# Shear Modulus (GPa) = 32.67430 33.92701 33.30065
#
# Velocity S-wave (km/s) = 3.97534 4.05083 4.01326
# Velocity P-wave (km/s) = 7.33969 7.39453 7.36716
#
# Compressibility (1/GPa) = 0.01474578
#
# Stress axis : x y z
#
# Youngs Moduli (GPa) = 97.50261 91.98002 114.98449
#
# Poissons Ratio (x) = 0.34506 0.18449
# Poissons Ratio (y) = 0.36577 0.25108
# Poissons Ratio (z) = 0.15644 0.20085
#
# Static dielectric constant tensor:
#      x y z
#    x 3.581610 0.000000 0.000000 
#    y 0.000000 3.685550 0.000000 
#    z 0.000000 0.000000 3.721510 
# 
# 
# High freq. dielectric constant tensor:
#      x y z
#    x 1.803600 0.000000 0.000000 
#    y 0.000000 1.804420 0.000000 
#    z 0.000000 0.000000 1.815480 
# 
# From -- ./inp_files/4352.got.cif
#   From: 2010.03.12/outbox.cif.g09.slc.cpg/sg49_3_cif.got.tgz:4352.got - 2010.04.14 03:58:27.
