data_PCOD8204814
_publ_section_title
;
Structure prediction by ZEFSAII (Michael W. Deem and Ramdas Pophale) SiO2 
 PCOD8204814
Probable space group: P B A N
;
_chemical_formula_sum "Si O2"
_cell_formula_units_Z 52
_cell_length_a 18.333520
_cell_length_b 14.718723
_cell_length_c 11.522257
_cell_angle_alpha 90.000000
_cell_angle_beta 90.000000
_cell_angle_gamma 90.000000
_cell_volume 3109.234991
_symmetry_space_group_name_H-M "P B A N"
_symmetry_group_IT_number 50
_space_group.IT_coordinate_system_code '2'
_symmetry_cell_setting 'orthorhombic'
loop_
_space_group_symop_operation_xyz
x,y,z
1/2-x,1/2-y,z
x,1/2-y,-z
1/2-x,y,-z
-x,-y,-z
1/2+x,1/2+y,-z
-x,1/2+y,z
1/2+x,-y,z
loop_
_atom_site_type_symbol
_atom_site_label
_atom_site_fract_x
_atom_site_fract_y
_atom_site_fract_z
Si Si1 0.038639 0.643167 0.487919
Si Si2 0.553645 0.915219 0.267125
Si Si3 0.904679 0.744069 0.863213
Si Si4 0.344520 0.506088 0.592869
Si Si5 0.750000 0.750000 0.740177
Si Si6 0.533040 0.581667 0.272936
Si Si7 0.797157 0.934567 0.638340
O O1 0.050158 0.750000 0.500000
O O2 0.116468 0.598327 0.451554
O O3 0.978216 0.615474 0.392784
O O4 0.013153 0.607446 0.612635
O O5 0.550767 0.830789 0.181435
O O6 0.637283 0.949387 0.272246
O O7 0.509192 0.998508 0.211390
O O8 0.821908 0.737765 0.818774
O O9 0.954548 0.660759 0.819300
O O10 0.903071 0.750000 0.000000
O O11 0.388706 0.455384 0.691669
O O12 0.333520 0.434473 0.488605
O O13 0.262426 0.517663 0.646949
O O14 0.758576 0.837646 0.658884
#
# Coordination Sequence:
#
# PCOD8204814 Si02
#       7
#     8   8   8   8   4   8   8
#     4  11  19  33  53  79 109 140 167 214 270 319
#     4  10  20  34  56  78 107 140 176 210 273 316
#     4  11  23  37  54  78 105 139 186 225 260 310
#     4  10  19  30  49  78 110 139 167 202 259 329
#     4  10  21  35  52  76 106 143 167 220 272 308
#     4  11  19  36  52  78 111 140 166 222 263 321
#     4  10  18  31  48  79 108 136 167 208 255 330
#
# _framework density 16.724371000000001
#
# number of rings (size 3 to 8) (size 9 to 14) (size 15 to 20)
#    0.000    1.538    6.154    1.154    0.000    1.846 
#    0.000    1.538    0.000    0.000    0.000    0.000 
#    0.000    1.538    0.000    0.000    0.000    0.000 
#
# Total GULP energy -644297.703974 kJ/mol
# GULP energy per Si atom -12390.340461 kJ/mol
# Density = 1.668631 g / cm^3
# Si number density = 16.724371 Si / 1000 Ang^3
#
#
#
# Elastic Constant Matrix: (Units=GPa)
#
#
# Indices 1 2 3 4 5 6 
#
# 1 104.7846 63.4590 25.8553 0.0000 0.0000 0.0000
# 2 63.4590 118.1612 42.6923 0.0000 0.0000 0.0000
# 3 25.8553 42.6923 63.6264 0.0000 0.0000 0.0000
# 4 0.0000 0.0000 0.0000 2.6924 0.0000 0.0000
# 5 0.0000 0.0000 0.0000 0.0000 6.9381 0.0000
# 6 0.0000 0.0000 0.0000 0.0000 0.0000 30.3071
#
#
#
# Elastic Compliance Matrix: (Units=1/GPa)
#
#
# Indices 1 2 3 4 5 6 
#
# 1 0.014179 -0.007304 -0.000861 0.000000 0.000000 0.000000
# 2 -0.007304 0.014934 -0.007052 0.000000 0.000000 0.000000
# 3 -0.000861 -0.007052 0.020799 0.000000 0.000000 0.000000
# 4 0.000000 0.000000 0.000000 0.371411 0.000000 0.000000
# 5 0.000000 0.000000 0.000000 0.000000 0.144131 0.000000
# 6 0.000000 0.000000 0.000000 0.000000 0.000000 0.032996
#
#
# Mechanical properties :
#
#
# Convention : Reuss Voigt Hill
#
# Bulk Modulus (GPa) = 51.34251 61.17616 56.25934
# Shear Modulus (GPa) = 7.86936 18.29190 13.08063
#
# Velocity S-wave (km/s) = 2.17153 3.31074 2.79969
# Velocity P-wave (km/s) = 6.08714 7.16053 6.64554
#
# Compressibility (1/GPa) = 0.01947704
#
# Stress axis : x y z
#
# Youngs Moduli (GPa) = 70.52587 66.96309 48.08024
#
# Poissons Ratio (x) = 0.48909 0.04140
# Poissons Ratio (y) = 0.51511 0.33907
# Poissons Ratio (z) = 0.06073 0.47224
#
# Static dielectric constant tensor:
#      x y z
#    x 3.481500 0.000000 0.000000 
#    y 0.000000 3.249940 0.000000 
#    z 0.000000 0.000000 2.841180 
# 
# 
# High freq. dielectric constant tensor:
#      x y z
#    x 1.658340 0.000000 0.000000 
#    y 0.000000 1.638130 0.000000 
#    z 0.000000 0.000000 1.610260 
# 
# From -- ./inp_files/21886.got.cif
#   From: 2010.03.12/outbox.cif.g09.slc.cpg/sg50_11_cif.got.tgz:21886.got - 2010.04.16 13:23:21.
