data_PCOD8204188
_publ_section_title
;
Structure prediction by ZEFSAII (Michael W. Deem and Ramdas Pophale) SiO2 
 PCOD8204188
Probable space group: P C C M
;
_chemical_formula_sum "Si O2"
_cell_formula_units_Z 48
_cell_length_a 24.261318
_cell_length_b 13.571240
_cell_length_c 8.863231
_cell_angle_alpha 90.000000
_cell_angle_beta 90.000000
_cell_angle_gamma 90.000000
_cell_volume 2918.273487
_symmetry_space_group_name_H-M "P C C M"
_symmetry_group_IT_number 49
_symmetry_cell_setting 'orthorhombic'
loop_
_space_group_symop_operation_xyz
x,y,z
-x,-y,z
x,-y,1/2-z
-x,y,1/2-z
-x,-y,-z
x,y,-z
-x,y,1/2+z
x,-y,1/2+z
loop_
_atom_site_type_symbol
_atom_site_label
_atom_site_fract_x
_atom_site_fract_y
_atom_site_fract_z
Si Si1 0.115272 0.398241 0.325639
Si Si2 0.058159 0.799795 0.179195
Si Si3 0.837574 0.102569 0.320478
Si Si4 0.326966 0.605455 0.175739
Si Si5 0.221109 0.720261 0.177833
Si Si6 0.552197 0.606684 0.323857
O O1 0.098366 0.500000 0.250000
O O2 0.111048 0.418976 0.500000
O O3 0.072601 0.312868 0.277200
O O4 0.176923 0.364541 0.281173
O O5 0.103060 0.871730 0.251250
O O6 0.000000 0.828666 0.250000
O O7 0.057980 0.815464 0.000000
O O8 0.841578 0.096263 0.500000
O O9 0.791849 0.182368 0.272655
O O10 0.817659 0.000000 0.250000
O O11 0.318263 0.500000 0.250000
O O12 0.280980 0.682501 0.231142
O O13 0.387467 0.653325 0.210280
O O14 0.319666 0.585880 0.000000
O O15 0.218076 0.745397 0.000000
O O16 0.553483 0.500000 0.250000
O O17 0.500000 0.666007 0.250000
O O18 0.541225 0.597972 0.500000
#
# Coordination Sequence:
#
# PCOD8204188 Si02
#       6
#     8   8   8   8   8   8
#     4   9  18  30  46  66  92 123 153 184 221 261
#     4  10  21  37  53  73  97 121 151 188 224 265
#     4  11  22  37  56  75  93 117 145 180 227 278
#     4   9  17  27  42  64  93 127 162 196 232 269
#     4   9  18  33  48  67  94 121 151 191 230 271
#     4   9  15  23  35  54  82 121 162 198 231 264
#
# _framework density 16.448080999999998
#
# number of rings (size 3 to 8) (size 9 to 14) (size 15 to 20)
#    0.000    2.500    0.000    4.500    0.000    5.333 
#    0.000    3.333    0.000    0.000    0.000    0.000 
#    0.000    0.667    0.000    7.667    0.000    2.333 
#
# Total GULP energy -594961.567382 kJ/mol
# GULP energy per Si atom -12395.032654 kJ/mol
# Density = 1.641064 g / cm^3
# Si number density = 16.448081 Si / 1000 Ang^3
#
#
#
# Elastic Constant Matrix: (Units=GPa)
#
#
# Indices 1 2 3 4 5 6 
#
# 1 131.1023 29.0471 39.5244 0.0000 0.0000 0.0000
# 2 29.0471 68.6485 28.8151 0.0000 0.0000 0.0000
# 3 39.5244 28.8151 75.5687 0.0000 0.0000 0.0000
# 4 0.0000 0.0000 0.0000 24.8044 0.0000 0.0000
# 5 0.0000 0.0000 0.0000 0.0000 56.2877 0.0000
# 6 0.0000 0.0000 0.0000 0.0000 0.0000 76.0353
#
#
#
# Elastic Compliance Matrix: (Units=1/GPa)
#
#
# Indices 1 2 3 4 5 6 
#
# 1 0.009342 -0.002264 -0.004023 0.000000 0.000000 0.000000
# 2 -0.002264 0.017892 -0.005638 0.000000 0.000000 0.000000
# 3 -0.004023 -0.005638 0.017487 0.000000 0.000000 0.000000
# 4 0.000000 0.000000 0.000000 0.040315 0.000000 0.000000
# 5 0.000000 0.000000 0.000000 0.000000 0.017766 0.000000
# 6 0.000000 0.000000 0.000000 0.000000 0.000000 0.013152
#
#
# Mechanical properties :
#
#
# Convention : Reuss Voigt Hill
#
# Bulk Modulus (GPa) = 47.91471 52.23253 50.07362
# Shear Modulus (GPa) = 34.06914 43.28768 38.67841
#
# Velocity S-wave (km/s) = 4.55611 5.13565 4.85453
# Velocity P-wave (km/s) = 7.54133 8.18483 7.86966
#
# Compressibility (1/GPa) = 0.02087042
#
# Stress axis : x y z
#
# Youngs Moduli (GPa) = 107.04240 55.89218 57.18605
#
# Poissons Ratio (x) = 0.12656 0.23004
# Poissons Ratio (y) = 0.24238 0.32241
# Poissons Ratio (z) = 0.43060 0.31512
#
# Static dielectric constant tensor:
#      x y z
#    x 3.772700 0.000000 0.000000 
#    y 0.000000 2.931300 0.000000 
#    z 0.000000 0.000000 3.156330 
# 
# 
# High freq. dielectric constant tensor:
#      x y z
#    x 1.638400 0.000000 0.000000 
#    y 0.000000 1.595130 0.000000 
#    z 0.000000 0.000000 1.641800 
# 
# From -- ./inp_files/2881.got.cif
#   From: 2010.03.12/outbox.cif.g09.slc.cpg/sg49_2_cif.got.tgz:2881.got - 2010.04.14 03:58:27.
