data_PCOD8204292
_publ_section_title
;
Structure prediction by ZEFSAII (Michael W. Deem and Ramdas Pophale) SiO2 
 PCOD8204292
Probable space group: P C C M
;
_chemical_formula_sum "Si O2"
_cell_formula_units_Z 48
_cell_length_a 18.157104
_cell_length_b 14.125814
_cell_length_c 9.048337
_cell_angle_alpha 90.000000
_cell_angle_beta 90.000000
_cell_angle_gamma 90.000000
_cell_volume 2320.752526
_symmetry_space_group_name_H-M "P C C M"
_symmetry_group_IT_number 49
_symmetry_cell_setting 'orthorhombic'
loop_
_space_group_symop_operation_xyz
x,y,z
-x,-y,z
x,-y,1/2-z
-x,y,1/2-z
-x,-y,-z
x,y,-z
-x,y,1/2+z
x,-y,1/2+z
loop_
_atom_site_type_symbol
_atom_site_label
_atom_site_fract_x
_atom_site_fract_y
_atom_site_fract_z
Si Si1 0.429030 0.596145 0.831083
Si Si2 0.073334 0.633339 0.500000
Si Si3 0.075091 0.089534 0.666609
Si Si4 0.098077 0.585750 0.000000
Si Si5 0.847620 0.278760 0.767289
Si Si6 0.314266 0.758957 0.172336
Si Si7 0.574692 0.897357 0.179297
O O1 0.406501 0.500000 0.750000
O O2 0.500000 0.641771 0.750000
O O3 0.360455 0.664172 0.819343
O O4 0.450098 0.575419 0.000000
O O5 0.105701 0.527345 0.500000
O O6 0.102064 0.699039 0.629158
O O7 0.985502 0.624283 0.500000
O O8 0.058039 0.058200 0.500000
O O9 0.126292 0.181150 0.660354
O O10 0.000000 0.114668 0.750000
O O11 0.113617 0.000000 0.750000
O O12 0.141374 0.626939 0.862329
O O13 0.761065 0.264204 0.741117
O O14 0.354710 0.839674 0.265933
O O15 0.301445 0.788990 0.000000
O O16 0.500000 0.852363 0.250000
O O17 0.584120 0.000000 0.250000
O O18 0.569981 0.900225 0.000000
#
# Coordination Sequence:
#
# PCOD8204292 Si02
#       7
#     8   4   8   4   8   8   8
#     4  10  21  38  62  88 121 163 210 259 306 370
#     4  11  26  40  73  97 128 169 233 281 339 420
#     4  11  23  40  66  93 126 165 213 266 323 390
#     4  11  22  48  67  97 128 177 221 285 347 404
#     4  12  25  43  65  98 137 173 219 279 343 399
#     4  11  24  43  61  92 135 174 214 266 329 386
#     4  11  23  42  71 103 136 177 224 270 322 386
#
# _framework density 20.682946000000001
#
# number of rings (size 3 to 8) (size 9 to 14) (size 15 to 20)
#    0.000    1.000    1.667    6.500    3.500    6.000 
#    0.000    1.667    0.000    0.000    0.000    0.000 
#    0.000    0.000    0.000    0.000    0.000    0.000 
#
# Total GULP energy -594953.670543 kJ/mol
# GULP energy per Si atom -12394.868136 kJ/mol
# Density = 2.063587 g / cm^3
# Si number density = 20.682946 Si / 1000 Ang^3
#
#
#
# Elastic Constant Matrix: (Units=GPa)
#
#
# Indices 1 2 3 4 5 6 
#
# 1 116.3906 43.7858 31.4024 0.0000 0.0000 0.0000
# 2 43.7858 93.5544 33.5485 0.0000 0.0000 0.0000
# 3 31.4024 33.5485 142.9861 0.0000 0.0000 0.0000
# 4 0.0000 0.0000 0.0000 276.4744 0.0000 0.0000
# 5 0.0000 0.0000 0.0000 0.0000 10.2207 0.0000
# 6 0.0000 0.0000 0.0000 0.0000 0.0000 17.4774
#
#
#
# Elastic Compliance Matrix: (Units=1/GPa)
#
#
# Indices 1 2 3 4 5 6 
#
# 1 0.010637 -0.004521 -0.001275 0.000000 0.000000 0.000000
# 2 -0.004521 0.013592 -0.002196 0.000000 0.000000 0.000000
# 3 -0.001275 -0.002196 0.007789 0.000000 0.000000 0.000000
# 4 0.000000 0.000000 0.000000 0.003617 0.000000 0.000000
# 5 0.000000 0.000000 0.000000 0.000000 0.097840 0.000000
# 6 0.000000 0.000000 0.000000 0.000000 0.000000 0.057217
#
#
# Mechanical properties :
#
#
# Convention : Reuss Voigt Hill
#
# Bulk Modulus (GPa) = 62.37053 63.37827 62.87440
# Shear Modulus (GPa) = 23.58256 77.11415 50.34835
#
# Velocity S-wave (km/s) = 3.38034 6.11268 4.93921
# Velocity P-wave (km/s) = 6.74215 8.97380 7.93680
#
# Compressibility (1/GPa) = 0.01603321
#
# Stress axis : x y z
#
# Youngs Moduli (GPa) = 94.01532 73.57030 128.38509
#
# Poissons Ratio (x) = 0.33260 0.16372
# Poissons Ratio (y) = 0.42503 0.28197
# Poissons Ratio (z) = 0.11989 0.16158
#
# Static dielectric constant tensor:
#      x y z
#    x 3.776980 0.000000 0.000000 
#    y 0.000000 3.823130 0.000000 
#    z 0.000000 0.000000 3.646850 
# 
# 
# High freq. dielectric constant tensor:
#      x y z
#    x 1.804350 0.000000 0.000000 
#    y 0.000000 1.821740 0.000000 
#    z 0.000000 0.000000 1.822190 
# 
# From -- ./inp_files/4911.got.cif
#   From: 2010.03.12/outbox.cif.g09.slc.cpg/sg49_3_cif.got.tgz:4911.got - 2010.04.14 03:58:27.
