data_PCOD8204457
_publ_section_title
;
Structure prediction by ZEFSAII (Michael W. Deem and Ramdas Pophale) SiO2 
 PCOD8204457
Probable space group: P C C M
;
_chemical_formula_sum "Si O2"
_cell_formula_units_Z 48
_cell_length_a 28.684111
_cell_length_b 9.047458
_cell_length_c 9.214583
_cell_angle_alpha 90.000000
_cell_angle_beta 90.000000
_cell_angle_gamma 90.000000
_cell_volume 2391.352819
_symmetry_space_group_name_H-M "P C C M"
_symmetry_group_IT_number 49
_symmetry_cell_setting 'orthorhombic'
loop_
_space_group_symop_operation_xyz
x,y,z
-x,-y,z
x,-y,1/2-z
-x,y,1/2-z
-x,-y,-z
x,y,-z
-x,y,1/2+z
x,-y,1/2+z
loop_
_atom_site_type_symbol
_atom_site_label
_atom_site_fract_x
_atom_site_fract_y
_atom_site_fract_z
Si Si1 0.286356 0.648163 0.334753
Si Si2 0.066448 0.349095 0.500000
Si Si3 0.101556 0.824881 0.266331
Si Si4 0.043315 0.684511 0.500000
Si Si5 0.795638 0.150905 0.335519
Si Si6 0.376288 0.150475 0.830072
Si Si7 0.549979 0.650735 0.677970
O O1 0.296259 0.500000 0.250000
O O2 0.276842 0.604315 0.500000
O O3 0.240839 0.731204 0.270137
O O4 0.331096 0.749610 0.318273
O O5 0.094965 0.274460 0.372922
O O6 0.069484 0.526307 0.500000
O O7 0.011940 0.315984 0.500000
O O8 0.058600 0.777595 0.363392
O O9 0.152169 0.783636 0.329548
O O10 0.097664 0.000000 0.250000
O O11 0.781490 0.115307 0.500000
O O12 0.791803 0.000000 0.250000
O O13 0.417684 0.217626 0.733125
O O14 0.363050 0.000000 0.750000
O O15 0.390789 0.129120 0.000000
O O16 0.569885 0.500000 0.750000
O O17 0.500000 0.680702 0.750000
O O18 0.547919 0.641999 0.500000
#
# Coordination Sequence:
#
# PCOD8204457 Si02
#       7
#     8   4   8   4   8   8   8
#     4  10  23  41  62  92 124 159 204 252 303 366
#     4  11  25  39  63  87 121 163 201 241 318 353
#     4  11  23  40  63  90 121 156 204 251 303 364
#     4  11  23  43  59  89 123 159 199 255 294 377
#     4  10  22  41  63  89 121 156 196 245 301 359
#     4  11  23  40  62  90 125 165 211 260 316 372
#     4  11  22  39  63  92 127 167 213 262 317 374
#
# _framework density 20.072322
#
# number of rings (size 3 to 8) (size 9 to 14) (size 15 to 20)
#    0.000    1.333    0.833    5.000    3.500    8.333 
#    0.000    1.667    0.000    0.000    0.000    0.000 
#    0.000    0.000    0.000    0.000    0.000    0.000 
#
# Total GULP energy -595004.768035 kJ/mol
# GULP energy per Si atom -12395.932667 kJ/mol
# Density = 2.002664 g / cm^3
# Si number density = 20.072322 Si / 1000 Ang^3
#
#
#
# Elastic Constant Matrix: (Units=GPa)
#
#
# Indices 1 2 3 4 5 6 
#
# 1 77.4827 46.8781 35.2252 0.0000 0.0000 0.0000
# 2 46.8781 104.1433 45.1878 0.0000 0.0000 0.0000
# 3 35.2252 45.1878 133.3228 0.0000 0.0000 0.0000
# 4 0.0000 0.0000 0.0000 35.0007 0.0000 0.0000
# 5 0.0000 0.0000 0.0000 0.0000 31.0385 0.0000
# 6 0.0000 0.0000 0.0000 0.0000 0.0000 28.9937
#
#
#
# Elastic Compliance Matrix: (Units=1/GPa)
#
#
# Indices 1 2 3 4 5 6 
#
# 1 0.018371 -0.007226 -0.002405 0.000000 0.000000 0.000000
# 2 -0.007226 0.014100 -0.002870 0.000000 0.000000 0.000000
# 3 -0.002405 -0.002870 0.009109 0.000000 0.000000 0.000000
# 4 0.000000 0.000000 0.000000 0.028571 0.000000 0.000000
# 5 0.000000 0.000000 0.000000 0.000000 0.032218 0.000000
# 6 0.000000 0.000000 0.000000 0.000000 0.000000 0.034490
#
#
# Mechanical properties :
#
#
# Convention : Reuss Voigt Hill
#
# Bulk Modulus (GPa) = 60.31819 63.28125 61.79972
# Shear Modulus (GPa) = 29.87102 31.51709 30.69406
#
# Velocity S-wave (km/s) = 3.86187 3.96684 3.91471
# Velocity P-wave (km/s) = 7.07114 7.25094 7.16161
#
# Compressibility (1/GPa) = 0.01657875
#
# Stress axis : x y z
#
# Youngs Moduli (GPa) = 54.43309 70.92182 109.78619
#
# Poissons Ratio (x) = 0.51248 0.26400
# Poissons Ratio (y) = 0.39334 0.31506
# Poissons Ratio (z) = 0.13089 0.20353
#
# Static dielectric constant tensor:
#      x y z
#    x 3.795120 0.000000 0.000000 
#    y 0.000000 3.727610 0.000000 
#    z 0.000000 0.000000 3.803680 
# 
# 
# High freq. dielectric constant tensor:
#      x y z
#    x 1.796450 0.000000 0.000000 
#    y 0.000000 1.789040 0.000000 
#    z 0.000000 0.000000 1.794760 
# 
# From -- ./inp_files/6900.got.cif
#   From: 2010.03.12/outbox.cif.g09.slc.cpg/sg49_4_cif.got.tgz:6900.got - 2010.04.14 03:58:27.
