data_PCOD8204492
_publ_section_title
;
Structure prediction by ZEFSAII (Michael W. Deem and Ramdas Pophale) SiO2 
 PCOD8204492
Probable space group: P C C M
;
_chemical_formula_sum "Si O2"
_cell_formula_units_Z 56
_cell_length_a 8.842753
_cell_length_b 13.717581
_cell_length_c 21.550175
_cell_angle_alpha 90.000000
_cell_angle_beta 90.000000
_cell_angle_gamma 90.000000
_cell_volume 2614.061668
_symmetry_space_group_name_H-M "P C C M"
_symmetry_group_IT_number 49
_symmetry_cell_setting 'orthorhombic'
loop_
_space_group_symop_operation_xyz
x,y,z
-x,-y,z
x,-y,1/2-z
-x,y,1/2-z
-x,-y,-z
x,y,-z
-x,y,1/2+z
x,-y,1/2+z
loop_
_atom_site_type_symbol
_atom_site_label
_atom_site_fract_x
_atom_site_fract_y
_atom_site_fract_z
Si Si1 0.117880 0.888936 0.928508
Si Si2 0.226553 0.915351 0.607419
Si Si3 0.343822 0.554888 0.430953
Si Si4 0.542065 0.765844 0.932605
Si Si5 0.678710 0.889315 0.241345
Si Si6 0.826468 0.528727 0.316600
Si Si7 0.261733 0.747296 0.847019
O O1 0.151913 0.782357 0.901855
O O2 0.940619 0.902275 0.919224
O O3 0.233901 0.965817 0.893682
O O4 0.158755 0.896164 0.000000
O O5 0.354096 0.863180 0.566023
O O6 0.257010 0.864673 0.673555
O O7 0.500000 0.500000 0.416857
O O8 0.285863 0.522461 0.500000
O O9 0.353629 0.670990 0.429106
O O10 0.231349 0.529213 0.376010
O O11 0.430886 0.757239 0.873967
O O12 0.456898 0.765927 0.000000
O O13 0.500000 0.876273 0.250000
O O14 0.762193 0.816661 0.287817
O O15 0.729286 0.000000 0.250000
O O16 0.750210 0.500000 0.250000
O O17 0.789346 0.641238 0.327029
O O18 0.000000 0.500000 0.312085
#
# Coordination Sequence:
#
# PCOD8204492 Si02
#       7
#     8   8   8   8   8   8   8
#     4  11  25  44  67 102 140 180 229 282 342 415
#     4  11  23  43  67  96 143 182 227 279 341 409
#     4  10  22  44  69  99 135 172 230 296 352 420
#     4  11  23  41  69 102 134 182 234 287 353 413
#     4  11  23  42  65  99 140 175 232 283 337 407
#     4  11  28  47  68  99 138 182 231 286 355 426
#     4  12  25  44  69  98 135 179 227 291 343 416
#
# _framework density 21.422601
#
# number of rings (size 3 to 8) (size 9 to 14) (size 15 to 20)
#    0.000    1.000    4.286    2.143    4.000    3.429 
#    0.000    1.429    0.000    0.000    0.000    0.000 
#    0.000    0.000    0.000    0.000    0.000    0.000 
#
# Total GULP energy -693930.267013 kJ/mol
# GULP energy per Si atom -12391.611911 kJ/mol
# Density = 2.137384 g / cm^3
# Si number density = 21.422601 Si / 1000 Ang^3
#
#
#
# Elastic Constant Matrix: (Units=GPa)
#
#
# Indices 1 2 3 4 5 6 
#
# 1 52.6750 33.0001 39.9654 0.0000 0.0000 0.0000
# 2 33.0001 115.0474 45.7173 0.0000 0.0000 0.0000
# 3 39.9654 45.7173 174.7833 0.0000 0.0000 0.0000
# 4 0.0000 0.0000 0.0000 -278.0492 0.0000 0.0000
# 5 0.0000 0.0000 0.0000 0.0000 38.3696 0.0000
# 6 0.0000 0.0000 0.0000 0.0000 0.0000 29.9834
#
#
#
# Elastic Compliance Matrix: (Units=1/GPa)
#
#
# Indices 1 2 3 4 5 6 
#
# 1 0.025903 -0.005665 -0.004441 0.000000 0.000000 0.000000
# 2 -0.005665 0.010939 -0.001566 0.000000 0.000000 0.000000
# 3 -0.004441 -0.001566 0.007146 0.000000 0.000000 0.000000
# 4 0.000000 0.000000 0.000000 -0.003596 0.000000 0.000000
# 5 0.000000 0.000000 0.000000 0.000000 0.026062 0.000000
# 6 0.000000 0.000000 0.000000 0.000000 0.000000 0.033352
#
#
# Mechanical properties :
#
#
# Convention : Reuss Voigt Hill
#
# Bulk Modulus (GPa) = 48.43951 64.43016 56.43483
# Shear Modulus (GPa) = 38.45196 -27.01772 5.71712
#
# Velocity S-wave (km/s) = 4.24125 -3.55516 1.63540
# Velocity P-wave (km/s) = 6.82970 3.64539 5.47420
#
# Compressibility (1/GPa) = 0.02064430
#
# Stress axis : x y z
#
# Youngs Moduli (GPa) = 38.60557 91.41303 139.92952
#
# Poissons Ratio (x) = 0.51787 0.62144
# Poissons Ratio (y) = 0.21871 0.21913
# Poissons Ratio (z) = 0.17145 0.14315
#
# Static dielectric constant tensor:
#      x y z
#    x 3.569480 0.000000 0.000000 
#    y 0.000000 4.046860 0.000000 
#    z 0.000000 0.000000 4.268560 
# 
# 
# High freq. dielectric constant tensor:
#      x y z
#    x 1.817600 0.000000 0.000000 
#    y 0.000000 1.846600 0.000000 
#    z 0.000000 0.000000 1.866450 
# 
# From -- ./inp_files/19875.got.cif
#   From: 2010.03.12/outbox.cif.g09.slc.cpg/sg49_10_cif.got.tgz:19875.got - 2010.04.14 03:58:27.
