data_PCOD8204546
_publ_section_title
;
Structure prediction by ZEFSAII (Michael W. Deem and Ramdas Pophale) SiO2 
 PCOD8204546
Probable space group: P C C M
;
_chemical_formula_sum "Si O2"
_cell_formula_units_Z 40
_cell_length_a 9.042705
_cell_length_b 12.876288
_cell_length_c 14.546642
_cell_angle_alpha 90.000000
_cell_angle_beta 90.000000
_cell_angle_gamma 90.000000
_cell_volume 1693.759701
_symmetry_space_group_name_H-M "P C C M"
_symmetry_group_IT_number 49
_symmetry_cell_setting 'orthorhombic'
loop_
_space_group_symop_operation_xyz
x,y,z
-x,-y,z
x,-y,1/2-z
-x,y,1/2-z
-x,-y,-z
x,y,-z
-x,y,1/2+z
x,-y,1/2+z
loop_
_atom_site_type_symbol
_atom_site_label
_atom_site_fract_x
_atom_site_fract_y
_atom_site_fract_z
Si Si1 0.716854 0.049858 0.152581
Si Si2 0.105479 0.403406 0.104266
Si Si3 0.417818 0.149292 0.897971
Si Si4 0.146606 0.250579 0.604742
Si Si5 0.336151 0.330555 0.767971
O O1 0.570190 0.122187 0.154519
O O2 0.851164 0.124906 0.119957
O O3 0.753507 0.000000 0.250000
O O4 0.684373 0.952901 0.085972
O O5 0.240811 0.415173 0.175519
O O6 0.000000 0.500000 0.122125
O O7 0.016626 0.295937 0.125038
O O8 0.165806 0.403746 0.000000
O O9 0.333208 0.229862 0.833771
O O10 0.449852 0.194929 0.000000
O O11 0.191065 0.277536 0.500000
O O12 0.264678 0.306421 0.669908
O O13 0.500000 0.374490 0.750000
#
# Coordination Sequence:
#
# PCOD8204546 Si02
#       5
#     8   8   8   8   8
#     4  11  19  35  58  93 141 191 238 289 351 417
#     4  10  25  51  78 102 139 188 233 290 369 438
#     4  11  20  33  60  96 141 189 236 296 358 418
#     4  11  23  41  66  97 139 190 237 286 353 428
#     4  12  23  40  70 106 141 177 238 300 353 419
#
# _framework density 23.616102000000001
#
# number of rings (size 3 to 8) (size 9 to 14) (size 15 to 20)
#    0.000    1.000    4.000    4.800    0.000    2.400 
#    0.000    3.000    0.000    7.200    0.000    0.000 
#    0.000    0.000    0.000    0.000    0.000    0.000 
#
# Total GULP energy -495901.004736 kJ/mol
# GULP energy per Si atom -12397.525118 kJ/mol
# Density = 2.356235 g / cm^3
# Si number density = 23.616102 Si / 1000 Ang^3
#
#
#
# Elastic Constant Matrix: (Units=GPa)
#
#
# Indices 1 2 3 4 5 6 
#
# 1 115.5037 36.1478 69.1730 0.0000 0.0000 0.0000
# 2 36.1478 69.7424 28.1374 0.0000 0.0000 0.0000
# 3 69.1730 28.1374 162.3227 0.0000 0.0000 0.0000
# 4 0.0000 0.0000 0.0000 31.1498 0.0000 0.0000
# 5 0.0000 0.0000 0.0000 0.0000 19.3903 0.0000
# 6 0.0000 0.0000 0.0000 0.0000 0.0000 31.8207
#
#
#
# Elastic Compliance Matrix: (Units=1/GPa)
#
#
# Indices 1 2 3 4 5 6 
#
# 1 0.012982 -0.004835 -0.004694 0.000000 0.000000 0.000000
# 2 -0.004835 0.017217 -0.000924 0.000000 0.000000 0.000000
# 3 -0.004694 -0.000924 0.008321 0.000000 0.000000 0.000000
# 4 0.000000 0.000000 0.000000 0.032103 0.000000 0.000000
# 5 0.000000 0.000000 0.000000 0.000000 0.051572 0.000000
# 6 0.000000 0.000000 0.000000 0.000000 0.000000 0.031426
#
#
# Mechanical properties :
#
#
# Convention : Reuss Voigt Hill
#
# Bulk Modulus (GPa) = 56.77237 68.27615 62.52426
# Shear Modulus (GPa) = 27.71627 30.74618 29.23123
#
# Velocity S-wave (km/s) = 3.42953 3.61212 3.52201
# Velocity P-wave (km/s) = 6.30667 6.80956 6.56294
#
# Compressibility (1/GPa) = 0.01761420
#
# Stress axis : x y z
#
# Youngs Moduli (GPa) = 77.02931 58.08135 120.17568
#
# Poissons Ratio (x) = 0.28081 0.56412
# Poissons Ratio (y) = 0.37242 0.11106
# Poissons Ratio (z) = 0.36159 0.05368
#
# Static dielectric constant tensor:
#      x y z
#    x 4.088830 0.000000 0.000000 
#    y 0.000000 4.380570 0.000000 
#    z 0.000000 0.000000 4.362840 
# 
# 
# High freq. dielectric constant tensor:
#      x y z
#    x 1.902800 0.000000 0.000000 
#    y 0.000000 1.926130 0.000000 
#    z 0.000000 0.000000 1.955740 
# 
# From -- ./inp_files/11537.got.cif
#   From: 2010.03.12/outbox.cif.g09.slc.cpg/sg49_6_cif.got.tgz:11537.got - 2010.04.14 03:58:27.
