data_PCOD8204198
_publ_section_title
;
Structure prediction by ZEFSAII (Michael W. Deem and Ramdas Pophale) SiO2 
 PCOD8204198
Probable space group: P C C M
;
_chemical_formula_sum "Si O2"
_cell_formula_units_Z 56
_cell_length_a 15.290252
_cell_length_b 20.147494
_cell_length_c 8.826994
_cell_angle_alpha 90.000000
_cell_angle_beta 90.000000
_cell_angle_gamma 90.000000
_cell_volume 2719.246070
_symmetry_space_group_name_H-M "P C C M"
_symmetry_group_IT_number 49
_symmetry_cell_setting 'orthorhombic'
loop_
_space_group_symop_operation_xyz
x,y,z
-x,-y,z
x,-y,1/2-z
-x,y,1/2-z
-x,-y,-z
x,y,-z
-x,y,1/2+z
x,-y,1/2+z
loop_
_atom_site_type_symbol
_atom_site_label
_atom_site_fract_x
_atom_site_fract_y
_atom_site_fract_z
Si Si1 0.673069 0.292343 0.327989
Si Si2 0.087751 0.605343 0.822444
Si Si3 0.267548 0.566007 0.679417
Si Si4 0.266913 0.068031 0.320229
Si Si5 0.911101 0.885978 0.822607
Si Si6 0.872041 0.736233 0.171098
Si Si7 0.410279 0.826161 0.177406
O O1 0.639326 0.288190 0.500000
O O2 0.675973 0.369301 0.273311
O O3 0.768065 0.260042 0.311736
O O4 0.607524 0.250090 0.224949
O O5 0.169868 0.570860 0.743681
O O6 0.088156 0.684404 0.790180
O O7 0.000000 0.574196 0.750000
O O8 0.090769 0.591612 0.000000
O O9 0.312151 0.500000 0.750000
O O10 0.261684 0.560637 0.500000
O O11 0.263255 0.062878 0.500000
O O12 0.170052 0.079607 0.257980
O O13 0.331611 0.126644 0.266486
O O14 0.303900 0.000000 0.250000
O O15 0.910291 0.807618 0.790168
O O16 0.000000 0.914999 0.750000
O O17 0.907419 0.902222 0.000000
O O18 0.895924 0.713095 0.000000
O O19 0.500000 0.851928 0.250000
O O20 0.421200 0.829564 0.000000
#
# Coordination Sequence:
#
# PCOD8204198 Si02
#       7
#     8   8   8   8   8   8   8
#     4   9  18  36  61  88 121 156 195 244 300 358
#     4  11  21  32  48  72 107 150 198 254 306 360
#     4  10  21  37  56  82 114 154 200 245 301 364
#     4  11  25  44  65  92 125 165 208 254 307 367
#     4  11  22  37  59  87 122 164 209 259 308 361
#     4   9  18  33  54  81 113 153 197 248 307 359
#     4  11  24  41  67  99 128 159 201 248 304 370
#
# _framework density 20.593942999999999
#
# number of rings (size 3 to 8) (size 9 to 14) (size 15 to 20)
#    0.000    1.714    1.429    4.286    0.000    7.714 
#    0.000    4.286    0.000    0.429    0.000    3.000 
#    0.000    0.000    0.000    0.000    0.000    0.000 
#
# Total GULP energy -694534.585992 kJ/mol
# GULP energy per Si atom -12402.403321 kJ/mol
# Density = 2.054707 g / cm^3
# Si number density = 20.593943 Si / 1000 Ang^3
#
#
#
# Elastic Constant Matrix: (Units=GPa)
#
#
# Indices 1 2 3 4 5 6 
#
# 1 89.8247 46.7850 36.8385 0.0000 0.0000 0.0000
# 2 46.7850 110.5099 52.0180 0.0000 0.0000 0.0000
# 3 36.8385 52.0180 98.7521 0.0000 0.0000 0.0000
# 4 0.0000 0.0000 0.0000 34.4270 0.0000 0.0000
# 5 0.0000 0.0000 0.0000 0.0000 31.7338 0.0000
# 6 0.0000 0.0000 0.0000 0.0000 0.0000 2.4027
#
#
#
# Elastic Compliance Matrix: (Units=1/GPa)
#
#
# Indices 1 2 3 4 5 6 
#
# 1 0.014912 -0.004913 -0.002975 0.000000 0.000000 0.000000
# 2 -0.004913 0.013651 -0.005358 0.000000 0.000000 0.000000
# 3 -0.002975 -0.005358 0.014058 0.000000 0.000000 0.000000
# 4 0.000000 0.000000 0.000000 0.029047 0.000000 0.000000
# 5 0.000000 0.000000 0.000000 0.000000 0.031512 0.000000
# 6 0.000000 0.000000 0.000000 0.000000 0.000000 0.416201
#
#
# Mechanical properties :
#
#
# Convention : Reuss Voigt Hill
#
# Bulk Modulus (GPa) = 61.99687 63.37442 62.68564
# Shear Modulus (GPa) = 9.07032 24.60905 16.83968
#
# Velocity S-wave (km/s) = 2.10093 3.46058 2.86265
# Velocity P-wave (km/s) = 6.00458 6.84161 6.43672
#
# Compressibility (1/GPa) = 0.01612985
#
# Stress axis : x y z
#
# Youngs Moduli (GPa) = 67.06207 73.25576 71.13150
#
# Poissons Ratio (x) = 0.35988 0.21161
# Poissons Ratio (y) = 0.32945 0.38112
# Poissons Ratio (z) = 0.19950 0.39250
#
# Static dielectric constant tensor:
#      x y z
#    x 3.544300 0.000000 0.000000 
#    y 0.000000 3.925200 0.000000 
#    z 0.000000 0.000000 3.664650 
# 
# 
# High freq. dielectric constant tensor:
#      x y z
#    x 1.785740 0.000000 0.000000 
#    y 0.000000 1.809910 0.000000 
#    z 0.000000 0.000000 1.808100 
# 
# From -- ./inp_files/4074.got.cif
#   From: 2010.03.12/outbox.cif.g09.slc.cpg/sg49_3_cif.got.tgz:4074.got - 2010.04.14 03:58:27.
