data_PCOD8204919
_publ_section_title
;
Structure prediction by ZEFSAII (Michael W. Deem and Ramdas Pophale) SiO2 
 PCOD8204919
Probable space group: P B A N
;
_chemical_formula_sum "Si O2"
_cell_formula_units_Z 58
_cell_length_a 30.417760
_cell_length_b 4.976364
_cell_length_c 17.899057
_cell_angle_alpha 90.000000
_cell_angle_beta 90.000000
_cell_angle_gamma 90.000000
_cell_volume 2709.377498
_symmetry_space_group_name_H-M "P B A N"
_symmetry_group_IT_number 50
_space_group.IT_coordinate_system_code '2'
_symmetry_cell_setting 'orthorhombic'
loop_
_space_group_symop_operation_xyz
x,y,z
1/2-x,1/2-y,z
x,1/2-y,-z
1/2-x,y,-z
-x,-y,-z
1/2+x,1/2+y,-z
-x,1/2+y,z
1/2+x,-y,z
loop_
_atom_site_type_symbol
_atom_site_label
_atom_site_fract_x
_atom_site_fract_y
_atom_site_fract_z
Si Si1 0.182737 0.079085 0.117154
Si Si2 0.250000 0.250000 0.000000
Si Si3 0.127060 0.903714 0.846832
Si Si4 0.605601 0.500516 0.450412
Si Si5 0.337806 0.565019 0.687691
Si Si6 0.289362 0.436447 0.278081
Si Si7 0.970724 0.985315 0.174796
Si Si8 0.973340 0.001325 0.347832
O O1 0.158518 0.362809 0.123750
O O2 0.213231 0.025848 0.189267
O O3 0.144165 0.858122 0.108704
O O4 0.217450 0.065474 0.049462
O O5 0.131774 0.843240 0.757581
O O6 0.075938 0.964055 0.866533
O O7 0.591118 0.250000 0.500000
O O8 0.642159 0.391127 0.393643
O O9 0.564868 0.601911 0.401446
O O10 0.622757 0.750000 0.500000
O O11 0.330993 0.246378 0.698906
O O12 0.294314 0.761135 0.688164
O O13 0.250000 0.250000 0.309022
O O14 0.958986 0.973565 0.262194
O O15 0.006945 0.205698 0.151658
O O16 0.985157 0.309699 0.364603
#
# Coordination Sequence:
#
# PCOD8204919 Si02
#       8
#     8   2   8   8   8   8   8   8
#     4  10  23  35  62  88 133 164 188 238 275 388
#     4  12  24  46  60 106 144 166 190 222 312 354
#     4  10  20  39  57  89 118 163 211 238 308 334
#     4  12  24  37  54  77 109 156 197 240 310 370
#     4  10  21  36  57  79 115 145 191 259 281 358
#     4  10  19  37  60  88 107 148 195 229 296 342
#     4  10  19  33  59  86 117 152 204 269 309 339
#     4  10  21  35  51  77 110 151 194 243 303 357
#
# _framework density 21.407132000000001
#
# number of rings (size 3 to 8) (size 9 to 14) (size 15 to 20)
#    0.000    1.655    2.069    2.897    0.000    3.310 
#    0.000    0.000    0.000    6.207    0.000    9.655 
#    0.000    0.000    0.000    0.000    0.000    0.000 
#
# Total GULP energy -718921.121176 kJ/mol
# GULP energy per Si atom -12395.191744 kJ/mol
# Density = 2.135841 g / cm^3
# Si number density = 21.407132 Si / 1000 Ang^3
#
#
#
# Elastic Constant Matrix: (Units=GPa)
#
#
# Indices 1 2 3 4 5 6 
#
# 1 89.4200 10.7134 43.9795 0.0000 0.0000 0.0000
# 2 10.7134 114.0988 28.0248 0.0000 0.0000 0.0000
# 3 43.9795 28.0248 68.4514 0.0000 0.0000 0.0000
# 4 0.0000 0.0000 0.0000 19.0650 0.0000 0.0000
# 5 0.0000 0.0000 0.0000 0.0000 29.5202 0.0000
# 6 0.0000 0.0000 0.0000 0.0000 0.0000 19.9435
#
#
#
# Elastic Compliance Matrix: (Units=1/GPa)
#
#
# Indices 1 2 3 4 5 6 
#
# 1 0.016489 0.001172 -0.011074 0.000000 0.000000 0.000000
# 2 0.001172 0.009827 -0.004776 0.000000 0.000000 0.000000
# 3 -0.011074 -0.004776 0.023679 0.000000 0.000000 0.000000
# 4 0.000000 0.000000 0.000000 0.052452 0.000000 0.000000
# 5 0.000000 0.000000 0.000000 0.000000 0.033875 0.000000
# 6 0.000000 0.000000 0.000000 0.000000 0.000000 0.050142
#
#
# Mechanical properties :
#
#
# Convention : Reuss Voigt Hill
#
# Bulk Modulus (GPa) = 48.45201 48.60063 48.52632
# Shear Modulus (GPa) = 22.45157 26.32259 24.38708
#
# Velocity S-wave (km/s) = 3.24201 3.51039 3.37887
# Velocity P-wave (km/s) = 6.05780 6.25962 6.15953
#
# Compressibility (1/GPa) = 0.02063898
#
# Stress axis : x y z
#
# Youngs Moduli (GPa) = 60.64535 101.75570 42.23097
#
# Poissons Ratio (x) = -0.11923 0.46766
# Poissons Ratio (y) = -0.07106 0.20171
# Poissons Ratio (z) = 0.67158 0.48601
#
# Static dielectric constant tensor:
#      x y z
#    x 3.734930 0.000000 0.000000 
#    y 0.000000 4.002810 0.000000 
#    z 0.000000 0.000000 3.609110 
# 
# 
# High freq. dielectric constant tensor:
#      x y z
#    x 1.833200 0.000000 0.000000 
#    y 0.000000 1.855810 0.000000 
#    z 0.000000 0.000000 1.801340 
# 
# From -- ./inp_files/30090.got.cif
#   From: 2010.03.12/outbox.cif.g09.slc.cpg/sg50_16_cif.got.tgz:30090.got - 2010.04.16 13:23:21.
