data_PCOD8204132
_publ_section_title
;
Structure prediction by ZEFSAII (Michael W. Deem and Ramdas Pophale) SiO2 
 PCOD8204132
Probable space group: P C C M
;
_chemical_formula_sum "Si O2"
_cell_formula_units_Z 64
_cell_length_a 10.781219
_cell_length_b 16.363296
_cell_length_c 16.560263
_cell_angle_alpha 90.000000
_cell_angle_beta 90.000000
_cell_angle_gamma 90.000000
_cell_volume 2921.499957
_symmetry_space_group_name_H-M "P C C M"
_symmetry_group_IT_number 49
_symmetry_cell_setting 'orthorhombic'
loop_
_space_group_symop_operation_xyz
x,y,z
-x,-y,z
x,-y,1/2-z
-x,y,1/2-z
-x,-y,-z
x,y,-z
-x,y,1/2+z
x,-y,1/2+z
loop_
_atom_site_type_symbol
_atom_site_label
_atom_site_fract_x
_atom_site_fract_y
_atom_site_fract_z
Si Si1 0.698035 0.219752 0.907715
Si Si2 0.711930 0.625349 0.093396
Si Si3 0.789418 0.532560 0.661406
Si Si4 0.626143 0.959295 0.404529
Si Si5 0.875792 0.954634 0.903433
Si Si6 0.074374 0.695963 0.834435
Si Si7 0.438796 0.619340 0.091606
Si Si8 0.857370 0.226316 0.408484
O O1 0.636310 0.135239 0.878910
O O2 0.801951 0.248608 0.842924
O O3 0.586496 0.284243 0.907465
O O4 0.752007 0.211899 0.000000
O O5 0.804439 0.548357 0.106190
O O6 0.575884 0.604224 0.127682
O O7 0.762351 0.709361 0.135000
O O8 0.701312 0.645099 0.000000
O O9 0.800787 0.500000 0.750000
O O10 0.895066 0.600712 0.647415
O O11 0.655233 0.571679 0.648334
O O12 0.621316 0.969385 0.500000
O O13 0.500000 0.000000 0.367779
O O14 0.751218 0.001901 0.371390
O O15 0.868171 0.862542 0.866808
O O16 0.882554 0.953639 0.000000
O O17 0.000000 0.000000 0.870195
O O18 0.000000 0.708492 0.750000
O O19 0.988859 0.727797 0.906637
O O20 0.425626 0.584971 0.000000
O O21 0.816133 0.211560 0.500000
#
# Coordination Sequence:
#
# PCOD8204132 Si02
#       8
#     8   8   8   8   8   8   8   8
#     4   9  18  34  58  86 118 154 190 231 285 347
#     4  10  21  35  53  80 113 146 182 228 284 346
#     4  11  23  38  56  78 105 141 187 240 288 335
#     4   9  17  28  52  91 127 154 186 235 290 339
#     4   9  17  30  50  79 116 152 189 233 278 331
#     4  11  23  39  57  78 108 146 194 241 286 337
#     4   9  19  35  56  81 114 151 186 226 279 350
#     4  10  21  35  55  81 111 146 185 229 283 343
#
# _framework density 21.906555000000001
#
# number of rings (size 3 to 8) (size 9 to 14) (size 15 to 20)
#    0.000    2.250    0.000    2.625    1.750    7.250 
#    0.000    1.250    0.000    3.375    0.000    0.875 
#    0.000    0.000    0.000    0.000    0.000    0.125 
#
# Total GULP energy -793001.778759 kJ/mol
# GULP energy per Si atom -12390.652793 kJ/mol
# Density = 2.185669 g / cm^3
# Si number density = 21.906555 Si / 1000 Ang^3
#
#
#
# Elastic Constant Matrix: (Units=GPa)
#
#
# Indices 1 2 3 4 5 6 
#
# 1 102.9923 47.4960 7.7672 0.0000 0.0000 0.0000
# 2 47.4960 170.1125 9.3050 0.0000 0.0000 0.0000
# 3 7.7672 9.3050 12.3815 0.0000 0.0000 0.0000
# 4 0.0000 0.0000 0.0000 -55.9764 0.0000 0.0000
# 5 0.0000 0.0000 0.0000 0.0000 22.5569 0.0000
# 6 0.0000 0.0000 0.0000 0.0000 0.0000 37.1826
#
#
#
# Elastic Compliance Matrix: (Units=1/GPa)
#
#
# Indices 1 2 3 4 5 6 
#
# 1 0.011431 -0.002919 -0.004977 0.000000 0.000000 0.000000
# 2 -0.002919 0.006876 -0.003336 0.000000 0.000000 0.000000
# 3 -0.004977 -0.003336 0.086395 0.000000 0.000000 0.000000
# 4 0.000000 0.000000 0.000000 -0.017865 0.000000 0.000000
# 5 0.000000 0.000000 0.000000 0.000000 0.044332 0.000000
# 6 0.000000 0.000000 0.000000 0.000000 0.000000 0.026894
#
#
# Mechanical properties :
#
#
# Convention : Reuss Voigt Hill
#
# Bulk Modulus (GPa) = 12.15996 46.06920 29.11458
# Shear Modulus (GPa) = 24.04521 15.48048 19.76284
#
# Velocity S-wave (km/s) = 3.31664 2.66119 3.00683
# Velocity P-wave (km/s) = 4.49774 5.52432 5.03725
#
# Compressibility (1/GPa) = 0.08223712
#
# Stress axis : x y z
#
# Youngs Moduli (GPa) = 87.48069 145.43246 11.57474
#
# Poissons Ratio (x) = 0.42457 0.05761
# Poissons Ratio (y) = 0.25539 0.03862
# Poissons Ratio (z) = 0.43539 0.48519
#
# Static dielectric constant tensor:
#      x y z
#    x 4.162570 0.000000 0.000000 
#    y 0.000000 4.062050 0.000000 
#    z 0.000000 0.000000 3.280130 
# 
# 
# High freq. dielectric constant tensor:
#      x y z
#    x 1.862070 0.000000 0.000000 
#    y 0.000000 1.883060 0.000000 
#    z 0.000000 0.000000 1.805650 
# 
# From -- ./inp_files/17334.got.cif
#   From: 2010.03.12/outbox.cif.g09.slc.cpg/sg49_9_cif.got.tgz:17334.got - 2010.04.14 03:58:27.
