data_PCOD8204671
_publ_section_title
;
Structure prediction by ZEFSAII (Michael W. Deem and Ramdas Pophale) SiO2 
 PCOD8204671
Probable space group: P C C M
;
_chemical_formula_sum "Si O2"
_cell_formula_units_Z 32
_cell_length_a 9.028287
_cell_length_b 10.599553
_cell_length_c 13.869462
_cell_angle_alpha 90.000000
_cell_angle_beta 90.000000
_cell_angle_gamma 90.000000
_cell_volume 1327.249353
_symmetry_space_group_name_H-M "P C C M"
_symmetry_group_IT_number 49
_symmetry_cell_setting 'orthorhombic'
loop_
_space_group_symop_operation_xyz
x,y,z
-x,-y,z
x,-y,1/2-z
-x,y,1/2-z
-x,-y,-z
x,y,-z
-x,y,1/2+z
x,-y,1/2+z
loop_
_atom_site_type_symbol
_atom_site_label
_atom_site_fract_x
_atom_site_fract_y
_atom_site_fract_z
Si Si1 0.929732 0.318212 0.000000
Si Si2 0.669597 0.969607 0.106543
Si Si3 0.350672 0.308398 0.811837
Si Si4 0.752125 0.556848 0.000000
Si Si5 0.862555 0.814482 0.310819
O O1 0.781710 0.406625 0.000000
O O2 0.930114 0.226445 0.089296
O O3 0.084767 0.388236 0.000000
O O4 0.746525 0.071690 0.175369
O O5 0.500000 0.000000 0.097827
O O6 0.676864 0.831402 0.149512
O O7 0.742766 0.971592 0.000000
O O8 0.500000 0.332699 0.750000
O O9 0.214388 0.312252 0.735803
O O10 0.338766 0.404568 0.902560
O O11 0.000000 0.866853 0.250000
#
# Coordination Sequence:
#
# PCOD8204671 Si02
#       5
#     4   8   8   4   8
#     4  11  26  52  75 106 148 199 259 317 373 437
#     4  11  23  42  73 104 154 198 233 299 380 445
#     4  12  25  45  75 111 150 194 248 306 380 452
#     4  11  26  52  77 104 150 203 253 314 377 443
#     4  12  25  45  75 114 148 192 252 312 371 451
#
# _framework density 24.110015000000001
#
# number of rings (size 3 to 8) (size 9 to 14) (size 15 to 20)
#    0.000    0.500    7.500    0.750    0.000    4.000 
#    0.000    6.250    0.000    0.000    0.000    0.000 
#    0.000    0.000    0.000    0.000    0.000    0.000 
#
# Total GULP energy -396595.605310 kJ/mol
# GULP energy per Si atom -12393.612666 kJ/mol
# Density = 2.405514 g / cm^3
# Si number density = 24.110015 Si / 1000 Ang^3
#
#
#
# Elastic Constant Matrix: (Units=GPa)
#
#
# Indices 1 2 3 4 5 6 
#
# 1 117.3407 18.1371 67.0856 0.0000 0.0000 0.0000
# 2 18.1371 79.6244 42.7187 0.0000 0.0000 0.0000
# 3 67.0856 42.7187 176.9143 0.0000 0.0000 0.0000
# 4 0.0000 0.0000 0.0000 17.8027 0.0000 0.0000
# 5 0.0000 0.0000 0.0000 0.0000 52.0728 0.0000
# 6 0.0000 0.0000 0.0000 0.0000 0.0000 20.3919
#
#
#
# Elastic Compliance Matrix: (Units=1/GPa)
#
#
# Indices 1 2 3 4 5 6 
#
# 1 0.010888 -0.000304 -0.004055 0.000000 0.000000 0.000000
# 2 -0.000304 0.014437 -0.003370 0.000000 0.000000 0.000000
# 3 -0.004055 -0.003370 0.008004 0.000000 0.000000 0.000000
# 4 0.000000 0.000000 0.000000 0.056171 0.000000 0.000000
# 5 0.000000 0.000000 0.000000 0.000000 0.019204 0.000000
# 6 0.000000 0.000000 0.000000 0.000000 0.000000 0.049039
#
#
# Mechanical properties :
#
#
# Convention : Reuss Voigt Hill
#
# Bulk Modulus (GPa) = 55.96545 69.97357 62.96951
# Shear Modulus (GPa) = 27.90823 34.44934 31.17878
#
# Velocity S-wave (km/s) = 3.40595 3.78410 3.59999
# Velocity P-wave (km/s) = 6.22336 6.94105 6.59198
#
# Compressibility (1/GPa) = 0.01786817
#
# Stress axis : x y z
#
# Youngs Moduli (GPa) = 91.84778 69.26841 124.93805
#
# Poissons Ratio (x) = 0.02109 0.50663
# Poissons Ratio (y) = 0.02797 0.42110
# Poissons Ratio (z) = 0.37245 0.23347
#
# Static dielectric constant tensor:
#      x y z
#    x 4.309270 0.000000 0.000000 
#    y 0.000000 4.287040 0.000000 
#    z 0.000000 0.000000 5.571610 
# 
# 
# High freq. dielectric constant tensor:
#      x y z
#    x 1.958070 0.000000 0.000000 
#    y 0.000000 1.940220 0.000000 
#    z 0.000000 0.000000 1.991960 
# 
# From -- ./inp_files/11250.got.cif
#   From: 2010.03.12/outbox.cif.g09.slc.cpg/sg49_6_cif.got.tgz:11250.got - 2010.04.14 03:58:27.
