data_PCOD8204279
_publ_section_title
;
Structure prediction by ZEFSAII (Michael W. Deem and Ramdas Pophale) SiO2 
 PCOD8204279
Probable space group: P C C M
;
_chemical_formula_sum "Si O2"
_cell_formula_units_Z 48
_cell_length_a 29.967359
_cell_length_b 9.433137
_cell_length_c 8.531940
_cell_angle_alpha 90.000000
_cell_angle_beta 90.000000
_cell_angle_gamma 90.000000
_cell_volume 2411.861723
_symmetry_space_group_name_H-M "P C C M"
_symmetry_group_IT_number 49
_symmetry_cell_setting 'orthorhombic'
loop_
_space_group_symop_operation_xyz
x,y,z
-x,-y,z
x,-y,1/2-z
-x,y,1/2-z
-x,-y,-z
x,y,-z
-x,y,1/2+z
x,-y,1/2+z
loop_
_atom_site_type_symbol
_atom_site_label
_atom_site_fract_x
_atom_site_fract_y
_atom_site_fract_z
Si Si1 0.203805 0.842284 0.684933
Si Si2 0.124341 0.656600 0.814876
Si Si3 0.454886 0.155555 0.183276
Si Si4 0.722286 0.347245 0.183139
Si Si5 0.048920 0.849936 0.314572
Si Si6 0.618852 0.349433 0.181901
O O1 0.195111 0.843029 0.500000
O O2 0.166567 0.750572 0.770753
O O3 0.251649 0.774600 0.724120
O O4 0.202188 0.000000 0.750000
O O5 0.131835 0.500000 0.750000
O O6 0.080187 0.722396 0.738993
O O7 0.118550 0.651384 0.000000
O O8 0.500000 0.229522 0.250000
O O9 0.410088 0.235204 0.228505
O O10 0.450427 0.000000 0.250000
O O11 0.459567 0.148417 0.000000
O O12 0.736308 0.500000 0.250000
O O13 0.670499 0.316192 0.214293
O O14 0.734310 0.342741 0.000000
O O15 0.047379 0.858833 0.500000
O O16 0.000000 0.818037 0.250000
O O17 0.067353 0.000000 0.250000
O O18 0.605229 0.500000 0.250000
O O19 0.607318 0.345684 0.000000
#
# Coordination Sequence:
#
# PCOD8204279 Si02
#       6
#     8   8   8   8   8   8
#     4  12  25  42  63  89 120 156 198 245 294 349
#     4  12  25  43  64  90 122 159 201 247 298 353
#     4  11  22  38  59  83 114 151 193 239 291 346
#     4  10  21  39  62  88 119 155 193 238 290 348
#     4  11  22  40  64  93 125 162 203 247 298 352
#     4  10  21  38  60  87 118 152 193 238 289 345
#
# _framework density 19.901637999999998
#
# number of rings (size 3 to 8) (size 9 to 14) (size 15 to 20)
#    0.000    1.000    0.000    9.000    0.000    3.333 
#    0.000    3.333    0.000    0.000    0.000    0.000 
#    0.000    0.000    0.000    0.000    0.000    0.000 
#
# Total GULP energy -595479.310639 kJ/mol
# GULP energy per Si atom -12405.818972 kJ/mol
# Density = 1.985634 g / cm^3
# Si number density = 19.901638 Si / 1000 Ang^3
#
#
#
# Elastic Constant Matrix: (Units=GPa)
#
#
# Indices 1 2 3 4 5 6 
#
# 1 96.4478 65.9820 46.3336 0.0000 0.0000 0.0000
# 2 65.9820 131.6869 49.2819 0.0000 0.0000 0.0000
# 3 46.3336 49.2819 165.6599 0.0000 0.0000 0.0000
# 4 0.0000 0.0000 0.0000 39.8736 0.0000 0.0000
# 5 0.0000 0.0000 0.0000 0.0000 39.1079 0.0000
# 6 0.0000 0.0000 0.0000 0.0000 0.0000 47.3833
#
#
#
# Elastic Compliance Matrix: (Units=1/GPa)
#
#
# Indices 1 2 3 4 5 6 
#
# 1 0.016610 -0.007409 -0.002442 0.000000 0.000000 0.000000
# 2 -0.007409 0.011850 -0.001453 0.000000 0.000000 0.000000
# 3 -0.002442 -0.001453 0.007152 0.000000 0.000000 0.000000
# 4 0.000000 0.000000 0.000000 0.025079 0.000000 0.000000
# 5 0.000000 0.000000 0.000000 0.000000 0.025570 0.000000
# 6 0.000000 0.000000 0.000000 0.000000 0.000000 0.021104
#
#
# Mechanical properties :
#
#
# Convention : Reuss Voigt Hill
#
# Bulk Modulus (GPa) = 76.89648 79.66551 78.28100
# Shear Modulus (GPa) = 37.22844 40.75277 38.99061
#
# Velocity S-wave (km/s) = 4.32976 4.53007 4.43105
# Velocity P-wave (km/s) = 7.98235 8.21454 8.09928
#
# Compressibility (1/GPa) = 0.01300450
#
# Stress axis : x y z
#
# Youngs Moduli (GPa) = 60.20627 84.39109 139.82860
#
# Poissons Ratio (x) = 0.62521 0.34140
# Poissons Ratio (y) = 0.44604 0.20317
# Poissons Ratio (z) = 0.14700 0.12262
#
# Static dielectric constant tensor:
#      x y z
#    x 3.851840 0.000000 0.000000 
#    y 0.000000 3.687210 0.000000 
#    z 0.000000 0.000000 3.839900 
# 
# 
# High freq. dielectric constant tensor:
#      x y z
#    x 1.789620 0.000000 0.000000 
#    y 0.000000 1.778640 0.000000 
#    z 0.000000 0.000000 1.801400 
# 
# From -- ./inp_files/2087.got.cif
#   From: 2010.03.12/outbox.cif.g09.slc.cpg/sg49_2_cif.got.tgz:2087.got - 2010.04.14 03:58:27.
