data_PCOD8204017
_publ_section_title
;
Structure prediction by ZEFSAII (Michael W. Deem and Ramdas Pophale) SiO2 
 PCOD8204017
Probable space group: P C C M
;
_chemical_formula_sum "Si O2"
_cell_formula_units_Z 48
_cell_length_a 8.644992
_cell_length_b 16.813119
_cell_length_c 16.804721
_cell_angle_alpha 90.000000
_cell_angle_beta 90.000000
_cell_angle_gamma 90.000000
_cell_volume 2442.554085
_symmetry_space_group_name_H-M "P C C M"
_symmetry_group_IT_number 49
_symmetry_cell_setting 'orthorhombic'
loop_
_space_group_symop_operation_xyz
x,y,z
-x,-y,z
x,-y,1/2-z
-x,y,1/2-z
-x,-y,-z
x,y,-z
-x,y,1/2+z
x,-y,1/2+z
loop_
_atom_site_type_symbol
_atom_site_label
_atom_site_fract_x
_atom_site_fract_y
_atom_site_fract_z
Si Si1 0.685030 0.849120 0.332727
Si Si2 0.337727 0.160771 0.144502
Si Si3 0.322866 0.407926 0.763522
Si Si4 0.194579 0.675792 0.409653
Si Si5 0.101974 0.290314 0.674793
Si Si6 0.821143 0.999530 0.091540
O O1 0.681009 0.838342 0.238594
O O2 0.519909 0.836817 0.374952
O O3 0.805942 0.783399 0.364533
O O4 0.738078 0.937611 0.352050
O O5 0.258476 0.236484 0.105700
O O6 0.256162 0.085264 0.105644
O O7 0.290031 0.500000 0.750000
O O8 0.500000 0.384277 0.750000
O O9 0.281310 0.387772 0.854362
O O10 0.220217 0.358507 0.701777
O O11 0.223907 0.649857 0.500000
O O12 0.010855 0.674433 0.392320
O O13 0.000000 0.260652 0.750000
O O14 0.800064 0.024710 0.000000
O O15 0.000000 0.000000 0.115741
#
# Coordination Sequence:
#
# PCOD8204017 Si02
#       6
#     8   8   8   8   8   8
#     4  11  22  37  61  87 115 161 211 251 300 380
#     4  11  22  39  60  87 121 156 208 255 309 364
#     4  10  21  42  69  94 123 166 205 246 301 373
#     4  11  23  39  64  96 129 160 204 258 310 359
#     4  10  20  37  62  89 121 161 199 246 299 371
#     4  11  25  39  54  80 119 162 206 260 314 357
#
# _framework density 19.65156
#
# number of rings (size 3 to 8) (size 9 to 14) (size 15 to 20)
#    0.000    1.333    3.333    3.500    0.000    9.000 
#    0.000    5.833    0.000    0.000    0.000    0.000 
#    0.000    0.000    0.000    0.000    0.000    0.000 
#
# Total GULP energy -595401.713875 kJ/mol
# GULP energy per Si atom -12404.202372 kJ/mol
# Density = 1.960683 g / cm^3
# Si number density = 19.651560 Si / 1000 Ang^3
#
#
#
# Elastic Constant Matrix: (Units=GPa)
#
#
# Indices 1 2 3 4 5 6 
#
# 1 154.7027 67.0417 42.0215 0.0000 0.0000 0.0000
# 2 67.0417 124.8111 39.6071 0.0000 0.0000 0.0000
# 3 42.0215 39.6071 94.4037 0.0000 0.0000 0.0000
# 4 0.0000 0.0000 0.0000 4.4848 0.0000 0.0000
# 5 0.0000 0.0000 0.0000 0.0000 16.7984 0.0000
# 6 0.0000 0.0000 0.0000 0.0000 0.0000 43.3376
#
#
#
# Elastic Compliance Matrix: (Units=1/GPa)
#
#
# Indices 1 2 3 4 5 6 
#
# 1 0.008816 -0.004026 -0.002235 0.000000 0.000000 0.000000
# 2 -0.004026 0.011081 -0.002857 0.000000 0.000000 0.000000
# 3 -0.002235 -0.002857 0.012786 0.000000 0.000000 0.000000
# 4 0.000000 0.000000 0.000000 0.222976 0.000000 0.000000
# 5 0.000000 0.000000 0.000000 0.000000 0.059529 0.000000
# 6 0.000000 0.000000 0.000000 0.000000 0.000000 0.023075
#
#
# Mechanical properties :
#
#
# Convention : Reuss Voigt Hill
#
# Bulk Modulus (GPa) = 69.21765 74.58424 71.90095
# Shear Modulus (GPa) = 13.83832 27.94065 20.88948
#
# Velocity S-wave (km/s) = 2.65653 3.77477 3.26390
# Velocity P-wave (km/s) = 6.68644 7.55210 7.13242
#
# Compressibility (1/GPa) = 0.01444718
#
# Stress axis : x y z
#
# Youngs Moduli (GPa) = 113.43186 90.24143 78.20853
#
# Poissons Ratio (x) = 0.36333 0.17480
# Poissons Ratio (y) = 0.45669 0.22345
# Poissons Ratio (z) = 0.25352 0.25782
#
# Static dielectric constant tensor:
#      x y z
#    x 4.093790 0.000000 0.000000 
#    y 0.000000 3.523120 0.000000 
#    z 0.000000 0.000000 3.474330 
# 
# 
# High freq. dielectric constant tensor:
#      x y z
#    x 1.789100 0.000000 0.000000 
#    y 0.000000 1.764680 0.000000 
#    z 0.000000 0.000000 1.749650 
# 
# From -- ./inp_files/16262.got.cif
#   From: 2010.03.12/outbox.cif.g09.slc.cpg/sg49_9_cif.got.tgz:16262.got - 2010.04.14 03:58:27.
