data_PCOD8204802
_publ_section_title
;
Structure prediction by ZEFSAII (Michael W. Deem and Ramdas Pophale) SiO2 
 PCOD8204802
Probable space group: P B A N
;
_chemical_formula_sum "Si O2"
_cell_formula_units_Z 64
_cell_length_a 9.672451
_cell_length_b 25.240497
_cell_length_c 16.378971
_cell_angle_alpha 90.000000
_cell_angle_beta 90.000000
_cell_angle_gamma 90.000000
_cell_volume 3998.720548
_symmetry_space_group_name_H-M "P B A N"
_symmetry_group_IT_number 50
_space_group.IT_coordinate_system_code '2'
_symmetry_cell_setting 'orthorhombic'
loop_
_space_group_symop_operation_xyz
x,y,z
1/2-x,1/2-y,z
x,1/2-y,-z
1/2-x,y,-z
-x,-y,-z
1/2+x,1/2+y,-z
-x,1/2+y,z
1/2+x,-y,z
loop_
_atom_site_type_symbol
_atom_site_label
_atom_site_fract_x
_atom_site_fract_y
_atom_site_fract_z
Si Si1 0.963217 0.610547 0.835407
Si Si2 0.911434 0.946140 0.322514
Si Si3 0.588566 0.553860 0.677486
Si Si4 0.595274 0.549540 0.500000
Si Si5 0.963218 0.889453 0.835408
Si Si6 0.250000 0.312323 0.095578
Si Si7 0.750000 0.088111 0.903114
Si Si8 0.250000 0.468974 0.095784
O O1 0.963994 0.599862 0.738236
O O2 0.884221 0.664222 0.859456
O O3 0.889059 0.559894 0.875794
O O4 0.116827 0.618040 0.868630
O O5 0.750000 0.959309 0.304072
O O6 0.930252 0.920230 0.413799
O O7 1.000000 0.000000 0.312150
O O8 0.569748 0.579770 0.586201
O O9 0.536007 0.599862 0.738237
O O10 0.750000 0.527145 0.500000
O O11 0.500000 0.500000 0.500000
O O12 0.884222 0.835778 0.859457
O O13 0.889060 0.940106 0.875795
O O14 0.116828 0.881960 0.868630
O O15 0.250000 0.250000 0.107213
O O16 0.250000 0.328676 0.000000
O O17 0.750001 0.028206 0.869135
O O18 0.750000 0.090930 0.000000
O O19 0.250000 0.470777 0.000000
#
# Coordination Sequence:
#
# PCOD8204802 Si02
#       8
#     8   8   8   8   8   8   8   8
#     4  11  20  31  48  70  94 124 165 199 240 285
#     4  10  18  29  46  70 102 135 164 193 230 280
#     4  10  18  29  46  70 102 135 164 193 230 280
#     4   8  16  28  42  64  96 136 167 190 222 271
#     4  11  20  31  48  70  94 124 165 199 240 285
#     4  10  21  39  57  68  85 120 164 211 260 307
#     4  11  21  30  44  70 101 128 153 193 238 286
#     4  10  18  29  43  63  97 133 156 180 221 284
#
# _framework density 16.005119000000001
#
# number of rings (size 3 to 8) (size 9 to 14) (size 15 to 20)
#    0.000    1.875    2.500    5.250    1.750    2.000 
#    0.000    0.625    0.000    2.250    0.000    1.750 
#    0.000    0.000    0.000    2.250    0.000    0.000 
#
# Total GULP energy -793179.611488 kJ/mol
# GULP energy per Si atom -12393.431430 kJ/mol
# Density = 1.596869 g / cm^3
# Si number density = 16.005119 Si / 1000 Ang^3
#
#
#
# Elastic Constant Matrix: (Units=GPa)
#
#
# Indices 1 2 3 4 5 6 
#
# 1 119.3751 29.5516 42.3857 0.0000 0.0000 0.0000
# 2 29.5516 67.4166 37.7371 0.0000 0.0000 0.0000
# 3 42.3857 37.7371 127.6258 0.0000 0.0000 0.0000
# 4 0.0000 0.0000 0.0000 14.5265 0.0000 0.0000
# 5 0.0000 0.0000 0.0000 0.0000 23.0691 0.0000
# 6 0.0000 0.0000 0.0000 0.0000 0.0000 8.6003
#
#
#
# Elastic Compliance Matrix: (Units=1/GPa)
#
#
# Indices 1 2 3 4 5 6 
#
# 1 0.009985 -0.003021 -0.002423 0.000000 0.000000 0.000000
# 2 -0.003021 0.018689 -0.004523 0.000000 0.000000 0.000000
# 3 -0.002423 -0.004523 0.009977 0.000000 0.000000 0.000000
# 4 0.000000 0.000000 0.000000 0.068840 0.000000 0.000000
# 5 0.000000 0.000000 0.000000 0.000000 0.043348 0.000000
# 6 0.000000 0.000000 0.000000 0.000000 0.000000 0.116274
#
#
# Mechanical properties :
#
#
# Convention : Reuss Voigt Hill
#
# Bulk Modulus (GPa) = 53.42304 59.30736 56.36520
# Shear Modulus (GPa) = 17.04822 22.88874 19.96848
#
# Velocity S-wave (km/s) = 3.26724 3.78575 3.53601
# Velocity P-wave (km/s) = 6.90538 7.49966 7.20865
#
# Compressibility (1/GPa) = 0.01871852
#
# Stress axis : x y z
#
# Youngs Moduli (GPa) = 100.15005 53.50769 100.22609
#
# Poissons Ratio (x) = 0.16162 0.24285
# Poissons Ratio (y) = 0.30251 0.45331
# Poissons Ratio (z) = 0.24266 0.24201
#
# Static dielectric constant tensor:
#      x y z
#    x 1.782370 0.000000 0.000000 
#    y 0.000000 2.630000 0.000000 
#    z 0.000000 0.000000 3.793650 
# 
# 
# High freq. dielectric constant tensor:
#      x y z
#    x 1.627800 0.000000 0.000000 
#    y 0.000000 1.548270 0.000000 
#    z 0.000000 0.000000 1.635330 
# 
# From -- ./inp_files/28997.got.cif
#   From: 2010.03.12/outbox.cif.g09.slc.cpg/sg50_15_cif.got.tgz:28997.got - 2010.04.16 13:23:21.
