data_PCOD8204744
_publ_section_title
;
Structure prediction by ZEFSAII (Michael W. Deem and Ramdas Pophale) SiO2 
 PCOD8204744
Probable space group: P B A N
;
_chemical_formula_sum "Si O2"
_cell_formula_units_Z 46
_cell_length_a 17.984450
_cell_length_b 9.422817
_cell_length_c 15.437868
_cell_angle_alpha 90.000000
_cell_angle_beta 90.000000
_cell_angle_gamma 90.000000
_cell_volume 2616.165660
_symmetry_space_group_name_H-M "P B A N"
_symmetry_group_IT_number 50
_space_group.IT_coordinate_system_code '2'
_symmetry_cell_setting 'orthorhombic'
loop_
_space_group_symop_operation_xyz
x,y,z
1/2-x,1/2-y,z
x,1/2-y,-z
1/2-x,y,-z
-x,-y,-z
1/2+x,1/2+y,-z
-x,1/2+y,z
1/2+x,-y,z
loop_
_atom_site_type_symbol
_atom_site_label
_atom_site_fract_x
_atom_site_fract_y
_atom_site_fract_z
Si Si1 0.057551 0.228849 0.678687
Si Si2 0.210937 0.988115 0.420423
Si Si3 0.374429 0.250000 0.500000
Si Si4 0.750000 0.250000 0.000000
Si Si5 0.204543 0.107362 0.737245
Si Si6 0.212506 0.887908 0.165221
Si Si7 0.912061 0.057347 0.704917
O O1 0.072857 0.195080 0.577709
O O2 0.117469 0.144909 0.737588
O O3 0.058641 0.396721 0.697389
O O4 0.977493 0.170459 0.704524
O O5 0.250000 0.901969 0.500000
O O6 0.143396 0.904088 0.374842
O O7 0.178839 0.130883 0.462093
O O8 0.273582 0.021914 0.349318
O O9 0.799105 0.352936 0.062630
O O10 0.250000 0.250000 0.738298
O O11 0.228207 0.015833 0.821200
O O12 0.250000 0.750000 0.211088
O O13 0.132717 0.926116 0.205376
#
# Coordination Sequence:
#
# PCOD8204744 Si02
#       7
#     8   8   4   2   8   8   8
#     4  11  22  34  53  82 122 160 198 239 279 326
#     4  10  16  30  52  74 108 154 205 241 273 315
#     4  10  17  30  52  72 111 158 208 234 277 308
#     4   8  20  40  70  88 110 140 164 248 288 368
#     4  11  17  33  59  86 108 154 201 236 271 335
#     4   9  20  39  63  86 110 143 185 224 299 352
#     4  10  23  35  53  85 114 157 191 237 288 342
#
# _framework density 17.582984
#
# number of rings (size 3 to 8) (size 9 to 14) (size 15 to 20)
#    0.522    1.391    6.957    0.261    2.435    2.783 
#    0.000    0.435    0.000    8.870    0.000    0.000 
#    0.000    0.000    0.000    0.000    0.000    0.000 
#
# Total GULP energy -569962.614873 kJ/mol
# GULP energy per Si atom -12390.491628 kJ/mol
# Density = 1.754296 g / cm^3
# Si number density = 17.582984 Si / 1000 Ang^3
#
#
#
# Elastic Constant Matrix: (Units=GPa)
#
#
# Indices 1 2 3 4 5 6 
#
# 1 111.4307 41.9262 43.9799 0.0000 0.0000 0.0000
# 2 41.9262 45.8894 31.2339 0.0000 0.0000 0.0000
# 3 43.9799 31.2339 112.0987 0.0000 0.0000 0.0000
# 4 0.0000 0.0000 0.0000 57.5900 0.0000 0.0000
# 5 0.0000 0.0000 0.0000 0.0000 3.5911 0.0000
# 6 0.0000 0.0000 0.0000 0.0000 0.0000 27.8914
#
#
#
# Elastic Compliance Matrix: (Units=1/GPa)
#
#
# Indices 1 2 3 4 5 6 
#
# 1 0.014184 -0.011318 -0.002411 0.000000 0.000000 0.000000
# 2 -0.011318 0.035922 -0.005569 0.000000 0.000000 0.000000
# 3 -0.002411 -0.005569 0.011418 0.000000 0.000000 0.000000
# 4 0.000000 0.000000 0.000000 0.017364 0.000000 0.000000
# 5 0.000000 0.000000 0.000000 0.000000 0.278466 0.000000
# 6 0.000000 0.000000 0.000000 0.000000 0.000000 0.035853
#
#
# Mechanical properties :
#
#
# Convention : Reuss Voigt Hill
#
# Bulk Modulus (GPa) = 43.61307 55.96653 49.78980
# Shear Modulus (GPa) = 11.37793 27.96642 19.67218
#
# Velocity S-wave (km/s) = 2.54657 3.99248 3.34850
# Velocity P-wave (km/s) = 5.78832 7.29056 6.58244
#
# Compressibility (1/GPa) = 0.02292890
#
# Stress axis : x y z
#
# Youngs Moduli (GPa) = 70.49997 27.83795 87.57836
#
# Poissons Ratio (x) = 0.31507 0.21119
# Poissons Ratio (y) = 0.79792 0.48768
# Poissons Ratio (z) = 0.17001 0.15502
#
# Static dielectric constant tensor:
#      x y z
#    x 4.152240 0.000000 0.000000 
#    y 0.000000 3.417460 0.000000 
#    z 0.000000 0.000000 3.227400 
# 
# 
# High freq. dielectric constant tensor:
#      x y z
#    x 1.673020 0.000000 0.000000 
#    y 0.000000 1.674120 0.000000 
#    z 0.000000 0.000000 1.651080 
# 
# From -- ./inp_files/29663.got.cif
#   From: 2010.03.12/outbox.cif.g09.slc.cpg/sg50_15_cif.got.tgz:29663.got - 2010.04.16 13:23:21.
