data_PCOD8204399
_publ_section_title
;
Structure prediction by ZEFSAII (Michael W. Deem and Ramdas Pophale) SiO2 
 PCOD8204399
Probable space group: P C C M
;
_chemical_formula_sum "Si O2"
_cell_formula_units_Z 64
_cell_length_a 14.635501
_cell_length_b 12.354098
_cell_length_c 16.710141
_cell_angle_alpha 90.000000
_cell_angle_beta 90.000000
_cell_angle_gamma 90.000000
_cell_volume 3021.334086
_symmetry_space_group_name_H-M "P C C M"
_symmetry_group_IT_number 49
_symmetry_cell_setting 'orthorhombic'
loop_
_space_group_symop_operation_xyz
x,y,z
-x,-y,z
x,-y,1/2-z
-x,y,1/2-z
-x,-y,-z
x,y,-z
-x,y,1/2+z
x,-y,1/2+z
loop_
_atom_site_type_symbol
_atom_site_label
_atom_site_fract_x
_atom_site_fract_y
_atom_site_fract_z
Si Si1 0.989121 0.119702 0.657648
Si Si2 0.291141 0.115133 0.410098
Si Si3 0.358078 0.735732 0.590616
Si Si4 0.154668 0.280907 0.359894
Si Si5 0.898685 0.510846 0.909184
Si Si6 0.235665 0.612986 0.707243
Si Si7 0.197048 0.903475 0.410058
Si Si8 0.516456 0.121746 0.156710
O O1 0.885113 0.154051 0.637986
O O2 0.000000 0.102368 0.750000
O O3 0.060363 0.212752 0.632288
O O4 0.000000 0.000000 0.616046
O O5 0.321774 0.083217 0.500000
O O6 0.229461 0.220523 0.411963
O O7 0.377835 0.146634 0.357265
O O8 0.231238 0.017304 0.371443
O O9 0.363477 0.685447 0.500000
O O10 0.327277 0.649730 0.658998
O O11 0.283585 0.827939 0.593308
O O12 0.455464 0.789712 0.610762
O O13 0.145830 0.393617 0.404780
O O14 0.194112 0.299531 0.269809
O O15 0.844589 0.597689 0.857220
O O16 0.000000 0.500000 0.873009
O O17 0.900139 0.553857 0.000000
O O18 0.260831 0.500000 0.750000
O O19 0.162734 0.923769 0.500000
O O20 0.500000 0.131318 0.250000
O O21 0.500000 0.000000 0.124518
#
# Coordination Sequence:
#
# PCOD8204399 Si02
#       8
#     8   8   8   8   8   8   8   8
#     4  11  23  37  53  85 126 171 210 251 300 371
#     4  11  22  40  62  91 130 170 205 251 309 380
#     4  11  22  40  66  95 127 168 213 260 318 380
#     4  11  23  39  63  89 124 169 215 258 316 380
#     4  10  23  41  62  88 118 160 217 275 322 369
#     4  10  23  42  64  89 125 165 218 275 328 364
#     4  10  22  37  57  87 128 171 208 251 306 370
#     4  11  23  39  63  97 134 170 209 253 308 377
#
# _framework density 21.182694999999999
#
# number of rings (size 3 to 8) (size 9 to 14) (size 15 to 20)
#    0.000    1.375    2.500    2.625    3.500    3.500 
#    0.000    0.000    0.000    8.625    0.000   12.250 
#    0.000    0.000    0.000    0.000    0.000    0.000 
#
# Total GULP energy -793425.022732 kJ/mol
# GULP energy per Si atom -12397.265980 kJ/mol
# Density = 2.113448 g / cm^3
# Si number density = 21.182695 Si / 1000 Ang^3
#
#
#
# Elastic Constant Matrix: (Units=GPa)
#
#
# Indices 1 2 3 4 5 6 
#
# 1 136.9823 31.4892 41.1904 0.0000 0.0000 0.0000
# 2 31.4892 67.5556 22.2342 0.0000 0.0000 0.0000
# 3 41.1904 22.2342 91.3454 0.0000 0.0000 0.0000
# 4 0.0000 0.0000 0.0000 26.9706 0.0000 0.0000
# 5 0.0000 0.0000 0.0000 0.0000 -53.9643 0.0000
# 6 0.0000 0.0000 0.0000 0.0000 0.0000 30.5053
#
#
#
# Elastic Compliance Matrix: (Units=1/GPa)
#
#
# Indices 1 2 3 4 5 6 
#
# 1 0.009009 -0.003112 -0.003305 0.000000 0.000000 0.000000
# 2 -0.003112 0.017166 -0.002775 0.000000 0.000000 0.000000
# 3 -0.003305 -0.002775 0.013113 0.000000 0.000000 0.000000
# 4 0.000000 0.000000 0.000000 0.037077 0.000000 0.000000
# 5 0.000000 0.000000 0.000000 0.000000 -0.018531 0.000000
# 6 0.000000 0.000000 0.000000 0.000000 0.000000 0.032781
#
#
# Mechanical properties :
#
#
# Convention : Reuss Voigt Hill
#
# Bulk Modulus (GPa) = 47.83565 53.96787 50.90176
# Shear Modulus (GPa) = 43.11467 14.10026 28.60746
#
# Velocity S-wave (km/s) = 4.51640 2.58282 3.67892
# Velocity P-wave (km/s) = 7.05894 5.86747 6.49060
#
# Compressibility (1/GPa) = 0.02090491
#
# Stress axis : x y z
#
# Youngs Moduli (GPa) = 110.99537 58.25314 76.25787
#
# Poissons Ratio (x) = 0.18126 0.25205
# Poissons Ratio (y) = 0.34538 0.21164
# Poissons Ratio (z) = 0.36686 0.16167
#
# Static dielectric constant tensor:
#      x y z
#    x 4.012490 0.000000 0.000000 
#    y 0.000000 3.853230 0.000000 
#    z 0.000000 0.000000 3.895480 
# 
# 
# High freq. dielectric constant tensor:
#      x y z
#    x 1.827030 0.000000 0.000000 
#    y 0.000000 1.824420 0.000000 
#    z 0.000000 0.000000 1.832590 
# 
# From -- ./inp_files/17925.got.cif
#   From: 2010.03.12/outbox.cif.g09.slc.cpg/sg49_9_cif.got.tgz:17925.got - 2010.04.14 03:58:27.
