data_PCOD8204608
_publ_section_title
;
Structure prediction by ZEFSAII (Michael W. Deem and Ramdas Pophale) SiO2 
 PCOD8204608
Probable space group: P C C M
;
_chemical_formula_sum "Si O2"
_cell_formula_units_Z 64
_cell_length_a 9.871773
_cell_length_b 16.392318
_cell_length_c 22.653996
_cell_angle_alpha 90.000000
_cell_angle_beta 90.000000
_cell_angle_gamma 90.000000
_cell_volume 3665.897774
_symmetry_space_group_name_H-M "P C C M"
_symmetry_group_IT_number 49
_symmetry_cell_setting 'orthorhombic'
loop_
_space_group_symop_operation_xyz
x,y,z
-x,-y,z
x,-y,1/2-z
-x,y,1/2-z
-x,-y,-z
x,y,-z
-x,y,1/2+z
x,-y,1/2+z
loop_
_atom_site_type_symbol
_atom_site_label
_atom_site_fract_x
_atom_site_fract_y
_atom_site_fract_z
Si Si1 0.481331 0.595686 0.432883
Si Si2 0.987173 0.405722 0.931732
Si Si3 0.647894 0.999692 0.180214
Si Si4 0.736451 0.337550 0.128715
Si Si5 0.233024 0.336054 0.867102
Si Si6 0.663986 0.824166 0.317759
Si Si7 0.339838 0.823392 0.318076
Si Si8 0.151692 0.595532 0.752065
O O1 0.500000 0.500000 0.428144
O O2 0.499808 0.625821 0.500000
O O3 0.585349 0.641086 0.390494
O O4 0.331621 0.617041 0.411353
O O5 0.083371 0.348199 0.893007
O O6 0.000000 0.500000 0.910211
O O7 0.837462 0.369284 0.922115
O O8 0.026370 0.399832 0.000000
O O9 0.720336 0.085491 0.162929
O O10 0.500000 0.000000 0.150283
O O11 0.628890 0.000000 0.250000
O O12 0.718164 0.913506 0.162695
O O13 0.740024 0.240132 0.139901
O O14 0.769900 0.382750 0.188913
O O15 0.269231 0.240475 0.862161
O O16 0.242768 0.374001 0.802074
O O17 0.501867 0.820158 0.325140
O O18 0.701477 0.804725 0.249686
O O19 0.137761 0.500000 0.750000
O O20 0.000000 0.634440 0.750000
#
# Coordination Sequence:
#
# PCOD8204608 Si02
#       8
#     8   8   8   8   8   8   8   8
#     4  11  24  39  53  74 105 141 184 231 270 306
#     4  11  24  41  57  72  97 145 200 229 250 304
#     4   7  12  24  46  71 108 145 167 195 247 318
#     4  12  21  35  56  80 107 140 174 224 275 317
#     4  12  21  35  56  80 107 140 174 224 275 317
#     4   9  16  29  48  80 113 139 167 205 260 326
#     4   9  16  29  48  80 113 139 167 205 260 326
#     4  11  22  35  51  76 109 144 180 215 267 331
#
# _framework density 17.458206000000001
#
# number of rings (size 3 to 8) (size 9 to 14) (size 15 to 20)
#    0.000    1.750    3.750    4.500    0.000    2.500 
#    0.000    1.250    0.000    0.750    0.000    8.750 
#    0.000    0.000    0.000    0.000    0.000    0.000 
#
# Total GULP energy -793255.898968 kJ/mol
# GULP energy per Si atom -12394.623421 kJ/mol
# Density = 1.741847 g / cm^3
# Si number density = 17.458206 Si / 1000 Ang^3
#
#
#
# Elastic Constant Matrix: (Units=GPa)
#
#
# Indices 1 2 3 4 5 6 
#
# 1 42.4659 23.4470 14.7492 0.0000 0.0000 0.0000
# 2 23.4470 132.0524 35.4413 0.0000 0.0000 0.0000
# 3 14.7492 35.4413 71.4462 0.0000 0.0000 0.0000
# 4 0.0000 0.0000 0.0000 13.0855 0.0000 0.0000
# 5 0.0000 0.0000 0.0000 0.0000 24.2423 0.0000
# 6 0.0000 0.0000 0.0000 0.0000 0.0000 19.6018
#
#
#
# Elastic Compliance Matrix: (Units=1/GPa)
#
#
# Indices 1 2 3 4 5 6 
#
# 1 0.026919 -0.003793 -0.003675 0.000000 0.000000 0.000000
# 2 -0.003793 0.009270 -0.003816 0.000000 0.000000 0.000000
# 3 -0.003675 -0.003816 0.016648 0.000000 0.000000 0.000000
# 4 0.000000 0.000000 0.000000 0.076420 0.000000 0.000000
# 5 0.000000 0.000000 0.000000 0.000000 0.041250 0.000000
# 6 0.000000 0.000000 0.000000 0.000000 0.000000 0.051016
#
#
# Mechanical properties :
#
#
# Convention : Reuss Voigt Hill
#
# Bulk Modulus (GPa) = 33.03707 43.69328 38.36518
# Shear Modulus (GPa) = 19.67093 22.87439 21.27266
#
# Velocity S-wave (km/s) = 3.36034 3.62365 3.49448
# Velocity P-wave (km/s) = 5.83271 6.52606 6.18910
#
# Compressibility (1/GPa) = 0.03026903
#
# Stress axis : x y z
#
# Youngs Moduli (GPa) = 37.14814 107.87117 60.06726
#
# Poissons Ratio (x) = 0.40919 0.22078
# Poissons Ratio (y) = 0.14091 0.22919
# Poissons Ratio (z) = 0.13654 0.41158
#
# Static dielectric constant tensor:
#      x y z
#    x 3.110100 0.000000 0.000000 
#    y 0.000000 3.589200 0.000000 
#    z 0.000000 0.000000 3.089270 
# 
# 
# High freq. dielectric constant tensor:
#      x y z
#    x 1.653470 0.000000 0.000000 
#    y 0.000000 1.681870 0.000000 
#    z 0.000000 0.000000 1.651530 
# 
# From -- ./inp_files/20010.got.cif
#   From: 2010.03.12/outbox.cif.g09.slc.cpg/sg49_11_cif.got.tgz:20010.got - 2010.04.14 03:58:27.
