data_PCOD8204981
_publ_section_title
;
Structure prediction by ZEFSAII (Michael W. Deem and Ramdas Pophale) SiO2 
 PCOD8204981
Probable space group: P B A N
;
_chemical_formula_sum "Si O2"
_cell_formula_units_Z 46
_cell_length_a 5.072026
_cell_length_b 26.498541
_cell_length_c 17.230091
_cell_angle_alpha 90.000000
_cell_angle_beta 90.000000
_cell_angle_gamma 90.000000
_cell_volume 2315.746439
_symmetry_space_group_name_H-M "P B A N"
_symmetry_group_IT_number 50
_space_group.IT_coordinate_system_code '2'
_symmetry_cell_setting 'orthorhombic'
loop_
_space_group_symop_operation_xyz
x,y,z
1/2-x,1/2-y,z
x,1/2-y,-z
1/2-x,y,-z
-x,-y,-z
1/2+x,1/2+y,-z
-x,1/2+y,z
1/2+x,-y,z
loop_
_atom_site_type_symbol
_atom_site_label
_atom_site_fract_x
_atom_site_fract_y
_atom_site_fract_z
Si Si1 0.250000 0.250000 0.500000
Si Si2 0.873021 0.388789 0.367081
Si Si3 0.750000 0.465179 0.500000
Si Si4 0.699834 0.806329 0.207587
Si Si5 0.682673 0.127887 0.194060
Si Si6 0.741701 0.032173 0.091189
Si Si7 0.369907 0.326477 0.378622
O O1 0.420217 0.285621 0.444983
O O2 0.763403 0.433279 0.420815
O O3 0.872527 0.402243 0.275274
O O4 0.666248 0.343955 0.370358
O O5 0.158134 0.370699 0.400129
O O6 0.500000 0.500000 0.500000
O O7 0.750000 0.750000 0.173166
O O8 0.410979 0.829526 0.193290
O O9 0.746259 0.802604 0.299997
O O10 0.915522 0.843440 0.169487
O O11 0.757832 0.086330 0.131212
O O12 0.482377 0.002688 0.117858
O O13 0.750000 0.042569 0.000000
#
# Coordination Sequence:
#
# PCOD8204981 Si02
#       7
#     2   8   4   8   8   8   8
#     4  12  20  32  52  78 100 142 178 224 272 334
#     4  10  22  39  50  75 106 138 178 226 267 318
#     4  12  24  37  54  71  98 141 182 225 270 318
#     4  10  19  36  53  83 114 148 190 226 269 329
#     4  10  21  35  61  81 111 152 183 227 282 334
#     4  10  21  38  61  90 118 142 180 235 288 339
#     4  10  21  33  53  74 105 136 175 225 274 316
#
# _framework density 19.864006
#
# number of rings (size 3 to 8) (size 9 to 14) (size 15 to 20)
#    0.000    1.739    0.870    3.652    0.000    2.783 
#    0.000    0.000    0.000    3.130    0.000    0.000 
#    0.000    0.000    0.000    0.000    0.000    0.000 
#
# Total GULP energy -570143.506083 kJ/mol
# GULP energy per Si atom -12394.424045 kJ/mol
# Density = 1.981879 g / cm^3
# Si number density = 19.864006 Si / 1000 Ang^3
#
#
#
# Elastic Constant Matrix: (Units=GPa)
#
#
# Indices 1 2 3 4 5 6 
#
# 1 92.8528 16.0113 23.0709 0.0000 0.0000 0.0000
# 2 16.0113 98.7779 44.5286 0.0000 0.0000 0.0000
# 3 23.0709 44.5286 48.1884 0.0000 0.0000 0.0000
# 4 0.0000 0.0000 0.0000 35.7684 0.0000 0.0000
# 5 0.0000 0.0000 0.0000 0.0000 -17.5560 0.0000
# 6 0.0000 0.0000 0.0000 0.0000 0.0000 23.7506
#
#
#
# Elastic Compliance Matrix: (Units=1/GPa)
#
#
# Indices 1 2 3 4 5 6 
#
# 1 0.012297 0.001132 -0.006934 0.000000 0.000000 0.000000
# 2 0.001132 0.017456 -0.016672 0.000000 0.000000 0.000000
# 3 -0.006934 -0.016672 0.039478 0.000000 0.000000 0.000000
# 4 0.000000 0.000000 0.000000 0.027958 0.000000 0.000000
# 5 0.000000 0.000000 0.000000 0.000000 -0.056960 0.000000
# 6 0.000000 0.000000 0.000000 0.000000 0.000000 0.042104
#
#
# Mechanical properties :
#
#
# Convention : Reuss Voigt Hill
#
# Bulk Modulus (GPa) = 41.18064 45.22673 43.20368
# Shear Modulus (GPa) = 36.93447 18.80647 27.87047
#
# Velocity S-wave (km/s) = 4.31672 3.08029 3.74981
# Velocity P-wave (km/s) = 6.75438 5.95554 6.36750
#
# Compressibility (1/GPa) = 0.02428326
#
# Stress axis : x y z
#
# Youngs Moduli (GPa) = 81.31855 57.28686 25.33067
#
# Poissons Ratio (x) = -0.06488 0.17564
# Poissons Ratio (y) = -0.09209 0.42232
# Poissons Ratio (z) = 0.56386 0.95511
#
# Static dielectric constant tensor:
#      x y z
#    x 3.777440 0.000000 0.000000 
#    y 0.000000 3.425080 0.000000 
#    z 0.000000 0.000000 3.552650 
# 
# 
# High freq. dielectric constant tensor:
#      x y z
#    x 1.791180 0.000000 0.000000 
#    y 0.000000 1.771180 0.000000 
#    z 0.000000 0.000000 1.751720 
# 
# From -- ./inp_files/28298.got.cif
#   From: 2010.03.12/outbox.cif.g09.slc.cpg/sg50_15_cif.got.tgz:28298.got - 2010.04.16 13:23:21.
