data_PCOD8204834
_publ_section_title
;
Structure prediction by ZEFSAII (Michael W. Deem and Ramdas Pophale) SiO2 
 PCOD8204834
Probable space group: P B A N
;
_chemical_formula_sum "Si O2"
_cell_formula_units_Z 46
_cell_length_a 19.031786
_cell_length_b 22.827213
_cell_length_c 6.535666
_cell_angle_alpha 90.000000
_cell_angle_beta 90.000000
_cell_angle_gamma 90.000000
_cell_volume 2839.371944
_symmetry_space_group_name_H-M "P B A N"
_symmetry_group_IT_number 50
_space_group.IT_coordinate_system_code '2'
_symmetry_cell_setting 'orthorhombic'
loop_
_space_group_symop_operation_xyz
x,y,z
1/2-x,1/2-y,z
x,1/2-y,-z
1/2-x,y,-z
-x,-y,-z
1/2+x,1/2+y,-z
-x,1/2+y,z
1/2+x,-y,z
loop_
_atom_site_type_symbol
_atom_site_label
_atom_site_fract_x
_atom_site_fract_y
_atom_site_fract_z
Si Si1 0.250000 0.058715 0.000000
Si Si2 0.750000 0.750000 0.000000
Si Si3 0.397670 0.024269 0.880114
Si Si4 0.491884 0.581023 0.172200
Si Si5 0.334175 0.345752 0.793084
Si Si6 0.033658 0.182441 0.056615
Si Si7 0.430644 0.122605 0.556353
O O1 0.314285 0.018712 0.922767
O O2 0.219422 0.100547 0.821844
O O3 0.704517 0.785337 0.836424
O O4 0.407851 0.067533 0.690329
O O5 0.423226 0.959431 0.818895
O O6 0.441590 0.045170 0.078812
O O7 0.473539 0.639623 0.037513
O O8 0.509561 0.600810 0.402050
O O9 0.396422 0.347042 0.960031
O O10 0.364507 0.349302 0.563917
O O11 0.021367 0.250000 0.000000
O O12 0.038255 0.174822 0.301320
#
# Coordination Sequence:
#
# PCOD8204834 Si02
#       7
#     4   2   8   8   8   8   8
#     4  11  18  35  46  72 103 130 161 208 252 294
#     4  10  20  36  42  60 114 136 178 204 238 292
#     4  10  19  33  50  71 101 127 168 212 248 306
#     4   9  19  34  50  70  96 134 165 208 258 291
#     4  10  20  33  46  69  99 138 169 205 245 285
#     4  10  19  35  49  71 101 130 171 212 240 297
#     4  10  18  34  52  69  93 135 178 203 254 293
#
# _framework density 16.200766999999999
#
# number of rings (size 3 to 8) (size 9 to 14) (size 15 to 20)
#    0.000    2.087    6.087    0.522    0.000    3.478 
#    0.000    0.870    0.000    0.000    0.000    0.609 
#    0.000    0.000    0.000    0.000    0.000    0.000 
#
# Total GULP energy -570045.397306 kJ/mol
# GULP energy per Si atom -12392.291246 kJ/mol
# Density = 1.616389 g / cm^3
# Si number density = 16.200767 Si / 1000 Ang^3
#
#
#
# Elastic Constant Matrix: (Units=GPa)
#
#
# Indices 1 2 3 4 5 6 
#
# 1 72.0417 60.5754 33.6827 0.0000 0.0000 0.0000
# 2 60.5754 121.0918 55.6658 0.0000 0.0000 0.0000
# 3 33.6827 55.6658 119.6889 0.0000 0.0000 0.0000
# 4 0.0000 0.0000 0.0000 23.0074 0.0000 0.0000
# 5 0.0000 0.0000 0.0000 0.0000 11.2519 0.0000
# 6 0.0000 0.0000 0.0000 0.0000 0.0000 25.3313
#
#
#
# Elastic Compliance Matrix: (Units=1/GPa)
#
#
# Indices 1 2 3 4 5 6 
#
# 1 0.024168 -0.011401 -0.001499 0.000000 0.000000 0.000000
# 2 -0.011401 0.015882 -0.004178 0.000000 0.000000 0.000000
# 3 -0.001499 -0.004178 0.010720 0.000000 0.000000 0.000000
# 4 0.000000 0.000000 0.000000 0.043464 0.000000 0.000000
# 5 0.000000 0.000000 0.000000 0.000000 0.088874 0.000000
# 6 0.000000 0.000000 0.000000 0.000000 0.000000 0.039477
#
#
# Mechanical properties :
#
#
# Convention : Reuss Voigt Hill
#
# Bulk Modulus (GPa) = 60.18937 68.07449 64.13193
# Shear Modulus (GPa) = 19.06367 22.77802 20.92085
#
# Velocity S-wave (km/s) = 3.43405 3.75371 3.59743
# Velocity P-wave (km/s) = 7.27712 7.80370 7.54500
#
# Compressibility (1/GPa) = 0.01661423
#
# Stress axis : x y z
#
# Youngs Moduli (GPa) = 41.37725 62.96415 93.28334
#
# Poissons Ratio (x) = 0.71784 0.13983
# Poissons Ratio (y) = 0.47173 0.38975
# Poissons Ratio (z) = 0.06202 0.26307
#
# Static dielectric constant tensor:
#      x y z
#    x 2.978820 0.000000 0.000000 
#    y 0.000000 3.281970 0.000000 
#    z 0.000000 0.000000 3.095620 
# 
# 
# High freq. dielectric constant tensor:
#      x y z
#    x 1.580530 0.000000 0.000000 
#    y 0.000000 1.619170 0.000000 
#    z 0.000000 0.000000 1.629120 
# 
# From -- ./inp_files/4613.got.cif
#   From: 2010.03.12/outbox.cif.g09.slc.cpg/sg50_3_cif.got.tgz:4613.got - 2010.04.16 13:23:21.
