data_PCOD8204400
_publ_section_title
;
Structure prediction by ZEFSAII (Michael W. Deem and Ramdas Pophale) SiO2 
 PCOD8204400
Probable space group: P C C M
;
_chemical_formula_sum "Si O2"
_cell_formula_units_Z 52
_cell_length_a 7.439754
_cell_length_b 24.636273
_cell_length_c 14.703598
_cell_angle_alpha 90.000000
_cell_angle_beta 90.000000
_cell_angle_gamma 90.000000
_cell_volume 2694.990285
_symmetry_space_group_name_H-M "P C C M"
_symmetry_group_IT_number 49
_symmetry_cell_setting 'orthorhombic'
loop_
_space_group_symop_operation_xyz
x,y,z
-x,-y,z
x,-y,1/2-z
-x,y,1/2-z
-x,-y,-z
x,y,-z
-x,y,1/2+z
x,-y,1/2+z
loop_
_atom_site_type_symbol
_atom_site_label
_atom_site_fract_x
_atom_site_fract_y
_atom_site_fract_z
Si Si1 0.288133 0.500000 0.102255
Si Si2 0.287398 0.413813 0.750000
Si Si3 0.000000 0.231529 0.394795
Si Si4 0.000000 0.322856 0.250000
Si Si5 0.293286 0.144975 0.895693
Si Si6 0.293286 0.144975 0.395693
Si Si7 0.288170 0.059856 0.750000
O O1 0.500000 0.500000 0.093891
O O2 0.229281 0.446986 0.159396
O O3 0.229281 0.553014 0.159396
O O4 0.202715 0.500000 0.000000
O O5 0.500000 0.401969 0.750000
O O6 0.181068 0.357880 0.750000
O O7 1.000000 0.247556 0.500000
O O8 0.176907 0.197239 0.368762
O O9 1.000000 0.286878 0.340020
O O10 0.823093 0.197239 0.368762
O O11 0.500000 0.159553 0.873972
O O12 0.226474 0.093022 0.838910
O O13 0.263098 0.129020 0.000000
O O14 0.263098 0.129020 0.500000
O O15 0.226474 0.093022 0.338910
O O16 0.500000 0.053009 0.750000
O O17 0.197915 0.000000 0.750000
#
# Coordination Sequence:
#
# PCOD8204400 Si02
#       7
#     8   8   8   4   8   8   8
#     4   8  15  33  59  80 105 142 174 202 241 294
#     4   9  20  36  53  80 111 136 169 207 247 299
#     4  10  22  38  53  72  98 131 176 217 248 295
#     4  12  24  35  52  78 107 136 166 214 266 292
#     4   9  18  34  54  72  95 131 169 205 249 300
#     4   9  18  34  54  72  95 131 169 205 249 300
#     4   9  17  29  49  78 104 126 158 200 251 310
#
# _framework density 19.295059999999999
#
# number of rings (size 3 to 8) (size 9 to 14) (size 15 to 20)
#    0.000    2.769    0.000    1.846    0.000    4.308 
#    0.000    5.385    0.000    2.769    0.000    0.000 
#    0.000    0.000    0.000    0.000    0.000    0.000 
#
# Total GULP energy -644661.449729 kJ/mol
# GULP energy per Si atom -12397.335572 kJ/mol
# Density = 1.925114 g / cm^3
# Si number density = 19.295060 Si / 1000 Ang^3
#
#
#
# Elastic Constant Matrix: (Units=GPa)
#
#
# Indices 1 2 3 4 5 6 
#
# 1 85.5762 60.8198 38.4483 0.0000 0.0000 0.0000
# 2 60.8198 174.3469 90.5010 0.0000 0.0000 0.0000
# 3 38.4483 90.5010 145.5283 0.0000 0.0000 0.0000
# 4 0.0000 0.0000 0.0000 -46.0058 0.0000 0.0000
# 5 0.0000 0.0000 0.0000 0.0000 12.4039 0.0000
# 6 0.0000 0.0000 0.0000 0.0000 0.0000 -43.5128
#
#
#
# Elastic Compliance Matrix: (Units=1/GPa)
#
#
# Indices 1 2 3 4 5 6 
#
# 1 0.015654 -0.004894 -0.001092 0.000000 0.000000 0.000000
# 2 -0.004894 0.010000 -0.004926 0.000000 0.000000 0.000000
# 3 -0.001092 -0.004926 0.010223 0.000000 0.000000 0.000000
# 4 0.000000 0.000000 0.000000 -0.021736 0.000000 0.000000
# 5 0.000000 0.000000 0.000000 0.000000 0.080620 0.000000
# 6 0.000000 0.000000 0.000000 0.000000 0.000000 -0.022982
#
#
# Mechanical properties :
#
#
# Convention : Reuss Voigt Hill
#
# Bulk Modulus (GPa) = 71.15684 87.22106 79.18895
# Shear Modulus (GPa) = 50.87102 -1.04413 24.91344
#
# Velocity S-wave (km/s) = 5.14024 -0.73642 3.59720
# Velocity P-wave (km/s) = 8.49633 6.67674 7.64090
#
# Compressibility (1/GPa) = 0.01405346
#
# Stress axis : x y z
#
# Youngs Moduli (GPa) = 63.87958 100.00263 97.81556
#
# Poissons Ratio (x) = 0.48940 0.10686
# Poissons Ratio (y) = 0.31262 0.48181
# Poissons Ratio (z) = 0.06979 0.49258
#
# Static dielectric constant tensor:
#      x y z
#    x 3.466570 0.000000 0.000000 
#    y 0.000000 3.424820 0.000000 
#    z 0.000000 0.000000 3.891820 
# 
# 
# High freq. dielectric constant tensor:
#      x y z
#    x 1.749680 0.000000 0.000000 
#    y 0.000000 1.733520 0.000000 
#    z 0.000000 0.000000 1.762920 
# 
# From -- ./inp_files/11944.got.cif
#   From: 2010.03.12/outbox.cif.g09.slc.cpg/sg49_6_cif.got.tgz:11944.got - 2010.04.14 03:58:27.
