data_PCOD8204391
_publ_section_title
;
Structure prediction by ZEFSAII (Michael W. Deem and Ramdas Pophale) SiO2 
 PCOD8204391
Probable space group: P C C M
;
_chemical_formula_sum "Si O2"
_cell_formula_units_Z 28
_cell_length_a 9.008410
_cell_length_b 8.592748
_cell_length_c 14.600195
_cell_angle_alpha 90.000000
_cell_angle_beta 90.000000
_cell_angle_gamma 90.000000
_cell_volume 1130.157251
_symmetry_space_group_name_H-M "P C C M"
_symmetry_group_IT_number 49
_symmetry_cell_setting 'orthorhombic'
loop_
_space_group_symop_operation_xyz
x,y,z
-x,-y,z
x,-y,1/2-z
-x,y,1/2-z
-x,-y,-z
x,y,-z
-x,y,1/2+z
x,-y,1/2+z
loop_
_atom_site_type_symbol
_atom_site_label
_atom_site_fract_x
_atom_site_fract_y
_atom_site_fract_z
Si Si1 0.287357 0.879200 0.000000
Si Si2 0.735622 0.913602 0.844566
Si Si3 0.653188 0.421204 0.657689
Si Si4 0.044297 0.818757 0.500000
Si Si5 0.822777 0.445866 0.000000
O O1 0.352566 0.960671 0.908450
O O2 0.302201 0.694273 0.000000
O O3 0.107904 0.920931 0.000000
O O4 0.630195 0.764443 0.825748
O O5 0.782891 0.000000 0.750000
O O6 0.872736 0.846041 0.903457
O O7 0.500000 0.500000 0.624606
O O8 0.708917 0.500000 0.750000
O O9 0.786231 0.448232 0.586926
O O10 0.988867 0.633379 0.500000
#
# Coordination Sequence:
#
# PCOD8204391 Si02
#       5
#     4   8   8   4   4
#     4   9  21  39  59  97 133 166 212 264 323 405
#     4  11  21  40  68  96 130 181 216 276 336 394
#     4  11  25  45  64  92 132 180 234 281 326 390
#     4   9  23  40  67  99 144 162 222 266 332 418
#     4  10  21  44  67  96 138 178 206 281 342 389
#
# _framework density 24.775314000000002
#
# number of rings (size 3 to 8) (size 9 to 14) (size 15 to 20)
#    0.857    0.857    0.000    5.571    0.000    4.571 
#    0.000   12.857    0.000    0.000    0.000    0.000 
#    0.000    0.000    0.000    0.000    0.000    0.000 
#
# Total GULP energy -346894.167069 kJ/mol
# GULP energy per Si atom -12389.077395 kJ/mol
# Density = 2.471892 g / cm^3
# Si number density = 24.775314 Si / 1000 Ang^3
#
#
#
# Elastic Constant Matrix: (Units=GPa)
#
#
# Indices 1 2 3 4 5 6 
#
# 1 84.1394 25.6851 38.8940 0.0000 0.0000 0.0000
# 2 25.6851 181.3045 52.2742 0.0000 0.0000 0.0000
# 3 38.8940 52.2742 198.2823 0.0000 0.0000 0.0000
# 4 0.0000 0.0000 0.0000 37.8623 0.0000 0.0000
# 5 0.0000 0.0000 0.0000 0.0000 208.6435 0.0000
# 6 0.0000 0.0000 0.0000 0.0000 0.0000 28.1562
#
#
#
# Elastic Compliance Matrix: (Units=1/GPa)
#
#
# Indices 1 2 3 4 5 6 
#
# 1 0.013318 -0.001227 -0.002289 0.000000 0.000000 0.000000
# 2 -0.001227 0.006082 -0.001363 0.000000 0.000000 0.000000
# 3 -0.002289 -0.001363 0.005852 0.000000 0.000000 0.000000
# 4 0.000000 0.000000 0.000000 0.026411 0.000000 0.000000
# 5 0.000000 0.000000 0.000000 0.000000 0.004793 0.000000
# 6 0.000000 0.000000 0.000000 0.000000 0.000000 0.035516
#
#
# Mechanical properties :
#
#
# Convention : Reuss Voigt Hill
#
# Bulk Modulus (GPa) = 64.53919 77.49255 71.01587
# Shear Modulus (GPa) = 46.77535 78.05725 62.41630
#
# Velocity S-wave (km/s) = 4.34981 5.61912 5.02470
# Velocity P-wave (km/s) = 7.16478 8.57002 7.89871
#
# Compressibility (1/GPa) = 0.01549446
#
# Stress axis : x y z
#
# Youngs Moduli (GPa) = 75.08873 164.41083 170.89358
#
# Poissons Ratio (x) = 0.20169 0.39116
# Poissons Ratio (y) = 0.09211 0.23291
# Poissons Ratio (z) = 0.17187 0.22407
#
# Static dielectric constant tensor:
#      x y z
#    x 3.876900 0.000000 0.000000 
#    y 0.000000 5.269550 0.000000 
#    z 0.000000 0.000000 4.109850 
# 
# 
# High freq. dielectric constant tensor:
#      x y z
#    x 1.958070 0.000000 0.000000 
#    y 0.000000 2.044500 0.000000 
#    z 0.000000 0.000000 1.979310 
# 
# From -- ./inp_files/12345.got.cif
#   From: 2010.03.12/outbox.cif.g09.slc.cpg/sg49_7_cif.got.tgz:12345.got - 2010.04.14 03:58:27.
