data_PCOD8204428
_publ_section_title
;
Structure prediction by ZEFSAII (Michael W. Deem and Ramdas Pophale) SiO2 
 PCOD8204428
Probable space group: P C C M
;
_chemical_formula_sum "Si O2"
_cell_formula_units_Z 32
_cell_length_a 10.171342
_cell_length_b 5.029832
_cell_length_c 26.563981
_cell_angle_alpha 90.000000
_cell_angle_beta 90.000000
_cell_angle_gamma 90.000000
_cell_volume 1359.017026
_symmetry_space_group_name_H-M "P C C M"
_symmetry_group_IT_number 49
_symmetry_cell_setting 'orthorhombic'
loop_
_space_group_symop_operation_xyz
x,y,z
-x,-y,z
x,-y,1/2-z
-x,y,1/2-z
-x,-y,-z
x,y,-z
-x,y,1/2+z
x,-y,1/2+z
loop_
_atom_site_type_symbol
_atom_site_label
_atom_site_fract_x
_atom_site_fract_y
_atom_site_fract_z
Si Si1 0.843681 0.988062 0.192051
Si Si2 0.113880 0.178878 0.443472
Si Si3 0.236157 0.509248 0.868174
Si Si4 0.374099 0.826232 0.557198
O O1 0.801016 0.700842 0.173494
O O2 0.802789 0.000000 0.250000
O O3 0.758809 0.207491 0.161207
O O4 0.000000 0.000000 0.185118
O O5 0.078739 0.261023 0.500000
O O6 0.124833 0.450867 0.411586
O O7 0.248885 0.017204 0.438504
O O8 0.000000 0.000000 0.419156
O O9 0.363338 0.413368 0.901361
O O10 0.384223 0.708568 0.500000
O O11 0.500000 0.000000 0.571011
#
# Coordination Sequence:
#
# PCOD8204428 Si02
#       4
#     8   8   8   8
#     4  11  25  42  66 101 138 175 228 299 363 423
#     4  10  22  39  63 101 141 178 226 284 346 414
#     4  12  22  41  67  97 134 182 231 279 352 413
#     4  10  23  42  65 100 144 189 236 278 331 415
#
# _framework density 23.546430999999998
#
# number of rings (size 3 to 8) (size 9 to 14) (size 15 to 20)
#    0.000    1.250    2.500    3.000    3.500    3.000 
#    0.000    7.500    0.000    3.000    6.500    0.000 
#    0.000    0.000    0.000    0.000    0.000    0.000 
#
# Total GULP energy -396494.284661 kJ/mol
# GULP energy per Si atom -12390.446396 kJ/mol
# Density = 2.349284 g / cm^3
# Si number density = 23.546431 Si / 1000 Ang^3
#
#
#
# Elastic Constant Matrix: (Units=GPa)
#
#
# Indices 1 2 3 4 5 6 
#
# 1 117.8331 34.7944 23.8217 0.0000 0.0000 0.0000
# 2 34.7944 126.0186 57.0675 0.0000 0.0000 0.0000
# 3 23.8217 57.0675 175.4019 0.0000 0.0000 0.0000
# 4 0.0000 0.0000 0.0000 75.8352 0.0000 0.0000
# 5 0.0000 0.0000 0.0000 0.0000 45.3532 0.0000
# 6 0.0000 0.0000 0.0000 0.0000 0.0000 28.6894
#
#
#
# Elastic Compliance Matrix: (Units=1/GPa)
#
#
# Indices 1 2 3 4 5 6 
#
# 1 0.009277 -0.002335 -0.000500 0.000000 0.000000 0.000000
# 2 -0.002335 0.009894 -0.002902 0.000000 0.000000 0.000000
# 3 -0.000500 -0.002902 0.006713 0.000000 0.000000 0.000000
# 4 0.000000 0.000000 0.000000 0.013186 0.000000 0.000000
# 5 0.000000 0.000000 0.000000 0.000000 0.022049 0.000000
# 6 0.000000 0.000000 0.000000 0.000000 0.000000 0.034856
#
#
# Mechanical properties :
#
#
# Convention : Reuss Voigt Hill
#
# Bulk Modulus (GPa) = 69.39485 72.29119 70.84302
# Shear Modulus (GPa) = 44.54175 50.21356 47.37765
#
# Velocity S-wave (km/s) = 4.35404 4.62295 4.49050
# Velocity P-wave (km/s) = 7.40353 7.69829 7.55235
#
# Compressibility (1/GPa) = 0.01441029
#
# Stress axis : x y z
#
# Youngs Moduli (GPa) = 107.79124 101.06943 148.95781
#
# Poissons Ratio (x) = 0.23599 0.07452
# Poissons Ratio (y) = 0.25168 0.43227
# Poissons Ratio (z) = 0.05393 0.29330
#
# Static dielectric constant tensor:
#      x y z
#    x 4.174070 0.000000 0.000000 
#    y 0.000000 3.732810 0.000000 
#    z 0.000000 0.000000 4.778420 
# 
# 
# High freq. dielectric constant tensor:
#      x y z
#    x 1.904320 0.000000 0.000000 
#    y 0.000000 1.943820 0.000000 
#    z 0.000000 0.000000 1.947460 
# 
# From -- ./inp_files/26070.got.cif
#   From: 2010.03.12/outbox.cif.g09.slc.cpg/sg49_14_cif.got.tgz:26070.got - 2010.04.14 03:58:27.
