data_PCOD8204684
_publ_section_title
;
Structure prediction by ZEFSAII (Michael W. Deem and Ramdas Pophale) SiO2 
 PCOD8204684
Probable space group: P C C M
;
_chemical_formula_sum "Si O2"
_cell_formula_units_Z 64
_cell_length_a 22.295875
_cell_length_b 9.678534
_cell_length_c 14.249441
_cell_angle_alpha 90.000000
_cell_angle_beta 90.000000
_cell_angle_gamma 90.000000
_cell_volume 3074.906598
_symmetry_space_group_name_H-M "P C C M"
_symmetry_group_IT_number 49
_symmetry_cell_setting 'orthorhombic'
loop_
_space_group_symop_operation_xyz
x,y,z
-x,-y,z
x,-y,1/2-z
-x,y,1/2-z
-x,-y,-z
x,y,-z
-x,y,1/2+z
x,-y,1/2+z
loop_
_atom_site_type_symbol
_atom_site_label
_atom_site_fract_x
_atom_site_fract_y
_atom_site_fract_z
Si Si1 0.429059 0.157515 0.251280
Si Si2 0.953575 0.212629 0.605205
Si Si3 0.239179 0.721504 0.603875
Si Si4 0.644858 0.348077 0.889959
Si Si5 0.370278 0.340132 0.890349
Si Si6 0.855296 0.249255 0.746153
Si Si7 0.920691 0.105420 0.104035
Si Si8 0.218984 0.600846 0.104750
O O1 0.500000 0.156994 0.250000
O O2 0.395550 0.235693 0.336485
O O3 0.418433 0.241364 0.155997
O O4 0.404829 0.000000 0.250000
O O5 0.940718 0.271759 0.500000
O O6 0.913313 0.294457 0.682287
O O7 0.024667 0.213223 0.627252
O O8 0.938303 0.052134 0.609164
O O9 0.231936 0.787019 0.500000
O O10 0.307094 0.728200 0.639156
O O11 0.196288 0.803742 0.675151
O O12 0.220732 0.562672 0.601122
O O13 0.624483 0.501125 0.856652
O O14 0.716034 0.334132 0.867793
O O15 0.633237 0.327500 0.000000
O O16 0.379764 0.335260 0.000000
O O17 0.870817 0.125027 0.816533
O O18 0.830245 0.368293 0.815139
O O19 0.896354 0.140319 0.000000
O O20 0.200925 0.654471 0.000000
#
# Coordination Sequence:
#
# PCOD8204684 Si02
#       8
#     8   8   8   8   8   8   8   8
#     4  11  24  38  54  83 123 160 188 223 282 349
#     4   9  19  35  51  68  95 132 173 216 260 309
#     4   9  19  35  54  78 106 134 169 218 273 323
#     4   9  19  39  65  86 107 145 198 246 280 319
#     4   9  19  39  65  86 107 145 198 246 280 319
#     4  12  18  26  51  81 101 125 162 205 258 317
#     4   9  19  35  51  68  95 132 173 216 260 309
#     4   9  19  35  54  78 106 134 169 218 273 323
#
# _framework density 20.813639999999999
#
# number of rings (size 3 to 8) (size 9 to 14) (size 15 to 20)
#    0.000    2.375    0.000    5.250    0.000    5.000 
#    0.000    7.500    0.000    9.000    0.000   14.000 
#    0.000    0.000    0.000    0.000    0.000    0.000 
#
# Total GULP energy -792876.679081 kJ/mol
# GULP energy per Si atom -12388.698111 kJ/mol
# Density = 2.076627 g / cm^3
# Si number density = 20.813640 Si / 1000 Ang^3
#
#
#
# Elastic Constant Matrix: (Units=GPa)
#
#
# Indices 1 2 3 4 5 6 
#
# 1 82.7086 44.7051 60.2268 0.0000 0.0000 0.0000
# 2 44.7051 64.6928 45.1270 0.0000 0.0000 0.0000
# 3 60.2268 45.1270 116.3611 0.0000 0.0000 0.0000
# 4 0.0000 0.0000 0.0000 25.8201 0.0000 0.0000
# 5 0.0000 0.0000 0.0000 0.0000 29.9552 0.0000
# 6 0.0000 0.0000 0.0000 0.0000 0.0000 28.8579
#
#
#
# Elastic Compliance Matrix: (Units=1/GPa)
#
#
# Indices 1 2 3 4 5 6 
#
# 1 0.023878 -0.010802 -0.008170 0.000000 0.000000 0.000000
# 2 -0.010802 0.026077 -0.004522 0.000000 0.000000 0.000000
# 3 -0.008170 -0.004522 0.014576 0.000000 0.000000 0.000000
# 4 0.000000 0.000000 0.000000 0.038729 0.000000 0.000000
# 5 0.000000 0.000000 0.000000 0.000000 0.033383 0.000000
# 6 0.000000 0.000000 0.000000 0.000000 0.000000 0.034653
#
#
# Mechanical properties :
#
#
# Convention : Reuss Voigt Hill
#
# Bulk Modulus (GPa) = 57.00114 62.65338 59.82726
# Shear Modulus (GPa) = 22.30827 24.50688 23.40758
#
# Velocity S-wave (km/s) = 3.27740 3.43511 3.35718
# Velocity P-wave (km/s) = 6.46279 6.77501 6.62074
#
# Compressibility (1/GPa) = 0.01754351
#
# Stress axis : x y z
#
# Youngs Moduli (GPa) = 41.87895 38.34859 68.60431
#
# Poissons Ratio (x) = 0.41423 0.56049
# Poissons Ratio (y) = 0.45237 0.31024
# Poissons Ratio (z) = 0.34215 0.17342
#
# Static dielectric constant tensor:
#      x y z
#    x 4.170500 0.000000 0.000000 
#    y 0.000000 3.426960 0.000000 
#    z 0.000000 0.000000 4.249010 
# 
# 
# High freq. dielectric constant tensor:
#      x y z
#    x 1.808090 0.000000 0.000000 
#    y 0.000000 1.769540 0.000000 
#    z 0.000000 0.000000 1.841050 
# 
# From -- ./inp_files/14535.got.cif
#   From: 2010.03.12/outbox.cif.g09.slc.cpg/sg49_8_cif.got.tgz:14535.got - 2010.04.14 03:58:27.
