data_PCOD8204442
_publ_section_title
;
Structure prediction by ZEFSAII (Michael W. Deem and Ramdas Pophale) SiO2 
 PCOD8204442
Probable space group: P C C M
;
_chemical_formula_sum "Si O2"
_cell_formula_units_Z 30
_cell_length_a 22.437896
_cell_length_b 5.140199
_cell_length_c 13.133376
_cell_angle_alpha 90.000000
_cell_angle_beta 90.000000
_cell_angle_gamma 90.000000
_cell_volume 1514.741212
_symmetry_space_group_name_H-M "P C C M"
_symmetry_group_IT_number 49
_symmetry_cell_setting 'orthorhombic'
loop_
_space_group_symop_operation_xyz
x,y,z
-x,-y,z
x,-y,1/2-z
-x,y,1/2-z
-x,-y,-z
x,y,-z
-x,y,1/2+z
x,-y,1/2+z
loop_
_atom_site_type_symbol
_atom_site_label
_atom_site_fract_x
_atom_site_fract_y
_atom_site_fract_z
Si Si1 0.193533 0.221146 0.500000
Si Si2 0.000000 0.000000 0.750000
Si Si3 0.459193 0.250494 0.000000
Si Si4 0.635547 0.249646 0.677387
Si Si5 0.729192 0.279909 0.500000
Si Si6 0.114004 0.239015 0.690586
O O1 0.247722 0.424406 0.500000
O O2 0.148626 0.278388 0.588913
O O3 0.217673 0.928154 0.500000
O O4 0.957095 0.823764 0.677566
O O5 0.500000 0.500000 0.000000
O O6 0.421418 0.253760 0.896224
O O7 0.500000 0.000000 0.000000
O O8 0.636762 0.500000 0.750000
O O9 0.692656 0.239483 0.603940
O O10 0.634368 0.000000 0.750000
O O11 0.123293 0.500000 0.750000
O O12 0.145038 0.000000 0.750000
#
# Coordination Sequence:
#
# PCOD8204442 Si02
#       6
#     4   2   4   8   4   8
#     4  12  24  40  65  92 120 162 207 257 321 365
#     4   8  22  42  62  84 132 148 202 250 308 376
#     4  11  24  41  64 100 136 161 214 270 291 369
#     4  11  24  43  66  91 127 177 209 250 324 363
#     4  11  26  42  60  95 125 157 217 266 299 371
#     4  10  22  40  61  89 121 155 199 250 306 377
#
# _framework density 19.805363
#
# number of rings (size 3 to 8) (size 9 to 14) (size 15 to 20)
#    0.800    0.533    0.000    5.200    0.000   14.400 
#    0.000    1.333    0.000    0.000    0.000    0.000 
#    0.000    0.000    0.000    0.000    0.000    0.000 
#
# Total GULP energy -371795.261447 kJ/mol
# GULP energy per Si atom -12393.175382 kJ/mol
# Density = 1.976028 g / cm^3
# Si number density = 19.805363 Si / 1000 Ang^3
#
#
#
# Elastic Constant Matrix: (Units=GPa)
#
#
# Indices 1 2 3 4 5 6 
#
# 1 113.7372 42.9593 72.7540 0.0000 0.0000 0.0000
# 2 42.9593 166.8776 73.6104 0.0000 0.0000 0.0000
# 3 72.7540 73.6104 163.5050 0.0000 0.0000 0.0000
# 4 0.0000 0.0000 0.0000 42.7544 0.0000 0.0000
# 5 0.0000 0.0000 0.0000 0.0000 3.0861 0.0000
# 6 0.0000 0.0000 0.0000 0.0000 0.0000 49.9153
#
#
#
# Elastic Compliance Matrix: (Units=1/GPa)
#
#
# Indices 1 2 3 4 5 6 
#
# 1 0.012409 -0.000947 -0.005095 0.000000 0.000000 0.000000
# 2 -0.000947 0.007550 -0.002977 0.000000 0.000000 0.000000
# 3 -0.005095 -0.002977 0.009724 0.000000 0.000000 0.000000
# 4 0.000000 0.000000 0.000000 0.023389 0.000000 0.000000
# 5 0.000000 0.000000 0.000000 0.000000 0.324034 0.000000
# 6 0.000000 0.000000 0.000000 0.000000 0.000000 0.020034
#
#
# Mechanical properties :
#
#
# Convention : Reuss Voigt Hill
#
# Bulk Modulus (GPa) = 85.88861 91.41856 88.65358
# Shear Modulus (GPa) = 11.93145 36.13756 24.03450
#
# Velocity S-wave (km/s) = 2.45712 4.27621 3.48736
# Velocity P-wave (km/s) = 7.17707 8.40476 7.81506
#
# Compressibility (1/GPa) = 0.01164299
#
# Stress axis : x y z
#
# Youngs Moduli (GPa) = 80.58549 132.45805 102.84107
#
# Poissons Ratio (x) = 0.12543 0.52401
# Poissons Ratio (y) = 0.07631 0.30621
# Poissons Ratio (z) = 0.41061 0.39439
#
# Static dielectric constant tensor:
#      x y z
#    x 3.731660 0.000000 0.000000 
#    y 0.000000 3.846150 0.000000 
#    z 0.000000 0.000000 3.630020 
# 
# 
# High freq. dielectric constant tensor:
#      x y z
#    x 1.779380 0.000000 0.000000 
#    y 0.000000 1.794160 0.000000 
#    z 0.000000 0.000000 1.777950 
# 
# From -- ./inp_files/9849.got.cif
#   From: 2010.03.12/outbox.cif.g09.slc.cpg/sg49_5_cif.got.tgz:9849.got - 2010.04.14 03:58:27.
