data_PCOD8204423
_publ_section_title
;
Structure prediction by ZEFSAII (Michael W. Deem and Ramdas Pophale) SiO2 
 PCOD8204423
Probable space group: P C C M
;
_chemical_formula_sum "Si O2"
_cell_formula_units_Z 26
_cell_length_a 15.375552
_cell_length_b 5.165238
_cell_length_c 12.864637
_cell_angle_alpha 90.000000
_cell_angle_beta 90.000000
_cell_angle_gamma 90.000000
_cell_volume 1021.688700
_symmetry_space_group_name_H-M "P C C M"
_symmetry_group_IT_number 49
_symmetry_cell_setting 'orthorhombic'
loop_
_space_group_symop_operation_xyz
x,y,z
-x,-y,z
x,-y,1/2-z
-x,y,1/2-z
-x,-y,-z
x,y,-z
-x,y,1/2+z
x,-y,1/2+z
loop_
_atom_site_type_symbol
_atom_site_label
_atom_site_fract_x
_atom_site_fract_y
_atom_site_fract_z
Si Si1 0.651532 0.826877 0.122807
Si Si2 0.755659 0.332069 0.876661
Si Si3 0.500000 0.000000 0.750000
Si Si4 0.947814 0.248189 0.877144
O O1 0.717564 0.606043 0.165462
O O2 0.689924 0.105290 0.154974
O O3 0.557657 0.810520 0.177246
O O4 0.638437 0.795338 0.000000
O O5 0.850789 0.270200 0.829672
O O6 0.763845 0.351700 0.000000
O O7 0.000000 0.500000 0.841298
O O8 0.941338 0.226321 0.000000
O O9 0.000000 0.000000 0.832985
#
# Coordination Sequence:
#
# PCOD8204423 Si02
#       4
#     8   8   2   8
#     4  10  22  39  59  84 117 153 194 245 302 360
#     4   9  18  34  54  81 120 158 189 235 294 348
#     4  12  26  42  64  88 110 150 206 258 308 360
#     4   9  15  24  45  79 115 150 190 229 268 330
#
# _framework density 25.448066000000001
#
# number of rings (size 3 to 8) (size 9 to 14) (size 15 to 20)
#    0.000    2.462    0.000    2.308    0.000   11.077 
#    0.000    4.615    0.000    0.000    0.000   16.154 
#    0.000    0.000    0.000    0.000    0.000   10.769 
#
# Total GULP energy -322499.208923 kJ/mol
# GULP energy per Si atom -12403.815728 kJ/mol
# Density = 2.539015 g / cm^3
# Si number density = 25.448066 Si / 1000 Ang^3
#
#
#
# Elastic Constant Matrix: (Units=GPa)
#
#
# Indices 1 2 3 4 5 6 
#
# 1 239.4956 104.7442 46.0551 0.0000 0.0000 0.0000
# 2 104.7442 218.8773 24.4535 0.0000 0.0000 0.0000
# 3 46.0551 24.4535 53.9506 0.0000 0.0000 0.0000
# 4 0.0000 0.0000 0.0000 129.3287 0.0000 0.0000
# 5 0.0000 0.0000 0.0000 0.0000 34.8296 0.0000
# 6 0.0000 0.0000 0.0000 0.0000 0.0000 69.0876
#
#
#
# Elastic Compliance Matrix: (Units=1/GPa)
#
#
# Indices 1 2 3 4 5 6 
#
# 1 0.006012 -0.002427 -0.004032 0.000000 0.000000 0.000000
# 2 -0.002427 0.005792 -0.000554 0.000000 0.000000 0.000000
# 3 -0.004032 -0.000554 0.022229 0.000000 0.000000 0.000000
# 4 0.000000 0.000000 0.000000 0.007732 0.000000 0.000000
# 5 0.000000 0.000000 0.000000 0.000000 0.028711 0.000000
# 6 0.000000 0.000000 0.000000 0.000000 0.000000 0.014474
#
#
# Mechanical properties :
#
#
# Convention : Reuss Voigt Hill
#
# Bulk Modulus (GPa) = 49.98183 95.86989 72.92586
# Shear Modulus (GPa) = 47.32819 69.12055 58.22437
#
# Velocity S-wave (km/s) = 4.31721 5.21732 4.78846
# Velocity P-wave (km/s) = 6.67341 8.60514 7.70009
#
# Compressibility (1/GPa) = 0.02000727
#
# Stress axis : x y z
#
# Youngs Moduli (GPa) = 166.32913 172.65490 44.98680
#
# Poissons Ratio (x) = 0.41897 0.18141
# Poissons Ratio (y) = 0.40362 0.02491
# Poissons Ratio (z) = 0.67071 0.09560
#
# Static dielectric constant tensor:
#      x y z
#    x 4.652960 0.000000 0.000000 
#    y 0.000000 4.575050 0.000000 
#    z 0.000000 0.000000 4.551540 
# 
# 
# High freq. dielectric constant tensor:
#      x y z
#    x 2.015650 0.000000 0.000000 
#    y 0.000000 2.010410 0.000000 
#    z 0.000000 0.000000 2.054710 
# 
# From -- ./inp_files/10448.got.cif
#   From: 2010.03.12/outbox.cif.g09.slc.cpg/sg49_6_cif.got.tgz:10448.got - 2010.04.14 03:58:27.
