data_PCOD8204821
_publ_section_title
;
Structure prediction by ZEFSAII (Michael W. Deem and Ramdas Pophale) SiO2 
 PCOD8204821
Probable space group: P B A N
;
_chemical_formula_sum "Si O2"
_cell_formula_units_Z 54
_cell_length_a 8.951618
_cell_length_b 17.768403
_cell_length_c 19.343181
_cell_angle_alpha 90.000000
_cell_angle_beta 90.000000
_cell_angle_gamma 90.000000
_cell_volume 3076.648148
_symmetry_space_group_name_H-M "P B A N"
_symmetry_group_IT_number 50
_space_group.IT_coordinate_system_code '2'
_symmetry_cell_setting 'orthorhombic'
loop_
_space_group_symop_operation_xyz
x,y,z
1/2-x,1/2-y,z
x,1/2-y,-z
1/2-x,y,-z
-x,-y,-z
1/2+x,1/2+y,-z
-x,1/2+y,z
1/2+x,-y,z
loop_
_atom_site_type_symbol
_atom_site_label
_atom_site_fract_x
_atom_site_fract_y
_atom_site_fract_z
Si Si1 0.774483 0.080881 0.274556
Si Si2 0.036267 0.039516 0.780271
Si Si3 0.103029 0.298559 0.257370
Si Si4 0.250000 0.750000 0.500000
Si Si5 0.250000 0.008082 0.000000
Si Si6 0.007034 0.562831 0.088452
Si Si7 0.141443 0.687264 0.631718
Si Si8 0.612553 0.201587 0.828865
O O1 0.638339 0.049536 0.229842
O O2 0.715040 0.105863 0.350245
O O3 0.833102 0.154718 0.236701
O O4 0.900189 0.016865 0.278978
O O5 0.131006 0.117067 0.772469
O O6 0.048690 0.000548 0.854689
O O7 0.250000 0.250000 0.271676
O O8 0.019273 0.304962 0.331671
O O9 0.010267 0.259725 0.197208
O O10 0.140377 0.698550 0.548165
O O11 0.337065 0.058113 0.941699
O O12 0.125556 0.951792 0.971330
O O13 0.034421 0.647337 0.115320
O O14 0.250000 0.750000 0.664793
O O15 0.750000 0.250000 0.861106
#
# Coordination Sequence:
#
# PCOD8204821 Si02
#       8
#     8   8   8   2   4   8   8   8
#     4  10  18  32  53  83 116 131 181 227 282 323
#     4  10  21  32  56  85 106 144 175 228 291 335
#     4  11  22  32  54  90 119 133 175 240 295 318
#     4   8  16  32  66  76 100 168 204 202 256 332
#     4  10  22  40  53  77 104 148 186 220 266 346
#     4  10  22  36  61  73 107 143 188 222 278 344
#     4   9  16  34  55  83 108 148 188 217 259 328
#     4  11  18  36  57  80 105 139 178 238 283 336
#
# _framework density 17.551566999999999
#
# number of rings (size 3 to 8) (size 9 to 14) (size 15 to 20)
#    0.444    1.481    4.444    1.778    6.222    0.000 
#    0.000    0.741    0.000    4.444    0.000    0.000 
#    0.000    0.000    0.000    0.000    0.000    0.000 
#
# Total GULP energy -668985.322191 kJ/mol
# GULP energy per Si atom -12388.617078 kJ/mol
# Density = 1.751162 g / cm^3
# Si number density = 17.551567 Si / 1000 Ang^3
#
#
#
# Elastic Constant Matrix: (Units=GPa)
#
#
# Indices 1 2 3 4 5 6 
#
# 1 74.7963 35.8025 27.4251 0.0000 0.0000 0.0000
# 2 35.8025 111.7255 43.2018 0.0000 0.0000 0.0000
# 3 27.4251 43.2018 85.6681 0.0000 0.0000 0.0000
# 4 0.0000 0.0000 0.0000 19.0283 0.0000 0.0000
# 5 0.0000 0.0000 0.0000 0.0000 18.2466 0.0000
# 6 0.0000 0.0000 0.0000 0.0000 0.0000 18.8826
#
#
#
# Elastic Compliance Matrix: (Units=1/GPa)
#
#
# Indices 1 2 3 4 5 6 
#
# 1 0.016488 -0.004028 -0.003247 0.000000 0.000000 0.000000
# 2 -0.004028 0.012103 -0.004814 0.000000 0.000000 0.000000
# 3 -0.003247 -0.004814 0.015140 0.000000 0.000000 0.000000
# 4 0.000000 0.000000 0.000000 0.052553 0.000000 0.000000
# 5 0.000000 0.000000 0.000000 0.000000 0.054805 0.000000
# 6 0.000000 0.000000 0.000000 0.000000 0.000000 0.052959
#
#
# Mechanical properties :
#
#
# Convention : Reuss Voigt Hill
#
# Bulk Modulus (GPa) = 51.14286 53.89433 52.51859
# Shear Modulus (GPa) = 21.29984 22.28220 21.79102
#
# Velocity S-wave (km/s) = 3.48739 3.56691 3.52738
# Velocity P-wave (km/s) = 6.73927 6.90918 6.82475
#
# Compressibility (1/GPa) = 0.01955307
#
# Stress axis : x y z
#
# Youngs Moduli (GPa) = 60.64881 82.62610 66.05012
#
# Poissons Ratio (x) = 0.33283 0.21447
# Poissons Ratio (y) = 0.24430 0.31795
# Poissons Ratio (z) = 0.19693 0.39774
#
# Static dielectric constant tensor:
#      x y z
#    x 3.362430 0.000000 0.000000 
#    y 0.000000 3.387520 0.000000 
#    z 0.000000 0.000000 3.002550 
# 
# 
# High freq. dielectric constant tensor:
#      x y z
#    x 1.680530 0.000000 0.000000 
#    y 0.000000 1.682330 0.000000 
#    z 0.000000 0.000000 1.645280 
# 
# From -- ./inp_files/31096.got.cif
#   From: 2010.03.12/outbox.cif.g09.slc.cpg/sg50_16_cif.got.tgz:31096.got - 2010.04.16 13:23:21.
