data_PCOD8204153
_publ_section_title
;
Structure prediction by ZEFSAII (Michael W. Deem and Ramdas Pophale) SiO2 
 PCOD8204153
Probable space group: P C C M
;
_chemical_formula_sum "Si O2"
_cell_formula_units_Z 56
_cell_length_a 9.681608
_cell_length_b 15.895113
_cell_length_c 18.346561
_cell_angle_alpha 90.000000
_cell_angle_beta 90.000000
_cell_angle_gamma 90.000000
_cell_volume 2823.356917
_symmetry_space_group_name_H-M "P C C M"
_symmetry_group_IT_number 49
_symmetry_cell_setting 'orthorhombic'
loop_
_space_group_symop_operation_xyz
x,y,z
-x,-y,z
x,-y,1/2-z
-x,y,1/2-z
-x,-y,-z
x,y,-z
-x,y,1/2+z
x,-y,1/2+z
loop_
_atom_site_type_symbol
_atom_site_label
_atom_site_fract_x
_atom_site_fract_y
_atom_site_fract_z
Si Si1 0.712280 0.939208 0.416777
Si Si2 0.396507 0.729768 0.684496
Si Si3 0.973809 0.907795 0.664549
Si Si4 0.401915 0.883174 0.417568
Si Si5 0.909151 0.264008 0.679034
Si Si6 0.088083 0.577847 0.415962
Si Si7 0.408996 0.420884 0.916490
O O1 0.766914 0.931125 0.500000
O O2 0.814656 0.891582 0.360180
O O3 0.564329 0.896879 0.409664
O O4 0.690769 0.036799 0.394796
O O5 0.500000 0.749287 0.750000
O O6 0.363224 0.809465 0.635502
O O7 0.241531 0.711850 0.710961
O O8 0.457564 0.654676 0.635606
O O9 0.000000 0.917305 0.750000
O O10 0.068711 0.828049 0.639329
O O11 0.000000 0.000000 0.627088
O O12 0.365887 0.857411 0.500000
O O13 0.956030 0.336046 0.623158
O O14 0.000000 0.264789 0.750000
O O15 0.050556 0.591155 0.500000
O O16 0.249057 0.556720 0.404981
O O17 0.000000 0.500000 0.383591
O O18 0.500000 0.500000 0.892979
O O19 0.438527 0.394681 0.000000
#
# Coordination Sequence:
#
# PCOD8204153 Si02
#       7
#     8   8   8   8   8   8   8
#     4   9  19  37  59  85 113 150 197 247 290 345
#     4  11  23  36  59  87 116 155 199 237 292 361
#     4  10  21  36  56  79 120 159 197 237 295 348
#     4   9  19  38  61  84 116 148 191 248 299 342
#     4  10  23  39  56  82 124 158 192 245 292 351
#     4   9  19  38  62  86 111 148 196 240 293 359
#     4   9  19  38  60  84 114 148 191 245 298 349
#
# _framework density 19.834544999999999
#
# number of rings (size 3 to 8) (size 9 to 14) (size 15 to 20)
#    0.000    2.429    0.000    2.143    4.000    3.143 
#    0.000    3.571    0.000    0.000    0.000    0.000 
#    0.000    0.000    0.000    0.000    0.000    0.000 
#
# Total GULP energy -693977.317936 kJ/mol
# GULP energy per Si atom -12392.452106 kJ/mol
# Density = 1.978940 g / cm^3
# Si number density = 19.834545 Si / 1000 Ang^3
#
#
#
# Elastic Constant Matrix: (Units=GPa)
#
#
# Indices 1 2 3 4 5 6 
#
# 1 66.2335 31.7495 33.3187 0.0000 0.0000 0.0000
# 2 31.7495 118.1589 29.1477 0.0000 0.0000 0.0000
# 3 33.3187 29.1477 62.9239 0.0000 0.0000 0.0000
# 4 0.0000 0.0000 0.0000 8.4952 0.0000 0.0000
# 5 0.0000 0.0000 0.0000 0.0000 0.5000 0.0000
# 6 0.0000 0.0000 0.0000 0.0000 0.0000 31.5172
#
#
#
# Elastic Compliance Matrix: (Units=1/GPa)
#
#
# Indices 1 2 3 4 5 6 
#
# 1 0.021717 -0.003386 -0.009931 0.000000 0.000000 0.000000
# 2 -0.003386 0.010083 -0.002878 0.000000 0.000000 0.000000
# 3 -0.009931 -0.002878 0.022484 0.000000 0.000000 0.000000
# 4 0.000000 0.000000 0.000000 0.117713 0.000000 0.000000
# 5 0.000000 0.000000 0.000000 0.000000 2.000071 0.000000
# 6 0.000000 0.000000 0.000000 0.000000 0.000000 0.031729
#
#
# Mechanical properties :
#
#
# Convention : Reuss Voigt Hill
#
# Bulk Modulus (GPa) = 45.67331 48.41646 47.04488
# Shear Modulus (GPa) = 2.22868 18.30917 10.26893
#
# Velocity S-wave (km/s) = 1.06117 3.04154 2.27784
# Velocity P-wave (km/s) = 4.95768 6.06612 5.53969
#
# Compressibility (1/GPa) = 0.02189463
#
# Stress axis : x y z
#
# Youngs Moduli (GPa) = 46.04752 99.17871 44.47648
#
# Poissons Ratio (x) = 0.33577 0.44169
# Poissons Ratio (y) = 0.15590 0.12800
# Poissons Ratio (z) = 0.45729 0.28543
#
# Static dielectric constant tensor:
#      x y z
#    x 3.729420 0.000000 0.000000 
#    y 0.000000 4.039310 0.000000 
#    z 0.000000 0.000000 3.433900 
# 
# 
# High freq. dielectric constant tensor:
#      x y z
#    x 1.777110 0.000000 0.000000 
#    y 0.000000 1.777390 0.000000 
#    z 0.000000 0.000000 1.758380 
# 
# From -- ./inp_files/19855.got.cif
#   From: 2010.03.12/outbox.cif.g09.slc.cpg/sg49_10_cif.got.tgz:19855.got - 2010.04.14 03:58:27.
