data_PCOD8204680
_publ_section_title
;
Structure prediction by ZEFSAII (Michael W. Deem and Ramdas Pophale) SiO2 
 PCOD8204680
Probable space group: P C C M
;
_chemical_formula_sum "Si O2"
_cell_formula_units_Z 40
_cell_length_a 8.412974
_cell_length_b 10.601016
_cell_length_c 18.047055
_cell_angle_alpha 90.000000
_cell_angle_beta 90.000000
_cell_angle_gamma 90.000000
_cell_volume 1609.545946
_symmetry_space_group_name_H-M "P C C M"
_symmetry_group_IT_number 49
_symmetry_cell_setting 'orthorhombic'
loop_
_space_group_symop_operation_xyz
x,y,z
-x,-y,z
x,-y,1/2-z
-x,y,1/2-z
-x,-y,-z
x,y,-z
-x,y,1/2+z
x,-y,1/2+z
loop_
_atom_site_type_symbol
_atom_site_label
_atom_site_fract_x
_atom_site_fract_y
_atom_site_fract_z
Si Si1 0.225853 0.102515 0.500000
Si Si2 0.577708 0.136323 0.141607
Si Si3 0.139498 0.174089 0.000000
Si Si4 0.834812 0.572718 0.582863
Si Si5 0.832655 0.251801 0.224347
Si Si6 0.293825 0.327965 0.871980
O O1 0.311972 0.156138 0.428786
O O2 0.043871 0.141196 0.500000
O O3 0.246130 0.951072 0.500000
O O4 0.692246 0.147556 0.214285
O O5 0.459400 0.254925 0.136051
O O6 0.500000 0.000000 0.144815
O O7 0.176957 0.251380 0.073874
O O8 0.811551 0.633832 0.500000
O O9 0.840402 0.676545 0.646446
O O10 0.692127 0.470985 0.597124
O O11 0.000000 0.500000 0.585019
O O12 0.785174 0.343856 0.291218
O O13 0.000000 0.188223 0.250000
#
# Coordination Sequence:
#
# PCOD8204680 Si02
#       6
#     4   8   4   8   8   8
#     4  11  24  45  77 110 161 208 263 322 370 478
#     4  12  27  49  76 112 159 208 255 323 396 454
#     4  11  23  46  77 118 152 212 269 304 395 461
#     4  11  25  46  79 114 151 199 261 321 382 463
#     4  12  27  48  77 110 153 205 258 324 386 466
#     4  12  24  46  76 111 158 203 251 321 392 454
#
# _framework density 24.851728000000001
#
# number of rings (size 3 to 8) (size 9 to 14) (size 15 to 20)
#    0.000    0.400    5.000    3.300    1.400    2.400 
#    0.000    4.000    0.000    0.000    0.000    0.000 
#    0.000    0.000    0.000    0.000    0.000    0.000 
#
# Total GULP energy -495881.066816 kJ/mol
# GULP energy per Si atom -12397.026670 kJ/mol
# Density = 2.479516 g / cm^3
# Si number density = 24.851728 Si / 1000 Ang^3
#
#
#
# Elastic Constant Matrix: (Units=GPa)
#
#
# Indices 1 2 3 4 5 6 
#
# 1 123.0640 50.0301 40.2716 0.0000 0.0000 0.0000
# 2 50.0301 63.8259 38.0181 0.0000 0.0000 0.0000
# 3 40.2716 38.0181 185.3669 0.0000 0.0000 0.0000
# 4 0.0000 0.0000 0.0000 30.3642 0.0000 0.0000
# 5 0.0000 0.0000 0.0000 0.0000 52.6482 0.0000
# 6 0.0000 0.0000 0.0000 0.0000 0.0000 37.6254
#
#
#
# Elastic Compliance Matrix: (Units=1/GPa)
#
#
# Indices 1 2 3 4 5 6 
#
# 1 0.012023 -0.008963 -0.000774 0.000000 0.000000 0.000000
# 2 -0.008963 0.024530 -0.003084 0.000000 0.000000 0.000000
# 3 -0.000774 -0.003084 0.006195 0.000000 0.000000 0.000000
# 4 0.000000 0.000000 0.000000 0.032934 0.000000 0.000000
# 5 0.000000 0.000000 0.000000 0.000000 0.018994 0.000000
# 6 0.000000 0.000000 0.000000 0.000000 0.000000 0.026578
#
#
# Mechanical properties :
#
#
# Convention : Reuss Voigt Hill
#
# Bulk Modulus (GPa) = 58.45559 69.87737 64.16648
# Shear Modulus (GPa) = 32.76581 40.39003 36.57792
#
# Velocity S-wave (km/s) = 3.63499 4.03580 3.84063
# Velocity P-wave (km/s) = 6.41797 7.06369 6.74856
#
# Compressibility (1/GPa) = 0.01710700
#
# Stress axis : x y z
#
# Youngs Moduli (GPa) = 83.17400 40.76562 161.41371
#
# Poissons Ratio (x) = 0.36540 0.12488
# Poissons Ratio (y) = 0.74552 0.49776
# Poissons Ratio (z) = 0.06435 0.12571
#
# Static dielectric constant tensor:
#      x y z
#    x 4.784540 0.000000 0.000000 
#    y 0.000000 4.750650 0.000000 
#    z 0.000000 0.000000 4.822660 
# 
# 
# High freq. dielectric constant tensor:
#      x y z
#    x 1.997300 0.000000 0.000000 
#    y 0.000000 1.986410 0.000000 
#    z 0.000000 0.000000 2.012880 
# 
# From -- ./inp_files/16033.got.cif
#   From: 2010.03.12/outbox.cif.g09.slc.cpg/sg49_9_cif.got.tgz:16033.got - 2010.04.14 03:58:27.
