data_PCOD8204404
_publ_section_title
;
Structure prediction by ZEFSAII (Michael W. Deem and Ramdas Pophale) SiO2 
 PCOD8204404
Probable space group: P C C M
;
_chemical_formula_sum "Si O2"
_cell_formula_units_Z 64
_cell_length_a 25.657084
_cell_length_b 14.697008
_cell_length_c 8.694130
_cell_angle_alpha 90.000000
_cell_angle_beta 90.000000
_cell_angle_gamma 90.000000
_cell_volume 3278.403135
_symmetry_space_group_name_H-M "P C C M"
_symmetry_group_IT_number 49
_symmetry_cell_setting 'orthorhombic'
loop_
_space_group_symop_operation_xyz
x,y,z
-x,-y,z
x,-y,1/2-z
-x,y,1/2-z
-x,-y,-z
x,y,-z
-x,y,1/2+z
x,-y,1/2+z
loop_
_atom_site_type_symbol
_atom_site_label
_atom_site_fract_x
_atom_site_fract_y
_atom_site_fract_z
Si Si1 0.147217 0.902859 0.817929
Si Si2 0.358141 0.224276 0.682530
Si Si3 0.317711 0.398744 0.181677
Si Si4 0.900978 0.597307 0.676809
Si Si5 0.443241 0.095272 0.183113
Si Si6 0.213395 0.597279 0.178401
Si Si7 0.053708 0.220624 0.682558
Si Si8 0.263981 0.097147 0.681041
O O1 0.103192 0.835071 0.752928
O O2 0.205687 0.872487 0.765972
O O3 0.133383 0.000000 0.750000
O O4 0.144631 0.908045 0.000000
O O5 0.365334 0.223821 0.500000
O O6 0.358447 0.328080 0.744533
O O7 0.406543 0.176428 0.763205
O O8 0.305168 0.173101 0.734811
O O9 0.325587 0.500000 0.250000
O O10 0.260743 0.357626 0.227654
O O11 0.324672 0.402852 0.000000
O O12 0.911571 0.500000 0.750000
O O13 0.910234 0.578331 0.500000
O O14 0.843164 0.643052 0.699644
O O15 0.940218 0.674420 0.738834
O O16 0.500000 0.115587 0.250000
O O17 0.421543 0.000000 0.250000
O O18 0.445546 0.089407 0.000000
O O19 0.203849 0.500000 0.250000
O O20 0.230384 0.592563 0.000000
O O21 0.052099 0.214396 0.500000
O O22 0.000000 0.180893 0.750000
O O23 0.265961 0.085761 0.500000
O O24 0.279838 0.000000 0.750000
#
# Coordination Sequence:
#
# PCOD8204404 Si02
#       8
#     8   8   8   8   8   8   8   8
#     4   9  19  37  58  78 103 137 174 218 272 329
#     4  11  22  36  58  88 119 158 199 240 292 345
#     4  11  22  36  53  79 115 155 196 241 288 338
#     4   9  19  34  54  76 102 136 172 216 269 330
#     4  11  22  39  62  90 125 164 206 251 296 345
#     4   9  16  29  50  73 100 135 176 220 270 328
#     4  10  22  38  55  75 101 134 175 221 273 330
#     4   9  19  34  56  82 113 147 180 221 276 339
#
# _framework density 19.521699000000002
#
# number of rings (size 3 to 8) (size 9 to 14) (size 15 to 20)
#    0.000    2.125    0.000    4.500    1.750    4.000 
#    0.000    2.500    0.000    0.375    0.000    2.625 
#    0.000    0.000    0.000    0.000    0.000    0.000 
#
# Total GULP energy -793230.389141 kJ/mol
# GULP energy per Si atom -12394.224830 kJ/mol
# Density = 1.947727 g / cm^3
# Si number density = 19.521699 Si / 1000 Ang^3
#
#
#
# Elastic Constant Matrix: (Units=GPa)
#
#
# Indices 1 2 3 4 5 6 
#
# 1 95.9075 60.9865 39.6684 0.0000 0.0000 0.0000
# 2 60.9865 101.6990 38.2517 0.0000 0.0000 0.0000
# 3 39.6684 38.2517 89.7768 0.0000 0.0000 0.0000
# 4 0.0000 0.0000 0.0000 29.5994 0.0000 0.0000
# 5 0.0000 0.0000 0.0000 0.0000 36.4302 0.0000
# 6 0.0000 0.0000 0.0000 0.0000 0.0000 33.3410
#
#
#
# Elastic Compliance Matrix: (Units=1/GPa)
#
#
# Indices 1 2 3 4 5 6 
#
# 1 0.017978 -0.009281 -0.003990 0.000000 0.000000 0.000000
# 2 -0.009281 0.016500 -0.002930 0.000000 0.000000 0.000000
# 3 -0.003990 -0.002930 0.014150 0.000000 0.000000 0.000000
# 4 0.000000 0.000000 0.000000 0.033784 0.000000 0.000000
# 5 0.000000 0.000000 0.000000 0.000000 0.027450 0.000000
# 6 0.000000 0.000000 0.000000 0.000000 0.000000 0.029993
#
#
# Mechanical properties :
#
#
# Convention : Reuss Voigt Hill
#
# Bulk Modulus (GPa) = 61.61933 62.79961 62.20947
# Shear Modulus (GPa) = 28.14290 29.77256 28.95773
#
# Velocity S-wave (km/s) = 3.80099 3.90949 3.85562
# Velocity P-wave (km/s) = 7.13417 7.25381 7.19424
#
# Compressibility (1/GPa) = 0.01622867
#
# Stress axis : x y z
#
# Youngs Moduli (GPa) = 55.62281 60.60539 70.67232
#
# Poissons Ratio (x) = 0.56245 0.28195
# Poissons Ratio (y) = 0.51621 0.20705
# Poissons Ratio (z) = 0.22191 0.17755
#
# Static dielectric constant tensor:
#      x y z
#    x 3.818020 0.000000 0.000000 
#    y 0.000000 3.568480 0.000000 
#    z 0.000000 0.000000 3.492640 
# 
# 
# High freq. dielectric constant tensor:
#      x y z
#    x 1.753950 0.000000 0.000000 
#    y 0.000000 1.755310 0.000000 
#    z 0.000000 0.000000 1.758230 
# 
# From -- ./inp_files/6562.got.cif
#   From: 2010.03.12/outbox.cif.g09.slc.cpg/sg49_4_cif.got.tgz:6562.got - 2010.04.14 03:58:27.
