data_PCOD8204870
_publ_section_title
;
Structure prediction by ZEFSAII (Michael W. Deem and Ramdas Pophale) SiO2 
 PCOD8204870
Probable space group: P B A N
;
_chemical_formula_sum "Si O2"
_cell_formula_units_Z 64
_cell_length_a 17.859302
_cell_length_b 5.114057
_cell_length_c 38.295970
_cell_angle_alpha 90.000000
_cell_angle_beta 90.000000
_cell_angle_gamma 90.000000
_cell_volume 3497.704532
_symmetry_space_group_name_H-M "P B A N"
_symmetry_group_IT_number 50
_space_group.IT_coordinate_system_code '2'
_symmetry_cell_setting 'orthorhombic'
loop_
_space_group_symop_operation_xyz
x,y,z
1/2-x,1/2-y,z
x,1/2-y,-z
1/2-x,y,-z
-x,-y,-z
1/2+x,1/2+y,-z
-x,1/2+y,z
1/2+x,-y,z
loop_
_atom_site_type_symbol
_atom_site_label
_atom_site_fract_x
_atom_site_fract_y
_atom_site_fract_z
Si Si1 0.047921 0.778701 0.277742
Si Si2 0.662995 0.737914 0.173440
Si Si3 0.661189 0.749317 0.539027
Si Si4 0.548665 0.277093 0.642260
Si Si5 0.050493 0.265606 0.111291
Si Si6 0.661305 0.249128 0.581796
Si Si7 0.952212 0.820185 0.964306
Si Si8 0.163271 0.762328 0.217973
O O1 0.075039 0.757370 0.317668
O O2 0.119460 0.727160 0.253895
O O3 0.985037 0.563327 0.269559
O O4 0.750000 0.750000 0.163238
O O5 0.616763 0.776569 0.138352
O O6 0.641251 0.464057 0.190921
O O7 0.641461 0.963926 0.200561
O O8 0.750000 0.750000 0.536344
O O9 0.626786 0.750000 0.500000
O O10 0.633243 0.496563 0.559759
O O11 0.633224 0.001386 0.559862
O O12 0.511110 0.553268 0.633582
O O13 0.623146 0.245587 0.619508
O O14 0.088561 0.238047 0.072625
O O15 0.014069 0.549719 0.116420
O O16 0.750000 0.250000 0.588052
O O17 0.024077 0.623563 0.965357
O O18 0.905034 0.750000 0.000000
O O19 0.250000 0.750000 0.227979
#
# Coordination Sequence:
#
# PCOD8204870 Si02
#       8
#     8   8   8   8   8   8   8   8
#     4  10  21  36  55  77  99 128 165 202 243 290
#     4  10  21  35  49  70 102 133 157 192 248 298
#     4   9  17  30  50  77 105 130 163 209 250 281
#     4  10  21  37  54  74 104 136 161 196 251 298
#     4  10  19  30  48  73  95 123 166 205 237 283
#     4  10  19  32  54  79  99 129 172 207 238 285
#     4   8  14  25  41  63  91 119 151 197 245 281
#     4  10  21  36  53  73  99 131 163 198 244 292
#
# _framework density 18.297713999999999
#
# number of rings (size 3 to 8) (size 9 to 14) (size 15 to 20)
#    0.000    2.375    0.000    2.625    0.000    5.000 
#    0.000    0.000    0.000   16.875    0.000    0.000 
#    0.000   13.000    0.000    0.000    0.000    2.000 
#
# Total GULP energy -793471.318419 kJ/mol
# GULP energy per Si atom -12397.989350 kJ/mol
# Density = 1.825607 g / cm^3
# Si number density = 18.297714 Si / 1000 Ang^3
#
#
#
# Elastic Constant Matrix: (Units=GPa)
#
#
# Indices 1 2 3 4 5 6 
#
# 1 48.8918 18.4550 67.3519 0.0000 0.0000 0.0000
# 2 18.4550 93.4958 27.6218 0.0000 0.0000 0.0000
# 3 67.3519 27.6218 146.2593 0.0000 0.0000 0.0000
# 4 0.0000 0.0000 0.0000 23.1151 0.0000 0.0000
# 5 0.0000 0.0000 0.0000 0.0000 16.1437 0.0000
# 6 0.0000 0.0000 0.0000 0.0000 0.0000 10.4336
#
#
#
# Elastic Compliance Matrix: (Units=1/GPa)
#
#
# Indices 1 2 3 4 5 6 
#
# 1 0.057130 -0.003712 -0.025607 0.000000 0.000000 0.000000
# 2 -0.003712 0.011569 -0.000476 0.000000 0.000000 0.000000
# 3 -0.025607 -0.000476 0.018719 0.000000 0.000000 0.000000
# 4 0.000000 0.000000 0.000000 0.043262 0.000000 0.000000
# 5 0.000000 0.000000 0.000000 0.000000 0.061944 0.000000
# 6 0.000000 0.000000 0.000000 0.000000 0.000000 0.095845
#
#
# Mechanical properties :
#
#
# Convention : Reuss Voigt Hill
#
# Bulk Modulus (GPa) = 35.93372 57.27825 46.60598
# Shear Modulus (GPa) = 13.99252 21.61967 17.80610
#
# Velocity S-wave (km/s) = 2.76835 3.44110 3.12289
# Velocity P-wave (km/s) = 5.46803 6.86729 6.20721
#
# Compressibility (1/GPa) = 0.02782902
#
# Stress axis : x y z
#
# Youngs Moduli (GPa) = 17.50387 86.43927 53.42141
#
# Poissons Ratio (x) = 0.32083 1.36798
# Poissons Ratio (y) = 0.06497 0.02541
# Poissons Ratio (z) = 0.44823 0.04112
#
# Static dielectric constant tensor:
#      x y z
#    x 2.889680 0.000000 0.000000 
#    y 0.000000 3.699090 0.000000 
#    z 0.000000 0.000000 3.611440 
# 
# 
# High freq. dielectric constant tensor:
#      x y z
#    x 1.658090 0.000000 0.000000 
#    y 0.000000 1.735050 0.000000 
#    z 0.000000 0.000000 1.726340 
# 
# From -- ./inp_files/32569.got.cif
#   From: 2010.03.12/outbox.cif.g09.slc.cpg/sg50_17_cif.got.tgz:32569.got - 2010.04.16 13:23:21.
