data_PCOD8204722
_publ_section_title
;
Structure prediction by ZEFSAII (Michael W. Deem and Ramdas Pophale) SiO2 
 PCOD8204722
Probable space group: P B A N
;
_chemical_formula_sum "Si O2"
_cell_formula_units_Z 56
_cell_length_a 8.877760
_cell_length_b 18.788657
_cell_length_c 16.526313
_cell_angle_alpha 90.000000
_cell_angle_beta 90.000000
_cell_angle_gamma 90.000000
_cell_volume 2756.608635
_symmetry_space_group_name_H-M "P B A N"
_symmetry_group_IT_number 50
_space_group.IT_coordinate_system_code '2'
_symmetry_cell_setting 'orthorhombic'
loop_
_space_group_symop_operation_xyz
x,y,z
1/2-x,1/2-y,z
x,1/2-y,-z
1/2-x,y,-z
-x,-y,-z
1/2+x,1/2+y,-z
-x,1/2+y,z
1/2+x,-y,z
loop_
_atom_site_type_symbol
_atom_site_label
_atom_site_fract_x
_atom_site_fract_y
_atom_site_fract_z
Si Si1 0.071958 0.171123 0.087991
Si Si2 0.926255 0.438875 0.223121
Si Si3 0.750000 0.110834 0.500000
Si Si4 0.002025 0.628187 0.388929
Si Si5 0.998878 0.458501 0.397708
Si Si6 0.750000 0.885948 0.500000
Si Si7 0.074776 0.911736 0.780594
Si Si8 0.414115 0.336961 0.903704
O O1 0.239337 0.150234 0.118330
O O2 0.045211 0.254323 0.101915
O O3 0.941244 0.133821 0.138685
O O4 0.052938 0.143014 0.996633
O O5 0.000045 0.420522 0.309922
O O6 0.746344 0.434946 0.231461
O O7 0.969711 0.519904 0.203938
O O8 0.984207 0.384142 0.155617
O O9 0.643403 0.158810 0.558799
O O10 0.653117 0.060712 0.442694
O O11 0.017348 0.641099 0.292833
O O12 0.005273 0.542768 0.392937
O O13 0.851205 0.658780 0.434204
O O14 0.142580 0.433879 0.446453
#
# Coordination Sequence:
#
# PCOD8204722 Si02
#       8
#     8   8   4   8   8   4   8   8
#     4   9  20  41  66  87 109 143 187 231 278 340
#     4  11  23  35  54  85 122 154 185 232 285 334
#     4  10  15  30  42  66 107 146 187 226 269 320
#     4  10  18  27  44  71 107 148 186 229 271 329
#     4  10  18  27  44  71 107 148 186 229 271 329
#     4  10  19  26  46  70 103 150 191 228 279 320
#     4  11  23  35  54  85 122 154 185 232 285 334
#     4   9  20  41  66  87 109 143 187 231 278 340
#
# _framework density 20.314817999999999
#
# number of rings (size 3 to 8) (size 9 to 14) (size 15 to 20)
#    0.000    2.000    1.429    5.143    8.000    1.714 
#    0.000    1.429    0.000    0.000    0.000    6.000 
#    0.000    0.000    0.000    0.000    0.000    0.000 
#
# Total GULP energy -693830.999292 kJ/mol
# GULP energy per Si atom -12389.839273 kJ/mol
# Density = 2.026858 g / cm^3
# Si number density = 20.314818 Si / 1000 Ang^3
#
#
#
# Elastic Constant Matrix: (Units=GPa)
#
#
# Indices 1 2 3 4 5 6 
#
# 1 102.9124 17.9954 45.4482 0.0000 0.0000 0.0000
# 2 17.9954 26.9796 38.8164 0.0000 0.0000 0.0000
# 3 45.4482 38.8164 137.5918 0.0000 0.0000 0.0000
# 4 0.0000 0.0000 0.0000 -0.8756 0.0000 0.0000
# 5 0.0000 0.0000 0.0000 0.0000 -11.9909 0.0000
# 6 0.0000 0.0000 0.0000 0.0000 0.0000 16.5557
#
#
#
# Elastic Compliance Matrix: (Units=1/GPa)
#
#
# Indices 1 2 3 4 5 6 
#
# 1 0.011597 -0.003743 -0.002775 0.000000 0.000000 0.000000
# 2 -0.003743 0.063595 -0.016705 0.000000 0.000000 0.000000
# 3 -0.002775 -0.016705 0.012897 0.000000 0.000000 0.000000
# 4 0.000000 0.000000 0.000000 -1.142061 0.000000 0.000000
# 5 0.000000 0.000000 0.000000 0.000000 -0.083396 0.000000
# 6 0.000000 0.000000 0.000000 0.000000 0.000000 0.060402
#
#
# Mechanical properties :
#
#
# Convention : Reuss Voigt Hill
#
# Bulk Modulus (GPa) = 24.01293 52.44488 38.22890
# Shear Modulus (GPa) = -4.91816 11.75275 3.41730
#
# Velocity S-wave (km/s) = -1.55764 2.40788 1.29839
# Velocity P-wave (km/s) = 2.93447 5.79678 4.59422
#
# Compressibility (1/GPa) = 0.04164423
#
# Stress axis : x y z
#
# Youngs Moduli (GPa) = 86.23027 15.72443 77.53784
#
# Poissons Ratio (x) = 0.05886 0.21513
# Poissons Ratio (y) = 0.32278 1.29524
# Poissons Ratio (z) = 0.23925 0.26267
#
# Static dielectric constant tensor:
#      x y z
#    x 3.994240 0.000000 0.000000 
#    y 0.000000 3.058750 0.000000 
#    z 0.000000 0.000000 4.228420 
# 
# 
# High freq. dielectric constant tensor:
#      x y z
#    x 1.806200 0.000000 0.000000 
#    y 0.000000 1.735240 0.000000 
#    z 0.000000 0.000000 1.814790 
# 
# From -- ./inp_files/25278.got.cif
#   From: 2010.03.12/outbox.cif.g09.slc.cpg/sg50_13_cif.got.tgz:25278.got - 2010.04.16 13:23:21.
