data_PCOD8204864
_publ_section_title
;
Structure prediction by ZEFSAII (Michael W. Deem and Ramdas Pophale) SiO2 
 PCOD8204864
Probable space group: P B A N
;
_chemical_formula_sum "Si O2"
_cell_formula_units_Z 28
_cell_length_a 10.271065
_cell_length_b 16.316465
_cell_length_c 10.416857
_cell_angle_alpha 90.000000
_cell_angle_beta 90.000000
_cell_angle_gamma 90.000000
_cell_volume 1745.734737
_symmetry_space_group_name_H-M "P B A N"
_symmetry_group_IT_number 50
_space_group.IT_coordinate_system_code '2'
_symmetry_cell_setting 'orthorhombic'
loop_
_space_group_symop_operation_xyz
x,y,z
1/2-x,1/2-y,z
x,1/2-y,-z
1/2-x,y,-z
-x,-y,-z
1/2+x,1/2+y,-z
-x,1/2+y,z
1/2+x,-y,z
loop_
_atom_site_type_symbol
_atom_site_label
_atom_site_fract_x
_atom_site_fract_y
_atom_site_fract_z
Si Si1 0.750000 0.750000 0.000000
Si Si2 0.641058 0.943019 0.392544
Si Si3 0.750000 0.250000 0.500000
Si Si4 0.689784 0.830504 0.754494
Si Si5 0.050668 0.620511 0.589831
O O1 0.666536 0.689947 0.093889
O O2 0.750000 0.936825 0.500000
O O3 0.699829 0.900820 0.264923
O O4 0.512769 0.896738 0.448888
O O5 0.613280 0.036825 0.357708
O O6 0.840946 0.308778 0.414511
O O7 0.750000 0.750000 0.684292
O O8 0.552625 0.852617 0.695115
#
# Coordination Sequence:
#
# PCOD8204864 Si02
#       5
#     2   8   2   8   8
#     4   8  20  36  54  74  88 138 204 218 218 300
#     4   9  17  32  50  78 107 130 160 210 266 323
#     4  12  20  28  46  86 110 132 152 202 266 332
#     4   9  18  35  54  69  99 138 179 213 247 290
#     4  10  19  29  50  80 108 130 160 207 270 320
#
# _framework density 16.039092
#
# number of rings (size 3 to 8) (size 9 to 14) (size 15 to 20)
#    0.857    1.714    1.429    1.714    0.000    4.000 
#    0.000    1.429    0.000    0.857    0.000    0.000 
#    0.000    0.000    0.000    0.000    0.000    0.000 
#
# Total GULP energy -346872.234043 kJ/mol
# GULP energy per Si atom -12388.294073 kJ/mol
# Density = 1.600259 g / cm^3
# Si number density = 16.039092 Si / 1000 Ang^3
#
#
#
# Elastic Constant Matrix: (Units=GPa)
#
#
# Indices 1 2 3 4 5 6 
#
# 1 83.8494 62.8667 28.5196 0.0000 0.0000 0.0000
# 2 62.8667 130.7594 47.9993 0.0000 0.0000 0.0000
# 3 28.5196 47.9993 78.2684 0.0000 0.0000 0.0000
# 4 0.0000 0.0000 0.0000 30.7254 0.0000 0.0000
# 5 0.0000 0.0000 0.0000 0.0000 39.5848 0.0000
# 6 0.0000 0.0000 0.0000 0.0000 0.0000 42.1318
#
#
#
# Elastic Compliance Matrix: (Units=1/GPa)
#
#
# Indices 1 2 3 4 5 6 
#
# 1 0.018820 -0.008428 -0.001689 0.000000 0.000000 0.000000
# 2 -0.008428 0.013644 -0.005296 0.000000 0.000000 0.000000
# 3 -0.001689 -0.005296 0.016640 0.000000 0.000000 0.000000
# 4 0.000000 0.000000 0.000000 0.032546 0.000000 0.000000
# 5 0.000000 0.000000 0.000000 0.000000 0.025262 0.000000
# 6 0.000000 0.000000 0.000000 0.000000 0.000000 0.023735
#
#
# Mechanical properties :
#
#
# Convention : Reuss Voigt Hill
#
# Bulk Modulus (GPa) = 54.71375 63.51650 59.11512
# Shear Modulus (GPa) = 29.83899 32.72118 31.28009
#
# Velocity S-wave (km/s) = 4.31791 4.52163 4.42094
# Velocity P-wave (km/s) = 7.68413 8.18213 7.93704
#
# Compressibility (1/GPa) = 0.01827694
#
# Stress axis : x y z
#
# Youngs Moduli (GPa) = 53.13594 73.29275 60.09642
#
# Poissons Ratio (x) = 0.61773 0.10149
# Poissons Ratio (y) = 0.44784 0.31829
# Poissons Ratio (z) = 0.08974 0.38818
#
# Static dielectric constant tensor:
#      x y z
#    x 3.149570 0.000000 0.000000 
#    y 0.000000 1.441270 0.000000 
#    z 0.000000 0.000000 2.663640 
# 
# 
# High freq. dielectric constant tensor:
#      x y z
#    x 1.617620 0.000000 0.000000 
#    y 0.000000 1.635320 0.000000 
#    z 0.000000 0.000000 1.564780 
# 
# From -- ./inp_files/13831.got.cif
#   From: 2010.03.12/outbox.cif.g09.slc.cpg/sg50_7_cif.got.tgz:13831.got - 2010.04.16 13:23:21.
