data_PCOD8204838
_publ_section_title
;
Structure prediction by ZEFSAII (Michael W. Deem and Ramdas Pophale) SiO2 
 PCOD8204838
Probable space group: P B A N
;
_chemical_formula_sum "Si O2"
_cell_formula_units_Z 44
_cell_length_a 23.208878
_cell_length_b 11.456579
_cell_length_c 8.926782
_cell_angle_alpha 90.000000
_cell_angle_beta 90.000000
_cell_angle_gamma 90.000000
_cell_volume 2373.580847
_symmetry_space_group_name_H-M "P B A N"
_symmetry_group_IT_number 50
_space_group.IT_coordinate_system_code '2'
_symmetry_cell_setting 'orthorhombic'
loop_
_space_group_symop_operation_xyz
x,y,z
1/2-x,1/2-y,z
x,1/2-y,-z
1/2-x,y,-z
-x,-y,-z
1/2+x,1/2+y,-z
-x,1/2+y,z
1/2+x,-y,z
loop_
_atom_site_type_symbol
_atom_site_label
_atom_site_fract_x
_atom_site_fract_y
_atom_site_fract_z
Si Si1 0.589616 0.210236 0.844029
Si Si2 0.250000 0.250000 0.000000
Si Si3 0.750000 0.750000 0.500000
Si Si4 0.780451 0.140071 0.157454
Si Si5 0.067361 0.010360 0.674223
Si Si6 0.044640 0.639864 0.597421
Si Si7 0.690547 0.602160 0.254256
O O1 0.654189 0.171423 0.875432
O O2 0.554489 0.099042 0.782858
O O3 0.588786 0.317283 0.725548
O O4 0.560898 0.250000 0.000000
O O5 0.292248 0.328563 0.897058
O O6 0.708989 0.670815 0.400477
O O7 0.750000 0.250000 0.241262
O O8 0.777032 0.023146 0.256445
O O9 0.750000 0.116521 0.000000
O O10 0.075917 0.958685 0.504883
O O11 0.121942 0.084083 0.732280
O O12 0.011989 0.092161 0.679584
O O13 0.024483 0.750000 0.500000
#
# Coordination Sequence:
#
# PCOD8204838 Si02
#       7
#     8   2   2   8   8   8   8
#     4  10  19  33  56  87 114 139 189 237 280 345
#     4  10  20  38  58  74 120 158 180 240 290 338
#     4  10  24  38  54  86 116 146 200 244 266 346
#     4  10  18  34  60  83 110 152 180 227 294 343
#     4   9  20  37  57  79 109 155 191 223 291 344
#     4   9  19  37  58  78 114 151 185 237 284 336
#     4  10  21  38  57  84 112 152 196 233 286 348
#
# _framework density 18.537392000000001
#
# number of rings (size 3 to 8) (size 9 to 14) (size 15 to 20)
#    0.000    2.364    2.727    0.000    1.273    2.182 
#    1.636    2.273    0.000    0.000    0.000    0.000 
#    0.000    0.000    0.000    0.000    0.000    0.000 
#
# Total GULP energy -545381.928475 kJ/mol
# GULP energy per Si atom -12395.043829 kJ/mol
# Density = 1.849520 g / cm^3
# Si number density = 18.537392 Si / 1000 Ang^3
#
#
#
# Elastic Constant Matrix: (Units=GPa)
#
#
# Indices 1 2 3 4 5 6 
#
# 1 84.9508 45.2058 46.6137 0.0000 0.0000 0.0000
# 2 45.2058 111.9938 56.4906 0.0000 0.0000 0.0000
# 3 46.6137 56.4906 118.0377 0.0000 0.0000 0.0000
# 4 0.0000 0.0000 0.0000 21.6423 0.0000 0.0000
# 5 0.0000 0.0000 0.0000 0.0000 28.0062 0.0000
# 6 0.0000 0.0000 0.0000 0.0000 0.0000 31.5747
#
#
#
# Elastic Compliance Matrix: (Units=1/GPa)
#
#
# Indices 1 2 3 4 5 6 
#
# 1 0.016564 -0.004464 -0.004405 0.000000 0.000000 0.000000
# 2 -0.004464 0.012974 -0.004446 0.000000 0.000000 0.000000
# 3 -0.004405 -0.004446 0.012339 0.000000 0.000000 0.000000
# 4 0.000000 0.000000 0.000000 0.046206 0.000000 0.000000
# 5 0.000000 0.000000 0.000000 0.000000 0.035706 0.000000
# 6 0.000000 0.000000 0.000000 0.000000 0.000000 0.031671
#
#
# Mechanical properties :
#
#
# Convention : Reuss Voigt Hill
#
# Bulk Modulus (GPa) = 65.58722 67.95585 66.77154
# Shear Modulus (GPa) = 26.71337 27.35611 27.03474
#
# Velocity S-wave (km/s) = 3.80024 3.84569 3.82303
# Velocity P-wave (km/s) = 7.39686 7.51382 7.45557
#
# Compressibility (1/GPa) = 0.01524687
#
# Stress axis : x y z
#
# Youngs Moduli (GPa) = 60.37165 77.07948 81.04326
#
# Poissons Ratio (x) = 0.34410 0.35697
# Poissons Ratio (y) = 0.26951 0.36032
# Poissons Ratio (z) = 0.26592 0.34269
#
# Static dielectric constant tensor:
#      x y z
#    x 3.178790 0.000000 0.000000 
#    y 0.000000 3.803940 0.000000 
#    z 0.000000 0.000000 3.491340 
# 
# 
# High freq. dielectric constant tensor:
#      x y z
#    x 1.700760 0.000000 0.000000 
#    y 0.000000 1.735300 0.000000 
#    z 0.000000 0.000000 1.714600 
# 
# From -- ./inp_files/15952.got.cif
#   From: 2010.03.12/outbox.cif.g09.slc.cpg/sg50_8_cif.got.tgz:15952.got - 2010.04.16 13:23:21.
