data_PCOD8204480
_publ_section_title
;
Structure prediction by ZEFSAII (Michael W. Deem and Ramdas Pophale) SiO2 
 PCOD8204480
Probable space group: P C C M
;
_chemical_formula_sum "Si O2"
_cell_formula_units_Z 64
_cell_length_a 18.412393
_cell_length_b 12.037603
_cell_length_c 14.547506
_cell_angle_alpha 90.000000
_cell_angle_beta 90.000000
_cell_angle_gamma 90.000000
_cell_volume 3224.324901
_symmetry_space_group_name_H-M "P C C M"
_symmetry_group_IT_number 49
_symmetry_cell_setting 'orthorhombic'
loop_
_space_group_symop_operation_xyz
x,y,z
-x,-y,z
x,-y,1/2-z
-x,y,1/2-z
-x,-y,-z
x,y,-z
-x,y,1/2+z
x,-y,1/2+z
loop_
_atom_site_type_symbol
_atom_site_label
_atom_site_fract_x
_atom_site_fract_y
_atom_site_fract_z
Si Si1 0.084511 0.631548 0.752271
Si Si2 0.420144 0.791702 0.230370
Si Si3 0.567206 0.577009 0.604730
Si Si4 0.317726 0.832518 0.392828
Si Si5 0.306431 0.090076 0.393681
Si Si6 0.811946 0.316288 0.400149
Si Si7 0.192989 0.731317 0.104497
Si Si8 0.278396 0.518947 0.143117
O O1 0.100088 0.500000 0.750000
O O2 0.116442 0.684122 0.660452
O O3 0.122853 0.693365 0.837453
O O4 0.000000 0.658663 0.750000
O O5 0.500000 0.840905 0.250000
O O6 0.426729 0.673369 0.180253
O O7 0.382484 0.784239 0.330512
O O8 0.375515 0.873869 0.165616
O O9 0.500000 0.500000 0.631672
O O10 0.559148 0.622792 0.500000
O O11 0.638729 0.499920 0.612657
O O12 0.336470 0.808772 0.500000
O O13 0.246341 0.768466 0.358591
O O14 0.298425 0.960156 0.375309
O O15 0.323301 0.116947 0.500000
O O16 0.231166 0.152365 0.364775
O O17 0.837771 0.276475 0.500000
O O18 0.774574 0.436346 0.410151
O O19 0.258013 0.643803 0.115739
O O20 0.165526 0.739108 0.000000
O O21 0.265795 0.500000 0.250000
#
# Coordination Sequence:
#
# PCOD8204480 Si02
#       8
#     8   8   8   8   8   8   8   8
#     4  11  23  38  56  88 130 163 192 236 295 365
#     4  12  25  39  60  85 119 162 206 253 317 366
#     4  11  26  41  58  88 125 162 204 255 313 374
#     4  10  24  43  63  91 120 157 209 260 311 364
#     4  10  22  42  67  91 117 153 208 266 309 363
#     4  11  21  37  61  87 118 156 195 245 300 360
#     4  11  20  37  65  91 116 155 203 253 303 360
#     4  12  21  36  62  87 119 156 201 252 310 361
#
# _framework density 19.849115000000001
#
# number of rings (size 3 to 8) (size 9 to 14) (size 15 to 20)
#    0.000    1.000    3.750    3.375    3.500    2.500 
#    0.000    2.500    0.000    1.875    0.000    3.500 
#    0.000    0.000    0.000    0.000    0.000    0.000 
#
# Total GULP energy -793618.547738 kJ/mol
# GULP energy per Si atom -12400.289808 kJ/mol
# Density = 1.980394 g / cm^3
# Si number density = 19.849115 Si / 1000 Ang^3
#
#
#
# Elastic Constant Matrix: (Units=GPa)
#
#
# Indices 1 2 3 4 5 6 
#
# 1 160.5007 43.6827 67.8960 0.0000 0.0000 0.0000
# 2 43.6827 89.0205 41.2892 0.0000 0.0000 0.0000
# 3 67.8960 41.2892 110.7834 0.0000 0.0000 0.0000
# 4 0.0000 0.0000 0.0000 19.6196 0.0000 0.0000
# 5 0.0000 0.0000 0.0000 0.0000 21.0250 0.0000
# 6 0.0000 0.0000 0.0000 0.0000 0.0000 16.0438
#
#
#
# Elastic Compliance Matrix: (Units=1/GPa)
#
#
# Indices 1 2 3 4 5 6 
#
# 1 0.008749 -0.002184 -0.004548 0.000000 0.000000 0.000000
# 2 -0.002184 0.014126 -0.003927 0.000000 0.000000 0.000000
# 3 -0.004548 -0.003927 0.013277 0.000000 0.000000 0.000000
# 4 0.000000 0.000000 0.000000 0.050969 0.000000 0.000000
# 5 0.000000 0.000000 0.000000 0.000000 0.047562 0.000000
# 6 0.000000 0.000000 0.000000 0.000000 0.000000 0.062329
#
#
# Mechanical properties :
#
#
# Convention : Reuss Voigt Hill
#
# Bulk Modulus (GPa) = 67.40413 74.00447 70.70430
# Shear Modulus (GPa) = 22.39389 25.16679 23.78034
#
# Velocity S-wave (km/s) = 3.36252 3.56463 3.46505
# Velocity P-wave (km/s) = 7.00767 7.36930 7.19076
#
# Compressibility (1/GPa) = 0.01483589
#
# Stress axis : x y z
#
# Youngs Moduli (GPa) = 114.30230 70.79111 75.31585
#
# Poissons Ratio (x) = 0.15458 0.34254
# Poissons Ratio (y) = 0.24959 0.29573
# Poissons Ratio (z) = 0.51985 0.27797
#
# Static dielectric constant tensor:
#      x y z
#    x 3.516260 0.000000 0.000000 
#    y 0.000000 3.608900 0.000000 
#    z 0.000000 0.000000 3.942850 
# 
# 
# High freq. dielectric constant tensor:
#      x y z
#    x 1.757500 0.000000 0.000000 
#    y 0.000000 1.764190 0.000000 
#    z 0.000000 0.000000 1.796510 
# 
# From -- ./inp_files/14183.got.cif
#   From: 2010.03.12/outbox.cif.g09.slc.cpg/sg49_8_cif.got.tgz:14183.got - 2010.04.14 03:58:27.
