data_PCOD8204213
_publ_section_title
;
Structure prediction by ZEFSAII (Michael W. Deem and Ramdas Pophale) SiO2 
 PCOD8204213
Probable space group: P C C M
;
_chemical_formula_sum "Si O2"
_cell_formula_units_Z 56
_cell_length_a 22.448034
_cell_length_b 14.816907
_cell_length_c 8.733914
_cell_angle_alpha 90.000000
_cell_angle_beta 90.000000
_cell_angle_gamma 90.000000
_cell_volume 2904.990910
_symmetry_space_group_name_H-M "P C C M"
_symmetry_group_IT_number 49
_symmetry_cell_setting 'orthorhombic'
loop_
_space_group_symop_operation_xyz
x,y,z
-x,-y,z
x,-y,1/2-z
-x,y,1/2-z
-x,-y,-z
x,y,-z
-x,y,1/2+z
x,-y,1/2+z
loop_
_atom_site_type_symbol
_atom_site_label
_atom_site_fract_x
_atom_site_fract_y
_atom_site_fract_z
Si Si1 0.739544 0.591458 0.820095
Si Si2 0.394186 0.409158 0.179280
Si Si3 0.934993 0.594092 0.317413
Si Si4 0.840655 0.726261 0.818650
Si Si5 0.658523 0.094117 0.820346
Si Si6 0.795803 0.095385 0.819206
Si Si7 0.438951 0.218746 0.179858
O O1 0.766829 0.500000 0.750000
O O2 0.672740 0.607285 0.756370
O O3 0.779867 0.675660 0.770336
O O4 0.739799 0.580003 0.000000
O O5 0.422331 0.500000 0.250000
O O6 0.434824 0.324295 0.224091
O O7 0.391431 0.422488 0.000000
O O8 0.909138 0.500000 0.250000
O O9 0.937416 0.587911 0.500000
O O10 0.895053 0.677713 0.265073
O O11 0.000000 0.611654 0.250000
O O12 0.836346 0.828238 0.758290
O O13 0.851205 0.725511 0.000000
O O14 0.726892 0.113600 0.776441
O O15 0.618670 0.172113 0.749557
O O16 0.636957 0.000000 0.750000
O O17 0.648617 0.090154 0.000000
O O18 0.816481 0.000000 0.750000
O O19 0.806003 0.094761 0.000000
O O20 0.500000 0.179485 0.250000
O O21 0.438960 0.202229 0.000000
#
# Coordination Sequence:
#
# PCOD8204213 Si02
#       7
#     8   8   8   8   8   8   8
#     4   9  18  31  49  75 106 138 173 214 265 321
#     4   9  19  35  53  73 100 136 174 216 264 317
#     4  11  22  38  58  83 117 157 200 241 282 328
#     4  11  21  34  55  83 115 151 189 231 277 326
#     4  10  21  38  60  84 110 140 175 217 271 330
#     4  10  21  37  58  85 114 145 181 225 275 330
#     4  11  23  38  55  76 103 135 176 223 271 324
#
# _framework density 19.277169000000001
#
# number of rings (size 3 to 8) (size 9 to 14) (size 15 to 20)
#    0.000    1.857    0.000    4.714    0.000    6.857 
#    0.000    5.714    0.000    0.429    0.000    3.000 
#    0.000    0.000    0.000    0.000    0.000    0.000 
#
# Total GULP energy -694567.869951 kJ/mol
# GULP energy per Si atom -12402.997678 kJ/mol
# Density = 1.923329 g / cm^3
# Si number density = 19.277169 Si / 1000 Ang^3
#
#
#
# Elastic Constant Matrix: (Units=GPa)
#
#
# Indices 1 2 3 4 5 6 
#
# 1 67.4534 46.7362 39.6528 0.0000 0.0000 0.0000
# 2 46.7362 127.6804 54.2017 0.0000 0.0000 0.0000
# 3 39.6528 54.2017 98.7654 0.0000 0.0000 0.0000
# 4 0.0000 0.0000 0.0000 37.6252 0.0000 0.0000
# 5 0.0000 0.0000 0.0000 0.0000 60.7685 0.0000
# 6 0.0000 0.0000 0.0000 0.0000 0.0000 24.0277
#
#
#
# Elastic Compliance Matrix: (Units=1/GPa)
#
#
# Indices 1 2 3 4 5 6 
#
# 1 0.022141 -0.005646 -0.005791 0.000000 0.000000 0.000000
# 2 -0.005646 0.011651 -0.004127 0.000000 0.000000 0.000000
# 3 -0.005791 -0.004127 0.014715 0.000000 0.000000 0.000000
# 4 0.000000 0.000000 0.000000 0.026578 0.000000 0.000000
# 5 0.000000 0.000000 0.000000 0.000000 0.016456 0.000000
# 6 0.000000 0.000000 0.000000 0.000000 0.000000 0.041619
#
#
# Mechanical properties :
#
#
# Convention : Reuss Voigt Hill
#
# Bulk Modulus (GPa) = 57.54145 63.89784 60.71964
# Shear Modulus (GPa) = 29.39787 34.70484 32.05136
#
# Velocity S-wave (km/s) = 3.90937 4.24761 4.08200
# Velocity P-wave (km/s) = 7.09168 7.56803 7.33372
#
# Compressibility (1/GPa) = 0.01737878
#
# Stress axis : x y z
#
# Youngs Moduli (GPa) = 45.16433 85.83110 67.95922
#
# Poissons Ratio (x) = 0.48464 0.39353
# Poissons Ratio (y) = 0.25502 0.28046
# Poissons Ratio (z) = 0.26153 0.35422
#
# Static dielectric constant tensor:
#      x y z
#    x 3.469800 0.000000 0.000000 
#    y 0.000000 3.567700 0.000000 
#    z 0.000000 0.000000 3.518990 
# 
# 
# High freq. dielectric constant tensor:
#      x y z
#    x 1.734780 0.000000 0.000000 
#    y 0.000000 1.752730 0.000000 
#    z 0.000000 0.000000 1.758760 
# 
# From -- ./inp_files/4093.got.cif
#   From: 2010.03.12/outbox.cif.g09.slc.cpg/sg49_3_cif.got.tgz:4093.got - 2010.04.14 03:58:27.
