data_PCOD8204043
_publ_section_title
;
Structure prediction by ZEFSAII (Michael W. Deem and Ramdas Pophale) SiO2 
 PCOD8204043
Probable space group: P C C M
;
_chemical_formula_sum "Si O2"
_cell_formula_units_Z 64
_cell_length_a 13.765836
_cell_length_b 12.235803
_cell_length_c 18.212266
_cell_angle_alpha 90.000000
_cell_angle_beta 90.000000
_cell_angle_gamma 90.000000
_cell_volume 3067.602282
_symmetry_space_group_name_H-M "P C C M"
_symmetry_group_IT_number 49
_symmetry_cell_setting 'orthorhombic'
loop_
_space_group_symop_operation_xyz
x,y,z
-x,-y,z
x,-y,1/2-z
-x,y,1/2-z
-x,-y,-z
x,y,-z
-x,y,1/2+z
x,-y,1/2+z
loop_
_atom_site_type_symbol
_atom_site_label
_atom_site_fract_x
_atom_site_fract_y
_atom_site_fract_z
Si Si1 0.075703 0.722993 0.917737
Si Si2 0.358343 0.049725 0.321853
Si Si3 0.488869 0.242933 0.664476
Si Si4 0.338068 0.413407 0.314345
Si Si5 0.135678 0.731954 0.366259
Si Si6 0.330831 0.161641 0.915790
Si Si7 0.822733 0.500599 0.415036
Si Si8 0.202061 0.784814 0.213168
O O1 0.094578 0.593453 0.906110
O O2 0.142043 0.788605 0.861655
O O3 0.964921 0.759075 0.906349
O O4 0.107268 0.756071 0.000000
O O5 0.424257 0.139993 0.363725
O O6 0.261606 0.103375 0.287183
O O7 0.412532 0.000000 0.250000
O O8 0.332477 0.958196 0.380979
O O9 0.500000 0.224673 0.750000
O O10 0.436706 0.360290 0.652232
O O11 0.592326 0.242585 0.623851
O O12 0.362153 0.500000 0.250000
O O13 0.281300 0.462595 0.383597
O O14 0.274986 0.316940 0.278295
O O15 0.224262 0.786772 0.409629
O O16 0.143884 0.601129 0.366423
O O17 0.131002 0.777527 0.283197
O O18 0.360663 0.151493 0.000000
O O19 0.809594 0.467070 0.500000
#
# Coordination Sequence:
#
# PCOD8204043 Si02
#       8
#     8   8   8   8   8   8   8   8
#     4  10  22  38  60  93 130 168 209 260 319 373
#     4  11  21  42  67  88 118 159 206 259 320 380
#     4  11  23  39  63  91 122 165 209 261 314 380
#     4  10  20  38  60  90 125 163 213 257 312 375
#     4  12  21  40  63  90 130 170 213 262 311 379
#     4  12  26  41  65  98 127 163 215 271 328 382
#     4  10  21  37  60  89 127 170 208 255 318 376
#     4  10  21  38  66  94 120 162 216 262 310 386
#
# _framework density 20.863199999999999
#
# number of rings (size 3 to 8) (size 9 to 14) (size 15 to 20)
#    0.000    1.250    3.750    3.000    0.000    3.250 
#    0.000    4.375    0.000    3.000    0.000    0.000 
#    0.000    0.000    0.000    0.000    0.000    0.000 
#
# Total GULP energy -793605.094112 kJ/mol
# GULP energy per Si atom -12400.079595 kJ/mol
# Density = 2.081571 g / cm^3
# Si number density = 20.863200 Si / 1000 Ang^3
#
#
#
# Elastic Constant Matrix: (Units=GPa)
#
#
# Indices 1 2 3 4 5 6 
#
# 1 104.5808 44.9304 41.2062 0.0000 0.0000 0.0000
# 2 44.9304 60.9505 23.0431 0.0000 0.0000 0.0000
# 3 41.2062 23.0431 130.7460 0.0000 0.0000 0.0000
# 4 0.0000 0.0000 0.0000 21.6646 0.0000 0.0000
# 5 0.0000 0.0000 0.0000 0.0000 25.9310 0.0000
# 6 0.0000 0.0000 0.0000 0.0000 0.0000 9.9631
#
#
#
# Elastic Compliance Matrix: (Units=1/GPa)
#
#
# Indices 1 2 3 4 5 6 
#
# 1 0.015003 -0.009934 -0.002978 0.000000 0.000000 0.000000
# 2 -0.009934 0.024156 -0.001126 0.000000 0.000000 0.000000
# 3 -0.002978 -0.001126 0.008785 0.000000 0.000000 0.000000
# 4 0.000000 0.000000 0.000000 0.046158 0.000000 0.000000
# 5 0.000000 0.000000 0.000000 0.000000 0.038564 0.000000
# 6 0.000000 0.000000 0.000000 0.000000 0.000000 0.100370
#
#
# Mechanical properties :
#
#
# Convention : Reuss Voigt Hill
#
# Bulk Modulus (GPa) = 50.33227 57.18185 53.75706
# Shear Modulus (GPa) = 18.67519 23.98493 21.33006
#
# Velocity S-wave (km/s) = 2.99511 3.39430 3.20093
# Velocity P-wave (km/s) = 6.01151 6.54440 6.28360
#
# Compressibility (1/GPa) = 0.01986797
#
# Stress axis : x y z
#
# Youngs Moduli (GPa) = 66.65305 41.39833 113.82556
#
# Poissons Ratio (x) = 0.41125 0.33893
# Poissons Ratio (y) = 0.66213 0.12822
# Poissons Ratio (z) = 0.19847 0.04663
#
# Static dielectric constant tensor:
#      x y z
#    x 3.955930 0.000000 0.000000 
#    y 0.000000 3.832380 0.000000 
#    z 0.000000 0.000000 3.671740 
# 
# 
# High freq. dielectric constant tensor:
#      x y z
#    x 1.817340 0.000000 0.000000 
#    y 0.000000 1.812160 0.000000 
#    z 0.000000 0.000000 1.810720 
# 
# From -- ./inp_files/17939.got.cif
#   From: 2010.03.12/outbox.cif.g09.slc.cpg/sg49_9_cif.got.tgz:17939.got - 2010.04.14 03:58:27.
