data_PCOD8204974
_publ_section_title
;
Structure prediction by ZEFSAII (Michael W. Deem and Ramdas Pophale) SiO2 
 PCOD8204974
Probable space group: P B A N
;
_chemical_formula_sum "Si O2"
_cell_formula_units_Z 52
_cell_length_a 20.135608
_cell_length_b 14.941265
_cell_length_c 8.813779
_cell_angle_alpha 90.000000
_cell_angle_beta 90.000000
_cell_angle_gamma 90.000000
_cell_volume 2651.638237
_symmetry_space_group_name_H-M "P B A N"
_symmetry_group_IT_number 50
_space_group.IT_coordinate_system_code '2'
_symmetry_cell_setting 'orthorhombic'
loop_
_space_group_symop_operation_xyz
x,y,z
1/2-x,1/2-y,z
x,1/2-y,-z
1/2-x,y,-z
-x,-y,-z
1/2+x,1/2+y,-z
-x,1/2+y,z
1/2+x,-y,z
loop_
_atom_site_type_symbol
_atom_site_label
_atom_site_fract_x
_atom_site_fract_y
_atom_site_fract_z
Si Si1 0.068227 0.472456 0.858570
Si Si2 0.397560 0.750000 0.000000
Si Si3 0.824918 0.074821 0.063066
Si Si4 0.841810 0.603961 0.374582
Si Si5 0.801603 0.937602 0.303805
Si Si6 0.987991 0.862585 0.113098
Si Si7 0.358209 0.276213 0.825731
O O1 0.095225 0.446369 0.694500
O O2 0.006833 0.538974 0.825302
O O3 0.126638 0.519201 0.954091
O O4 0.041797 0.382218 0.942877
O O5 0.350581 0.823103 0.081895
O O6 0.446440 0.699222 0.116673
O O7 0.828034 0.029784 0.229995
O O8 0.750000 0.073130 0.000000
O O9 0.775123 0.548187 0.341699
O O10 0.847298 0.599064 0.556638
O O11 0.838514 0.702452 0.300007
O O12 0.805893 0.857208 0.182907
O O13 0.932163 0.813986 0.212681
O O14 0.353686 0.250000 0.000000
#
# Coordination Sequence:
#
# PCOD8204974 Si02
#       7
#     8   4   8   8   8   8   8
#     4  10  19  35  63  83 116 153 199 245 290 357
#     4  10  21  34  60  90 115 144 190 264 290 346
#     4  11  20  37  61  90 114 146 204 249 302 348
#     4  11  22  39  57  84 122 160 188 239 309 359
#     4  11  24  37  57  88 121 154 191 244 302 373
#     4  10  19  35  59  89 114 151 202 248 296 339
#     4  12  21  36  59  87 117 153 197 242 292 355
#
# _framework density 19.610520000000001
#
# number of rings (size 3 to 8) (size 9 to 14) (size 15 to 20)
#    0.000    1.231    5.385    1.154    0.000    1.846 
#    0.000    0.769    3.385    2.769    0.000    0.000 
#    0.000    0.000    0.000    0.000    0.000    0.000 
#
# Total GULP energy -644375.807248 kJ/mol
# GULP energy per Si atom -12391.842447 kJ/mol
# Density = 1.956589 g / cm^3
# Si number density = 19.610520 Si / 1000 Ang^3
#
#
#
# Elastic Constant Matrix: (Units=GPa)
#
#
# Indices 1 2 3 4 5 6 
#
# 1 78.5403 23.0731 35.3372 0.0000 0.0000 0.0000
# 2 23.0731 106.2303 47.4074 0.0000 0.0000 0.0000
# 3 35.3372 47.4074 78.1529 0.0000 0.0000 0.0000
# 4 0.0000 0.0000 0.0000 25.4112 0.0000 0.0000
# 5 0.0000 0.0000 0.0000 0.0000 29.1525 0.0000
# 6 0.0000 0.0000 0.0000 0.0000 0.0000 41.8321
#
#
#
# Elastic Compliance Matrix: (Units=1/GPa)
#
#
# Indices 1 2 3 4 5 6 
#
# 1 0.015993 -0.000338 -0.007026 0.000000 0.000000 0.000000
# 2 -0.000338 0.012915 -0.007681 0.000000 0.000000 0.000000
# 3 -0.007026 -0.007681 0.020632 0.000000 0.000000 0.000000
# 4 0.000000 0.000000 0.000000 0.039353 0.000000 0.000000
# 5 0.000000 0.000000 0.000000 0.000000 0.034302 0.000000
# 6 0.000000 0.000000 0.000000 0.000000 0.000000 0.023905
#
#
# Mechanical properties :
#
#
# Convention : Reuss Voigt Hill
#
# Bulk Modulus (GPa) = 51.41787 52.72878 52.07333
# Shear Modulus (GPa) = 27.22221 29.75289 28.48755
#
# Velocity S-wave (km/s) = 3.72982 3.89934 3.81552
# Velocity P-wave (km/s) = 6.69516 6.87164 6.78398
#
# Compressibility (1/GPa) = 0.01944849
#
# Stress axis : x y z
#
# Youngs Moduli (GPa) = 62.52780 77.43018 48.46890
#
# Poissons Ratio (x) = 0.02618 0.34055
# Poissons Ratio (y) = 0.02114 0.37230
# Poissons Ratio (z) = 0.43933 0.59476
#
# Static dielectric constant tensor:
#      x y z
#    x 3.799240 0.000000 0.000000 
#    y 0.000000 3.816490 0.000000 
#    z 0.000000 0.000000 3.349390 
# 
# 
# High freq. dielectric constant tensor:
#      x y z
#    x 1.777500 0.000000 0.000000 
#    y 0.000000 1.770680 0.000000 
#    z 0.000000 0.000000 1.722850 
# 
# From -- ./inp_files/15299.got.cif
#   From: 2010.03.12/outbox.cif.g09.slc.cpg/sg50_8_cif.got.tgz:15299.got - 2010.04.16 13:23:21.
