data_PCOD8204313
_publ_section_title
;
Structure prediction by ZEFSAII (Michael W. Deem and Ramdas Pophale) SiO2 
 PCOD8204313
Probable space group: P C C M
;
_chemical_formula_sum "Si O2"
_cell_formula_units_Z 56
_cell_length_a 22.073306
_cell_length_b 8.475640
_cell_length_c 13.961860
_cell_angle_alpha 90.000000
_cell_angle_beta 90.000000
_cell_angle_gamma 90.000000
_cell_volume 2612.060097
_symmetry_space_group_name_H-M "P C C M"
_symmetry_group_IT_number 49
_symmetry_cell_setting 'orthorhombic'
loop_
_space_group_symop_operation_xyz
x,y,z
-x,-y,z
x,-y,1/2-z
-x,y,1/2-z
-x,-y,-z
x,y,-z
-x,y,1/2+z
x,-y,1/2+z
loop_
_atom_site_type_symbol
_atom_site_label
_atom_site_fract_x
_atom_site_fract_y
_atom_site_fract_z
Si Si1 0.091142 0.114307 0.111199
Si Si2 0.130597 0.791227 0.198261
Si Si3 0.740908 0.802081 0.611842
Si Si4 0.364687 0.676364 0.223995
Si Si5 0.556704 0.101136 0.107196
Si Si6 0.975831 0.674779 0.605487
Si Si7 0.673632 0.110214 0.394416
O O1 0.138694 0.190271 0.187032
O O2 0.025873 0.192031 0.133484
O O3 0.095374 0.931251 0.139837
O O4 0.110393 0.142098 0.000000
O O5 0.196610 0.752132 0.159849
O O6 0.081377 0.656815 0.177176
O O7 0.747848 0.781572 0.500000
O O8 0.687752 0.682986 0.644063
O O9 0.725041 0.984362 0.638150
O O10 0.384090 0.500000 0.250000
O O11 0.425381 0.762195 0.183462
O O12 0.334172 0.752846 0.317816
O O13 0.500000 0.000000 0.146112
O O14 0.611562 0.982548 0.099477
O O15 0.542949 0.170844 0.000000
O O16 0.952391 0.719709 0.500000
O O17 0.000000 0.500000 0.606432
O O18 0.688931 0.180621 0.500000
#
# Coordination Sequence:
#
# PCOD8204313 Si02
#       7
#     8   8   8   8   8   8   8
#     4  10  22  37  57  85 114 148 198 256 317 384
#     4  11  22  37  62  86 113 153 206 267 317 371
#     4  10  21  40  63  87 117 162 217 268 312 373
#     4  11  23  38  60  93 134 169 204 257 323 375
#     4   9  18  37  66  94 123 167 218 261 300 356
#     4  10  21  39  59  84 119 156 195 250 329 403
#     4   9  20  37  60  87 122 166 213 257 301 359
#
# _framework density 21.439018000000001
#
# number of rings (size 3 to 8) (size 9 to 14) (size 15 to 20)
#    0.000    2.000    0.000    5.143    4.000    5.714 
#    2.571    1.429    0.000    2.571    0.000    0.000 
#    0.000    0.000    0.000    0.000    0.000    0.000 
#
# Total GULP energy -693813.969870 kJ/mol
# GULP energy per Si atom -12389.535176 kJ/mol
# Density = 2.139022 g / cm^3
# Si number density = 21.439018 Si / 1000 Ang^3
#
#
#
# Elastic Constant Matrix: (Units=GPa)
#
#
# Indices 1 2 3 4 5 6 
#
# 1 106.4461 31.3234 45.9440 0.0000 0.0000 0.0000
# 2 31.3234 55.5031 33.5498 0.0000 0.0000 0.0000
# 3 45.9440 33.5498 146.2099 0.0000 0.0000 0.0000
# 4 0.0000 0.0000 0.0000 24.3397 0.0000 0.0000
# 5 0.0000 0.0000 0.0000 0.0000 30.0142 0.0000
# 6 0.0000 0.0000 0.0000 0.0000 0.0000 17.0930
#
#
#
# Elastic Compliance Matrix: (Units=1/GPa)
#
#
# Indices 1 2 3 4 5 6 
#
# 1 0.012052 -0.005239 -0.002585 0.000000 0.000000 0.000000
# 2 -0.005239 0.023196 -0.003676 0.000000 0.000000 0.000000
# 3 -0.002585 -0.003676 0.008495 0.000000 0.000000 0.000000
# 4 0.000000 0.000000 0.000000 0.041085 0.000000 0.000000
# 5 0.000000 0.000000 0.000000 0.000000 0.033318 0.000000
# 6 0.000000 0.000000 0.000000 0.000000 0.000000 0.058503
#
#
# Mechanical properties :
#
#
# Convention : Reuss Voigt Hill
#
# Bulk Modulus (GPa) = 48.21013 58.86595 53.53804
# Shear Modulus (GPa) = 24.20561 27.44552 25.82557
#
# Velocity S-wave (km/s) = 3.36377 3.58182 3.47451
# Velocity P-wave (km/s) = 6.13372 6.68004 6.41270
#
# Compressibility (1/GPa) = 0.02074253
#
# Stress axis : x y z
#
# Youngs Moduli (GPa) = 82.97535 43.11109 117.71170
#
# Poissons Ratio (x) = 0.22586 0.30428
# Poissons Ratio (y) = 0.43471 0.43275
# Poissons Ratio (z) = 0.21448 0.15849
#
# Static dielectric constant tensor:
#      x y z
#    x 3.893110 0.000000 0.000000 
#    y 0.000000 3.678510 0.000000 
#    z 0.000000 0.000000 4.472450 
# 
# 
# High freq. dielectric constant tensor:
#      x y z
#    x 1.831760 0.000000 0.000000 
#    y 0.000000 1.804220 0.000000 
#    z 0.000000 0.000000 1.866600 
# 
# From -- ./inp_files/14394.got.cif
#   From: 2010.03.12/outbox.cif.g09.slc.cpg/sg49_8_cif.got.tgz:14394.got - 2010.04.14 03:58:27.
