data_PCOD8204626
_publ_section_title
;
Structure prediction by ZEFSAII (Michael W. Deem and Ramdas Pophale) SiO2 
 PCOD8204626
Probable space group: P C C M
;
_chemical_formula_sum "Si O2"
_cell_formula_units_Z 48
_cell_length_a 30.591974
_cell_length_b 9.705196
_cell_length_c 8.730569
_cell_angle_alpha 90.000000
_cell_angle_beta 90.000000
_cell_angle_gamma 90.000000
_cell_volume 2592.115572
_symmetry_space_group_name_H-M "P C C M"
_symmetry_group_IT_number 49
_symmetry_cell_setting 'orthorhombic'
loop_
_space_group_symop_operation_xyz
x,y,z
-x,-y,z
x,-y,1/2-z
-x,y,1/2-z
-x,-y,-z
x,y,-z
-x,y,1/2+z
x,-y,1/2+z
loop_
_atom_site_type_symbol
_atom_site_label
_atom_site_fract_x
_atom_site_fract_y
_atom_site_fract_z
Si Si1 0.952092 0.856452 0.816814
Si Si2 0.541998 0.650547 0.678756
Si Si3 0.192321 0.143553 0.679482
Si Si4 0.362441 0.648832 0.820286
Si Si5 0.290543 0.856136 0.181434
Si Si6 0.116754 0.651736 0.817884
O O1 0.923608 0.728513 0.760603
O O2 0.000000 0.832349 0.750000
O O3 0.932768 0.000000 0.750000
O O4 0.953324 0.863497 0.000000
O O5 0.542653 0.500000 0.750000
O O6 0.500000 0.732888 0.750000
O O7 0.534288 0.639944 0.500000
O O8 0.589644 0.716080 0.716973
O O9 0.191397 0.121549 0.500000
O O10 0.241311 0.180402 0.736365
O O11 0.160866 0.267809 0.729172
O O12 0.175673 0.000000 0.750000
O O13 0.356725 0.500000 0.750000
O O14 0.324258 0.744224 0.751809
O O15 0.356778 0.631966 0.000000
O O16 0.305755 0.000000 0.250000
O O17 0.293336 0.864364 0.000000
O O18 0.120323 0.500000 0.750000
O O19 0.109957 0.646320 0.000000
#
# Coordination Sequence:
#
# PCOD8204626 Si02
#       6
#     8   8   8   8   8   8
#     4  11  22  39  62  87 113 145 183 223 262 307
#     4   9  15  24  39  61  88 120 154 195 240 288
#     4   9  19  35  56  77 101 133 172 212 253 301
#     4   9  18  30  46  69  98 126 159 201 248 296
#     4   9  18  34  52  73  99 130 166 207 250 299
#     4  11  23  38  55  81 113 145 178 217 264 313
#
# _framework density 18.517693000000001
#
# number of rings (size 3 to 8) (size 9 to 14) (size 15 to 20)
#    0.000    2.333    0.000    4.000    0.000    5.000 
#    0.000    1.667    0.000    0.500    0.000    3.500 
#    0.000    0.000    0.000    0.000    0.000    0.000 
#
# Total GULP energy -594961.001066 kJ/mol
# GULP energy per Si atom -12395.020856 kJ/mol
# Density = 1.847555 g / cm^3
# Si number density = 18.517693 Si / 1000 Ang^3
#
#
#
# Elastic Constant Matrix: (Units=GPa)
#
#
# Indices 1 2 3 4 5 6 
#
# 1 136.2580 87.3683 51.2457 0.0000 0.0000 0.0000
# 2 87.3683 130.2566 44.7888 0.0000 0.0000 0.0000
# 3 51.2457 44.7888 77.6715 0.0000 0.0000 0.0000
# 4 0.0000 0.0000 0.0000 28.3590 0.0000 0.0000
# 5 0.0000 0.0000 0.0000 0.0000 24.9534 0.0000
# 6 0.0000 0.0000 0.0000 0.0000 0.0000 31.2277
#
#
#
# Elastic Compliance Matrix: (Units=1/GPa)
#
#
# Indices 1 2 3 4 5 6 
#
# 1 0.014197 -0.007860 -0.004834 0.000000 0.000000 0.000000
# 2 -0.007860 0.013928 -0.002845 0.000000 0.000000 0.000000
# 3 -0.004834 -0.002845 0.017705 0.000000 0.000000 0.000000
# 4 0.000000 0.000000 0.000000 0.035262 0.000000 0.000000
# 5 0.000000 0.000000 0.000000 0.000000 0.040075 0.000000
# 6 0.000000 0.000000 0.000000 0.000000 0.000000 0.032023
#
#
# Mechanical properties :
#
#
# Convention : Reuss Voigt Hill
#
# Bulk Modulus (GPa) = 67.79646 78.99910 73.39778
# Shear Modulus (GPa) = 26.42897 27.62692 27.02795
#
# Velocity S-wave (km/s) = 3.78197 3.86673 3.82458
# Velocity P-wave (km/s) = 7.46741 7.91767 7.69583
#
# Compressibility (1/GPa) = 0.01475003
#
# Stress axis : x y z
#
# Youngs Moduli (GPa) = 70.43636 71.79906 56.48104
#
# Poissons Ratio (x) = 0.56437 0.27305
# Poissons Ratio (y) = 0.55365 0.16071
# Poissons Ratio (z) = 0.34051 0.20429
#
# Static dielectric constant tensor:
#      x y z
#    x 4.222320 0.000000 0.000000 
#    y 0.000000 3.196920 0.000000 
#    z 0.000000 0.000000 3.407830 
# 
# 
# High freq. dielectric constant tensor:
#      x y z
#    x 1.740320 0.000000 0.000000 
#    y 0.000000 1.689170 0.000000 
#    z 0.000000 0.000000 1.722400 
# 
# From -- ./inp_files/2038.got.cif
#   From: 2010.03.12/outbox.cif.g09.slc.cpg/sg49_2_cif.got.tgz:2038.got - 2010.04.14 03:58:27.
