data_PCOD8204589
_publ_section_title
;
Structure prediction by ZEFSAII (Michael W. Deem and Ramdas Pophale) SiO2 
 PCOD8204589
Probable space group: P C C M
;
_chemical_formula_sum "Si O2"
_cell_formula_units_Z 56
_cell_length_a 14.488561
_cell_length_b 11.457251
_cell_length_c 16.830580
_cell_angle_alpha 90.000000
_cell_angle_beta 90.000000
_cell_angle_gamma 90.000000
_cell_volume 2793.860796
_symmetry_space_group_name_H-M "P C C M"
_symmetry_group_IT_number 49
_symmetry_cell_setting 'orthorhombic'
loop_
_space_group_symop_operation_xyz
x,y,z
-x,-y,z
x,-y,1/2-z
-x,y,1/2-z
-x,-y,-z
x,y,-z
-x,y,1/2+z
x,-y,1/2+z
loop_
_atom_site_type_symbol
_atom_site_label
_atom_site_fract_x
_atom_site_fract_y
_atom_site_fract_z
Si Si1 0.704900 0.532164 0.341150
Si Si2 0.331374 0.701756 0.591179
Si Si3 0.474661 0.323886 0.660219
Si Si4 0.900612 0.042313 0.094305
Si Si5 0.808651 0.731703 0.412307
Si Si6 0.621565 0.126227 0.913359
Si Si7 0.278091 0.062253 0.835386
O O1 0.700231 0.500000 0.250000
O O2 0.726450 0.416327 0.392303
O O3 0.607315 0.590041 0.368252
O O4 0.789835 0.622064 0.354900
O O5 0.315605 0.743027 0.500000
O O6 0.436586 0.661055 0.604876
O O7 0.299395 0.799258 0.656329
O O8 0.500000 0.352806 0.750000
O O9 0.442270 0.189720 0.651440
O O10 0.888103 0.179437 0.119353
O O11 0.825382 0.958485 0.134334
O O12 0.890063 0.029993 0.000000
O O13 0.000000 0.000000 0.124599
O O14 0.833314 0.683405 0.500000
O O15 0.719941 0.812937 0.416926
O O16 0.640816 0.993156 0.889322
O O17 0.573366 0.129803 0.000000
O O18 0.288065 0.000000 0.750000
#
# Coordination Sequence:
#
# PCOD8204589 Si02
#       7
#     8   8   8   8   8   8   8
#     4  11  22  35  57  80 118 161 205 250 298 356
#     4  12  25  37  55  84 118 159 207 259 309 362
#     4  11  21  36  55  80 112 150 204 258 305 354
#     4   9  18  36  65  94 119 149 187 237 295 366
#     4   8  16  32  56  84 114 149 195 239 292 357
#     4   9  18  35  56  75 106 149 192 240 299 360
#     4  11  23  38  58  84 119 151 192 244 311 374
#
# _framework density 20.043949000000001
#
# number of rings (size 3 to 8) (size 9 to 14) (size 15 to 20)
#    0.000    1.857    1.429    4.286    4.000    3.143 
#    0.000    2.857    0.000    0.857    0.000    5.000 
#    0.000    0.000    0.000    0.000    0.000    0.000 
#
# Total GULP energy -693999.226565 kJ/mol
# GULP energy per Si atom -12392.843332 kJ/mol
# Density = 1.999833 g / cm^3
# Si number density = 20.043949 Si / 1000 Ang^3
#
#
#
# Elastic Constant Matrix: (Units=GPa)
#
#
# Indices 1 2 3 4 5 6 
#
# 1 63.5309 52.5576 25.1335 0.0000 0.0000 0.0000
# 2 52.5576 146.1990 36.7911 0.0000 0.0000 0.0000
# 3 25.1335 36.7911 76.6171 0.0000 0.0000 0.0000
# 4 0.0000 0.0000 0.0000 28.0458 0.0000 0.0000
# 5 0.0000 0.0000 0.0000 0.0000 17.6830 0.0000
# 6 0.0000 0.0000 0.0000 0.0000 0.0000 26.5415
#
#
#
# Elastic Compliance Matrix: (Units=1/GPa)
#
#
# Indices 1 2 3 4 5 6 
#
# 1 0.023512 -0.007406 -0.004156 0.000000 0.000000 0.000000
# 2 -0.007406 0.010113 -0.002427 0.000000 0.000000 0.000000
# 3 -0.004156 -0.002427 0.015581 0.000000 0.000000 0.000000
# 4 0.000000 0.000000 0.000000 0.035656 0.000000 0.000000
# 5 0.000000 0.000000 0.000000 0.000000 0.056552 0.000000
# 6 0.000000 0.000000 0.000000 0.000000 0.000000 0.037677
#
#
# Mechanical properties :
#
#
# Convention : Reuss Voigt Hill
#
# Bulk Modulus (GPa) = 47.11020 57.25682 52.18351
# Shear Modulus (GPa) = 23.34872 25.91171 24.63021
#
# Velocity S-wave (km/s) = 3.41673 3.59938 3.50924
# Velocity P-wave (km/s) = 6.25459 6.77508 6.52003
#
# Compressibility (1/GPa) = 0.02122683
#
# Stress axis : x y z
#
# Youngs Moduli (GPa) = 42.53189 98.88038 64.18218
#
# Poissons Ratio (x) = 0.73235 0.26676
# Poissons Ratio (y) = 0.31501 0.15575
# Poissons Ratio (z) = 0.17677 0.23996
#
# Static dielectric constant tensor:
#      x y z
#    x 3.498250 0.000000 0.000000 
#    y 0.000000 3.934520 0.000000 
#    z 0.000000 0.000000 3.699990 
# 
# 
# High freq. dielectric constant tensor:
#      x y z
#    x 1.739240 0.000000 0.000000 
#    y 0.000000 1.790260 0.000000 
#    z 0.000000 0.000000 1.778440 
# 
# From -- ./inp_files/13545.got.cif
#   From: 2010.03.12/outbox.cif.g09.slc.cpg/sg49_7_cif.got.tgz:13545.got - 2010.04.14 03:58:27.
