data_PCOD8204287
_publ_section_title
;
Structure prediction by ZEFSAII (Michael W. Deem and Ramdas Pophale) SiO2 
 PCOD8204287
Probable space group: P C C M
;
_chemical_formula_sum "Si O2"
_cell_formula_units_Z 26
_cell_length_a 9.697412
_cell_length_b 15.372887
_cell_length_c 9.222754
_cell_angle_alpha 90.000000
_cell_angle_beta 90.000000
_cell_angle_gamma 90.000000
_cell_volume 1374.902517
_symmetry_space_group_name_H-M "P C C M"
_symmetry_group_IT_number 49
_symmetry_cell_setting 'orthorhombic'
loop_
_space_group_symop_operation_xyz
x,y,z
-x,-y,z
x,-y,1/2-z
-x,y,1/2-z
-x,-y,-z
x,y,-z
-x,y,1/2+z
x,-y,1/2+z
loop_
_atom_site_type_symbol
_atom_site_label
_atom_site_fract_x
_atom_site_fract_y
_atom_site_fract_z
Si Si1 0.000000 0.500000 0.250000
Si Si2 0.142477 0.912656 0.672972
Si Si3 0.266497 0.578361 0.339503
Si Si4 0.360348 0.235484 0.829869
O O1 0.900094 0.436667 0.343724
O O2 0.122359 0.926433 0.500000
O O3 0.248736 0.836802 0.708513
O O4 0.000000 0.886349 0.750000
O O5 0.198973 0.000000 0.750000
O O6 0.338362 0.500000 0.250000
O O7 0.326729 0.573856 0.500000
O O8 0.303786 0.671770 0.270826
O O9 0.500000 0.209959 0.750000
O O10 0.388788 0.239185 0.000000
#
# Coordination Sequence:
#
# PCOD8204287 Si02
#       4
#     2   8   8   8
#     4   8  18  32  56  76 112 140 188 224 282 316
#     4  10  21  38  61  87 115 144 186 233 283 336
#     4   9  19  34  54  79 109 143 185 228 275 327
#     4  10  23  40  56  82 115 152 191 230 278 339
#
# _framework density 18.910430999999999
#
# number of rings (size 3 to 8) (size 9 to 14) (size 15 to 20)
#    0.923    1.538    0.000    2.308    2.154    4.923 
#    0.000    6.154    0.000    0.000    0.000    0.000 
#    0.000    0.000    0.000    0.000    0.000    0.000 
#
# Total GULP energy -322177.087490 kJ/mol
# GULP energy per Si atom -12391.426442 kJ/mol
# Density = 1.886739 g / cm^3
# Si number density = 18.910431 Si / 1000 Ang^3
#
#
#
# Elastic Constant Matrix: (Units=GPa)
#
#
# Indices 1 2 3 4 5 6 
#
# 1 88.1733 81.9152 45.3365 0.0000 0.0000 0.0000
# 2 81.9152 180.0961 68.7726 0.0000 0.0000 0.0000
# 3 45.3365 68.7726 86.0188 0.0000 0.0000 0.0000
# 4 0.0000 0.0000 0.0000 18.4512 0.0000 0.0000
# 5 0.0000 0.0000 0.0000 0.0000 30.7788 0.0000
# 6 0.0000 0.0000 0.0000 0.0000 0.0000 2.2766
#
#
#
# Elastic Compliance Matrix: (Units=1/GPa)
#
#
# Indices 1 2 3 4 5 6 
#
# 1 0.021005 -0.007667 -0.004941 0.000000 0.000000 0.000000
# 2 -0.007667 0.010791 -0.004587 0.000000 0.000000 0.000000
# 3 -0.004941 -0.004587 0.017897 0.000000 0.000000 0.000000
# 4 0.000000 0.000000 0.000000 0.054197 0.000000 0.000000
# 5 0.000000 0.000000 0.000000 0.000000 0.032490 0.000000
# 6 0.000000 0.000000 0.000000 0.000000 0.000000 0.439252
#
#
# Mechanical properties :
#
#
# Convention : Reuss Voigt Hill
#
# Bulk Modulus (GPa) = 65.34495 82.92630 74.13562
# Shear Modulus (GPa) = 8.12847 20.85224 14.49035
#
# Velocity S-wave (km/s) = 2.07551 3.32427 2.77115
# Velocity P-wave (km/s) = 6.35403 7.66040 7.03759
#
# Compressibility (1/GPa) = 0.01530340
#
# Stress axis : x y z
#
# Youngs Moduli (GPa) = 47.60872 92.66566 55.87654
#
# Poissons Ratio (x) = 0.71048 0.27607
# Poissons Ratio (y) = 0.36502 0.25630
# Poissons Ratio (z) = 0.23522 0.42505
#
# Static dielectric constant tensor:
#      x y z
#    x 3.244250 0.000000 0.000000 
#    y 0.000000 3.610850 0.000000 
#    z 0.000000 0.000000 3.361220 
# 
# 
# High freq. dielectric constant tensor:
#      x y z
#    x 1.725110 0.000000 0.000000 
#    y 0.000000 1.743050 0.000000 
#    z 0.000000 0.000000 1.731670 
# 
# From -- ./inp_files/1201.got.cif
#   From: 2010.03.12/outbox.cif.g09.slc.cpg/sg49_1_cif.got.tgz:1201.got - 2010.04.14 03:58:27.
