data_PCOD8204093
_publ_section_title
;
Structure prediction by ZEFSAII (Michael W. Deem and Ramdas Pophale) SiO2 
 PCOD8204093
Probable space group: P C C M
;
_chemical_formula_sum "Si O2"
_cell_formula_units_Z 48
_cell_length_a 9.091498
_cell_length_b 17.597870
_cell_length_c 14.152699
_cell_angle_alpha 90.000000
_cell_angle_beta 90.000000
_cell_angle_gamma 90.000000
_cell_volume 2264.304464
_symmetry_space_group_name_H-M "P C C M"
_symmetry_group_IT_number 49
_symmetry_cell_setting 'orthorhombic'
loop_
_space_group_symop_operation_xyz
x,y,z
-x,-y,z
x,-y,1/2-z
-x,y,1/2-z
-x,-y,-z
x,y,-z
-x,y,1/2+z
x,-y,1/2+z
loop_
_atom_site_type_symbol
_atom_site_label
_atom_site_fract_x
_atom_site_fract_y
_atom_site_fract_z
Si Si1 0.341061 0.913055 0.245903
Si Si2 0.170593 0.320664 0.266643
Si Si3 0.818698 0.178124 0.893436
Si Si4 0.639559 0.608041 0.890293
Si Si5 0.687534 0.434521 0.108845
Si Si6 0.087820 0.075756 0.892819
O O1 0.500000 0.870112 0.250000
O O2 0.274575 0.893348 0.143570
O O3 0.225792 0.896872 0.330382
O O4 0.376340 0.000000 0.250000
O O5 0.223068 0.246785 0.323693
O O6 0.268616 0.331181 0.171666
O O7 0.186026 0.395049 0.331190
O O8 0.000000 0.310638 0.250000
O O9 0.987315 0.151188 0.889656
O O10 0.772582 0.199897 0.000000
O O11 0.466520 0.607050 0.865194
O O12 0.693277 0.523187 0.866600
O O13 0.665244 0.628422 0.000000
O O14 0.722520 0.422457 0.000000
O O15 0.139797 0.058757 0.000000
O O16 0.000000 0.000000 0.854658
#
# Coordination Sequence:
#
# PCOD8204093 Si02
#       6
#     8   8   8   8   8   8
#     4  11  23  38  63  98 129 153 191 255 314 366
#     4  12  24  37  57  89 128 165 200 257 318 374
#     4  11  25  44  63  87 121 167 211 254 306 377
#     4   9  20  39  64  90 120 164 219 261 300 365
#     4   9  19  39  64  90 121 165 216 261 303 367
#     4  10  20  39  67  90 116 163 211 245 293 371
#
# _framework density 21.198563
#
# number of rings (size 3 to 8) (size 9 to 14) (size 15 to 20)
#    0.000    1.667    1.667    4.000    0.000    6.000 
#    0.000    4.167    0.000    0.000    0.000    0.000 
#    0.000    0.000    0.000    0.000    0.000    0.000 
#
# Total GULP energy -594892.957602 kJ/mol
# GULP energy per Si atom -12393.603283 kJ/mol
# Density = 2.115031 g / cm^3
# Si number density = 21.198563 Si / 1000 Ang^3
#
#
#
# Elastic Constant Matrix: (Units=GPa)
#
#
# Indices 1 2 3 4 5 6 
#
# 1 92.9755 20.5235 61.5288 0.0000 0.0000 0.0000
# 2 20.5235 72.8146 54.0214 0.0000 0.0000 0.0000
# 3 61.5288 54.0214 134.1428 0.0000 0.0000 0.0000
# 4 0.0000 0.0000 0.0000 42.6500 0.0000 0.0000
# 5 0.0000 0.0000 0.0000 0.0000 12.4542 0.0000
# 6 0.0000 0.0000 0.0000 0.0000 0.0000 18.3680
#
#
#
# Elastic Compliance Matrix: (Units=1/GPa)
#
#
# Indices 1 2 3 4 5 6 
#
# 1 0.015528 0.001294 -0.007644 0.000000 0.000000 0.000000
# 2 0.001294 0.019693 -0.008524 0.000000 0.000000 0.000000
# 3 -0.007644 -0.008524 0.014394 0.000000 0.000000 0.000000
# 4 0.000000 0.000000 0.000000 0.023447 0.000000 0.000000
# 5 0.000000 0.000000 0.000000 0.000000 0.080294 0.000000
# 6 0.000000 0.000000 0.000000 0.000000 0.000000 0.054442
#
#
# Mechanical properties :
#
#
# Convention : Reuss Voigt Hill
#
# Bulk Modulus (GPa) = 50.33442 63.56447 56.94945
# Shear Modulus (GPa) = 20.47774 25.61841 23.04807
#
# Velocity S-wave (km/s) = 3.11142 3.48012 3.30092
# Velocity P-wave (km/s) = 6.05836 6.79696 6.43826
#
# Compressibility (1/GPa) = 0.01986712
#
# Stress axis : x y z
#
# Youngs Moduli (GPa) = 64.39883 50.77982 69.47559
#
# Poissons Ratio (x) = -0.06571 0.53105
# Poissons Ratio (y) = -0.08334 0.59222
# Poissons Ratio (z) = 0.49224 0.43286
#
# Static dielectric constant tensor:
#      x y z
#    x 3.844320 0.000000 0.000000 
#    y 0.000000 3.690600 0.000000 
#    z 0.000000 0.000000 3.959320 
# 
# 
# High freq. dielectric constant tensor:
#      x y z
#    x 1.820300 0.000000 0.000000 
#    y 0.000000 1.821100 0.000000 
#    z 0.000000 0.000000 1.842640 
# 
# From -- ./inp_files/11785.got.cif
#   From: 2010.03.12/outbox.cif.g09.slc.cpg/sg49_6_cif.got.tgz:11785.got - 2010.04.14 03:58:27.
