data_PCOD8204609
_publ_section_title
;
Structure prediction by ZEFSAII (Michael W. Deem and Ramdas Pophale) SiO2 
 PCOD8204609
Probable space group: P C C M
;
_chemical_formula_sum "Si O2"
_cell_formula_units_Z 64
_cell_length_a 16.379956
_cell_length_b 10.089552
_cell_length_c 21.689860
_cell_angle_alpha 90.000000
_cell_angle_beta 90.000000
_cell_angle_gamma 90.000000
_cell_volume 3584.605465
_symmetry_space_group_name_H-M "P C C M"
_symmetry_group_IT_number 49
_symmetry_cell_setting 'orthorhombic'
loop_
_space_group_symop_operation_xyz
x,y,z
-x,-y,z
x,-y,1/2-z
-x,y,1/2-z
-x,-y,-z
x,y,-z
-x,y,1/2+z
x,-y,1/2+z
loop_
_atom_site_type_symbol
_atom_site_label
_atom_site_fract_x
_atom_site_fract_y
_atom_site_fract_z
Si Si1 0.594021 0.502070 0.929225
Si Si2 0.909308 0.216445 0.751145
Si Si3 0.331244 0.247195 0.623293
Si Si4 0.341653 0.743485 0.359876
Si Si5 0.493157 0.854462 0.822292
Si Si6 0.908328 0.001977 0.147844
Si Si7 0.748069 0.349555 0.242246
Si Si8 0.748683 0.016104 0.427775
O O1 0.500000 0.500000 0.903213
O O2 0.637832 0.359347 0.923855
O O3 0.656392 0.603344 0.895282
O O4 0.590313 0.545600 0.000000
O O5 0.894052 0.136688 0.814274
O O6 0.844712 0.334973 0.745563
O O7 0.000000 0.278259 0.750000
O O8 0.897210 0.120523 0.693451
O O9 0.406625 0.206022 0.664401
O O10 0.266598 0.301913 0.672626
O O11 0.295415 0.122789 0.586460
O O12 0.437084 0.769819 0.353771
O O13 0.300616 0.736344 0.292639
O O14 0.296902 0.860580 0.396420
O O15 0.500000 0.857928 0.750000
O O16 0.500000 0.000000 0.851136
O O17 0.842617 0.991317 0.093581
O O18 0.000000 0.000000 0.119483
O O19 0.720358 0.500000 0.250000
O O20 0.747509 0.041684 0.500000
#
# Coordination Sequence:
#
# PCOD8204609 Si02
#       8
#     8   8   8   8   8   8   8   8
#     4  11  24  41  59  77 113 165 202 242 291 337
#     4   9  18  35  60  89 117 145 180 234 298 353
#     4  12  23  39  58  87 116 145 204 244 289 349
#     4  12  23  39  58  87 116 145 204 244 289 349
#     4  11  22  35  56  85 115 147 183 244 308 347
#     4   9  18  35  62  89 113 145 187 236 292 351
#     4  12  23  35  61  89 114 151 188 243 297 348
#     4  12  25  39  59  85 118 158 198 242 282 342
#
# _framework density 17.854126999999998
#
# number of rings (size 3 to 8) (size 9 to 14) (size 15 to 20)
#    0.000    1.000    7.500    1.500    0.000    1.000 
#    0.000    2.500    0.000    0.000    0.000    0.000 
#    0.000    8.000    0.000    0.000    0.000    0.000 
#
# Total GULP energy -793485.424568 kJ/mol
# GULP energy per Si atom -12398.209759 kJ/mol
# Density = 1.781349 g / cm^3
# Si number density = 17.854127 Si / 1000 Ang^3
#
#
#
# Elastic Constant Matrix: (Units=GPa)
#
#
# Indices 1 2 3 4 5 6 
#
# 1 107.0624 26.5243 22.4403 0.0000 0.0000 0.0000
# 2 26.5243 84.7301 18.8359 0.0000 0.0000 0.0000
# 3 22.4403 18.8359 72.0416 0.0000 0.0000 0.0000
# 4 0.0000 0.0000 0.0000 86.8538 0.0000 0.0000
# 5 0.0000 0.0000 0.0000 0.0000 26.9819 0.0000
# 6 0.0000 0.0000 0.0000 0.0000 0.0000 28.5647
#
#
#
# Elastic Compliance Matrix: (Units=1/GPa)
#
#
# Indices 1 2 3 4 5 6 
#
# 1 0.010557 -0.002733 -0.002574 0.000000 0.000000 0.000000
# 2 -0.002733 0.013238 -0.002610 0.000000 0.000000 0.000000
# 3 -0.002574 -0.002610 0.015365 0.000000 0.000000 0.000000
# 4 0.000000 0.000000 0.000000 0.011514 0.000000 0.000000
# 5 0.000000 0.000000 0.000000 0.000000 0.037062 0.000000
# 6 0.000000 0.000000 0.000000 0.000000 0.000000 0.035008
#
#
# Mechanical properties :
#
#
# Convention : Reuss Voigt Hill
#
# Bulk Modulus (GPa) = 42.86920 44.38167 43.62544
# Shear Modulus (GPa) = 34.16428 41.54900 37.85664
#
# Velocity S-wave (km/s) = 4.37913 4.82927 4.60970
# Velocity P-wave (km/s) = 7.04500 7.48383 7.26773
#
# Compressibility (1/GPa) = 0.02332677
#
# Stress axis : x y z
#
# Youngs Moduli (GPa) = 94.72555 75.54124 65.08293
#
# Poissons Ratio (x) = 0.20642 0.16752
# Poissons Ratio (y) = 0.25884 0.16986
# Poissons Ratio (z) = 0.24381 0.19716
#
# Static dielectric constant tensor:
#      x y z
#    x 3.087710 0.000000 0.000000 
#    y 0.000000 3.294540 0.000000 
#    z 0.000000 0.000000 3.093630 
# 
# 
# High freq. dielectric constant tensor:
#      x y z
#    x 1.698860 0.000000 0.000000 
#    y 0.000000 1.691100 0.000000 
#    z 0.000000 0.000000 1.677760 
# 
# From -- ./inp_files/21065.got.cif
#   From: 2010.03.12/outbox.cif.g09.slc.cpg/sg49_11_cif.got.tgz:21065.got - 2010.04.14 03:58:27.
