data_PCOD8204664
_publ_section_title
;
Structure prediction by ZEFSAII (Michael W. Deem and Ramdas Pophale) SiO2 
 PCOD8204664
Probable space group: P C C M
;
_chemical_formula_sum "Si O2"
_cell_formula_units_Z 64
_cell_length_a 8.845444
_cell_length_b 19.835900
_cell_length_c 18.476688
_cell_angle_alpha 90.000000
_cell_angle_beta 90.000000
_cell_angle_gamma 90.000000
_cell_volume 3241.870577
_symmetry_space_group_name_H-M "P C C M"
_symmetry_group_IT_number 49
_symmetry_cell_setting 'orthorhombic'
loop_
_space_group_symop_operation_xyz
x,y,z
-x,-y,z
x,-y,1/2-z
-x,y,1/2-z
-x,-y,-z
x,y,-z
-x,y,1/2+z
x,-y,1/2+z
loop_
_atom_site_type_symbol
_atom_site_label
_atom_site_fract_x
_atom_site_fract_y
_atom_site_fract_z
Si Si1 0.298187 0.805503 0.315810
Si Si2 0.816638 0.703655 0.585745
Si Si3 0.867828 0.908894 0.084235
Si Si4 0.361058 0.825526 0.154644
Si Si5 0.653963 0.580548 0.660879
Si Si6 0.682920 0.428944 0.331726
Si Si7 0.209588 0.943819 0.916666
Si Si8 0.906712 0.319313 0.323577
O O1 0.193429 0.849427 0.367031
O O2 0.299582 0.834772 0.235380
O O3 0.465372 0.803013 0.348682
O O4 0.230962 0.731133 0.308103
O O5 0.815489 0.697965 0.500000
O O6 0.726102 0.769589 0.608951
O O7 0.753428 0.635171 0.620129
O O8 0.986958 0.711688 0.614539
O O9 0.047048 0.910095 0.096382
O O10 0.792829 0.979061 0.111256
O O11 0.830620 0.895787 0.000000
O O12 0.339180 0.899864 0.121346
O O13 0.480217 0.593253 0.636682
O O14 0.710659 0.505262 0.641670
O O15 0.673339 0.584576 0.746381
O O16 0.827091 0.385750 0.357646
O O17 0.250778 0.945137 0.000000
O O18 0.000000 0.334434 0.250000
#
# Coordination Sequence:
#
# PCOD8204664 Si02
#       8
#     8   8   8   8   8   8   8   8
#     4  11  24  38  60  88 118 155 203 255 298 359
#     4  12  25  40  59  89 124 159 195 248 307 362
#     4   9  20  38  61  88 119 155 201 250 302 364
#     4  11  23  40  59  86 120 158 203 248 302 362
#     4   9  18  37  62  92 118 152 203 244 287 354
#     4   9  18  36  65  90 116 155 202 247 287 343
#     4   9  19  38  61  86 119 161 201 245 302 365
#     4  12  22  39  61  88 119 157 203 250 299 358
#
# _framework density 19.741688
#
# number of rings (size 3 to 8) (size 9 to 14) (size 15 to 20)
#    0.000    1.750    2.500    3.375    0.000    6.000 
#    0.000    8.125    0.000    0.000    0.000    0.000 
#    0.000    0.000    0.000    0.000    0.000    0.000 
#
# Total GULP energy -793459.257841 kJ/mol
# GULP energy per Si atom -12397.800904 kJ/mol
# Density = 1.969676 g / cm^3
# Si number density = 19.741688 Si / 1000 Ang^3
#
#
#
# Elastic Constant Matrix: (Units=GPa)
#
#
# Indices 1 2 3 4 5 6 
#
# 1 72.1016 29.4945 17.8786 0.0000 0.0000 0.0000
# 2 29.4945 81.6159 17.1262 0.0000 0.0000 0.0000
# 3 17.8786 17.1262 57.5656 0.0000 0.0000 0.0000
# 4 0.0000 0.0000 0.0000 25.9302 0.0000 0.0000
# 5 0.0000 0.0000 0.0000 0.0000 23.0338 0.0000
# 6 0.0000 0.0000 0.0000 0.0000 0.0000 35.1168
#
#
#
# Elastic Compliance Matrix: (Units=1/GPa)
#
#
# Indices 1 2 3 4 5 6 
#
# 1 0.016975 -0.005363 -0.003676 0.000000 0.000000 0.000000
# 2 -0.005363 0.014763 -0.002726 0.000000 0.000000 0.000000
# 3 -0.003676 -0.002726 0.019324 0.000000 0.000000 0.000000
# 4 0.000000 0.000000 0.000000 0.038565 0.000000 0.000000
# 5 0.000000 0.000000 0.000000 0.000000 0.043414 0.000000
# 6 0.000000 0.000000 0.000000 0.000000 0.000000 0.028476
#
#
# Mechanical properties :
#
#
# Convention : Reuss Voigt Hill
#
# Bulk Modulus (GPa) = 36.32361 37.80907 37.06634
# Shear Modulus (GPa) = 25.74318 26.60174 26.17246
#
# Velocity S-wave (km/s) = 3.61501 3.67480 3.64503
# Velocity P-wave (km/s) = 5.98864 6.09910 6.04412
#
# Compressibility (1/GPa) = 0.02753031
#
# Stress axis : x y z
#
# Youngs Moduli (GPa) = 58.91099 67.73844 51.74791
#
# Poissons Ratio (x) = 0.36327 0.19025
# Poissons Ratio (y) = 0.31593 0.14109
# Poissons Ratio (z) = 0.21659 0.18468
#
# Static dielectric constant tensor:
#      x y z
#    x 4.034650 0.000000 0.000000 
#    y 0.000000 3.807110 0.000000 
#    z 0.000000 0.000000 3.373200 
# 
# 
# High freq. dielectric constant tensor:
#      x y z
#    x 1.775220 0.000000 0.000000 
#    y 0.000000 1.781180 0.000000 
#    z 0.000000 0.000000 1.744930 
# 
# From -- ./inp_files/16544.got.cif
#   From: 2010.03.12/outbox.cif.g09.slc.cpg/sg49_9_cif.got.tgz:16544.got - 2010.04.14 03:58:27.
