data_PCOD8204895
_publ_section_title
;
Structure prediction by ZEFSAII (Michael W. Deem and Ramdas Pophale) SiO2 
 PCOD8204895
Probable space group: P B A N
;
_chemical_formula_sum "Si O2"
_cell_formula_units_Z 40
_cell_length_a 7.459070
_cell_length_b 23.879469
_cell_length_c 8.618255
_cell_angle_alpha 90.000000
_cell_angle_beta 90.000000
_cell_angle_gamma 90.000000
_cell_volume 1535.071781
_symmetry_space_group_name_H-M "P B A N"
_symmetry_group_IT_number 50
_space_group.IT_coordinate_system_code '2'
_symmetry_cell_setting 'orthorhombic'
loop_
_space_group_symop_operation_xyz
x,y,z
1/2-x,1/2-y,z
x,1/2-y,-z
1/2-x,y,-z
-x,-y,-z
1/2+x,1/2+y,-z
-x,1/2+y,z
1/2+x,-y,z
loop_
_atom_site_type_symbol
_atom_site_label
_atom_site_fract_x
_atom_site_fract_y
_atom_site_fract_z
Si Si1 0.297127 0.513418 0.820949
Si Si2 0.078624 0.590812 0.604978
Si Si3 0.118094 0.080531 0.306858
Si Si4 0.973159 0.313278 0.832895
Si Si5 0.552929 0.312927 0.816917
O O1 0.136029 0.543173 0.725739
O O2 0.305409 0.449413 0.747059
O O3 0.478099 0.547716 0.804215
O O4 0.250000 0.511749 0.000000
O O5 0.250000 0.609929 0.500000
O O6 0.980576 0.643423 0.690134
O O7 0.923172 0.569306 0.487856
O O8 0.101027 0.146426 0.267868
O O9 0.764188 0.327251 0.818652
O O10 0.997800 0.250263 0.768647
O O11 0.029898 0.321056 0.012199
#
# Coordination Sequence:
#
# PCOD8204895 Si02
#       5
#     8   8   8   8   8
#     4  11  22  37  54  76 107 152 188 227 272 337
#     4  10  19  32  51  78 114 143 180 233 284 340
#     4  11  22  36  53  81 114 141 186 232 279 338
#     4   9  17  30  52  78 110 139 176 229 279 341
#     4   9  16  30  51  77 112 139 172 227 296 322
#
# _framework density 26.057410999999998
#
# number of rings (size 3 to 8) (size 9 to 14) (size 15 to 20)
#    0.000    2.000    4.000    3.600    0.000    0.800 
#    0.000    0.000    0.000    0.000    0.000    9.800 
#    0.000   16.000    0.000    0.000    0.000    0.000 
#
# Total GULP energy -495910.023047 kJ/mol
# GULP energy per Si atom -12397.750576 kJ/mol
# Density = 2.599810 g / cm^3
# Si number density = 26.057411 Si / 1000 Ang^3
#
#
#
# Elastic Constant Matrix: (Units=GPa)
#
#
# Indices 1 2 3 4 5 6 
#
# 1 48.2130 -1.1614 -13.1731 0.0000 0.0000 0.0000
# 2 -1.1614 148.7175 55.3671 0.0000 0.0000 0.0000
# 3 -13.1731 55.3671 159.6552 0.0000 0.0000 0.0000
# 4 0.0000 0.0000 0.0000 49.6841 0.0000 0.0000
# 5 0.0000 0.0000 0.0000 0.0000 8.2100 0.0000
# 6 0.0000 0.0000 0.0000 0.0000 0.0000 21.0402
#
#
#
# Elastic Compliance Matrix: (Units=1/GPa)
#
#
# Indices 1 2 3 4 5 6 
#
# 1 0.021260 -0.000559 0.001948 0.000000 0.000000 0.000000
# 2 -0.000559 0.007736 -0.002729 0.000000 0.000000 0.000000
# 3 0.001948 -0.002729 0.007371 0.000000 0.000000 0.000000
# 4 0.000000 0.000000 0.000000 0.020127 0.000000 0.000000
# 5 0.000000 0.000000 0.000000 0.000000 0.121802 0.000000
# 6 0.000000 0.000000 0.000000 0.000000 0.000000 0.047528
#
#
# Mechanical properties :
#
#
# Convention : Reuss Voigt Hill
#
# Bulk Modulus (GPa) = 29.68552 48.73899 39.21225
# Shear Modulus (GPa) = 20.85656 36.82372 28.84014
#
# Velocity S-wave (km/s) = 2.83222 3.76330 3.33046
# Velocity P-wave (km/s) = 4.70238 6.13419 5.46538
#
# Compressibility (1/GPa) = 0.03368646
#
# Stress axis : x y z
#
# Youngs Moduli (GPa) = 47.03648 129.27033 135.67470
#
# Poissons Ratio (x) = 0.07229 -0.26431
# Poissons Ratio (y) = 0.02630 0.37023
# Poissons Ratio (z) = -0.09163 0.35276
#
# Static dielectric constant tensor:
#      x y z
#    x 4.948120 0.000000 0.000000 
#    y 0.000000 4.939210 0.000000 
#    z 0.000000 0.000000 4.792580 
# 
# 
# High freq. dielectric constant tensor:
#      x y z
#    x 2.043280 0.000000 0.000000 
#    y 0.000000 2.049650 0.000000 
#    z 0.000000 0.000000 2.046470 
# 
# From -- ./inp_files/9519.got.cif
#   From: 2010.03.12/outbox.cif.g09.slc.cpg/sg50_5_cif.got.tgz:9519.got - 2010.04.16 13:23:21.
