data_PCOD8204628
_publ_section_title
;
Structure prediction by ZEFSAII (Michael W. Deem and Ramdas Pophale) SiO2 
 PCOD8204628
Probable space group: P C C M
;
_chemical_formula_sum "Si O2"
_cell_formula_units_Z 48
_cell_length_a 9.140882
_cell_length_b 30.796125
_cell_length_c 8.719734
_cell_angle_alpha 90.000000
_cell_angle_beta 90.000000
_cell_angle_gamma 90.000000
_cell_volume 2454.637774
_symmetry_space_group_name_H-M "P C C M"
_symmetry_group_IT_number 49
_symmetry_cell_setting 'orthorhombic'
loop_
_space_group_symop_operation_xyz
x,y,z
-x,-y,z
x,-y,1/2-z
-x,y,1/2-z
-x,-y,-z
x,y,-z
-x,y,1/2+z
x,-y,1/2+z
loop_
_atom_site_type_symbol
_atom_site_label
_atom_site_fract_x
_atom_site_fract_y
_atom_site_fract_z
Si Si1 0.158919 0.218059 0.818769
Si Si2 0.659042 0.136887 0.320065
Si Si3 0.154571 0.380203 0.677680
Si Si4 0.659904 0.041771 0.320756
Si Si5 0.653950 0.546751 0.817912
Si Si6 0.342749 0.294658 0.677456
O O1 0.228350 0.172874 0.757981
O O2 0.261259 0.256941 0.767166
O O3 0.000000 0.224291 0.750000
O O4 0.145252 0.218425 0.000000
O O5 0.500000 0.144545 0.250000
O O6 0.637035 0.141759 0.500000
O O7 0.727418 0.089140 0.279992
O O8 0.137368 0.392781 0.500000
O O9 0.218599 0.420748 0.770076
O O10 0.257907 0.339232 0.700111
O O11 0.000000 0.367713 0.750000
O O12 0.500000 0.041892 0.250000
O O13 0.650296 0.034585 0.500000
O O14 0.747624 0.000000 0.250000
O O15 0.694066 0.500000 0.750000
O O16 0.500000 0.563511 0.750000
O O17 0.641307 0.543804 0.000000
O O18 0.500000 0.301461 0.750000
O O19 0.356122 0.281628 0.500000
#
# Coordination Sequence:
#
# PCOD8204628 Si02
#       6
#     8   8   8   8   8   8
#     4  11  23  39  58  81 111 146 185 229 279 334
#     4   9  19  33  51  76 106 139 177 223 271 325
#     4  11  24  41  61  88 121 156 194 236 285 338
#     4   9  15  25  42  68 100 132 169 214 266 318
#     4  11  22  39  63  90 121 157 199 244 290 339
#     4  11  24  41  63  89 117 149 187 232 280 333
#
# _framework density 19.554822000000001
#
# number of rings (size 3 to 8) (size 9 to 14) (size 15 to 20)
#    0.000    1.667    0.000    6.000    0.000    9.000 
#    0.000    1.667    0.000    0.500    0.000    3.500 
#    0.000    0.000    0.000    0.000    0.000    0.000 
#
# Total GULP energy -595156.609906 kJ/mol
# GULP energy per Si atom -12399.096040 kJ/mol
# Density = 1.951031 g / cm^3
# Si number density = 19.554822 Si / 1000 Ang^3
#
#
#
# Elastic Constant Matrix: (Units=GPa)
#
#
# Indices 1 2 3 4 5 6 
#
# 1 106.6503 47.0260 44.0866 0.0000 0.0000 0.0000
# 2 47.0260 116.0300 54.5134 0.0000 0.0000 0.0000
# 3 44.0866 54.5134 113.9181 0.0000 0.0000 0.0000
# 4 0.0000 0.0000 0.0000 30.2140 0.0000 0.0000
# 5 0.0000 0.0000 0.0000 0.0000 27.8324 0.0000
# 6 0.0000 0.0000 0.0000 0.0000 0.0000 -28.1969
#
#
#
# Elastic Compliance Matrix: (Units=1/GPa)
#
#
# Indices 1 2 3 4 5 6 
#
# 1 0.012178 -0.003511 -0.003033 0.000000 0.000000 0.000000
# 2 -0.003511 0.012130 -0.004446 0.000000 0.000000 0.000000
# 3 -0.003033 -0.004446 0.012080 0.000000 0.000000 0.000000
# 4 0.000000 0.000000 0.000000 0.033097 0.000000 0.000000
# 5 0.000000 0.000000 0.000000 0.000000 0.035929 0.000000
# 6 0.000000 0.000000 0.000000 0.000000 0.000000 -0.035465
#
#
# Mechanical properties :
#
#
# Convention : Reuss Voigt Hill
#
# Bulk Modulus (GPa) = 69.40370 69.76114 69.58242
# Shear Modulus (GPa) = 51.68920 18.70139 35.19530
#
# Velocity S-wave (km/s) = 5.14688 3.09586 4.24704
# Velocity P-wave (km/s) = 8.41958 6.96643 7.72724
#
# Compressibility (1/GPa) = 0.01440845
#
# Stress axis : x y z
#
# Youngs Moduli (GPa) = 82.11377 82.43903 82.78447
#
# Poissons Ratio (x) = 0.28942 0.25108
# Poissons Ratio (y) = 0.28828 0.36806
# Poissons Ratio (z) = 0.24905 0.36652
#
# Static dielectric constant tensor:
#      x y z
#    x 3.405210 0.000000 0.000000 
#    y 0.000000 4.332890 0.000000 
#    z 0.000000 0.000000 3.802270 
# 
# 
# High freq. dielectric constant tensor:
#      x y z
#    x 1.739050 0.000000 0.000000 
#    y 0.000000 1.786800 0.000000 
#    z 0.000000 0.000000 1.776090 
# 
# From -- ./inp_files/2067.got.cif
#   From: 2010.03.12/outbox.cif.g09.slc.cpg/sg49_2_cif.got.tgz:2067.got - 2010.04.14 03:58:27.
